data_PCOD8105301
_publ_section_title
;
Structure prediction by ZEFSAII (Michael W. Deem and Ramdas Pophale) SiO2 
 PCOD8105301
Probable space group: C 2/M
;
_chemical_formula_sum "Si O2"
_cell_formula_units_Z 40
_cell_length_a 14.763348
_cell_length_b 23.633856
_cell_length_c 8.694928
_cell_angle_alpha 90.000000
_cell_angle_beta 41.010694
_cell_angle_gamma 90.000000
_cell_volume 1990.772254
_symmetry_space_group_name_H-M "C 2/M"
_symmetry_group_IT_number 12
_symmetry_cell_setting 'monoclinic'
loop_
_space_group_symop_operation_xyz
x,y,z
-x,y,-z
-x,-y,-z
x,-y,z
1/2+x,1/2+y,z
1/2-x,1/2+y,-z
1/2-x,1/2-y,-z
1/2+x,1/2-y,z
loop_
_atom_site_type_symbol
_atom_site_label
_atom_site_fract_x
_atom_site_fract_y
_atom_site_fract_z
Si Si1 0.195126 0.192674 0.144030
Si Si2 0.020343 0.653647 0.151892
Si Si3 0.618304 0.934741 0.472805
Si Si4 0.863457 0.140222 0.073600
Si Si5 0.669696 0.764658 0.451147
O O1 0.130523 0.210663 0.393248
O O2 0.250000 0.250000 0.000000
O O3 0.318540 0.147772 0.019478
O O4 0.095690 0.155741 0.156837
O O5 0.929040 0.598783 0.313205
O O6 0.973886 0.706831 0.317075
O O7 0.000000 0.668095 0.000000
O O8 0.500000 0.923123 0.500000
O O9 0.768138 0.915380 0.217231
O O10 0.630367 0.000000 0.502423
O O11 0.769223 0.192858 0.236492
O O12 0.000000 0.133585 0.000000
O O13 0.750000 0.750000 0.500000
#
# Coordination Sequence:
#
# PCOD8105301 Si02
#       5
#     8   8   8   8   8
#     4  10  21  34  53  81 120 158 192 232 285 342
#     4  11  21  37  57  85 117 153 202 238 285 352
#     4  10  21  40  64  86 111 148 200 259 302 341
#     4  10  22  38  56  85 117 154 201 239 291 359
#     4  10  21  33  54  83 118 159 194 233 281 348
#
# _framework density 20.092706
#
# number of rings (size 3 to 8) (size 9 to 14) (size 15 to 20)
#    0.000    1.800    4.000    0.000    5.600    0.800 
#    0.000    0.000    0.000    0.000    0.000    1.400 
#    0.000    0.000    0.000    0.000    0.000    0.000 
#
# Total GULP energy -247803.843378 kJ/mol
# GULP energy per Si atom -12390.192169 kJ/mol
# Density = 2.004697 g / cm^3
# Si number density = 20.092706 Si / 1000 Ang^3
#
#
#
# Elastic Constant Matrix: (Units=GPa)
#
#
# Indices 1 2 3 4 5 6 
#
# 1 147.6565 38.4736 50.4454 0.0000 -0.9216 0.0000
# 2 38.4736 88.9101 48.3891 0.0000 7.0993 0.0000
# 3 50.4454 48.3891 87.0343 0.0000 15.7787 0.0000
# 4 0.0000 0.0000 0.0000 15.5993 0.0000 -1.7800
# 5 -0.9216 7.0993 15.7787 0.0000 36.6591 0.0000
# 6 0.0000 0.0000 0.0000 -1.7800 0.0000 21.9986
#
#
#
# Elastic Compliance Matrix: (Units=1/GPa)
#
#
# Indices 1 2 3 4 5 6 
#
# 1 0.008785 -0.001409 -0.004771 0.000000 0.002547 0.000000
# 2 -0.001409 0.016375 -0.008358 0.000000 0.000391 0.000000
# 3 -0.004771 -0.008358 0.020207 0.000000 -0.007199 0.000000
# 4 0.000000 0.000000 0.000000 0.064703 0.000000 0.005235
# 5 0.002547 0.000391 -0.007199 0.000000 0.030365 0.000000
# 6 0.000000 0.000000 0.000000 0.005235 0.000000 0.045881
#
#
# Mechanical properties :
#
#
# Convention : Reuss Voigt Hill
#
# Bulk Modulus (GPa) = 61.38110 66.46859 63.92485
# Shear Modulus (GPa) = 22.64273 27.27091 24.95682
#
# Velocity S-wave (km/s) = 3.36059 3.68809 3.52814
# Velocity P-wave (km/s) = 6.75821 7.16162 6.96284
#
# Compressibility (1/GPa) = 0.01629166
#
# Stress axis : x y z
#
# Youngs Moduli (GPa) = 113.82772 61.07002 49.48809
#
# Poissons Ratio (x) = 0.08602 0.23608
# Poissons Ratio (y) = 0.16034 0.41364
# Poissons Ratio (z) = 0.54302 0.51045
#
# Static dielectric constant tensor:
#      x y z
#    x 3.852240 0.000000 0.224550 
#    y 0.000000 3.466750 0.000000 
#    z 0.224550 0.000000 3.947110 
# 
# 
# High freq. dielectric constant tensor:
#      x y z
#    x 1.802080 0.000000 0.007290 
#    y 0.000000 1.742070 0.000000 
#    z 0.007290 0.000000 1.781890 
# 
# From -- ./inp_files/50433.got.cif
#   From: 2010.06.25/outbox.cif.g09.slc.cpg/sg12_26_cif.got.tgz:50433.got - 2010.06.28 00:19:55.
