data_PCOD8105515
_publ_section_title
;
Structure prediction by ZEFSAII (Michael W. Deem and Ramdas Pophale) SiO2 
 PCOD8105515
Probable space group: C 2/M
;
_chemical_formula_sum "Si O2"
_cell_formula_units_Z 64
_cell_length_a 28.735644
_cell_length_b 13.533545
_cell_length_c 9.572385
_cell_angle_alpha 90.000000
_cell_angle_beta 61.981589
_cell_angle_gamma 90.000000
_cell_volume 3286.346562
_symmetry_space_group_name_H-M "C 2/M"
_symmetry_group_IT_number 12
_symmetry_cell_setting 'monoclinic'
loop_
_space_group_symop_operation_xyz
x,y,z
-x,y,-z
-x,-y,-z
x,-y,z
1/2+x,1/2+y,z
1/2-x,1/2+y,-z
1/2-x,1/2-y,-z
1/2+x,1/2-y,z
loop_
_atom_site_type_symbol
_atom_site_label
_atom_site_fract_x
_atom_site_fract_y
_atom_site_fract_z
Si Si1 0.173833 0.608432 0.739291
Si Si2 0.204244 0.258161 0.247683
Si Si3 0.617590 0.611733 0.375188
Si Si4 0.375085 0.304984 0.218176
Si Si5 0.762311 0.112888 0.398230
Si Si6 0.035895 0.887390 0.717332
Si Si7 0.713499 0.887528 0.985751
Si Si8 0.582461 0.614794 0.114884
O O1 0.153230 0.500000 0.724056
O O2 0.132586 0.688590 0.742900
O O3 0.231225 0.627897 0.588108
O O4 0.176483 0.617022 0.902466
O O5 0.155118 0.198350 0.384893
O O6 0.239568 0.311493 0.315134
O O7 0.233902 0.173141 0.119737
O O8 0.185059 0.340452 0.162161
O O9 0.639722 0.500000 0.371646
O O10 0.560873 0.622537 0.528499
O O11 0.610199 0.631458 0.222938
O O12 0.323518 0.364489 0.342890
O O13 0.428100 0.332970 0.221362
O O14 0.382273 0.325464 0.044099
O O15 0.756551 0.000000 0.353002
O O16 0.977208 0.842535 0.798230
O O17 0.033124 0.000000 0.770031
O O18 0.729274 0.000000 0.998182
O O19 0.581972 0.500000 0.074446
#
# Coordination Sequence:
#
# PCOD8105515 Si02
#       8
#     8   8   8   8   8   8   8   8
#     4  10  22  38  54  77 110 146 182 222 265 311
#     4  11  21  35  52  80 110 144 180 221 260 320
#     4  10  21  35  56  81 109 145 182 219 268 327
#     4  12  21  36  56  81 107 145 185 217 267 323
#     4  11  23  36  53  80 115 148 178 220 264 318
#     4  10  21  36  56  82 110 140 177 225 277 327
#     4  10  21  35  51  72 108 145 180 219 257 305
#     4  10  21  37  56  81 111 139 176 228 278 324
#
# _framework density 19.474513000000002
#
# number of rings (size 3 to 8) (size 9 to 14) (size 15 to 20)
#    0.000    1.500    1.250    4.500    3.500    2.500 
#    0.000    0.000    0.000    1.500    0.000    0.000 
#    0.000   10.000    0.000    0.000    0.000    0.000 
#
# Total GULP energy -396764.794008 kJ/mol
# GULP energy per Si atom -12398.899813 kJ/mol
# Density = 1.943019 g / cm^3
# Si number density = 19.474513 Si / 1000 Ang^3
#
#
#
# Elastic Constant Matrix: (Units=GPa)
#
#
# Indices 1 2 3 4 5 6 
#
# 1 53.4373 28.2592 -8.2963 0.0000 -5.9266 0.0000
# 2 28.2592 115.2655 19.3665 0.0000 -4.8682 0.0000
# 3 -8.2963 19.3665 46.1154 0.0000 3.8308 0.0000
# 4 0.0000 0.0000 0.0000 22.9335 0.0000 -0.3958
# 5 -5.9266 -4.8682 3.8308 0.0000 25.4860 0.0000
# 6 0.0000 0.0000 0.0000 -0.3958 0.0000 19.7470
#
#
#
# Elastic Compliance Matrix: (Units=1/GPa)
#
#
# Indices 1 2 3 4 5 6 
#
# 1 0.023756 -0.006847 0.006885 0.000000 0.003182 0.000000
# 2 -0.006847 0.011455 -0.006169 0.000000 0.001523 0.000000
# 3 0.006885 -0.006169 0.025801 0.000000 -0.003455 0.000000
# 4 0.000000 0.000000 0.000000 0.043619 0.000000 0.000874
# 5 0.003182 0.001523 -0.003455 0.000000 0.040787 0.000000
# 6 0.000000 0.000000 0.000000 0.000874 0.000000 0.050658
#
#
# Mechanical properties :
#
#
# Convention : Reuss Voigt Hill
#
# Bulk Modulus (GPa) = 20.51258 32.60857 26.56058
# Shear Modulus (GPa) = 22.26294 25.33254 23.79774
#
# Velocity S-wave (km/s) = 3.38477 3.61058 3.49950
# Velocity P-wave (km/s) = 5.08246 5.84485 5.47694
#
# Compressibility (1/GPa) = 0.04875058
#
# Stress axis : x y z
#
# Youngs Moduli (GPa) = 42.09480 87.29841 38.75815
#
# Poissons Ratio (x) = 0.59769 -0.26684
# Poissons Ratio (y) = 0.28820 0.23909
# Poissons Ratio (z) = -0.28981 0.53853
#
# Static dielectric constant tensor:
#      x y z
#    x 3.229390 0.000000 -0.033130 
#    y 0.000000 3.757670 0.000000 
#    z -0.033130 0.000000 3.732500 
# 
# 
# High freq. dielectric constant tensor:
#      x y z
#    x 1.730870 0.000000 0.010600 
#    y 0.000000 1.755190 0.000000 
#    z 0.010600 0.000000 1.770270 
# 
# From -- ./inp_files/104492.got.cif
#   From: 2010.06.25/outbox.cif.g09.slc.cpg/sg12_53_cif.got.tgz:104492.got - 2010.06.28 00:19:55.
