data_PCOD8105537
_publ_section_title
;
Structure prediction by ZEFSAII (Michael W. Deem and Ramdas Pophale) SiO2 
 PCOD8105537
Probable space group: C 2/M
;
_chemical_formula_sum "Si O2"
_cell_formula_units_Z 56
_cell_length_a 31.487750
_cell_length_b 9.104215
_cell_length_c 12.521650
_cell_angle_alpha 90.000000
_cell_angle_beta 123.557518
_cell_angle_gamma 90.000000
_cell_volume 2991.323627
_symmetry_space_group_name_H-M "C 2/M"
_symmetry_group_IT_number 12
_symmetry_cell_setting 'monoclinic'
loop_
_space_group_symop_operation_xyz
x,y,z
-x,y,-z
-x,-y,-z
x,-y,z
1/2+x,1/2+y,z
1/2-x,1/2+y,-z
1/2-x,1/2-y,-z
1/2+x,1/2-y,z
loop_
_atom_site_type_symbol
_atom_site_label
_atom_site_fract_x
_atom_site_fract_y
_atom_site_fract_z
Si Si1 0.101452 0.672662 0.551566
Si Si2 0.189362 0.329142 0.513141
Si Si3 0.709760 0.826923 0.303483
Si Si4 0.109009 0.170622 0.773068
Si Si5 0.518539 0.831316 0.910786
Si Si6 0.366018 0.830267 0.984646
Si Si7 0.007233 0.829839 0.329255
O O1 0.095376 0.500000 0.561256
O O2 0.136748 0.709808 0.498898
O O3 0.126812 0.744169 0.691852
O O4 0.046146 0.743074 0.458069
O O5 0.202038 0.500000 0.540557
O O6 0.235029 0.244191 0.634640
O O7 0.184996 0.280952 0.383016
O O8 0.673840 0.770384 0.158088
O O9 0.716081 0.000000 0.305779
O O10 0.048963 0.197772 0.703903
O O11 0.122446 0.000000 0.780919
O O12 0.140037 0.235572 0.916415
O O13 0.488963 0.730952 0.785305
O O14 0.503314 0.000000 0.867125
O O15 0.500000 0.779038 0.000000
O O16 0.578720 0.807928 0.989680
O O17 0.356288 0.000000 0.999753
O O18 0.022155 0.000000 0.351358
#
# Coordination Sequence:
#
# PCOD8105537 Si02
#       7
#     8   8   8   8   8   8   8
#     4  11  22  35  56  80 106 139 181 224 263 313
#     4   9  20  36  55  81 109 135 171 220 267 315
#     4   9  18  35  58  80 107 138 171 215 266 318
#     4  10  21  37  54  76 109 143 178 220 264 313
#     4   9  18  31  51  77 107 142 178 216 258 311
#     4   9  18  33  55  79 104 139 179 215 260 316
#     4  10  21  35  51  75 109 145 178 217 265 312
#
# _framework density 18.72081
#
# number of rings (size 3 to 8) (size 9 to 14) (size 15 to 20)
#    0.000    2.429    0.000    1.714    2.000    5.429 
#    0.000    0.714    0.000    0.000    0.000    0.000 
#    0.000    0.000    0.000    0.000    0.000    0.000 
#
# Total GULP energy -347282.920180 kJ/mol
# GULP energy per Si atom -12402.961435 kJ/mol
# Density = 1.867820 g / cm^3
# Si number density = 18.720810 Si / 1000 Ang^3
#
#
#
# Elastic Constant Matrix: (Units=GPa)
#
#
# Indices 1 2 3 4 5 6 
#
# 1 39.7404 30.2154 32.2189 0.0000 -6.7795 0.0000
# 2 30.2154 79.6098 56.1041 0.0000 -4.2749 0.0000
# 3 32.2189 56.1041 141.8188 0.0000 -0.1688 0.0000
# 4 0.0000 0.0000 0.0000 34.7506 0.0000 1.6682
# 5 -6.7795 -4.2749 -0.1688 0.0000 24.7636 0.0000
# 6 0.0000 0.0000 0.0000 1.6682 0.0000 23.1807
#
#
#
# Elastic Compliance Matrix: (Units=1/GPa)
#
#
# Indices 1 2 3 4 5 6 
#
# 1 0.038631 -0.011122 -0.004366 0.000000 0.008626 0.000000
# 2 -0.011122 0.020839 -0.005717 0.000000 0.000514 0.000000
# 3 -0.004366 -0.005717 0.010302 0.000000 -0.002112 0.000000
# 4 0.000000 0.000000 0.000000 0.028876 0.000000 -0.002078
# 5 0.008626 0.000514 -0.002112 0.000000 0.042818 0.000000
# 6 0.000000 0.000000 0.000000 -0.002078 0.000000 0.043289
#
#
# Mechanical properties :
#
#
# Convention : Reuss Voigt Hill
#
# Bulk Modulus (GPa) = 36.54634 55.36065 45.95349
# Shear Modulus (GPa) = 21.16091 26.04769 23.60430
#
# Velocity S-wave (km/s) = 3.36570 3.73416 3.55471
# Velocity P-wave (km/s) = 5.88796 6.94463 6.43801
#
# Compressibility (1/GPa) = 0.02736252
#
# Stress axis : x y z
#
# Youngs Moduli (GPa) = 25.88606 47.98734 97.06692
#
# Poissons Ratio (x) = 0.53371 0.42381
# Poissons Ratio (y) = 0.28790 0.55489
# Poissons Ratio (z) = 0.11302 0.27432
#
# Static dielectric constant tensor:
#      x y z
#    x 3.281230 0.000000 -0.133230 
#    y 0.000000 3.407750 0.000000 
#    z -0.133230 0.000000 3.586880 
# 
# 
# High freq. dielectric constant tensor:
#      x y z
#    x 1.710080 0.000000 -0.011050 
#    y 0.000000 1.725880 0.000000 
#    z -0.011050 0.000000 1.734040 
# 
# From -- ./inp_files/181149.got.cif
#   From: 2010.06.25/outbox.cif.g09.slc.cpg/sg12_91_cif.got.tgz:181149.got - 2010.06.28 00:19:55.
