data_PCOD8105296
_publ_section_title
;
Structure prediction by ZEFSAII (Michael W. Deem and Ramdas Pophale) SiO2 
 PCOD8105296
Probable space group: C 2/M
;
_chemical_formula_sum "Si O2"
_cell_formula_units_Z 40
_cell_length_a 27.663362
_cell_length_b 7.678666
_cell_length_c 19.839084
_cell_angle_alpha 90.000000
_cell_angle_beta 150.785212
_cell_angle_gamma 90.000000
_cell_volume 2056.874359
_symmetry_space_group_name_H-M "C 2/M"
_symmetry_group_IT_number 12
_symmetry_cell_setting 'monoclinic'
loop_
_space_group_symop_operation_xyz
x,y,z
-x,y,-z
-x,-y,-z
x,-y,z
1/2+x,1/2+y,z
1/2-x,1/2+y,-z
1/2-x,1/2-y,-z
1/2+x,1/2-y,z
loop_
_atom_site_type_symbol
_atom_site_label
_atom_site_fract_x
_atom_site_fract_y
_atom_site_fract_z
Si Si1 0.313300 0.799816 0.729853
Si Si2 0.187654 0.197040 0.122302
Si Si3 0.161937 0.000000 0.716020
Si Si4 0.980043 0.000000 0.584482
Si Si5 0.119399 0.192441 0.428109
Si Si6 0.472559 0.293258 0.818866
O O1 0.328406 0.695934 0.816979
O O2 0.220272 0.713609 0.575951
O O3 0.412198 0.790999 0.806447
O O4 0.288326 0.000000 0.718517
O O5 0.273897 0.324983 0.203303
O O6 0.214433 0.000000 0.132481
O O7 0.086617 0.262339 0.964278
O O8 0.093197 0.000000 0.698687
O O9 0.095305 0.000000 0.568911
O O10 0.958446 0.172392 0.604115
O O11 0.068632 0.285682 0.302158
O O12 0.152175 0.000000 0.443027
O O13 0.463538 0.500000 0.811890
#
# Coordination Sequence:
#
# PCOD8105296 Si02
#       6
#     8   8   4   4   8   8
#     4  11  19  33  56  84 113 158 194 228 278 341
#     4  11  22  37  57  85 119 151 188 235 286 338
#     4  11  20  40  66  87 106 146 195 249 283 341
#     4   9  18  38  69  80 106 153 187 241 309 313
#     4   8  16  35  55  79 111 151 186 235 280 338
#     4  10  21  33  53  79 121 154 184 225 286 340
#
# _framework density 19.446984
#
# number of rings (size 3 to 8) (size 9 to 14) (size 15 to 20)
#    0.600    1.400    3.000    1.800    1.400    2.400 
#    0.000    4.000    0.000    0.000    0.000    0.000 
#    0.000    0.000    0.000    0.000    0.000    0.000 
#
# Total GULP energy -247893.021581 kJ/mol
# GULP energy per Si atom -12394.651079 kJ/mol
# Density = 1.940272 g / cm^3
# Si number density = 19.446984 Si / 1000 Ang^3
#
#
#
# Elastic Constant Matrix: (Units=GPa)
#
#
# Indices 1 2 3 4 5 6 
#
# 1 84.3330 21.9462 24.3639 0.0000 27.7560 0.0000
# 2 21.9462 54.4580 27.8949 0.0000 14.9046 0.0000
# 3 24.3639 27.8949 125.1792 0.0000 7.8099 0.0000
# 4 0.0000 0.0000 0.0000 14.5969 0.0000 3.8790
# 5 27.7560 14.9046 7.8099 0.0000 29.8175 0.0000
# 6 0.0000 0.0000 0.0000 3.8790 0.0000 10.5625
#
#
#
# Elastic Compliance Matrix: (Units=1/GPa)
#
#
# Indices 1 2 3 4 5 6 
#
# 1 0.017988 -0.002015 -0.002105 0.000000 -0.015186 0.000000
# 2 -0.002015 0.023848 -0.004367 0.000000 -0.008901 0.000000
# 3 -0.002105 -0.004367 0.009264 0.000000 0.001715 0.000000
# 4 0.000000 0.000000 0.000000 0.075917 0.000000 -0.027880
# 5 -0.015186 -0.008901 0.001715 0.000000 0.051674 0.000000
# 6 0.000000 0.000000 0.000000 -0.027880 0.000000 0.104914
#
#
# Mechanical properties :
#
#
# Convention : Reuss Voigt Hill
#
# Bulk Modulus (GPa) = 29.30155 45.82004 37.56079
# Shear Modulus (GPa) = 16.02806 23.64637 19.83722
#
# Velocity S-wave (km/s) = 2.87399 3.49082 3.19731
# Velocity P-wave (km/s) = 5.11011 6.31351 5.74341
#
# Compressibility (1/GPa) = 0.03412789
#
# Stress axis : x y z
#
# Youngs Moduli (GPa) = 55.59178 41.93286 107.94197
#
# Poissons Ratio (x) = 0.08448 0.22718
# Poissons Ratio (y) = 0.11200 0.47135
# Poissons Ratio (z) = 0.11700 0.18311
#
# Static dielectric constant tensor:
#      x y z
#    x 3.415520 0.000000 -0.087110 
#    y 0.000000 3.188780 0.000000 
#    z -0.087110 0.000000 3.854360 
# 
# 
# High freq. dielectric constant tensor:
#      x y z
#    x 1.737100 0.000000 -0.005550 
#    y 0.000000 1.727120 0.000000 
#    z -0.005550 0.000000 1.772390 
# 
# From -- ./inp_files/292341.got.cif
#   From: 2010.06.25/outbox.cif.g09.slc.cpg/sg12_147_cif.got.tgz:292341.got - 2010.06.28 00:19:55.
