data_PCOD8105874
_publ_section_title
;
Structure prediction by ZEFSAII (Michael W. Deem and Ramdas Pophale) SiO2 
 PCOD8105874
Probable space group: C 2/M
;
_chemical_formula_sum "Si O2"
_cell_formula_units_Z 40
_cell_length_a 22.020434
_cell_length_b 14.793046
_cell_length_c 7.715555
_cell_angle_alpha 90.000000
_cell_angle_beta 51.347699
_cell_angle_gamma 90.000000
_cell_volume 1962.791852
_symmetry_space_group_name_H-M "C 2/M"
_symmetry_group_IT_number 12
_symmetry_cell_setting 'monoclinic'
loop_
_space_group_symop_operation_xyz
x,y,z
-x,y,-z
-x,-y,-z
x,-y,z
1/2+x,1/2+y,z
1/2-x,1/2+y,-z
1/2-x,1/2-y,-z
1/2+x,1/2-y,z
loop_
_atom_site_type_symbol
_atom_site_label
_atom_site_fract_x
_atom_site_fract_y
_atom_site_fract_z
Si Si1 0.064318 0.313535 0.020394
Si Si2 0.000000 0.728760 0.500000
Si Si3 0.793387 0.801375 0.157957
Si Si4 0.638478 0.000000 0.809651
Si Si5 0.769570 0.000000 0.328077
Si Si6 0.801088 0.000000 0.645625
Si Si7 0.156003 0.807943 0.313698
O O1 0.038116 0.325171 0.270016
O O2 0.136607 0.244897 0.859568
O O3 0.085714 0.413161 0.921741
O O4 0.000000 0.277183 0.000000
O O5 0.935328 0.786924 0.513024
O O6 0.788044 0.909204 0.189873
O O7 0.710948 0.750464 0.348808
O O8 0.814290 0.780137 0.925596
O O9 0.678783 0.000000 0.546925
O O10 0.706915 0.000000 0.833821
O O11 0.824036 0.000000 0.401596
O O12 0.837246 0.913796 0.670894
#
# Coordination Sequence:
#
# PCOD8105874 Si02
#       7
#     8   4   8   4   4   4   8
#     4  11  24  43  65  93 134 165 210 265 314 380
#     4  10  26  40  64  98 120 180 208 258 328 360
#     4  10  21  41  64  91 122 169 213 257 312 380
#     4  10  23  39  59 102 125 164 213 252 320 383
#     4  10  23  36  66 100 118 160 220 252 320 374
#     4  10  21  35  64  88 120 165 204 257 307 371
#     4  10  21  41  63  88 128 163 215 259 312 376
#
# _framework density 20.379135000000002
#
# number of rings (size 3 to 8) (size 9 to 14) (size 15 to 20)
#    0.600    1.200    2.000    0.900    5.600    2.400 
#    0.000    1.500    0.000    0.000    0.000    0.000 
#    0.000    0.000    0.000    0.000    0.000    0.000 
#
# Total GULP energy -247789.177738 kJ/mol
# GULP energy per Si atom -12389.458887 kJ/mol
# Density = 2.033275 g / cm^3
# Si number density = 20.379135 Si / 1000 Ang^3
#
#
#
# Elastic Constant Matrix: (Units=GPa)
#
#
# Indices 1 2 3 4 5 6 
#
# 1 142.2221 54.5265 26.9446 0.0000 -27.0171 0.0000
# 2 54.5265 147.9519 13.4706 0.0000 -26.5320 0.0000
# 3 26.9446 13.4706 59.6456 0.0000 -13.3903 0.0000
# 4 0.0000 0.0000 0.0000 9.4765 0.0000 -8.3347
# 5 -27.0171 -26.5320 -13.3903 0.0000 29.1544 0.0000
# 6 0.0000 0.0000 0.0000 -8.3347 0.0000 15.3089
#
#
#
# Elastic Compliance Matrix: (Units=1/GPa)
#
#
# Indices 1 2 3 4 5 6 
#
# 1 0.009420 -0.002252 -0.002505 0.000000 0.005529 0.000000
# 2 -0.002252 0.008617 0.000405 0.000000 0.005942 0.000000
# 3 -0.002505 0.000405 0.019364 0.000000 0.006940 0.000000
# 4 0.000000 0.000000 0.000000 0.202476 0.000000 0.110235
# 5 0.005529 0.005942 0.006940 0.000000 0.048019 0.000000
# 6 0.000000 0.000000 0.000000 0.110235 0.000000 0.125337
#
#
# Mechanical properties :
#
#
# Convention : Reuss Voigt Hill
#
# Bulk Modulus (GPa) = 34.84748 59.96697 47.40723
# Shear Modulus (GPa) = 11.58738 27.77981 19.68360
#
# Velocity S-wave (km/s) = 2.38710 3.69609 3.11122
# Velocity P-wave (km/s) = 4.97337 6.90683 6.01825
#
# Compressibility (1/GPa) = 0.02869648
#
# Stress axis : x y z
#
# Youngs Moduli (GPa) = 106.16173 116.04314 51.64173
#
# Poissons Ratio (x) = 0.26132 0.12938
# Poissons Ratio (y) = 0.23906 -0.02091
# Poissons Ratio (z) = 0.26598 -0.04699
#
# Static dielectric constant tensor:
#      x y z
#    x 4.033250 0.000000 -0.212360 
#    y 0.000000 3.400930 0.000000 
#    z -0.212360 0.000000 3.649350 
# 
# 
# High freq. dielectric constant tensor:
#      x y z
#    x 1.804840 0.000000 -0.003570 
#    y 0.000000 1.789680 0.000000 
#    z -0.003570 0.000000 1.786840 
# 
# From -- ./inp_files/84982.got.cif
#   From: 2010.06.25/outbox.cif.g09.slc.cpg/sg12_43_cif.got.tgz:84982.got - 2010.06.28 00:19:55.
