data_PCOD8105562
_publ_section_title
;
Structure prediction by ZEFSAII (Michael W. Deem and Ramdas Pophale) SiO2 
 PCOD8105562
Probable space group: C 2/M
;
_chemical_formula_sum "Si O2"
_cell_formula_units_Z 56
_cell_length_a 20.540314
_cell_length_b 8.913137
_cell_length_c 21.047004
_cell_angle_alpha 90.000000
_cell_angle_beta 47.731459
_cell_angle_gamma 90.000000
_cell_volume 2851.411933
_symmetry_space_group_name_H-M "C 2/M"
_symmetry_group_IT_number 12
_symmetry_cell_setting 'monoclinic'
loop_
_space_group_symop_operation_xyz
x,y,z
-x,y,-z
-x,-y,-z
x,-y,z
1/2+x,1/2+y,z
1/2-x,1/2+y,-z
1/2-x,1/2-y,-z
1/2+x,1/2-y,z
loop_
_atom_site_type_symbol
_atom_site_label
_atom_site_fract_x
_atom_site_fract_y
_atom_site_fract_z
Si Si1 0.665837 0.324556 0.729490
Si Si2 0.520758 0.178385 0.585564
Si Si3 0.306668 0.828270 0.048926
Si Si4 0.862996 0.321850 0.605928
Si Si5 0.455471 0.177190 0.288601
Si Si6 0.381441 0.328372 0.880475
Si Si7 0.905080 0.825902 0.089028
O O1 0.669676 0.500000 0.712160
O O2 0.763806 0.260849 0.679245
O O3 0.629018 0.243773 0.691383
O O4 0.602269 0.290872 0.831195
O O5 0.597424 0.233305 0.487514
O O6 0.425878 0.236996 0.621825
O O7 0.540248 0.243759 0.642708
O O8 0.518753 0.000000 0.589834
O O9 0.202390 0.809571 0.110015
O O10 0.331288 0.773803 0.103040
O O11 0.334973 0.000000 0.018951
O O12 0.358266 0.721577 0.966654
O O13 0.862977 0.500000 0.607734
O O14 0.543501 0.222115 0.194724
O O15 0.446850 0.000000 0.294666
O O16 0.414712 0.500000 0.861361
O O17 0.885478 0.000000 0.088442
O O18 0.000000 0.778063 0.000000
#
# Coordination Sequence:
#
# PCOD8105562 Si02
#       7
#     8   8   8   8   8   8   8
#     4  10  21  35  55  80 110 151 193 228 274 335
#     4   8  16  31  54  82 110 139 181 235 282 324
#     4  10  21  36  56  81 106 141 183 231 281 323
#     4   8  15  32  55  80 108 142 186 232 275 331
#     4  11  22  34  54  83 113 145 181 231 283 326
#     4  10  21  37  55  78 111 145 182 225 273 333
#     4  10  21  35  52  76 109 149 189 228 270 323
#
# _framework density 19.639392000000001
#
# number of rings (size 3 to 8) (size 9 to 14) (size 15 to 20)
#    0.000    2.429    0.000    3.000    2.000    4.286 
#    0.000    0.000    0.000    0.857    0.000    5.000 
#    0.000    0.000    0.000    0.000    0.000    0.000 
#
# Total GULP energy -347201.109632 kJ/mol
# GULP energy per Si atom -12400.039630 kJ/mol
# Density = 1.959469 g / cm^3
# Si number density = 19.639392 Si / 1000 Ang^3
#
#
#
# Elastic Constant Matrix: (Units=GPa)
#
#
# Indices 1 2 3 4 5 6 
#
# 1 142.5737 40.1158 65.5512 0.0000 9.6495 0.0000
# 2 40.1158 42.5219 16.0276 0.0002 2.4480 -0.0002
# 3 65.5512 16.0276 93.1554 0.0000 -7.0123 0.0000
# 4 0.0000 0.0002 0.0000 5.0343 0.0000 6.8506
# 5 9.6495 2.4480 -7.0123 0.0000 32.1889 0.0000
# 6 0.0000 -0.0002 0.0000 6.8506 0.0000 30.7911
#
#
#
# Elastic Compliance Matrix: (Units=1/GPa)
#
#
# Indices 1 2 3 4 5 6 
#
# 1 0.014087 -0.009723 -0.008644 0.000001 -0.005367 0.000000
# 2 -0.009723 0.032128 0.001372 -0.000002 0.000770 0.000001
# 3 -0.008644 0.001372 0.017048 0.000000 0.006201 0.000000
# 4 0.000001 -0.000002 0.000000 0.284884 0.000000 -0.063383
# 5 -0.005367 0.000770 0.006201 0.000000 0.033968 0.000000
# 6 0.000000 0.000001 0.000000 -0.063383 0.000000 0.046579
#
#
# Mechanical properties :
#
#
# Convention : Reuss Voigt Hill
#
# Bulk Modulus (GPa) = 34.16011 57.96003 46.06007
# Shear Modulus (GPa) = 10.58332 24.03996 17.31164
#
# Velocity S-wave (km/s) = 2.32390 3.50246 2.97219
# Velocity P-wave (km/s) = 4.96308 6.77735 5.93989
#
# Compressibility (1/GPa) = 0.02927391
#
# Stress axis : x y z
#
# Youngs Moduli (GPa) = 70.98737 31.12504 58.65818
#
# Poissons Ratio (x) = 0.30262 0.50703
# Poissons Ratio (y) = 0.69020 -0.08047
# Poissons Ratio (z) = 0.61360 -0.04270
#
# Static dielectric constant tensor:
#      x y z
#    x 3.851600 0.000000 0.026740 
#    y 0.000000 3.232030 0.000000 
#    z 0.026740 0.000000 3.607510 
# 
# 
# High freq. dielectric constant tensor:
#      x y z
#    x 1.778450 0.000000 0.001400 
#    y 0.000000 1.732290 0.000000 
#    z 0.001400 0.000000 1.760840 
# 
# From -- ./inp_files/281036.got.cif
#   From: 2010.06.25/outbox.cif.g09.slc.cpg/sg12_141_cif.got.tgz:281036.got - 2010.06.28 00:19:55.
