data_PCOD8105972
_publ_section_title
;
Structure prediction by ZEFSAII (Michael W. Deem and Ramdas Pophale) SiO2 
 PCOD8105972
Probable space group: C 2/M
;
_chemical_formula_sum "Si O2"
_cell_formula_units_Z 48
_cell_length_a 29.335135
_cell_length_b 9.023539
_cell_length_c 19.105678
_cell_angle_alpha 90.000000
_cell_angle_beta 30.965663
_cell_angle_gamma 90.000000
_cell_volume 2602.155975
_symmetry_space_group_name_H-M "C 2/M"
_symmetry_group_IT_number 12
_symmetry_cell_setting 'monoclinic'
loop_
_space_group_symop_operation_xyz
x,y,z
-x,y,-z
-x,-y,-z
x,-y,z
1/2+x,1/2+y,z
1/2-x,1/2+y,-z
1/2-x,1/2-y,-z
1/2+x,1/2-y,z
loop_
_atom_site_type_symbol
_atom_site_label
_atom_site_fract_x
_atom_site_fract_y
_atom_site_fract_z
Si Si1 0.155193 0.675156 0.627153
Si Si2 0.739555 0.674547 0.906181
Si Si3 0.417722 0.824860 0.425266
Si Si4 0.255478 0.176185 0.728087
Si Si5 0.384944 0.825713 0.825536
Si Si6 0.595067 0.672033 0.841911
O O1 0.167782 0.500000 0.615136
O O2 0.250000 0.750000 0.500000
O O3 0.102459 0.723544 0.627312
O O4 0.099121 0.732795 0.766329
O O5 0.723260 0.500000 0.927493
O O6 0.749467 0.738481 0.814826
O O7 0.828605 0.716824 0.831147
O O8 0.654713 0.749102 0.053463
O O9 0.343790 0.757754 0.575084
O O10 0.515206 0.766599 0.317988
O O11 0.414026 0.000000 0.436943
O O12 0.169808 0.228484 0.797425
O O13 0.259670 0.000000 0.724843
O O14 0.383985 0.000000 0.840984
O O15 0.610128 0.500000 0.803500
O O16 0.500000 0.700807 0.000000
#
# Coordination Sequence:
#
# PCOD8105972 Si02
#       6
#     8   8   8   8   8   8
#     4  11  21  36  56  77 106 141 176 216 261 311
#     4   9  18  32  53  77 101 131 167 208 252 305
#     4   9  18  32  52  75 102 133 167 211 257 300
#     4   9  17  32  51  74 103 131 167 212 254 297
#     4   9  18  33  52  76 102 131 166 206 257 307
#     4  10  21  36  54  77 107 141 174 215 264 311
#
# _framework density 18.446242999999999
#
# number of rings (size 3 to 8) (size 9 to 14) (size 15 to 20)
#    0.000    2.500    1.667    0.500    2.333    1.000 
#    0.000    5.000    0.000    0.000    0.000    4.667 
#    0.000    0.000    0.000    0.000    0.000    0.000 
#
# Total GULP energy -297602.098463 kJ/mol
# GULP energy per Si atom -12400.087436 kJ/mol
# Density = 1.840426 g / cm^3
# Si number density = 18.446243 Si / 1000 Ang^3
#
#
#
# Elastic Constant Matrix: (Units=GPa)
#
#
# Indices 1 2 3 4 5 6 
#
# 1 117.7499 17.6687 87.3186 -0.0019 7.7407 -0.0001
# 2 17.6687 27.5548 26.5397 -0.0098 4.7482 0.0026
# 3 87.3186 26.5397 158.1984 -0.0059 -0.8066 0.0012
# 4 -0.0019 -0.0098 -0.0059 27.7146 0.0027 4.6925
# 5 7.7407 4.7482 -0.8066 0.0027 43.5920 -0.0004
# 6 -0.0001 0.0026 0.0012 4.6925 -0.0004 20.6884
#
#
#
# Elastic Compliance Matrix: (Units=1/GPa)
#
#
# Indices 1 2 3 4 5 6 
#
# 1 0.014745 -0.001375 -0.007921 -0.000001 -0.002615 0.000001
# 2 -0.001375 0.044464 -0.006725 0.000016 -0.004723 -0.000009
# 3 -0.007921 -0.006725 0.011834 -0.000001 0.002358 0.000000
# 4 -0.000001 0.000016 -0.000001 0.037523 -0.000004 -0.008511
# 5 -0.002615 -0.004723 0.002358 -0.000004 0.023963 0.000002
# 6 0.000001 -0.000009 0.000000 -0.008511 0.000002 0.050267
#
#
# Mechanical properties :
#
#
# Convention : Reuss Voigt Hill
#
# Bulk Modulus (GPa) = 25.64044 62.95080 44.29562
# Shear Modulus (GPa) = 21.94567 29.86408 25.90487
#
# Velocity S-wave (km/s) = 3.45296 4.02802 3.75152
# Velocity P-wave (km/s) = 5.46146 7.47221 6.54452
#
# Compressibility (1/GPa) = 0.03900089
#
# Stress axis : x y z
#
# Youngs Moduli (GPa) = 67.82053 22.49033 84.50579
#
# Poissons Ratio (x) = 0.03092 0.66939
# Poissons Ratio (y) = 0.09323 0.56827
# Poissons Ratio (z) = 0.53722 0.15124
#
# Static dielectric constant tensor:
#      x y z
#    x 3.091900 0.000070 -0.059390 
#    y 0.000070 3.083260 0.000020 
#    z -0.059390 0.000020 3.678270 
# 
# 
# High freq. dielectric constant tensor:
#      x y z
#    x 1.724330 0.000000 -0.001030 
#    y 0.000000 1.676030 0.000000 
#    z -0.001030 0.000000 1.727450 
# 
# From -- ./inp_files/222576.got.cif
#   From: 2010.06.25/outbox.cif.g09.slc.cpg/sg12_112_cif.got.tgz:222576.got - 2010.06.28 00:19:55.
