data_PCOD8105219
_publ_section_title
;
Structure prediction by ZEFSAII (Michael W. Deem and Ramdas Pophale) SiO2 
 PCOD8105219
Probable space group: C 2/M
;
_chemical_formula_sum "Si O2"
_cell_formula_units_Z 56
_cell_length_a 9.169483
_cell_length_b 27.658155
_cell_length_c 16.273185
_cell_angle_alpha 90.000000
_cell_angle_beta 134.208063
_cell_angle_gamma 90.000000
_cell_volume 2958.327035
_symmetry_space_group_name_H-M "C 2/M"
_symmetry_group_IT_number 12
_symmetry_cell_setting 'monoclinic'
loop_
_space_group_symop_operation_xyz
x,y,z
-x,y,-z
-x,-y,-z
x,-y,z
1/2+x,1/2+y,z
1/2-x,1/2+y,-z
1/2-x,1/2-y,-z
1/2+x,1/2-y,z
loop_
_atom_site_type_symbol
_atom_site_label
_atom_site_fract_x
_atom_site_fract_y
_atom_site_fract_z
Si Si1 0.218288 0.554383 0.042800
Si Si2 0.126971 0.867812 0.781794
Si Si3 0.498711 0.184279 0.700011
Si Si4 0.045668 0.378089 0.860884
Si Si5 0.808296 0.749227 0.347160
Si Si6 0.674982 0.684678 0.438361
Si Si7 0.303609 0.205170 0.966454
O O1 0.304220 0.500000 0.074498
O O2 0.168476 0.572304 0.929734
O O3 0.381297 0.587790 0.156339
O O4 0.000000 0.558435 0.000000
O O5 0.306043 0.879310 0.787291
O O6 0.918334 0.861340 0.647694
O O7 0.148075 0.814982 0.835136
O O8 0.582297 0.136999 0.780253
O O9 0.398883 0.218759 0.732179
O O10 0.684831 0.212330 0.728100
O O11 0.329928 0.166267 0.568703
O O12 0.154907 0.341458 0.964082
O O13 0.809776 0.719340 0.433082
O O14 0.000228 0.784933 0.415363
O O15 0.500000 0.225472 0.000000
O O16 0.250000 0.250000 0.000000
#
# Coordination Sequence:
#
# PCOD8105219 Si02
#       7
#     8   8   8   8   8   8   8
#     4   8  15  32  53  71  91 117 152 193 240 297
#     4   9  18  29  45  68  90 119 156 189 233 274
#     4  11  19  30  44  65  96 129 165 196 220 264
#     4   9  18  29  45  68  90 119 156 189 233 274
#     4  10  21  30  42  63  94 141 172 182 215 264
#     4  11  19  30  44  65  96 129 165 196 220 264
#     4   9  19  30  39  57  91 124 148 182 219 262
#
# _framework density 18.929618000000001
#
# number of rings (size 3 to 8) (size 9 to 14) (size 15 to 20)
#    0.000    2.429    1.429    5.143    4.000    0.000 
#    0.000    0.000    0.000    0.857    0.000    6.000 
#    0.000    2.286    0.000    0.000    0.000    0.000 
#
# Total GULP energy -346866.072087 kJ/mol
# GULP energy per Si atom -12388.074003 kJ/mol
# Density = 1.888653 g / cm^3
# Si number density = 18.929618 Si / 1000 Ang^3
#
#
#
# Elastic Constant Matrix: (Units=GPa)
#
#
# Indices 1 2 3 4 5 6 
#
# 1 68.8781 26.0604 18.1430 0.0000 -16.9765 0.0000
# 2 26.0604 96.0212 41.2784 0.0000 -9.1117 0.0000
# 3 18.1430 41.2784 86.0350 0.0000 -13.9118 0.0000
# 4 0.0000 0.0000 0.0000 24.1536 0.0000 -6.1084
# 5 -16.9765 -9.1117 -13.9118 0.0000 20.6557 0.0000
# 6 0.0000 0.0000 0.0000 -6.1084 0.0000 18.0785
#
#
#
# Elastic Compliance Matrix: (Units=1/GPa)
#
#
# Indices 1 2 3 4 5 6 
#
# 1 0.019541 -0.003990 0.000119 0.000000 0.014380 0.000000
# 2 -0.003990 0.013991 -0.006064 0.000000 -0.001192 0.000000
# 3 0.000119 -0.006064 0.015813 0.000000 0.008073 0.000000
# 4 0.000000 0.000000 0.000000 0.045270 0.000000 0.015296
# 5 0.014380 -0.001192 0.008073 0.000000 0.065143 0.000000
# 6 0.000000 0.000000 0.000000 0.015296 0.000000 0.060483
#
#
# Mechanical properties :
#
#
# Convention : Reuss Voigt Hill
#
# Bulk Modulus (GPa) = 33.92735 46.87755 40.40245
# Shear Modulus (GPa) = 20.00512 23.60774 21.80643
#
# Velocity S-wave (km/s) = 3.25440 3.53531 3.39776
# Velocity P-wave (km/s) = 5.66421 6.44068 6.06489
#
# Compressibility (1/GPa) = 0.02947475
#
# Stress axis : x y z
#
# Youngs Moduli (GPa) = 51.17416 71.47446 63.23952
#
# Poissons Ratio (x) = 0.28518 -0.00752
# Poissons Ratio (y) = 0.20418 0.38348
# Poissons Ratio (z) = -0.00608 0.43342
#
# Static dielectric constant tensor:
#      x y z
#    x 3.422940 0.000000 -0.167800 
#    y 0.000000 3.192900 0.000000 
#    z -0.167800 0.000000 3.531220 
# 
# 
# High freq. dielectric constant tensor:
#      x y z
#    x 1.719410 0.000000 -0.014650 
#    y 0.000000 1.683900 0.000000 
#    z -0.014650 0.000000 1.738960 
# 
# From -- ./inp_files/185213.got.cif
#   From: 2010.06.25/outbox.cif.g09.slc.cpg/sg12_93_cif.got.tgz:185213.got - 2010.06.28 00:19:55.
