data_PCOD8105432
_publ_section_title
;
Structure prediction by ZEFSAII (Michael W. Deem and Ramdas Pophale) SiO2 
 PCOD8105432
Probable space group: C 2/M
;
_chemical_formula_sum "Si O2"
_cell_formula_units_Z 32
_cell_length_a 12.874578
_cell_length_b 18.614788
_cell_length_c 14.687039
_cell_angle_alpha 90.000000
_cell_angle_beta 148.299306
_cell_angle_gamma 90.000000
_cell_volume 1849.622729
_symmetry_space_group_name_H-M "C 2/M"
_symmetry_group_IT_number 12
_symmetry_cell_setting 'monoclinic'
loop_
_space_group_symop_operation_xyz
x,y,z
-x,y,-z
-x,-y,-z
x,-y,z
1/2+x,1/2+y,z
1/2-x,1/2+y,-z
1/2-x,1/2-y,-z
1/2+x,1/2-y,z
loop_
_atom_site_type_symbol
_atom_site_label
_atom_site_fract_x
_atom_site_fract_y
_atom_site_fract_z
Si Si1 0.652997 0.333589 0.342618
Si Si2 0.609187 0.416766 0.988992
Si Si3 0.165325 0.189573 0.551528
Si Si4 0.432394 0.083440 0.665058
O O1 0.475207 0.369785 0.156060
O O2 0.739838 0.266283 0.350637
O O3 0.569895 0.304757 0.378418
O O4 0.828100 0.391647 0.492592
O O5 0.575610 0.500000 0.940381
O O6 0.500000 0.395193 0.000000
O O7 0.837978 0.398162 0.171123
O O8 0.335124 0.127754 0.676705
O O9 0.000000 0.166782 0.500000
O O10 0.393627 0.000000 0.653289
#
# Coordination Sequence:
#
# PCOD8105432 Si02
#       4
#     8   8   8   8
#     4   9  20  36  56  77 113 144 181 231 270 316
#     4  10  21  34  55  87 112 143 184 222 280 335
#     4   9  20  37  57  81 108 147 191 219 273 332
#     4   9  19  36  55  80 111 141 183 229 269 323
#
# _framework density 17.300826000000001
#
# number of rings (size 3 to 8) (size 9 to 14) (size 15 to 20)
#    1.500    1.250    0.000    0.750    3.500    1.500 
#    0.000    5.000    0.000    3.000    0.000    0.000 
#    0.000    0.000    0.000    0.000    0.000    0.000 
#
# Total GULP energy -198291.265374 kJ/mol
# GULP energy per Si atom -12393.204086 kJ/mol
# Density = 1.726145 g / cm^3
# Si number density = 17.300826 Si / 1000 Ang^3
#
#
#
# Elastic Constant Matrix: (Units=GPa)
#
#
# Indices 1 2 3 4 5 6 
#
# 1 88.0092 35.5120 36.1111 0.0000 28.0096 0.0001
# 2 35.5120 99.7711 55.5449 -0.0001 13.3094 -0.0002
# 3 36.1111 55.5449 97.0326 0.0034 12.6049 0.0017
# 4 0.0000 -0.0001 0.0034 26.1240 0.0017 -0.1241
# 5 28.0096 13.3094 12.6049 0.0017 30.9796 0.0006
# 6 0.0001 -0.0002 0.0017 -0.1241 0.0006 19.5281
#
#
#
# Elastic Compliance Matrix: (Units=1/GPa)
#
#
# Indices 1 2 3 4 5 6 
#
# 1 0.018335 -0.002748 -0.003432 0.000001 -0.014000 0.000001
# 2 -0.002748 0.015402 -0.007662 0.000001 -0.001015 0.000001
# 3 -0.003432 -0.007662 0.015983 -0.000002 -0.000109 -0.000001
# 4 0.000001 0.000001 -0.000002 0.038280 -0.000003 0.000243
# 5 -0.014000 -0.001015 -0.000109 -0.000003 0.045418 -0.000001
# 6 0.000001 0.000001 -0.000001 0.000243 -0.000001 0.051210
#
#
# Mechanical properties :
#
#
# Convention : Reuss Voigt Hill
#
# Bulk Modulus (GPa) = 45.37899 59.90541 52.64220
# Shear Modulus (GPa) = 22.76270 25.83600 24.29935
#
# Velocity S-wave (km/s) = 3.63119 3.86857 3.75176
# Velocity P-wave (km/s) = 6.62322 7.39292 7.01863
#
# Compressibility (1/GPa) = 0.02203663
#
# Stress axis : x y z
#
# Youngs Moduli (GPa) = 54.54028 64.92597 62.56562
#
# Poissons Ratio (x) = 0.17841 0.21471
# Poissons Ratio (y) = 0.14987 0.47939
# Poissons Ratio (z) = 0.18717 0.49748
#
# Static dielectric constant tensor:
#      x y z
#    x 2.926350 0.000000 0.053720 
#    y 0.000000 3.225250 0.000000 
#    z 0.053720 0.000000 3.013770 
# 
# 
# High freq. dielectric constant tensor:
#      x y z
#    x 1.645330 0.000000 0.008820 
#    y 0.000000 1.679040 0.000000 
#    z 0.008820 0.000000 1.655850 
# 
# From -- ./inp_files/10522.got.cif
#   From: 2010.06.25/outbox.cif.g09.slc.cpg/sg12_6_cif.got.tgz:10522.got - 2010.06.28 00:19:55.
