data_PCOD8105825
_publ_section_title
;
Structure prediction by ZEFSAII (Michael W. Deem and Ramdas Pophale) SiO2 
 PCOD8105825
Probable space group: C 2/M
;
_chemical_formula_sum "Si O2"
_cell_formula_units_Z 56
_cell_length_a 21.745543
_cell_length_b 18.037143
_cell_length_c 21.513841
_cell_angle_alpha 90.000000
_cell_angle_beta 160.704207
_cell_angle_gamma 90.000000
_cell_volume 2788.401232
_symmetry_space_group_name_H-M "C 2/M"
_symmetry_group_IT_number 12
_symmetry_cell_setting 'monoclinic'
loop_
_space_group_symop_operation_xyz
x,y,z
-x,y,-z
-x,-y,-z
x,-y,z
1/2+x,1/2+y,z
1/2-x,1/2+y,-z
1/2-x,1/2-y,-z
1/2+x,1/2-y,z
loop_
_atom_site_type_symbol
_atom_site_label
_atom_site_fract_x
_atom_site_fract_y
_atom_site_fract_z
Si Si1 0.201735 0.734947 0.101389
Si Si2 0.270885 0.417369 0.219027
Si Si3 0.444337 0.916282 0.535413
Si Si4 0.288283 0.636321 0.794929
Si Si5 0.967942 0.696955 0.657642
Si Si6 0.207164 0.082460 0.620477
Si Si7 0.384282 0.212150 0.712509
O O1 0.176251 0.647102 0.088697
O O2 0.215400 0.780617 0.179122
O O3 0.379226 0.750454 0.227982
O O4 0.015995 0.756178 0.886563
O O5 0.217456 0.500000 0.143221
O O6 0.201936 0.409357 0.224423
O O7 0.489595 0.403854 0.421721
O O8 0.297190 0.864673 0.356461
O O9 0.650798 0.916793 0.702425
O O10 0.467717 0.884569 0.626877
O O11 0.368661 0.000000 0.465913
O O12 0.500000 0.605607 0.000000
O O13 0.766762 0.729788 0.453019
O O14 0.003437 0.688414 0.765142
O O15 0.292419 0.139455 0.653639
O O16 0.244887 0.000000 0.630412
#
# Coordination Sequence:
#
# PCOD8105825 Si02
#       7
#     8   8   8   8   8   8   8
#     4  11  22  35  60  86 116 150 190 235 289 341
#     4   9  19  35  56  85 123 152 179 234 292 337
#     4  10  22  39  59  84 115 152 189 233 293 346
#     4  10  21  35  58  90 116 145 184 238 292 344
#     4  10  23  41  56  82 115 152 193 245 276 334
#     4   9  19  35  57  85 116 154 189 226 286 343
#     4  11  22  38  61  82 113 154 198 234 281 333
#
# _framework density 20.083193999999999
#
# number of rings (size 3 to 8) (size 9 to 14) (size 15 to 20)
#    0.000    2.000    1.429    3.000    4.000    3.429 
#    0.000    1.429    0.000    0.000    0.000    0.000 
#    0.000    0.000    0.000    0.000    0.000    0.000 
#
# Total GULP energy -347103.051698 kJ/mol
# GULP energy per Si atom -12396.537561 kJ/mol
# Density = 2.003748 g / cm^3
# Si number density = 20.083194 Si / 1000 Ang^3
#
#
#
# Elastic Constant Matrix: (Units=GPa)
#
#
# Indices 1 2 3 4 5 6 
#
# 1 80.0588 43.9775 12.4523 0.0774 1.3084 -0.0222
# 2 43.9775 108.9581 21.4036 0.1060 -10.0407 -0.0257
# 3 12.4523 21.4036 81.4652 0.1878 -1.1800 -0.0181
# 4 0.0774 0.1060 0.1878 17.8036 0.0551 -2.7117
# 5 1.3084 -10.0407 -1.1800 0.0551 22.7379 -0.0260
# 6 -0.0222 -0.0257 -0.0181 -2.7117 -0.0260 9.7336
#
#
#
# Elastic Compliance Matrix: (Units=1/GPa)
#
#
# Indices 1 2 3 4 5 6 
#
# 1 0.016442 -0.006855 -0.000770 -0.000009 -0.004013 0.000005
# 2 -0.006855 0.012942 -0.002266 -0.000039 0.005992 0.000020
# 3 -0.000770 -0.002266 0.012984 -0.000122 -0.000282 -0.000018
# 4 -0.000009 -0.000039 -0.000122 0.058659 -0.000146 0.016342
# 5 -0.004013 0.005992 -0.000282 -0.000146 0.046842 0.000091
# 6 0.000005 0.000020 -0.000018 0.016342 0.000091 0.107290
#
#
# Mechanical properties :
#
#
# Convention : Reuss Voigt Hill
#
# Bulk Modulus (GPa) = 44.27396 47.34989 45.81193
# Shear Modulus (GPa) = 17.70103 22.89825 20.29964
#
# Velocity S-wave (km/s) = 2.97203 3.38030 3.18272
# Velocity P-wave (km/s) = 5.81983 6.23405 6.03050
#
# Compressibility (1/GPa) = 0.02258664
#
# Stress axis : x y z
#
# Youngs Moduli (GPa) = 60.82152 77.26944 77.01567
#
# Poissons Ratio (x) = 0.52965 0.05933
# Poissons Ratio (y) = 0.41691 0.17449
# Poissons Ratio (z) = 0.04685 0.17506
#
# Static dielectric constant tensor:
#      x y z
#    x 3.815930 0.000010 0.002850 
#    y 0.000010 3.450780 -0.000290 
#    z 0.002850 -0.000290 3.656050 
# 
# 
# High freq. dielectric constant tensor:
#      x y z
#    x 1.774710 -0.000010 0.009010 
#    y -0.000010 1.773190 -0.000030 
#    z 0.009010 -0.000030 1.788340 
# 
# From -- ./inp_files/322745.got.cif
#   From: 2010.06.25/outbox.cif.g09.slc.cpg/sg12_162_cif.got.tgz:322745.got - 2010.06.28 00:19:55.
