data_PCOD8105931
_publ_section_title
;
Structure prediction by ZEFSAII (Michael W. Deem and Ramdas Pophale) SiO2 
 PCOD8105931
Probable space group: C 2/M
;
_chemical_formula_sum "Si O2"
_cell_formula_units_Z 56
_cell_length_a 9.260907
_cell_length_b 27.735681
_cell_length_c 15.176340
_cell_angle_alpha 90.000000
_cell_angle_beta 48.480058
_cell_angle_gamma 90.000000
_cell_volume 2918.648310
_symmetry_space_group_name_H-M "C 2/M"
_symmetry_group_IT_number 12
_symmetry_cell_setting 'monoclinic'
loop_
_space_group_symop_operation_xyz
x,y,z
-x,y,-z
-x,-y,-z
x,-y,z
1/2+x,1/2+y,z
1/2-x,1/2+y,-z
1/2-x,1/2-y,-z
1/2+x,1/2-y,z
loop_
_atom_site_type_symbol
_atom_site_label
_atom_site_fract_x
_atom_site_fract_y
_atom_site_fract_z
Si Si1 0.783073 0.677191 0.560208
Si Si2 0.997094 0.297434 0.851604
Si Si3 0.358064 0.705341 0.123478
Si Si4 0.725499 0.714432 0.403342
Si Si5 0.713769 0.553911 0.876935
Si Si6 0.153530 0.606422 0.007310
Si Si7 0.409607 0.378713 0.223077
O O1 0.791357 0.676446 0.450794
O O2 0.695402 0.730400 0.619910
O O3 0.656397 0.631054 0.648923
O O4 0.000000 0.668653 0.500000
O O5 0.848880 0.283929 0.833694
O O6 0.924125 0.340780 0.940300
O O7 0.020515 0.253382 0.908122
O O8 0.201114 0.306920 0.719935
O O9 0.340859 0.673548 0.216598
O O10 0.500000 0.674982 0.000000
O O11 0.500000 0.718094 0.500000
O O12 0.790952 0.500000 0.827341
O O13 0.844937 0.577617 0.900676
O O14 0.714841 0.582364 0.783006
O O15 0.500000 0.552525 0.000000
O O16 0.363367 0.609399 0.875957
O O17 0.000000 0.582817 0.000000
#
# Coordination Sequence:
#
# PCOD8105931 Si02
#       7
#     8   8   8   8   8   8   8
#     4  10  21  36  53  75 107 153 200 240 267 316
#     4  12  24  35  52  76 117 156 194 231 278 330
#     4  12  22  34  49  78 113 156 188 228 281 336
#     4  10  23  35  50  73 108 159 204 227 268 324
#     4   9  19  40  65  85 110 144 184 240 302 348
#     4  11  24  35  55  89 118 146 185 230 289 353
#     4  11  20  39  58  82 115 147 195 238 281 344
#
# _framework density 19.186965000000001
#
# number of rings (size 3 to 8) (size 9 to 14) (size 15 to 20)
#    0.000    1.286    4.286    2.143    8.000    0.286 
#    0.000    0.000    0.000    0.429    0.000    0.000 
#    0.000    2.286    0.000    0.000    0.000    0.000 
#
# Total GULP energy -346946.939230 kJ/mol
# GULP energy per Si atom -12390.962115 kJ/mol
# Density = 1.914329 g / cm^3
# Si number density = 19.186965 Si / 1000 Ang^3
#
#
#
# Elastic Constant Matrix: (Units=GPa)
#
#
# Indices 1 2 3 4 5 6 
#
# 1 95.2724 24.7592 8.8594 0.0000 0.1874 0.0000
# 2 24.7592 89.2942 11.4634 0.0000 5.3302 0.0000
# 3 8.8594 11.4634 67.8998 0.0000 -3.3449 0.0000
# 4 0.0000 0.0000 0.0000 17.9837 0.0000 6.2308
# 5 0.1874 5.3302 -3.3449 0.0000 22.9123 0.0000
# 6 0.0000 0.0000 0.0000 6.2308 0.0000 18.7129
#
#
#
# Elastic Compliance Matrix: (Units=1/GPa)
#
#
# Indices 1 2 3 4 5 6 
#
# 1 0.011379 -0.003063 -0.000944 0.000000 0.000482 0.000000
# 2 -0.003063 0.012475 -0.001862 0.000000 -0.003149 0.000000
# 3 -0.000944 -0.001862 0.015297 0.000000 0.002674 0.000000
# 4 0.000000 0.000000 0.000000 0.062857 0.000000 -0.020930
# 5 0.000482 -0.003149 0.002674 0.000000 0.044764 0.000000
# 6 0.000000 0.000000 0.000000 -0.020930 0.000000 0.060408
#
#
# Mechanical properties :
#
#
# Convention : Reuss Voigt Hill
#
# Bulk Modulus (GPa) = 36.47727 38.07005 37.27366
# Shear Modulus (GPa) = 21.92461 25.74743 23.83602
#
# Velocity S-wave (km/s) = 3.38403 3.66720 3.52846
# Velocity P-wave (km/s) = 5.85846 6.14946 6.00572
#
# Compressibility (1/GPa) = 0.02741433
#
# Stress axis : x y z
#
# Youngs Moduli (GPa) = 87.88143 80.15967 65.37333
#
# Poissons Ratio (x) = 0.24550 0.06171
# Poissons Ratio (y) = 0.26915 0.12170
# Poissons Ratio (z) = 0.08295 0.14923
#
# Static dielectric constant tensor:
#      x y z
#    x 3.583480 0.000000 0.020960 
#    y 0.000000 3.368500 0.000000 
#    z 0.020960 0.000000 3.366720 
# 
# 
# High freq. dielectric constant tensor:
#      x y z
#    x 1.755520 0.000000 0.007940 
#    y 0.000000 1.697020 0.000000 
#    z 0.007940 0.000000 1.742320 
# 
# From -- ./inp_files/185201.got.cif
#   From: 2010.06.25/outbox.cif.g09.slc.cpg/sg12_93_cif.got.tgz:185201.got - 2010.06.28 00:19:55.
