data_PCOD8105185
_publ_section_title
;
Structure prediction by ZEFSAII (Michael W. Deem and Ramdas Pophale) SiO2 
 PCOD8105185
Probable space group: C 2/M
;
_chemical_formula_sum "Si O2"
_cell_formula_units_Z 64
_cell_length_a 22.163837
_cell_length_b 17.864566
_cell_length_c 14.724281
_cell_angle_alpha 90.000000
_cell_angle_beta 32.208579
_cell_angle_gamma 90.000000
_cell_volume 3107.428505
_symmetry_space_group_name_H-M "C 2/M"
_symmetry_group_IT_number 12
_symmetry_cell_setting 'monoclinic'
loop_
_space_group_symop_operation_xyz
x,y,z
-x,y,-z
-x,-y,-z
x,-y,z
1/2+x,1/2+y,z
1/2-x,1/2+y,-z
1/2-x,1/2-y,-z
1/2+x,1/2-y,z
loop_
_atom_site_type_symbol
_atom_site_label
_atom_site_fract_x
_atom_site_fract_y
_atom_site_fract_z
Si Si1 0.191340 0.335117 0.225879
Si Si2 0.342203 0.181142 0.285763
Si Si3 0.091095 0.798705 0.653720
Si Si4 0.501369 0.914418 0.810518
Si Si5 0.881856 0.086562 0.690069
Si Si6 0.692405 0.185493 0.875324
Si Si7 0.394676 0.413194 0.883187
Si Si8 0.962100 0.332817 0.408132
O O1 0.267049 0.260238 0.125961
O O2 0.137626 0.348483 0.392999
O O3 0.088069 0.332071 0.287485
O O4 0.279082 0.400559 0.087247
O O5 0.213291 0.166057 0.478411
O O6 0.401342 0.249037 0.264887
O O7 0.407613 0.104187 0.226802
O O8 0.357211 0.201062 0.161203
O O9 0.057910 0.748110 0.610152
O O10 0.999121 0.863744 0.787354
O O11 0.553536 0.899937 0.644364
O O12 0.461073 0.000000 0.872084
O O13 0.398668 0.855703 0.945937
O O14 0.796569 0.129530 0.733518
O O15 0.870062 0.108729 0.810280
O O16 0.000000 0.113147 0.500000
O O17 0.859997 0.000000 0.702213
O O18 0.429701 0.500000 0.847092
#
# Coordination Sequence:
#
# PCOD8105185 Si02
#       8
#     8   8   8   8   8   8   8   8
#     4  11  23  38  66  95 122 155 207 253 303 363
#     4  10  22  38  65  91 119 161 206 259 303 354
#     4  10  20  42  66  89 122 157 211 255 306 356
#     4  11  25  41  59  88 126 165 204 247 304 366
#     4  10  22  37  58  92 132 164 191 238 309 381
#     4  12  22  37  63  93 122 160 200 258 304 360
#     4  11  24  41  62  93 129 162 200 248 307 368
#     4  10  22  41  64  92 120 162 202 253 303 361
#
# _framework density 20.595808999999999
#
# number of rings (size 3 to 8) (size 9 to 14) (size 15 to 20)
#    0.000    1.375    1.250    4.500    1.750    5.500 
#    0.000    1.250    0.000    0.750    0.000    0.000 
#    0.000    0.000    0.000    0.000    0.000    0.000 
#
# Total GULP energy -396857.068178 kJ/mol
# GULP energy per Si atom -12401.783381 kJ/mol
# Density = 2.054893 g / cm^3
# Si number density = 20.595809 Si / 1000 Ang^3
#
#
#
# Elastic Constant Matrix: (Units=GPa)
#
#
# Indices 1 2 3 4 5 6 
#
# 1 87.9107 37.5139 32.4450 0.0000 -2.9546 0.0000
# 2 37.5139 92.2639 24.8980 0.0000 6.6776 0.0000
# 3 32.4450 24.8980 142.9380 0.0000 -18.2933 0.0000
# 4 0.0000 0.0000 0.0000 32.1424 0.0000 -3.9547
# 5 -2.9546 6.6776 -18.2933 0.0000 40.5711 0.0000
# 6 0.0000 0.0000 0.0000 -3.9547 0.0000 -3.2598
#
#
#
# Elastic Compliance Matrix: (Units=1/GPa)
#
#
# Indices 1 2 3 4 5 6 
#
# 1 0.014525 -0.005368 -0.002243 0.000000 0.000930 0.000000
# 2 -0.005368 0.013696 -0.001598 0.000000 -0.003366 0.000000
# 3 -0.002243 -0.001598 0.008274 0.000000 0.003830 0.000000
# 4 0.000000 0.000000 0.000000 0.027071 0.000000 -0.032842
# 5 0.000930 -0.003366 0.003830 0.000000 0.026997 0.000000
# 6 0.000000 0.000000 0.000000 -0.032842 0.000000 -0.266924
#
#
# Mechanical properties :
#
#
# Convention : Reuss Voigt Hill
#
# Bulk Modulus (GPa) = 55.31885 56.98071 56.14978
# Shear Modulus (GPa) = -32.91212 29.10778 -1.90217
#
# Velocity S-wave (km/s) = -4.00184 3.76345 -0.96207
# Velocity P-wave (km/s) = 2.35895 6.82722 5.10762
#
# Compressibility (1/GPa) = 0.01807702
#
# Stress axis : x y z
#
# Youngs Moduli (GPa) = 68.84785 73.01526 120.86495
#
# Poissons Ratio (x) = 0.39193 0.27109
# Poissons Ratio (y) = 0.36956 0.19314
# Poissons Ratio (z) = 0.15442 0.11668
#
# Static dielectric constant tensor:
#      x y z
#    x 3.831250 0.000000 -0.108020 
#    y 0.000000 3.560770 0.000000 
#    z -0.108020 0.000000 3.894770 
# 
# 
# High freq. dielectric constant tensor:
#      x y z
#    x 1.811450 0.000000 -0.005920 
#    y 0.000000 1.789830 0.000000 
#    z -0.005920 0.000000 1.820500 
# 
# From -- ./inp_files/241478.got.cif
#   From: 2010.06.25/outbox.cif.g09.slc.cpg/sg12_121_cif.got.tgz:241478.got - 2010.06.28 00:19:55.
