data_PCOD8105297
_publ_section_title
;
Structure prediction by ZEFSAII (Michael W. Deem and Ramdas Pophale) SiO2 
 PCOD8105297
Probable space group: C 2/M
;
_chemical_formula_sum "Si O2"
_cell_formula_units_Z 48
_cell_length_a 16.547980
_cell_length_b 25.412767
_cell_length_c 10.969679
_cell_angle_alpha 90.000000
_cell_angle_beta 146.417921
_cell_angle_gamma 90.000000
_cell_volume 2551.636822
_symmetry_space_group_name_H-M "C 2/M"
_symmetry_group_IT_number 12
_symmetry_cell_setting 'monoclinic'
loop_
_space_group_symop_operation_xyz
x,y,z
-x,y,-z
-x,-y,-z
x,-y,z
1/2+x,1/2+y,z
1/2-x,1/2+y,-z
1/2-x,1/2-y,-z
1/2+x,1/2-y,z
loop_
_atom_site_type_symbol
_atom_site_label
_atom_site_fract_x
_atom_site_fract_y
_atom_site_fract_z
Si Si1 0.165369 0.636644 0.181859
Si Si2 0.340732 0.824413 0.332156
Si Si3 0.062290 0.148487 0.832612
Si Si4 0.717116 0.690118 0.433066
Si Si5 0.590071 0.558318 0.491509
Si Si6 0.696570 0.283506 0.817993
O O1 0.232018 0.658787 0.387464
O O2 0.256485 0.583778 0.272897
O O3 0.180610 0.679092 0.090453
O O4 0.000000 0.621590 0.000000
O O5 0.500000 0.848611 0.500000
O O6 0.297058 0.834882 0.416587
O O7 0.352583 0.760671 0.339626
O O8 0.224073 0.852126 0.095110
O O9 0.066908 0.179199 0.706939
O O10 0.958004 0.180255 0.795868
O O11 0.999281 0.090658 0.724737
O O12 0.750000 0.750000 0.500000
O O13 0.500000 0.553701 0.500000
O O14 0.618755 0.500000 0.473232
O O15 0.750000 0.250000 0.000000
#
# Coordination Sequence:
#
# PCOD8105297 Si02
#       6
#     8   8   8   8   8   8
#     4  11  24  36  57  86 123 152 195 245 289 348
#     4  11  23  34  55  81 119 163 192 230 283 349
#     4  10  22  38  56  80 119 149 198 241 284 350
#     4  11  22  33  53  80 117 159 196 228 277 344
#     4  10  21  40  65  86 110 151 199 251 304 345
#     4  10  21  33  53  80 125 160 185 223 285 346
#
# _framework density 18.811454000000001
#
# number of rings (size 3 to 8) (size 9 to 14) (size 15 to 20)
#    0.000    1.500    3.333    1.500   11.667    0.333 
#    0.000    0.000    0.000    8.500    0.000    0.000 
#    0.000    0.000    0.000    0.000    0.000    0.000 
#
# Total GULP energy -297433.294545 kJ/mol
# GULP energy per Si atom -12393.053939 kJ/mol
# Density = 1.876864 g / cm^3
# Si number density = 18.811454 Si / 1000 Ang^3
#
#
#
# Elastic Constant Matrix: (Units=GPa)
#
#
# Indices 1 2 3 4 5 6 
#
# 1 121.0902 29.5113 34.6117 0.0000 17.6068 0.0000
# 2 29.5113 112.9711 41.5740 0.0000 6.1004 0.0000
# 3 34.6117 41.5740 109.2620 0.0000 27.7882 0.0000
# 4 0.0000 0.0000 0.0000 13.0603 0.0000 2.3168
# 5 17.6068 6.1004 27.7882 0.0000 33.7420 0.0000
# 6 0.0000 0.0000 0.0000 2.3168 0.0000 13.2388
#
#
#
# Elastic Compliance Matrix: (Units=1/GPa)
#
#
# Indices 1 2 3 4 5 6 
#
# 1 0.009622 -0.001778 -0.001488 0.000000 -0.003474 0.000000
# 2 -0.001778 0.010702 -0.004114 0.000000 0.002382 0.000000
# 3 -0.001488 -0.004114 0.013665 0.000000 -0.009733 0.000000
# 4 0.000000 0.000000 0.000000 0.079021 0.000000 -0.013829
# 5 -0.003474 0.002382 -0.009733 0.000000 0.039035 0.000000
# 6 0.000000 0.000000 0.000000 -0.013829 0.000000 0.077956
#
#
# Mechanical properties :
#
#
# Convention : Reuss Voigt Hill
#
# Bulk Modulus (GPa) = 52.00943 61.63526 56.82235
# Shear Modulus (GPa) = 19.90682 27.84997 23.87839
#
# Velocity S-wave (km/s) = 3.25657 3.85187 3.56666
# Velocity P-wave (km/s) = 6.46901 7.25386 6.87265
#
# Compressibility (1/GPa) = 0.01922728
#
# Stress axis : x y z
#
# Youngs Moduli (GPa) = 103.92681 93.44113 73.18206
#
# Poissons Ratio (x) = 0.16618 0.10888
# Poissons Ratio (y) = 0.18483 0.30110
# Poissons Ratio (z) = 0.15463 0.38445
#
# Static dielectric constant tensor:
#      x y z
#    x 4.499130 0.000000 1.290750 
#    y 0.000000 3.169210 0.000000 
#    z 1.290750 0.000000 5.067430 
# 
# 
# High freq. dielectric constant tensor:
#      x y z
#    x 1.746740 0.000000 0.010340 
#    y 0.000000 1.694460 0.000000 
#    z 0.010340 0.000000 1.727260 
# 
# From -- ./inp_files/149881.got.cif
#   From: 2010.06.25/outbox.cif.g09.slc.cpg/sg12_75_cif.got.tgz:149881.got - 2010.06.28 00:19:55.
