data_PCOD8105233
_publ_section_title
;
Structure prediction by ZEFSAII (Michael W. Deem and Ramdas Pophale) SiO2 
 PCOD8105233
Probable space group: C 2/M
;
_chemical_formula_sum "Si O2"
_cell_formula_units_Z 64
_cell_length_a 21.583244
_cell_length_b 24.119928
_cell_length_c 9.402350
_cell_angle_alpha 90.000000
_cell_angle_beta 45.451942
_cell_angle_gamma 90.000000
_cell_volume 3488.292740
_symmetry_space_group_name_H-M "C 2/M"
_symmetry_group_IT_number 12
_symmetry_cell_setting 'monoclinic'
loop_
_space_group_symop_operation_xyz
x,y,z
-x,y,-z
-x,-y,-z
x,-y,z
1/2+x,1/2+y,z
1/2-x,1/2+y,-z
1/2-x,1/2-y,-z
1/2+x,1/2-y,z
loop_
_atom_site_type_symbol
_atom_site_label
_atom_site_fract_x
_atom_site_fract_y
_atom_site_fract_z
Si Si1 0.236324 0.646979 0.565115
Si Si2 0.906331 0.830607 0.131108
Si Si3 0.198117 0.791374 0.282361
Si Si4 0.895905 0.730041 0.341315
Si Si5 0.028463 0.440807 0.294702
Si Si6 0.415870 0.937709 0.219928
Si Si7 0.458752 0.821007 0.722624
Si Si8 0.841679 0.783974 0.957636
O O1 0.328715 0.636042 0.335995
O O2 0.250307 0.662845 0.708362
O O3 0.192621 0.698067 0.552764
O O4 0.173410 0.594512 0.665317
O O5 0.918389 0.767957 0.170061
O O6 0.890341 0.825079 0.987161
O O7 0.000000 0.861474 0.000000
O O8 0.115373 0.771862 0.507420
O O9 0.168873 0.816228 0.176289
O O10 0.250142 0.733923 0.171889
O O11 0.971012 0.687058 0.263288
O O12 0.076303 0.500000 0.175322
O O13 0.082302 0.383228 0.187096
O O14 0.000000 0.445615 0.500000
O O15 0.939008 0.435969 0.349237
O O16 0.398030 0.000000 0.194650
O O17 0.500000 0.913246 0.000000
O O18 0.500000 0.817279 0.500000
O O19 0.386475 0.775014 0.855016
#
# Coordination Sequence:
#
# PCOD8105233 Si02
#       8
#     8   8   8   8   8   8   8   8
#     4  11  21  36  52  73 107 139 174 215 271 314
#     4  11  21  33  51  74 104 138 177 215 256 315
#     4  10  21  32  45  67 104 136 175 217 256 304
#     4  11  18  32  46  70 100 140 175 213 256 315
#     4   9  19  34  49  73 105 138 179 223 264 312
#     4  10  22  38  58  82 106 135 178 223 263 316
#     4  11  20  29  49  72 100 143 178 216 267 314
#     4  11  20  31  46  71 101 136 181 216 250 315
#
# _framework density 18.347083999999999
#
# number of rings (size 3 to 8) (size 9 to 14) (size 15 to 20)
#    0.000    1.500    6.250    0.750    1.750    0.500 
#    0.000    0.000    0.000    0.375    0.000    0.000 
#    0.000    1.000    0.000    0.000    0.000    0.000 
#
# Total GULP energy -396434.776525 kJ/mol
# GULP energy per Si atom -12388.586766 kJ/mol
# Density = 1.830533 g / cm^3
# Si number density = 18.347084 Si / 1000 Ang^3
#
#
#
# Elastic Constant Matrix: (Units=GPa)
#
#
# Indices 1 2 3 4 5 6 
#
# 1 121.5220 25.6109 51.2674 0.0000 19.4489 0.0000
# 2 25.6109 66.8174 26.0642 0.0000 -0.5404 0.0000
# 3 51.2674 26.0642 78.1065 0.0000 4.0041 0.0000
# 4 0.0000 0.0000 0.0000 17.8908 0.0000 -2.5687
# 5 19.4489 -0.5404 4.0041 0.0000 40.6046 0.0000
# 6 0.0000 0.0000 0.0000 -2.5687 0.0000 29.0770
#
#
#
# Elastic Compliance Matrix: (Units=1/GPa)
#
#
# Indices 1 2 3 4 5 6 
#
# 1 0.012597 -0.002015 -0.007322 0.000000 -0.005339 0.000000
# 2 -0.002015 0.017554 -0.004620 0.000000 0.001654 0.000000
# 3 -0.007322 -0.004620 0.019071 0.000000 0.001565 0.000000
# 4 0.000000 0.000000 0.000000 0.056613 0.000000 0.005001
# 5 -0.005339 0.001654 0.001565 0.000000 0.027053 0.000000
# 6 0.000000 0.000000 0.000000 0.005001 0.000000 0.034833
#
#
# Mechanical properties :
#
#
# Convention : Reuss Voigt Hill
#
# Bulk Modulus (GPa) = 46.93292 52.48122 49.70707
# Shear Modulus (GPa) = 24.66241 28.41473 26.53857
#
# Velocity S-wave (km/s) = 3.67033 3.93966 3.80738
# Velocity P-wave (km/s) = 6.60287 7.02576 6.81760
#
# Compressibility (1/GPa) = 0.02130701
#
# Stress axis : x y z
#
# Youngs Moduli (GPa) = 79.38238 56.96671 52.43657
#
# Poissons Ratio (x) = 0.11481 0.38396
# Poissons Ratio (y) = 0.15998 0.24225
# Poissons Ratio (z) = 0.58127 0.26317
#
# Static dielectric constant tensor:
#      x y z
#    x 3.652200 0.000000 0.213910 
#    y 0.000000 3.240250 0.000000 
#    z 0.213910 0.000000 3.400940 
# 
# 
# High freq. dielectric constant tensor:
#      x y z
#    x 1.718450 0.000000 0.026330 
#    y 0.000000 1.659590 0.000000 
#    z 0.026330 0.000000 1.710130 
# 
# From -- ./inp_files/90660.got.cif
#   From: 2010.06.25/outbox.cif.g09.slc.cpg/sg12_46_cif.got.tgz:90660.got - 2010.06.28 00:19:55.
