data_PCOD8105037
_publ_section_title
;
Structure prediction by ZEFSAII (Michael W. Deem and Ramdas Pophale) SiO2 
 PCOD8105037
Probable space group: C 2/M
;
_chemical_formula_sum "Si O2"
_cell_formula_units_Z 40
_cell_length_a 8.491774
_cell_length_b 14.802066
_cell_length_c 28.499999
_cell_angle_alpha 90.000000
_cell_angle_beta 34.630293
_cell_angle_gamma 90.000000
_cell_volume 2035.762524
_symmetry_space_group_name_H-M "C 2/M"
_symmetry_group_IT_number 12
_symmetry_cell_setting 'monoclinic'
loop_
_space_group_symop_operation_xyz
x,y,z
-x,y,-z
-x,-y,-z
x,-y,z
1/2+x,1/2+y,z
1/2-x,1/2+y,-z
1/2-x,1/2-y,-z
1/2+x,1/2-y,z
loop_
_atom_site_type_symbol
_atom_site_label
_atom_site_fract_x
_atom_site_fract_y
_atom_site_fract_z
Si Si1 0.645578 0.500000 0.760372
Si Si2 0.942137 0.315286 0.232536
Si Si3 0.978633 0.823897 0.951170
Si Si4 0.055786 0.148818 0.709763
Si Si5 0.777177 0.000000 0.402872
Si Si6 0.317441 0.500000 0.935701
Si Si7 0.632112 0.000000 0.700683
O O1 0.535414 0.587312 0.760479
O O2 0.511681 0.500000 0.843373
O O3 0.986174 0.500000 0.684495
O O4 0.741098 0.324941 0.237593
O O5 0.984281 0.412213 0.245272
O O6 0.235405 0.283526 0.140003
O O7 0.817721 0.243785 0.301786
O O8 0.883692 0.913076 0.949134
O O9 0.750000 0.750000 0.000000
O O10 0.000000 0.848646 0.000000
O O11 0.222965 0.091506 0.628983
O O12 0.500000 0.000000 0.500000
O O13 0.031659 0.000000 0.378093
O O14 0.000000 0.500000 0.000000
#
# Coordination Sequence:
#
# PCOD8105037 Si02
#       7
#     4   8   8   8   4   4   4
#     4  11  22  41  60  89 122 164 217 253 304 373
#     4  11  21  40  61  89 120 166 217 259 301 379
#     4  12  26  41  59  86 123 165 217 270 326 354
#     4  10  23  37  67  92 123 164 206 250 310 370
#     4   9  21  45  69 101 132 154 194 253 316 380
#     4  12  28  40  58  86 125 165 215 273 320 358
#     4  10  20  40  67  91 122 167 206 251 310 373
#
# _framework density 19.648658000000001
#
# number of rings (size 3 to 8) (size 9 to 14) (size 15 to 20)
#    0.000    1.200    2.000    3.900    8.400    0.000 
#    0.000    6.000    0.000    0.000    0.000    0.000 
#    0.000    0.000    0.000    0.000    0.000    0.000 
#
# Total GULP energy -247870.143405 kJ/mol
# GULP energy per Si atom -12393.507170 kJ/mol
# Density = 1.960394 g / cm^3
# Si number density = 19.648658 Si / 1000 Ang^3
#
#
#
# Elastic Constant Matrix: (Units=GPa)
#
#
# Indices 1 2 3 4 5 6 
#
# 1 173.6503 75.4995 57.4857 -0.0137 -7.2742 0.0220
# 2 75.4995 158.4519 54.0151 -0.0037 8.9721 0.0102
# 3 57.4857 54.0151 126.4736 -0.0056 -6.0328 0.0471
# 4 -0.0137 -0.0037 -0.0056 17.8591 0.0186 5.9295
# 5 -7.2742 8.9721 -6.0328 0.0186 23.6020 -0.0404
# 6 0.0220 0.0102 0.0471 5.9295 -0.0404 52.0692
#
#
#
# Elastic Compliance Matrix: (Units=1/GPa)
#
#
# Indices 1 2 3 4 5 6 
#
# 1 0.008012 -0.003287 -0.002086 0.000001 0.003185 0.000002
# 2 -0.003287 0.009061 -0.002620 0.000005 -0.005127 -0.000003
# 3 -0.002086 -0.002620 0.010114 0.000000 0.002938 -0.000005
# 4 0.000001 0.000005 0.000000 0.058194 -0.000059 -0.006627
# 5 0.003185 -0.005127 0.002938 -0.000059 0.046051 0.000039
# 6 0.000002 -0.000003 -0.000005 -0.006627 0.000039 0.019960
#
#
# Mechanical properties :
#
#
# Convention : Reuss Voigt Hill
#
# Bulk Modulus (GPa) = 89.28067 92.50850 90.89459
# Shear Modulus (GPa) = 29.22073 36.81110 33.01592
#
# Velocity S-wave (km/s) = 3.86056 4.33305 4.10361
# Velocity P-wave (km/s) = 8.08759 8.49808 8.29537
#
# Compressibility (1/GPa) = 0.01120063
#
# Stress axis : x y z
#
# Youngs Moduli (GPa) = 124.81833 110.36680 98.87148
#
# Poissons Ratio (x) = 0.36275 0.20623
# Poissons Ratio (y) = 0.41024 0.25908
# Poissons Ratio (z) = 0.26035 0.28920
#
# Static dielectric constant tensor:
#      x y z
#    x 4.265220 -0.000150 -0.037540 
#    y -0.000150 3.891320 0.000000 
#    z -0.037540 0.000000 3.203990 
# 
# 
# High freq. dielectric constant tensor:
#      x y z
#    x 1.795820 0.000000 -0.006100 
#    y 0.000000 1.787070 0.000000 
#    z -0.006100 0.000000 1.721660 
# 
# From -- ./inp_files/194639.got.cif
#   From: 2010.06.25/outbox.cif.g09.slc.cpg/sg12_98_cif.got.tgz:194639.got - 2010.06.28 00:19:55.
