data_PCOD8105163
_publ_section_title
;
Structure prediction by ZEFSAII (Michael W. Deem and Ramdas Pophale) SiO2 
 PCOD8105163
Probable space group: C 2/M
;
_chemical_formula_sum "Si O2"
_cell_formula_units_Z 48
_cell_length_a 10.004019
_cell_length_b 25.479188
_cell_length_c 8.710767
_cell_angle_alpha 90.000000
_cell_angle_beta 114.825428
_cell_angle_gamma 90.000000
_cell_volume 2015.147228
_symmetry_space_group_name_H-M "C 2/M"
_symmetry_group_IT_number 12
_symmetry_cell_setting 'monoclinic'
loop_
_space_group_symop_operation_xyz
x,y,z
-x,y,-z
-x,-y,-z
x,-y,z
1/2+x,1/2+y,z
1/2-x,1/2+y,-z
1/2-x,1/2-y,-z
1/2+x,1/2-y,z
loop_
_atom_site_type_symbol
_atom_site_label
_atom_site_fract_x
_atom_site_fract_y
_atom_site_fract_z
Si Si1 0.990361 0.558855 0.737289
Si Si2 0.205000 0.599039 0.613955
Si Si3 0.660280 0.199136 0.409118
Si Si4 0.604708 0.215829 0.919228
Si Si5 0.794471 0.625678 0.845607
Si Si6 0.017330 0.938474 0.828401
O O1 0.029182 0.500000 0.804383
O O2 0.871866 0.559902 0.543359
O O3 0.925184 0.587810 0.853484
O O4 0.142708 0.586147 0.753911
O O5 0.163617 0.659195 0.554065
O O6 0.376949 0.588037 0.681553
O O7 0.750000 0.250000 0.500000
O O8 0.509466 0.215708 0.714888
O O9 0.737388 0.169708 0.301167
O O10 0.500000 0.239735 0.000000
O O11 0.750000 0.250000 0.000000
O O12 0.648454 0.155618 0.975389
O O13 0.654044 0.591251 0.819627
O O14 0.029170 0.000000 0.794848
O O15 0.000000 0.928886 0.000000
#
# Coordination Sequence:
#
# PCOD8105163 Si02
#       6
#     8   8   8   8   8   8
#     4  10  20  41  72 101 139 187 231 294 359 422
#     4  10  22  42  67 104 144 185 243 296 351 424
#     4  10  24  48  72 105 145 194 240 295 364 434
#     4  10  24  50  71 100 141 185 236 298 357 423
#     4  10  24  46  69 107 143 180 240 293 358 423
#     4  11  25  45  72 104 144 193 243 295 358 429
#
# _framework density 23.819600000000001
#
# number of rings (size 3 to 8) (size 9 to 14) (size 15 to 20)
#    0.000    1.833    0.000    2.500    2.333   10.000 
#   36.000    4.167    0.000   23.000    0.000    0.000 
#    0.000    0.000    0.000    0.000    0.000    0.000 
#
# Total GULP energy -297482.811059 kJ/mol
# GULP energy per Si atom -12395.117127 kJ/mol
# Density = 2.376539 g / cm^3
# Si number density = 23.819600 Si / 1000 Ang^3
#
#
#
# Elastic Constant Matrix: (Units=GPa)
#
#
# Indices 1 2 3 4 5 6 
#
# 1 187.3366 96.0572 61.3415 0.0000 -0.2784 0.0000
# 2 96.0572 198.6078 74.8917 0.0000 4.8524 0.0000
# 3 61.3415 74.8917 66.3670 0.0000 17.4383 0.0000
# 4 0.0000 0.0000 0.0000 29.0176 0.0000 5.6301
# 5 -0.2784 4.8524 17.4383 0.0000 34.9441 0.0000
# 6 0.0000 0.0000 0.0000 5.6301 0.0000 45.5959
#
#
#
# Elastic Compliance Matrix: (Units=1/GPa)
#
#
# Indices 1 2 3 4 5 6 
#
# 1 0.008441 -0.001487 -0.007130 0.000000 0.003832 0.000000
# 2 -0.001487 0.009620 -0.010505 0.000000 0.003894 0.000000
# 3 -0.007130 -0.010505 0.038145 0.000000 -0.017634 0.000000
# 4 0.000000 0.000000 0.000000 0.035308 0.000000 -0.004360
# 5 0.003832 0.003894 -0.017634 0.000000 0.036907 0.000000
# 6 0.000000 0.000000 0.000000 -0.004360 0.000000 0.022470
#
#
# Mechanical properties :
#
#
# Convention : Reuss Voigt Hill
#
# Bulk Modulus (GPa) = 55.67225 101.87692 78.77459
# Shear Modulus (GPa) = 25.62472 36.57957 31.10214
#
# Velocity S-wave (km/s) = 3.28347 3.92304 3.61742
# Velocity P-wave (km/s) = 6.14802 7.96137 7.11272
#
# Compressibility (1/GPa) = 0.01796227
#
# Stress axis : x y z
#
# Youngs Moduli (GPa) = 118.46739 103.94538 26.21542
#
# Poissons Ratio (x) = 0.15462 0.18692
# Poissons Ratio (y) = 0.17622 0.27538
# Poissons Ratio (z) = 0.84471 1.09190
#
# Static dielectric constant tensor:
#      x y z
#    x 4.593840 0.000000 -0.011820 
#    y 0.000000 4.485350 0.000000 
#    z -0.011820 0.000000 4.435440 
# 
# 
# High freq. dielectric constant tensor:
#      x y z
#    x 1.947100 0.000000 0.001800 
#    y 0.000000 1.948070 0.000000 
#    z 0.001800 0.000000 1.950010 
# 
# From -- ./inp_files/42173.got.cif
#   From: 2010.06.25/outbox.cif.g09.slc.cpg/sg12_22_cif.got.tgz:42173.got - 2010.06.28 00:19:55.
