data_PCOD8105829
_publ_section_title
;
Structure prediction by ZEFSAII (Michael W. Deem and Ramdas Pophale) SiO2 
 PCOD8105829
Probable space group: C 2/M
;
_chemical_formula_sum "Si O2"
_cell_formula_units_Z 56
_cell_length_a 9.673518
_cell_length_b 22.671233
_cell_length_c 13.226641
_cell_angle_alpha 90.000000
_cell_angle_beta 67.382110
_cell_angle_gamma 90.000000
_cell_volume 2677.646746
_symmetry_space_group_name_H-M "C 2/M"
_symmetry_group_IT_number 12
_symmetry_cell_setting 'monoclinic'
loop_
_space_group_symop_operation_xyz
x,y,z
-x,y,-z
-x,-y,-z
x,-y,z
1/2+x,1/2+y,z
1/2-x,1/2+y,-z
1/2-x,1/2-y,-z
1/2+x,1/2-y,z
loop_
_atom_site_type_symbol
_atom_site_label
_atom_site_fract_x
_atom_site_fract_y
_atom_site_fract_z
Si Si1 0.901332 0.340116 0.747691
Si Si2 0.120505 0.068149 0.255246
Si Si3 0.660923 0.267380 0.926068
Si Si4 0.843839 0.260724 0.372195
Si Si5 0.900771 0.640460 0.125319
Si Si6 0.837469 0.865959 0.564932
Si Si7 0.811852 0.129487 0.345546
O O1 0.754661 0.316907 0.844714
O O2 0.834667 0.385375 0.681483
O O3 0.986586 0.285833 0.666056
O O4 0.006672 0.374629 0.797880
O O5 0.249773 0.102263 0.158247
O O6 0.145936 0.076791 0.368867
O O7 0.956556 0.092352 0.271114
O O8 0.129227 0.000000 0.224861
O O9 0.634159 0.210392 0.862173
O O10 0.500000 0.294914 0.000000
O O11 0.750000 0.250000 0.000000
O O12 0.750000 0.250000 0.500000
O O13 0.756290 0.316741 0.346018
O O14 0.847747 0.199053 0.312107
O O15 0.000000 0.624411 0.000000
O O16 0.767413 0.882740 0.475425
O O17 0.000000 0.836944 0.500000
#
# Coordination Sequence:
#
# PCOD8105829 Si02
#       7
#     8   8   8   8   8   8   8
#     4  12  22  37  61  96 136 172 205 266 330 396
#     4  11  24  46  68  88 124 178 230 273 320 386
#     4  11  22  38  61  97 135 178 214 264 331 405
#     4  10  21  35  58  95 141 167 201 249 332 403
#     4  11  23  41  62  93 128 165 223 268 330 395
#     4   9  20  38  59  94 126 167 212 255 319 396
#     4  10  24  35  63  95 127 169 212 264 321 392
#
# _framework density 20.913886999999999
#
# number of rings (size 3 to 8) (size 9 to 14) (size 15 to 20)
#    0.000    1.429    4.286    1.714    8.000    4.571 
#    0.000    0.714    0.000    1.714    0.000    0.000 
#    0.000    0.000    0.000    0.000    0.000    0.000 
#
# Total GULP energy -346989.875632 kJ/mol
# GULP energy per Si atom -12392.495558 kJ/mol
# Density = 2.086629 g / cm^3
# Si number density = 20.913887 Si / 1000 Ang^3
#
#
#
# Elastic Constant Matrix: (Units=GPa)
#
#
# Indices 1 2 3 4 5 6 
#
# 1 103.0425 7.4730 30.1541 0.0000 5.2666 0.0000
# 2 7.4730 69.5130 0.2480 0.0000 -15.1029 0.0000
# 3 30.1541 0.2480 64.9266 0.0000 -9.1972 0.0000
# 4 0.0000 0.0000 0.0000 17.0372 0.0000 -1.5328
# 5 5.2666 -15.1029 -9.1972 0.0000 52.8613 0.0000
# 6 0.0000 0.0000 0.0000 -1.5328 0.0000 22.3633
#
#
#
# Elastic Compliance Matrix: (Units=1/GPa)
#
#
# Indices 1 2 3 4 5 6 
#
# 1 0.011670 -0.001818 -0.005794 0.000000 -0.002690 0.000000
# 2 -0.001818 0.015642 0.001480 0.000000 0.004908 0.000000
# 3 -0.005794 0.001480 0.018690 0.000000 0.004252 0.000000
# 4 0.000000 0.000000 0.000000 0.059059 0.000000 0.004048
# 5 -0.002690 0.004908 0.004252 0.000000 0.021327 0.000000
# 6 0.000000 0.000000 0.000000 0.004048 0.000000 0.044994
#
#
# Mechanical properties :
#
#
# Convention : Reuss Voigt Hill
#
# Bulk Modulus (GPa) = 29.64116 34.80359 32.22237
# Shear Modulus (GPa) = 25.65521 31.75947 28.70734
#
# Velocity S-wave (km/s) = 3.50624 3.90113 3.70894
# Velocity P-wave (km/s) = 5.53130 6.08023 5.81225
#
# Compressibility (1/GPa) = 0.03373687
#
# Stress axis : x y z
#
# Youngs Moduli (GPa) = 85.69251 63.92916 53.50588
#
# Poissons Ratio (x) = 0.11625 0.31001
# Poissons Ratio (y) = 0.15582 -0.07919
# Poissons Ratio (z) = 0.49649 -0.09461
#
# Static dielectric constant tensor:
#      x y z
#    x 4.208520 0.000000 -0.037060 
#    y 0.000000 3.419860 0.000000 
#    z -0.037060 0.000000 3.913900 
# 
# 
# High freq. dielectric constant tensor:
#      x y z
#    x 1.833130 0.000000 -0.011520 
#    y 0.000000 1.751120 0.000000 
#    z -0.011520 0.000000 1.834190 
# 
# From -- ./inp_files/198367.got.cif
#   From: 2010.06.25/outbox.cif.g09.slc.cpg/sg12_100_cif.got.tgz:198367.got - 2010.06.28 00:19:55.
