data_PCOD8105529
_publ_section_title
;
Structure prediction by ZEFSAII (Michael W. Deem and Ramdas Pophale) SiO2 
 PCOD8105529
Probable space group: C 2/M
;
_chemical_formula_sum "Si O2"
_cell_formula_units_Z 64
_cell_length_a 17.884609
_cell_length_b 9.438727
_cell_length_c 20.063962
_cell_angle_alpha 90.000000
_cell_angle_beta 91.359525
_cell_angle_gamma 90.000000
_cell_volume 3386.002702
_symmetry_space_group_name_H-M "C 2/M"
_symmetry_group_IT_number 12
_symmetry_cell_setting 'monoclinic'
loop_
_space_group_symop_operation_xyz
x,y,z
-x,y,-z
-x,-y,-z
x,-y,z
1/2+x,1/2+y,z
1/2-x,1/2+y,-z
1/2-x,1/2-y,-z
1/2+x,1/2-y,z
loop_
_atom_site_type_symbol
_atom_site_label
_atom_site_fract_x
_atom_site_fract_y
_atom_site_fract_z
Si Si1 0.082042 0.164002 0.480090
Si Si2 0.852110 0.160338 0.872490
Si Si3 0.590597 0.165711 0.726874
Si Si4 0.820920 0.664877 0.139028
Si Si5 0.330325 0.664392 0.385215
Si Si6 0.926581 0.663988 0.763845
Si Si7 0.824266 0.164277 0.017085
Si Si8 0.660542 0.164890 0.369116
O O1 0.141198 0.192289 0.539786
O O2 0.105808 0.251741 0.416479
O O3 0.000000 0.216037 0.500000
O O4 0.079746 0.000000 0.459547
O O5 0.766219 0.205883 0.858634
O O6 0.907018 0.257320 0.831454
O O7 0.874689 0.174936 0.951245
O O8 0.863065 0.000000 0.848277
O O9 0.642117 0.205112 0.790476
O O10 0.618259 0.248646 0.663354
O O11 0.506618 0.216882 0.739464
O O12 0.593986 0.000000 0.710453
O O13 0.831983 0.500000 0.121178
O O14 0.861239 0.759714 0.082288
O O15 0.335912 0.500000 0.365603
O O16 0.245240 0.719012 0.379131
O O17 0.930975 0.500000 0.782241
O O18 0.864104 0.695690 0.706986
O O19 0.806385 0.000000 0.032714
O O20 0.750000 0.250000 0.000000
O O21 0.653404 0.000000 0.386867
#
# Coordination Sequence:
#
# PCOD8105529 Si02
#       8
#     8   8   8   8   8   8   8   8
#     4  10  21  36  54  78 107 138 172 209 253 307
#     4   9  18  32  51  75 100 129 167 208 250 300
#     4  10  21  36  53  75 103 135 172 212 256 307
#     4   9  18  33  52  75 102 132 171 214 253 302
#     4  10  21  36  54  78 105 133 171 216 257 303
#     4  10  21  35  51  74 103 134 169 210 257 308
#     4   9  17  30  50  77 105 133 170 213 256 304
#     4  10  21  36  54  78 105 133 171 214 254 303
#
# _framework density 18.901343000000001
#
# number of rings (size 3 to 8) (size 9 to 14) (size 15 to 20)
#    0.000    2.375    0.000    3.000    0.000    5.250 
#    0.000    0.625    0.000    3.750    0.000    0.000 
#    0.000    0.000    0.000    0.000    0.000    0.000 
#
# Total GULP energy -396835.851561 kJ/mol
# GULP energy per Si atom -12401.120361 kJ/mol
# Density = 1.885832 g / cm^3
# Si number density = 18.901343 Si / 1000 Ang^3
#
#
#
# Elastic Constant Matrix: (Units=GPa)
#
#
# Indices 1 2 3 4 5 6 
#
# 1 67.2314 20.8703 10.4358 0.0000 -19.7844 0.0000
# 2 20.8703 65.5778 40.0534 0.0000 -20.7500 0.0000
# 3 10.4358 40.0534 63.9788 0.0000 -25.7669 0.0000
# 4 0.0000 0.0000 0.0000 34.0918 0.0000 -10.4725
# 5 -19.7844 -20.7500 -25.7669 0.0000 28.3487 0.0000
# 6 0.0000 0.0000 0.0000 -10.4725 0.0000 24.5952
#
#
#
# Elastic Compliance Matrix: (Units=1/GPa)
#
#
# Indices 1 2 3 4 5 6 
#
# 1 0.020282 -0.005330 0.006559 0.000000 0.016215 0.000000
# 2 -0.005330 0.026836 -0.015015 0.000000 0.002276 0.000000
# 3 0.006559 -0.015015 0.033722 0.000000 0.024238 0.000000
# 4 0.000000 0.000000 0.000000 0.033747 0.000000 0.014369
# 5 0.016215 0.002276 0.024238 0.000000 0.070288 0.000000
# 6 0.000000 0.000000 0.000000 0.014369 0.000000 0.046777
#
#
# Mechanical properties :
#
#
# Convention : Reuss Voigt Hill
#
# Bulk Modulus (GPa) = 18.77277 37.72300 28.24789
# Shear Modulus (GPa) = 18.05194 25.76903 21.91048
#
# Velocity S-wave (km/s) = 3.09376 3.69635 3.40840
# Velocity P-wave (km/s) = 4.76606 6.18212 5.51969
#
# Compressibility (1/GPa) = 0.05326863
#
# Stress axis : x y z
#
# Youngs Moduli (GPa) = 49.30438 37.26324 29.65446
#
# Poissons Ratio (x) = 0.19862 -0.19451
# Poissons Ratio (y) = 0.26281 0.44525
# Poissons Ratio (z) = -0.32339 0.55949
#
# Static dielectric constant tensor:
#      x y z
#    x 3.395620 0.000000 0.104050 
#    y 0.000000 3.453880 0.000000 
#    z 0.104050 0.000000 3.614050 
# 
# 
# High freq. dielectric constant tensor:
#      x y z
#    x 1.722440 0.000000 0.002490 
#    y 0.000000 1.730880 0.000000 
#    z 0.002490 0.000000 1.744220 
# 
# From -- ./inp_files/314183.got.cif
#   From: 2010.06.25/outbox.cif.g09.slc.cpg/sg12_158_cif.got.tgz:314183.got - 2010.06.28 00:19:55.
