data_PCOD8105452
_publ_section_title
;
Structure prediction by ZEFSAII (Michael W. Deem and Ramdas Pophale) SiO2 
 PCOD8105452
Probable space group: C 2/M
;
_chemical_formula_sum "Si O2"
_cell_formula_units_Z 64
_cell_length_a 29.810839
_cell_length_b 13.778570
_cell_length_c 10.188726
_cell_angle_alpha 90.000000
_cell_angle_beta 127.689939
_cell_angle_gamma 90.000000
_cell_volume 3311.740929
_symmetry_space_group_name_H-M "C 2/M"
_symmetry_group_IT_number 12
_symmetry_cell_setting 'monoclinic'
loop_
_space_group_symop_operation_xyz
x,y,z
-x,y,-z
-x,-y,-z
x,-y,z
1/2+x,1/2+y,z
1/2-x,1/2+y,-z
1/2-x,1/2-y,-z
1/2+x,1/2-y,z
loop_
_atom_site_type_symbol
_atom_site_label
_atom_site_fract_x
_atom_site_fract_y
_atom_site_fract_z
Si Si1 0.851717 0.891843 0.905320
Si Si2 0.182780 0.110433 0.449711
Si Si3 0.834860 0.701887 0.212186
Si Si4 0.397511 0.798812 0.062859
Si Si5 0.781323 0.891271 0.035075
Si Si6 0.988650 0.609829 0.826884
Si Si7 0.627824 0.794495 0.436021
Si Si8 0.187032 0.612944 0.296382
O O1 0.822205 0.869924 0.714347
O O2 0.801901 0.880124 0.922327
O O3 0.878489 0.000000 0.957249
O O4 0.901541 0.814551 0.026089
O O5 0.138239 0.178723 0.445946
O O6 0.246805 0.135214 0.607937
O O7 0.167053 0.000000 0.456655
O O8 0.884137 0.691973 0.192727
O O9 0.785170 0.629737 0.079938
O O10 0.857920 0.667678 0.393482
O O11 0.813728 0.813777 0.184228
O O12 0.456499 0.852290 0.150287
O O13 0.347136 0.844169 0.886681
O O14 0.792537 0.000000 0.109770
O O15 0.974725 0.500000 0.755733
O O16 0.937448 0.682100 0.706366
O O17 0.000000 0.611440 0.000000
O O18 0.668000 0.844552 0.401476
O O19 0.173995 0.500000 0.279548
#
# Coordination Sequence:
#
# PCOD8105452 Si02
#       8
#     8   8   8   8   8   8   8   8
#     4   9  17  34  58  86 116 156 201 243 295 352
#     4  10  21  34  57  92 122 150 195 248 302 354
#     4  10  24  36  56  89 120 158 199 235 299 355
#     4  11  22  40  60  84 119 157 200 247 289 347
#     4   9  19  36  57  82 124 164 194 235 290 362
#     4  11  23  42  65  87 113 154 206 248 292 349
#     4  12  23  39  60  86 124 158 196 249 296 348
#     4  11  22  36  60  88 117 156 196 242 300 357
#
# _framework density 19.325184
#
# number of rings (size 3 to 8) (size 9 to 14) (size 15 to 20)
#    0.000    1.625    2.500    1.875    5.250    4.000 
#    0.000    1.250    0.000    2.250    0.000    4.375 
#    0.000    0.000    0.000    0.000    0.000    0.000 
#
# Total GULP energy -396852.509433 kJ/mol
# GULP energy per Si atom -12401.640920 kJ/mol
# Density = 1.928120 g / cm^3
# Si number density = 19.325184 Si / 1000 Ang^3
#
#
#
# Elastic Constant Matrix: (Units=GPa)
#
#
# Indices 1 2 3 4 5 6 
#
# 1 86.8983 51.6481 38.0831 0.0000 12.3527 0.0000
# 2 51.6481 106.4018 36.4614 0.0000 7.7297 0.0000
# 3 38.0831 36.4614 80.0195 0.0000 0.4618 0.0000
# 4 0.0000 0.0000 0.0000 18.8487 0.0000 2.1942
# 5 12.3527 7.7297 0.4618 0.0000 27.8569 0.0000
# 6 0.0000 0.0000 0.0000 2.1942 0.0000 30.2282
#
#
#
# Elastic Compliance Matrix: (Units=1/GPa)
#
#
# Indices 1 2 3 4 5 6 
#
# 1 0.019039 -0.006730 -0.005957 0.000000 -0.006476 0.000000
# 2 -0.006730 0.013774 -0.003069 0.000000 -0.000787 0.000000
# 3 -0.005957 -0.003069 0.016712 0.000000 0.003216 0.000000
# 4 0.000000 0.000000 0.000000 0.053506 0.000000 -0.003884
# 5 -0.006476 -0.000787 0.003216 0.000000 0.038935 0.000000
# 6 0.000000 0.000000 0.000000 -0.003884 0.000000 0.033364
#
#
# Mechanical properties :
#
#
# Convention : Reuss Voigt Hill
#
# Bulk Modulus (GPa) = 55.51499 58.41163 56.96331
# Shear Modulus (GPa) = 23.49131 25.19522 24.34327
#
# Velocity S-wave (km/s) = 3.49030 3.61467 3.55303
# Velocity P-wave (km/s) = 6.71059 6.90741 6.80971
#
# Compressibility (1/GPa) = 0.01801315
#
# Stress axis : x y z
#
# Youngs Moduli (GPa) = 52.52414 72.60204 59.83776
#
# Poissons Ratio (x) = 0.48859 0.35647
# Poissons Ratio (y) = 0.35347 0.18363
# Poissons Ratio (z) = 0.31290 0.22280
#
# Static dielectric constant tensor:
#      x y z
#    x 3.384740 0.000000 -0.136570 
#    y 0.000000 3.912600 0.000000 
#    z -0.136570 0.000000 3.336930 
# 
# 
# High freq. dielectric constant tensor:
#      x y z
#    x 1.737580 0.000000 -0.017600 
#    y 0.000000 1.768870 0.000000 
#    z -0.017600 0.000000 1.739020 
# 
# From -- ./inp_files/112052.got.cif
#   From: 2010.06.25/outbox.cif.g09.slc.cpg/sg12_57_cif.got.tgz:112052.got - 2010.06.28 00:19:55.
