data_PCOD8105063
_publ_section_title
;
Structure prediction by ZEFSAII (Michael W. Deem and Ramdas Pophale) SiO2 
 PCOD8105063
Probable space group: C 2/M
;
_chemical_formula_sum "Si O2"
_cell_formula_units_Z 64
_cell_length_a 17.196527
_cell_length_b 19.076156
_cell_length_c 14.593694
_cell_angle_alpha 90.000000
_cell_angle_beta 39.151282
_cell_angle_gamma 90.000000
_cell_volume 3022.601478
_symmetry_space_group_name_H-M "C 2/M"
_symmetry_group_IT_number 12
_symmetry_cell_setting 'monoclinic'
loop_
_space_group_symop_operation_xyz
x,y,z
-x,y,-z
-x,-y,-z
x,-y,z
1/2+x,1/2+y,z
1/2-x,1/2+y,-z
1/2-x,1/2-y,-z
1/2+x,1/2-y,z
loop_
_atom_site_type_symbol
_atom_site_label
_atom_site_fract_x
_atom_site_fract_y
_atom_site_fract_z
Si Si1 0.727710 0.316768 0.584412
Si Si2 0.973553 0.919908 0.277326
Si Si3 0.110182 0.081793 0.333982
Si Si4 0.657960 0.423665 0.959326
Si Si5 0.057524 0.581304 0.546692
Si Si6 0.881464 0.576333 0.874927
Si Si7 0.637195 0.300773 0.861483
Si Si8 0.130129 0.649167 0.929460
O O1 0.750000 0.250000 0.500000
O O2 0.643044 0.369502 0.603977
O O3 0.841320 0.361370 0.519124
O O4 0.663757 0.284565 0.732156
O O5 0.073035 0.900206 0.264050
O O6 0.024764 0.908222 0.127092
O O7 0.929867 0.000000 0.331381
O O8 0.248824 0.111666 0.224563
O O9 0.000000 0.112561 0.500000
O O10 0.122341 0.000000 0.342636
O O11 0.659019 0.500000 0.908690
O O12 0.740301 0.426299 0.974691
O O13 0.710183 0.366602 0.839425
O O14 0.105120 0.500000 0.505221
O O15 0.000000 0.598504 0.500000
O O16 0.955488 0.594840 0.716317
O O17 0.920794 0.500000 0.878418
O O18 0.896197 0.632929 0.940618
O O19 0.660533 0.231167 0.898260
O O20 0.500000 0.327559 0.000000
O O21 0.000000 0.630192 0.000000
#
# Coordination Sequence:
#
# PCOD8105063 Si02
#       8
#     8   8   8   8   8   8   8   8
#     4  12  27  44  66  96 140 178 218 277 343 414
#     4  10  21  41  69  98 126 169 223 277 338 399
#     4  10  22  42  67  97 133 175 228 282 334 398
#     4  10  20  40  69  96 125 159 217 284 333 387
#     4  10  23  45  71 100 134 174 225 283 342 409
#     4  10  21  40  68  97 125 167 218 271 335 396
#     4  11  25  43  60  95 130 172 224 269 328 402
#     4  11  25  41  65  94 141 179 230 281 330 407
#
# _framework density 21.173814
#
# number of rings (size 3 to 8) (size 9 to 14) (size 15 to 20)
#    0.000    1.500    2.500    1.500    5.250    3.750 
#    4.500    2.500    0.000    0.000    0.000    0.000 
#    0.000    0.000    0.000    0.000    0.000    0.000 
#
# Total GULP energy -396525.288804 kJ/mol
# GULP energy per Si atom -12391.415275 kJ/mol
# Density = 2.112562 g / cm^3
# Si number density = 21.173814 Si / 1000 Ang^3
#
#
#
# Elastic Constant Matrix: (Units=GPa)
#
#
# Indices 1 2 3 4 5 6 
#
# 1 99.8971 73.2826 54.7726 -0.0001 -0.1219 0.0000
# 2 73.2826 137.1380 61.2991 0.0003 6.7054 -0.0003
# 3 54.7726 61.2991 125.0080 -0.0001 12.1681 -0.0001
# 4 -0.0001 0.0003 -0.0001 17.2836 -0.0001 8.8469
# 5 -0.1219 6.7054 12.1681 -0.0001 43.0640 0.0002
# 6 0.0000 -0.0003 -0.0001 8.8469 0.0002 29.6163
#
#
#
# Elastic Compliance Matrix: (Units=1/GPa)
#
#
# Indices 1 2 3 4 5 6 
#
# 1 0.018190 -0.007904 -0.004339 0.000000 0.002508 0.000000
# 2 -0.007904 0.012774 -0.002679 0.000000 -0.001254 0.000000
# 3 -0.004339 -0.002679 0.011491 0.000000 -0.002842 0.000000
# 4 0.000000 0.000000 0.000000 0.068302 0.000000 -0.020403
# 5 0.002508 -0.001254 -0.002842 0.000000 0.024227 0.000000
# 6 0.000000 0.000000 0.000000 -0.020403 0.000000 0.039860
#
#
# Mechanical properties :
#
#
# Convention : Reuss Voigt Hill
#
# Bulk Modulus (GPa) = 79.28399 82.30576 80.79487
# Shear Modulus (GPa) = 23.93608 29.50536 26.72072
#
# Velocity S-wave (km/s) = 3.36587 3.73699 3.55628
# Velocity P-wave (km/s) = 7.25473 7.58788 7.42318
#
# Compressibility (1/GPa) = 0.01261289
#
# Stress axis : x y z
#
# Youngs Moduli (GPa) = 54.97501 78.28308 87.02712
#
# Poissons Ratio (x) = 0.61872 0.37757
# Poissons Ratio (y) = 0.43450 0.23313
# Poissons Ratio (z) = 0.23851 0.20971
#
# Static dielectric constant tensor:
#      x y z
#    x 3.772640 0.000000 -0.040250 
#    y 0.000000 3.754150 0.000000 
#    z -0.040250 0.000000 4.085400 
# 
# 
# High freq. dielectric constant tensor:
#      x y z
#    x 1.826470 0.000000 0.002590 
#    y 0.000000 1.826870 0.000000 
#    z 0.002590 0.000000 1.839720 
# 
# From -- ./inp_files/226819.got.cif
#   From: 2010.06.25/outbox.cif.g09.slc.cpg/sg12_114_cif.got.tgz:226819.got - 2010.06.28 00:19:55.
