data_PCOD8105783
_publ_section_title
;
Structure prediction by ZEFSAII (Michael W. Deem and Ramdas Pophale) SiO2 
 PCOD8105783
Probable space group: C 2/M
;
_chemical_formula_sum "Si O2"
_cell_formula_units_Z 48
_cell_length_a 11.880242
_cell_length_b 23.429807
_cell_length_c 9.626671
_cell_angle_alpha 90.000000
_cell_angle_beta 65.047304
_cell_angle_gamma 90.000000
_cell_volume 2429.477369
_symmetry_space_group_name_H-M "C 2/M"
_symmetry_group_IT_number 12
_symmetry_cell_setting 'monoclinic'
loop_
_space_group_symop_operation_xyz
x,y,z
-x,y,-z
-x,-y,-z
x,-y,z
1/2+x,1/2+y,z
1/2-x,1/2+y,-z
1/2-x,1/2-y,-z
1/2+x,1/2-y,z
loop_
_atom_site_type_symbol
_atom_site_label
_atom_site_fract_x
_atom_site_fract_y
_atom_site_fract_z
Si Si1 0.189452 0.840845 0.840532
Si Si2 0.944724 0.722520 0.676901
Si Si3 0.775530 0.935080 0.794581
Si Si4 0.447888 0.340430 0.802833
Si Si5 0.659532 0.938613 0.151911
Si Si6 0.446278 0.864298 0.181808
O O1 0.303731 0.798991 0.757440
O O2 0.235543 0.905877 0.817960
O O3 0.092602 0.841252 0.765743
O O4 0.131304 0.824829 0.019562
O O5 0.932327 0.790412 0.699545
O O6 0.000000 0.706477 0.500000
O O7 0.037931 0.696269 0.746197
O O8 0.904102 0.901100 0.758845
O O9 0.691816 0.891991 0.743174
O O10 0.800387 0.000000 0.720382
O O11 0.696198 0.944190 0.972954
O O12 0.528126 0.907659 0.229429
O O13 0.645649 0.000000 0.229561
O O14 0.500000 0.854231 0.000000
#
# Coordination Sequence:
#
# PCOD8105783 Si02
#       6
#     8   8   8   8   8   8
#     4   9  20  36  55  83 114 150 191 224 282 340
#     4  11  24  38  57  84 114 151 188 238 283 330
#     4   9  17  31  54  85 112 141 186 234 280 327
#     4  10  21  35  57  83 115 152 185 231 280 340
#     4   8  14  28  52  83 114 141 182 236 278 321
#     4   9  18  32  56  86 112 147 186 233 280 329
#
# _framework density 19.757335000000001
#
# number of rings (size 3 to 8) (size 9 to 14) (size 15 to 20)
#    0.000    2.667    0.000    2.000    4.667    3.333 
#    0.000    3.333    0.000   13.000    0.000    0.000 
#    0.000    0.000    0.000    0.000    0.000    0.000 
#
# Total GULP energy -297384.653752 kJ/mol
# GULP energy per Si atom -12391.027240 kJ/mol
# Density = 1.971237 g / cm^3
# Si number density = 19.757335 Si / 1000 Ang^3
#
#
#
# Elastic Constant Matrix: (Units=GPa)
#
#
# Indices 1 2 3 4 5 6 
#
# 1 132.4026 41.8113 23.9592 0.0000 4.9966 0.0000
# 2 41.8113 116.6369 21.4574 0.0000 7.6569 0.0000
# 3 23.9592 21.4574 45.3115 0.0000 6.1610 0.0000
# 4 0.0000 0.0000 0.0000 0.0062 0.0000 2.0136
# 5 4.9966 7.6569 6.1610 0.0000 10.2138 0.0000
# 6 0.0000 0.0000 0.0000 2.0136 0.0000 23.5538
#
#
#
# Elastic Compliance Matrix: (Units=1/GPa)
#
#
# Indices 1 2 3 4 5 6 
#
# 1 0.009009 -0.002561 -0.003500 0.000000 -0.000376 0.000000
# 2 -0.002561 0.010336 -0.002895 0.000000 -0.004750 0.000000
# 3 -0.003500 -0.002895 0.026975 0.000000 -0.012389 0.000000
# 4 0.000000 0.000000 0.000000 -6.027577 0.000000 0.515286
# 5 -0.000376 -0.004750 -0.012389 0.000000 0.109125 0.000000
# 6 0.000000 0.000000 0.000000 0.515286 0.000000 -0.001595
#
#
# Mechanical properties :
#
#
# Convention : Reuss Voigt Hill
#
# Bulk Modulus (GPa) = 35.19938 52.08963 43.64451
# Shear Modulus (GPa) = -0.85524 20.56297 9.85387
#
# Velocity S-wave (km/s) = -0.65864 3.22961 2.23568
# Velocity P-wave (km/s) = 4.15645 6.35052 5.36681
#
# Compressibility (1/GPa) = 0.02840959
#
# Stress axis : x y z
#
# Youngs Moduli (GPa) = 111.00096 96.74941 37.07084
#
# Poissons Ratio (x) = 0.24777 0.12974
# Poissons Ratio (y) = 0.28427 0.10731
# Poissons Ratio (z) = 0.38847 0.28006
#
# Static dielectric constant tensor:
#      x y z
#    x 3.721000 0.000000 0.033870 
#    y 0.000000 3.873160 0.000000 
#    z 0.033870 0.000000 3.056140 
# 
# 
# High freq. dielectric constant tensor:
#      x y z
#    x 1.776980 0.000000 0.004410 
#    y 0.000000 1.780160 0.000000 
#    z 0.004410 0.000000 1.711850 
# 
# From -- ./inp_files/51360.got.cif
#   From: 2010.06.25/outbox.cif.g09.slc.cpg/sg12_26_cif.got.tgz:51360.got - 2010.06.28 00:19:55.
