data_PCOD8105954
_publ_section_title
;
Structure prediction by ZEFSAII (Michael W. Deem and Ramdas Pophale) SiO2 
 PCOD8105954
Probable space group: C 2/M
;
_chemical_formula_sum "Si O2"
_cell_formula_units_Z 64
_cell_length_a 23.203131
_cell_length_b 8.896470
_cell_length_c 21.964903
_cell_angle_alpha 90.000000
_cell_angle_beta 56.093599
_cell_angle_gamma 90.000000
_cell_volume 3763.097870
_symmetry_space_group_name_H-M "C 2/M"
_symmetry_group_IT_number 12
_symmetry_cell_setting 'monoclinic'
loop_
_space_group_symop_operation_xyz
x,y,z
-x,y,-z
-x,-y,-z
x,-y,z
1/2+x,1/2+y,z
1/2-x,1/2+y,-z
1/2-x,1/2-y,-z
1/2+x,1/2-y,z
loop_
_atom_site_type_symbol
_atom_site_label
_atom_site_fract_x
_atom_site_fract_y
_atom_site_fract_z
Si Si1 0.294745 0.324800 0.920866
Si Si2 0.423180 0.826200 0.261366
Si Si3 0.218827 0.328184 0.424509
Si Si4 0.932996 0.678582 0.873309
Si Si5 0.069530 0.825534 0.995558
Si Si6 0.783593 0.324476 0.282161
Si Si7 0.159201 0.326661 0.578957
Si Si8 0.801214 0.326023 0.135361
O O1 0.300866 0.500000 0.932223
O O2 0.370500 0.252033 0.872513
O O3 0.259340 0.294598 0.876962
O O4 0.250000 0.250000 0.000000
O O5 0.495758 0.753580 0.197131
O O6 0.357452 0.757606 0.262876
O O7 0.412381 0.802017 0.340913
O O8 0.428629 0.000000 0.241034
O O9 0.221137 0.500000 0.403805
O O10 0.219254 0.237843 0.360644
O O11 0.153093 0.295587 0.509282
O O12 0.285840 0.287101 0.424808
O O13 0.926964 0.500000 0.871235
O O14 0.928045 0.723300 0.946409
O O15 0.133363 0.779738 0.915393
O O16 0.075276 0.000000 0.010394
O O17 0.000000 0.790428 0.000000
O O18 0.783983 0.500000 0.292483
O O19 0.771773 0.281376 0.219002
O O20 0.184113 0.500000 0.574067
O O21 0.825141 0.500000 0.119678
#
# Coordination Sequence:
#
# PCOD8105954 Si02
#       8
#     8   8   8   8   8   8   8   8
#     4  11  22  37  55  74  94 121 162 210 253 290
#     4   8  15  28  47  69  94 125 160 194 230 279
#     4   9  15  23  40  67  96 126 157 191 234 280
#     4  11  21  34  53  73  94 127 166 202 243 291
#     4  11  23  35  49  72 101 128 155 196 246 290
#     4   9  17  31  48  68  96 127 159 196 235 287
#     4   8  14  26  42  62  93 130 163 192 224 275
#     4  10  21  36  54  71  90 126 168 200 239 294
#
# _framework density 17.007262999999998
#
# number of rings (size 3 to 8) (size 9 to 14) (size 15 to 20)
#    0.000    2.375    1.250    3.000    0.000    3.500 
#    0.000    6.250    0.000    0.000    0.000    0.875 
#    0.000    7.000    0.000    0.000    0.000    0.000 
#
# Total GULP energy -396560.158751 kJ/mol
# GULP energy per Si atom -12392.504961 kJ/mol
# Density = 1.696855 g / cm^3
# Si number density = 17.007263 Si / 1000 Ang^3
#
#
#
# Elastic Constant Matrix: (Units=GPa)
#
#
# Indices 1 2 3 4 5 6 
#
# 1 81.9679 31.7493 47.8344 0.0004 12.5779 -0.0006
# 2 31.7493 52.4869 31.2525 0.0003 7.3020 -0.0027
# 3 47.8344 31.2525 129.9036 0.0005 29.8179 -0.0011
# 4 0.0004 0.0003 0.0005 24.9107 -0.0002 1.0555
# 5 12.5779 7.3020 29.8179 -0.0002 15.4792 0.0001
# 6 -0.0006 -0.0027 -0.0011 1.0555 0.0001 19.3761
#
#
#
# Elastic Compliance Matrix: (Units=1/GPa)
#
#
# Indices 1 2 3 4 5 6 
#
# 1 0.018192 -0.008180 -0.003986 0.000000 -0.003245 -0.000001
# 2 -0.008180 0.025917 -0.003482 0.000000 0.001128 0.000003
# 3 -0.003986 -0.003482 0.015924 0.000000 -0.025793 0.000000
# 4 0.000000 0.000000 0.000000 0.040236 0.000002 -0.002192
# 5 -0.003245 0.001128 -0.025793 0.000002 0.116393 -0.000002
# 6 -0.000001 0.000003 0.000000 -0.002192 -0.000002 0.051729
#
#
# Mechanical properties :
#
#
# Convention : Reuss Voigt Hill
#
# Bulk Modulus (GPa) = 34.79802 54.00344 44.40073
# Shear Modulus (GPa) = 16.16729 22.18804 19.17766
#
# Velocity S-wave (km/s) = 3.08654 3.61587 3.36164
# Velocity P-wave (km/s) = 5.76259 7.01818 6.42115
#
# Compressibility (1/GPa) = 0.02873726
#
# Stress axis : x y z
#
# Youngs Moduli (GPa) = 54.96805 38.58531 62.79778
#
# Poissons Ratio (x) = 0.31561 0.25033
# Poissons Ratio (y) = 0.44962 0.21867
# Poissons Ratio (z) = 0.21912 0.13436
#
# Static dielectric constant tensor:
#      x y z
#    x 3.056160 0.000000 0.096460 
#    y 0.000000 3.138450 0.000000 
#    z 0.096460 0.000000 3.642080 
# 
# 
# High freq. dielectric constant tensor:
#      x y z
#    x 1.611530 0.000000 0.013180 
#    y 0.000000 1.652270 0.000000 
#    z 0.013180 0.000000 1.671400 
# 
# From -- ./inp_files/348538.got.cif
#   From: 2010.06.25/outbox.cif.g09.slc.cpg/sg12_175_cif.got.tgz:348538.got - 2010.06.28 00:19:55.
