data_PCOD8105956
_publ_section_title
;
Structure prediction by ZEFSAII (Michael W. Deem and Ramdas Pophale) SiO2 
 PCOD8105956
Probable space group: C 2/M
;
_chemical_formula_sum "Si O2"
_cell_formula_units_Z 60
_cell_length_a 5.471319
_cell_length_b 27.614836
_cell_length_c 21.888468
_cell_angle_alpha 90.000000
_cell_angle_beta 97.828729
_cell_angle_gamma 90.000000
_cell_volume 3276.295912
_symmetry_space_group_name_H-M "C 2/M"
_symmetry_group_IT_number 12
_symmetry_cell_setting 'monoclinic'
loop_
_space_group_symop_operation_xyz
x,y,z
-x,y,-z
-x,-y,-z
x,-y,z
1/2+x,1/2+y,z
1/2-x,1/2+y,-z
1/2-x,1/2-y,-z
1/2+x,1/2-y,z
loop_
_atom_site_type_symbol
_atom_site_label
_atom_site_fract_x
_atom_site_fract_y
_atom_site_fract_z
Si Si1 0.430250 0.443749 0.370038
Si Si2 0.000000 0.791183 0.000000
Si Si3 0.538225 0.057450 0.570918
Si Si4 0.014072 0.054062 0.114619
Si Si5 0.235029 0.554799 0.232017
Si Si6 0.724296 0.273971 0.128751
Si Si7 0.908705 0.374385 0.158400
Si Si8 0.708427 0.868123 0.056289
O O1 0.439292 0.500000 0.387177
O O2 0.696185 0.420902 0.397959
O O3 0.397356 0.434686 0.296993
O O4 0.193899 0.421166 0.398121
O O5 0.794942 0.765443 0.948391
O O6 0.101255 0.825716 0.950002
O O7 0.500000 0.073220 0.500000
O O8 0.543702 0.000000 0.579296
O O9 0.914624 0.057313 0.180297
O O10 0.826588 0.078481 0.060494
O O11 0.267723 0.082985 0.117946
O O12 0.062035 0.000000 0.094353
O O13 0.116630 0.500000 0.231851
O O14 0.029139 0.597912 0.221014
O O15 0.488973 0.249825 0.153708
O O16 0.732222 0.327784 0.160781
O O17 0.117481 0.354195 0.120426
O O18 0.500000 0.867104 0.000000
#
# Coordination Sequence:
#
# PCOD8105956 Si02
#       8
#     8   4   8   8   8   8   8   8
#     4   9  17  28  44  69  97 131 181 222 249 293
#     4  12  22  40  57  78  98 126 155 212 260 328
#     4   9  16  26  41  64  99 139 176 219 258 284
#     4  10  21  36  54  73  97 134 173 215 265 311
#     4   9  20  34  53  76 100 137 179 223 262 295
#     4  12  26  40  61  84 101 129 164 204 266 327
#     4  11  22  37  56  73 106 126 165 219 261 318
#     4  11  20  36  56  74 100 129 158 203 268 321
#
# _framework density 18.313365000000001
#
# number of rings (size 3 to 8) (size 9 to 14) (size 15 to 20)
#    0.000    1.733    2.667    2.000    3.733    2.400 
#    0.000    2.333    0.000    0.000    0.000    0.000 
#    0.000    0.000    0.000    0.000    0.000   13.333 
#
# Total GULP energy -371672.273547 kJ/mol
# GULP energy per Si atom -12389.075785 kJ/mol
# Density = 1.827168 g / cm^3
# Si number density = 18.313365 Si / 1000 Ang^3
#
#
#
# Elastic Constant Matrix: (Units=GPa)
#
#
# Indices 1 2 3 4 5 6 
#
# 1 95.1289 19.8680 6.5021 0.0000 11.3269 0.0000
# 2 19.8680 74.4570 4.2270 0.0000 9.7099 0.0000
# 3 6.5021 4.2270 42.3005 0.0000 14.8896 0.0000
# 4 0.0000 0.0000 0.0000 10.1099 0.0000 -2.4856
# 5 11.3269 9.7099 14.8896 0.0000 28.2702 0.0000
# 6 0.0000 0.0000 0.0000 -2.4856 0.0000 19.7129
#
#
#
# Elastic Compliance Matrix: (Units=1/GPa)
#
#
# Indices 1 2 3 4 5 6 
#
# 1 0.011496 -0.002586 -0.000246 0.000000 -0.003589 0.000000
# 2 -0.002586 0.014646 0.000417 0.000000 -0.004214 0.000000
# 3 -0.000246 0.000417 0.029035 0.000000 -0.015337 0.000000
# 4 0.000000 0.000000 0.000000 0.102078 0.000000 0.012871
# 5 -0.003589 -0.004214 -0.015337 0.000000 0.046336 0.000000
# 6 0.000000 0.000000 0.000000 0.012871 0.000000 0.052351
#
#
# Mechanical properties :
#
#
# Convention : Reuss Voigt Hill
#
# Bulk Modulus (GPa) = 19.86095 30.34227 25.10161
# Shear Modulus (GPa) = 18.01451 23.70454 20.85953
#
# Velocity S-wave (km/s) = 3.13977 3.60166 3.37862
# Velocity P-wave (km/s) = 4.90029 5.82239 5.38113
#
# Compressibility (1/GPa) = 0.05035005
#
# Stress axis : x y z
#
# Youngs Moduli (GPa) = 86.98547 68.27593 34.44104
#
# Poissons Ratio (x) = 0.17654 0.00846
# Poissons Ratio (y) = 0.22492 -0.01437
# Poissons Ratio (z) = 0.02136 -0.02849
#
# Static dielectric constant tensor:
#      x y z
#    x 3.725220 0.000000 0.037600 
#    y 0.000000 3.405850 0.000000 
#    z 0.037600 0.000000 3.124030 
# 
# 
# High freq. dielectric constant tensor:
#      x y z
#    x 1.736030 0.000000 0.004550 
#    y 0.000000 1.673910 0.000000 
#    z 0.004550 0.000000 1.668480 
# 
# From -- ./inp_files/298098.got.cif
#   From: 2010.06.25/outbox.cif.g09.slc.cpg/sg12_150_cif.got.tgz:298098.got - 2010.06.28 00:19:55.
