data_PCOD8105050
_publ_section_title
;
Structure prediction by ZEFSAII (Michael W. Deem and Ramdas Pophale) SiO2 
 PCOD8105050
Probable space group: C 2/M
;
_chemical_formula_sum "Si O2"
_cell_formula_units_Z 56
_cell_length_a 24.926025
_cell_length_b 14.315327
_cell_length_c 9.208456
_cell_angle_alpha 90.000000
_cell_angle_beta 123.918153
_cell_angle_gamma 90.000000
_cell_volume 2726.673540
_symmetry_space_group_name_H-M "C 2/M"
_symmetry_group_IT_number 12
_symmetry_cell_setting 'monoclinic'
loop_
_space_group_symop_operation_xyz
x,y,z
-x,y,-z
-x,-y,-z
x,-y,z
1/2+x,1/2+y,z
1/2-x,1/2+y,-z
1/2-x,1/2-y,-z
1/2+x,1/2-y,z
loop_
_atom_site_type_symbol
_atom_site_label
_atom_site_fract_x
_atom_site_fract_y
_atom_site_fract_z
Si Si1 0.992728 0.197952 0.162067
Si Si2 0.232864 0.393062 0.844866
Si Si3 0.106603 0.891828 0.501848
Si Si4 0.878847 0.107753 0.143367
Si Si5 0.226589 0.769828 0.623661
Si Si6 0.974601 0.399860 0.122312
Si Si7 0.325169 0.104787 0.942814
O O1 0.919679 0.169595 0.092590
O O2 0.006071 0.305506 0.236086
O O3 0.040220 0.129499 0.318864
O O4 0.000000 0.188529 0.000000
O O5 0.230959 0.500000 0.787551
O O6 0.212210 0.328425 0.680139
O O7 0.303770 0.366337 0.012410
O O8 0.181524 0.374882 0.895631
O O9 0.099157 0.868093 0.660186
O O10 0.162053 0.830202 0.513741
O O11 0.124247 0.000000 0.506937
O O12 0.891546 0.000000 0.126127
O O13 0.250000 0.750000 0.500000
O O14 0.282232 0.824007 0.790170
O O15 0.990185 0.500000 0.227403
O O16 0.898184 0.383396 0.002728
O O17 0.000000 0.410885 0.000000
O O18 0.299465 0.000000 0.872913
#
# Coordination Sequence:
#
# PCOD8105050 Si02
#       7
#     8   8   8   8   8   8   8
#     4  11  24  39  64  94 126 164 212 259 317 373
#     4  10  22  41  66  95 124 163 215 263 312 374
#     4  11  25  44  63  91 126 166 212 255 312 380
#     4  10  21  41  66  91 123 166 212 260 311 373
#     4  12  26  38  62  96 134 166 203 256 322 382
#     4   9  20  37  62  90 121 160 208 256 306 370
#     4  10  20  40  68  92 120 166 214 259 312 375
#
# _framework density 20.537845000000001
#
# number of rings (size 3 to 8) (size 9 to 14) (size 15 to 20)
#    0.000    1.571    1.429    2.571    8.000    3.429 
#    0.000    0.714    0.000    1.714    0.000    0.000 
#    0.000    0.000    0.000    0.000    0.000    0.000 
#
# Total GULP energy -347188.630799 kJ/mol
# GULP energy per Si atom -12399.593957 kJ/mol
# Density = 2.049110 g / cm^3
# Si number density = 20.537845 Si / 1000 Ang^3
#
#
#
# Elastic Constant Matrix: (Units=GPa)
#
#
# Indices 1 2 3 4 5 6 
#
# 1 135.0092 40.2450 13.2061 0.0000 -7.3420 0.0000
# 2 40.2450 113.3656 26.0331 0.0000 -11.6664 0.0000
# 3 13.2061 26.0331 27.3462 0.0000 -0.0290 0.0000
# 4 0.0000 0.0000 0.0000 43.6981 0.0000 5.4524
# 5 -7.3420 -11.6664 -0.0290 0.0000 23.7650 0.0000
# 6 0.0000 0.0000 0.0000 5.4524 0.0000 37.0723
#
#
#
# Elastic Compliance Matrix: (Units=1/GPa)
#
#
# Indices 1 2 3 4 5 6 
#
# 1 0.008377 -0.002434 -0.001727 0.000000 0.001391 0.000000
# 2 -0.002434 0.012773 -0.010978 0.000000 0.005505 0.000000
# 3 -0.001727 -0.010978 0.047846 0.000000 -0.005864 0.000000
# 4 0.000000 0.000000 0.000000 0.023312 0.000000 -0.003429
# 5 0.001391 0.005505 -0.005864 0.000000 0.045204 0.000000
# 6 0.000000 0.000000 0.000000 -0.003429 0.000000 0.027479
#
#
# Mechanical properties :
#
#
# Convention : Reuss Voigt Hill
#
# Bulk Modulus (GPa) = 25.82740 48.29883 37.06311
# Shear Modulus (GPa) = 24.01835 33.98952 29.00394
#
# Velocity S-wave (km/s) = 3.42346 4.07255 3.76203
# Velocity P-wave (km/s) = 5.31315 6.75886 6.07914
#
# Compressibility (1/GPa) = 0.03871857
#
# Stress axis : x y z
#
# Youngs Moduli (GPa) = 119.37355 78.29254 20.90018
#
# Poissons Ratio (x) = 0.19058 0.03609
# Poissons Ratio (y) = 0.29058 0.22944
# Poissons Ratio (z) = 0.20612 0.85949
#
# Static dielectric constant tensor:
#      x y z
#    x 3.909870 0.000000 -0.014590 
#    y 0.000000 4.320260 0.000000 
#    z -0.014590 0.000000 3.324880 
# 
# 
# High freq. dielectric constant tensor:
#      x y z
#    x 1.821010 0.000000 -0.003260 
#    y 0.000000 1.830910 0.000000 
#    z -0.003260 0.000000 1.763690 
# 
# From -- ./inp_files/96941.got.cif
#   From: 2010.06.25/outbox.cif.g09.slc.cpg/sg12_49_cif.got.tgz:96941.got - 2010.06.28 00:19:55.
