data_PCOD8105684
_publ_section_title
;
Structure prediction by ZEFSAII (Michael W. Deem and Ramdas Pophale) SiO2 
 PCOD8105684
Probable space group: C 2/M
;
_chemical_formula_sum "Si O2"
_cell_formula_units_Z 64
_cell_length_a 13.139760
_cell_length_b 12.559313
_cell_length_c 27.981665
_cell_angle_alpha 90.000000
_cell_angle_beta 140.221686
_cell_angle_gamma 90.000000
_cell_volume 2954.499428
_symmetry_space_group_name_H-M "C 2/M"
_symmetry_group_IT_number 12
_symmetry_cell_setting 'monoclinic'
loop_
_space_group_symop_operation_xyz
x,y,z
-x,y,-z
-x,-y,-z
x,-y,z
1/2+x,1/2+y,z
1/2-x,1/2+y,-z
1/2-x,1/2-y,-z
1/2+x,1/2-y,z
loop_
_atom_site_type_symbol
_atom_site_label
_atom_site_fract_x
_atom_site_fract_y
_atom_site_fract_z
Si Si1 0.902128 0.126354 0.578662
Si Si2 0.826009 0.627334 0.420241
Si Si3 0.760097 0.125359 0.333237
Si Si4 0.056564 0.253499 0.191219
Si Si5 0.984152 0.378649 0.071586
Si Si6 0.344617 0.126395 0.318004
Si Si7 0.256726 0.620844 0.095630
Si Si8 0.807409 0.373647 0.586161
O O1 0.809631 0.175214 0.591988
O O2 0.813553 0.161921 0.498550
O O3 0.084583 0.166732 0.639900
O O4 0.898390 0.000000 0.582600
O O5 0.815153 0.500000 0.418135
O O6 0.799164 0.664959 0.355687
O O7 0.000000 0.663830 0.500000
O O8 0.605177 0.155518 0.246628
O O9 0.753092 0.174051 0.384661
O O10 0.767989 0.000000 0.341563
O O11 0.992075 0.302985 0.119520
O O12 0.207075 0.176086 0.234971
O O13 0.912301 0.188888 0.162106
O O14 0.954160 0.500000 0.077047
O O15 0.150209 0.370823 0.104112
O O16 0.841362 0.338846 0.985997
O O17 0.518083 0.170061 0.365414
O O18 0.341766 0.000000 0.312696
O O19 0.310192 0.500000 0.106142
O O20 0.816123 0.500000 0.593398
#
# Coordination Sequence:
#
# PCOD8105684 Si02
#       8
#     8   8   8   8   8   8   8   8
#     4   9  16  31  57  78 100 149 210 258 296 342
#     4   9  15  29  53  78 104 143 200 254 300 341
#     4  10  22  36  52  81 116 156 198 241 296 354
#     4  12  23  35  59  90 125 154 187 237 293 360
#     4   9  20  41  68  92 118 155 197 237 283 348
#     4  10  21  35  54  83 114 153 194 245 307 352
#     4   9  20  41  67  93 119 153 196 239 285 347
#     4   9  17  34  56  73 105 154 205 247 292 349
#
# _framework density 21.661874999999998
#
# number of rings (size 3 to 8) (size 9 to 14) (size 15 to 20)
#    0.000    2.375    1.250    2.250    1.750    2.500 
#    0.000    4.375    0.000    0.000    0.000    5.250 
#    0.000    0.000    0.000    0.000    0.000    0.000 
#
# Total GULP energy -396912.545666 kJ/mol
# GULP energy per Si atom -12403.517052 kJ/mol
# Density = 2.161257 g / cm^3
# Si number density = 21.661875 Si / 1000 Ang^3
#
#
#
# Elastic Constant Matrix: (Units=GPa)
#
#
# Indices 1 2 3 4 5 6 
#
# 1 131.0982 48.8586 39.2359 0.0000 8.6091 0.0000
# 2 48.8586 37.2117 17.8182 0.0000 3.9862 0.0000
# 3 39.2359 17.8182 70.2365 0.0000 20.9535 0.0000
# 4 0.0000 0.0000 0.0000 33.8630 0.0000 -5.8639
# 5 8.6091 3.9862 20.9535 0.0000 37.5266 0.0000
# 6 0.0000 0.0000 0.0000 -5.8639 0.0000 36.5335
#
#
#
# Elastic Compliance Matrix: (Units=1/GPa)
#
#
# Indices 1 2 3 4 5 6 
#
# 1 0.015922 -0.018917 -0.004326 0.000000 0.000772 0.000000
# 2 -0.018917 0.053117 -0.003023 0.000000 0.000385 0.000000
# 3 -0.004326 -0.003023 0.020433 0.000000 -0.010095 0.000000
# 4 0.000000 0.000000 0.000000 0.030375 0.000000 0.004875
# 5 0.000772 0.000385 -0.010095 0.000000 0.032067 0.000000
# 6 0.000000 0.000000 0.000000 0.004875 0.000000 0.028155
#
#
# Mechanical properties :
#
#
# Convention : Reuss Voigt Hill
#
# Bulk Modulus (GPa) = 27.07013 50.04131 38.55572
# Shear Modulus (GPa) = 20.41558 30.42685 25.42121
#
# Velocity S-wave (km/s) = 3.07329 3.75190 3.42942
# Velocity P-wave (km/s) = 5.01172 6.47459 5.78954
#
# Compressibility (1/GPa) = 0.03694108
#
# Stress axis : x y z
#
# Youngs Moduli (GPa) = 62.80719 18.82650 48.94124
#
# Poissons Ratio (x) = 0.35613 0.21171
# Poissons Ratio (y) = 1.18809 0.14794
# Poissons Ratio (z) = 0.27169 0.05691
#
# Static dielectric constant tensor:
#      x y z
#    x 4.136880 0.000000 0.060610 
#    y 0.000000 4.082120 0.000000 
#    z 0.060610 0.000000 3.694800 
# 
# 
# High freq. dielectric constant tensor:
#      x y z
#    x 1.856410 0.000000 0.004890 
#    y 0.000000 1.892800 0.000000 
#    z 0.004890 0.000000 1.830900 
# 
# From -- ./inp_files/358444.got.cif
#   From: 2010.06.25/outbox.cif.g09.slc.cpg/sg12_180_cif.got.tgz:358444.got - 2010.06.28 00:19:55.
