data_PCOD8105330
_publ_section_title
;
Structure prediction by ZEFSAII (Michael W. Deem and Ramdas Pophale) SiO2 
 PCOD8105330
Probable space group: C 2/M
;
_chemical_formula_sum "Si O2"
_cell_formula_units_Z 56
_cell_length_a 18.995927
_cell_length_b 9.113480
_cell_length_c 24.475082
_cell_angle_alpha 90.000000
_cell_angle_beta 135.936836
_cell_angle_gamma 90.000000
_cell_volume 2946.696484
_symmetry_space_group_name_H-M "C 2/M"
_symmetry_group_IT_number 12
_symmetry_cell_setting 'monoclinic'
loop_
_space_group_symop_operation_xyz
x,y,z
-x,y,-z
-x,-y,-z
x,-y,z
1/2+x,1/2+y,z
1/2-x,1/2+y,-z
1/2-x,1/2-y,-z
1/2+x,1/2-y,z
loop_
_atom_site_type_symbol
_atom_site_label
_atom_site_fract_x
_atom_site_fract_y
_atom_site_fract_z
Si Si1 0.969536 0.165101 0.314042
Si Si2 0.093523 0.167222 0.019400
Si Si3 0.355108 0.329342 0.071297
Si Si4 0.931786 0.824954 0.413108
Si Si5 0.792282 0.325390 0.726357
Si Si6 0.733091 0.163362 0.168265
Si Si7 0.515073 0.825386 0.234816
O O1 0.027062 0.272952 0.304219
O O2 0.980347 0.225153 0.382172
O O3 0.852752 0.163518 0.233502
O O4 0.014049 0.000000 0.333616
O O5 0.196388 0.244837 0.095845
O O6 0.105057 0.000000 0.043622
O O7 0.077371 0.183920 0.945784
O O8 0.000000 0.239960 0.000000
O O9 0.336243 0.500000 0.076493
O O10 0.416216 0.249456 0.153367
O O11 0.250000 0.250000 0.000000
O O12 0.816495 0.766575 0.356248
O O13 0.000000 0.759726 0.500000
O O14 0.930909 0.000000 0.413530
O O15 0.788203 0.500000 0.725281
O O16 0.807620 0.268709 0.797096
O O17 0.883878 0.269750 0.739745
O O18 0.690269 0.000000 0.137552
O O19 0.502832 0.000000 0.225288
#
# Coordination Sequence:
#
# PCOD8105330 Si02
#       7
#     8   8   8   8   8   8   8
#     4   9  18  32  51  75 100 126 162 206 247 292
#     4  10  21  34  47  67  94 122 156 203 254 295
#     4  11  23  37  52  71  99 134 172 213 255 300
#     4   8  14  29  55  81 102 129 168 209 245 289
#     4   8  16  30  48  73 101 130 167 208 249 293
#     4   9  17  31  50  68  89 122 164 206 242 284
#     4  11  21  33  50  72 102 136 168 205 251 303
#
# _framework density 19.004332999999999
#
# number of rings (size 3 to 8) (size 9 to 14) (size 15 to 20)
#    0.000    2.571    0.000    4.286    0.000    4.286 
#    0.000    1.429    0.000    2.143    0.000    0.000 
#    0.000    0.000    0.000    0.000    0.000    0.000 
#
# Total GULP energy -347088.124965 kJ/mol
# GULP energy per Si atom -12396.004463 kJ/mol
# Density = 1.896108 g / cm^3
# Si number density = 19.004333 Si / 1000 Ang^3
#
#
#
# Elastic Constant Matrix: (Units=GPa)
#
#
# Indices 1 2 3 4 5 6 
#
# 1 106.3921 29.1891 28.2658 0.0000 -10.0618 0.0000
# 2 29.1891 57.6412 23.5882 0.0000 -4.6982 0.0000
# 3 28.2658 23.5882 87.4587 0.0000 -17.9838 0.0000
# 4 0.0000 0.0000 0.0000 15.1423 0.0000 -4.7078
# 5 -10.0618 -4.6982 -17.9838 0.0000 26.5045 0.0000
# 6 0.0000 0.0000 0.0000 -4.7078 0.0000 26.2709
#
#
#
# Elastic Compliance Matrix: (Units=1/GPa)
#
#
# Indices 1 2 3 4 5 6 
#
# 1 0.011445 -0.004820 -0.001954 0.000000 0.002165 0.000000
# 2 -0.004820 0.021531 -0.004464 0.000000 -0.001042 0.000000
# 3 -0.001954 -0.004464 0.015055 0.000000 0.008682 0.000000
# 4 0.000000 0.000000 0.000000 0.069937 0.000000 0.012533
# 5 0.002165 -0.001042 0.008682 0.000000 0.044257 0.000000
# 6 0.000000 0.000000 0.000000 0.012533 0.000000 0.040311
#
#
# Mechanical properties :
#
#
# Convention : Reuss Voigt Hill
#
# Bulk Modulus (GPa) = 39.12926 45.95313 42.54120
# Shear Modulus (GPa) = 21.41054 24.94678 23.17866
#
# Velocity S-wave (km/s) = 3.36015 3.62704 3.49614
# Velocity P-wave (km/s) = 5.97398 6.46323 6.22342
#
# Compressibility (1/GPa) = 0.02555632
#
# Stress axis : x y z
#
# Youngs Moduli (GPa) = 87.37151 46.44437 66.42509
#
# Poissons Ratio (x) = 0.22385 0.12979
# Poissons Ratio (y) = 0.42111 0.29650
# Poissons Ratio (z) = 0.17072 0.20731
#
# Static dielectric constant tensor:
#      x y z
#    x 3.825760 0.000000 -0.132910 
#    y 0.000000 3.203260 0.000000 
#    z -0.132910 0.000000 3.520750 
# 
# 
# High freq. dielectric constant tensor:
#      x y z
#    x 1.751930 0.000000 -0.009490 
#    y 0.000000 1.705430 0.000000 
#    z -0.009490 0.000000 1.720780 
# 
# From -- ./inp_files/280364.got.cif
#   From: 2010.06.25/outbox.cif.g09.slc.cpg/sg12_141_cif.got.tgz:280364.got - 2010.06.28 00:19:55.
