data_PCOD8105181
_publ_section_title
;
Structure prediction by ZEFSAII (Michael W. Deem and Ramdas Pophale) SiO2 
 PCOD8105181
Probable space group: C 2/M
;
_chemical_formula_sum "Si O2"
_cell_formula_units_Z 40
_cell_length_a 16.733773
_cell_length_b 10.183939
_cell_length_c 12.508340
_cell_angle_alpha 90.000000
_cell_angle_beta 66.595134
_cell_angle_gamma 90.000000
_cell_volume 1956.230202
_symmetry_space_group_name_H-M "C 2/M"
_symmetry_group_IT_number 12
_symmetry_cell_setting 'monoclinic'
loop_
_space_group_symop_operation_xyz
x,y,z
-x,y,-z
-x,-y,-z
x,-y,z
1/2+x,1/2+y,z
1/2-x,1/2+y,-z
1/2-x,1/2-y,-z
1/2+x,1/2-y,z
loop_
_atom_site_type_symbol
_atom_site_label
_atom_site_fract_x
_atom_site_fract_y
_atom_site_fract_z
Si Si1 0.763071 0.000000 0.209265
Si Si2 0.212580 0.000000 0.225288
Si Si3 0.649584 0.234315 0.559875
Si Si4 0.500000 0.703822 0.000000
Si Si5 0.656932 0.778273 0.790743
Si Si6 0.397181 0.000000 0.562743
Si Si7 0.905749 0.000000 0.503850
Si Si8 0.879673 0.000000 0.951503
O O1 0.808538 0.871435 0.235418
O O2 0.658421 0.000000 0.294173
O O3 0.788694 0.000000 0.069086
O O4 0.271155 0.869371 0.191197
O O5 0.161968 0.000000 0.363400
O O6 0.147158 0.000000 0.158850
O O7 0.750000 0.250000 0.500000
O O8 0.629113 0.175633 0.687272
O O9 0.602786 0.372651 0.565806
O O10 0.626831 0.133252 0.480948
O O11 0.432638 0.794870 0.097974
O O12 0.558590 0.622473 0.053324
O O13 0.500000 0.000000 0.500000
O O14 0.000000 0.000000 0.500000
#
# Coordination Sequence:
#
# PCOD8105181 Si02
#       8
#     4   4   8   4   8   4   4   4
#     4  10  20  42  65  85 120 168 205 238 311 374
#     4  12  24  41  61  98 130 156 206 265 312 357
#     4  12  22  42  66  89 123 170 203 250 315 373
#     4   9  22  43  64  92 118 168 214 248 310 372
#     4  11  23  41  67  91 124 163 211 252 307 374
#     4  12  24  41  60  94 129 158 202 254 311 373
#     4  12  26  39  63 100 125 159 214 259 303 364
#     4   9  22  42  67  89 122 164 213 260 298 368
#
# _framework density 20.447490999999999
#
# number of rings (size 3 to 8) (size 9 to 14) (size 15 to 20)
#    0.000    1.000    4.000    3.000    2.800    3.600 
#    3.600    0.000    0.000    0.000    0.000    0.000 
#    0.000    0.000    0.000    0.000    0.000    0.000 
#
# Total GULP energy -247845.525544 kJ/mol
# GULP energy per Si atom -12392.276277 kJ/mol
# Density = 2.040095 g / cm^3
# Si number density = 20.447491 Si / 1000 Ang^3
#
#
#
# Elastic Constant Matrix: (Units=GPa)
#
#
# Indices 1 2 3 4 5 6 
#
# 1 134.8246 36.8654 42.5133 0.0000 -10.2893 0.0000
# 2 36.8654 103.5203 1.3040 0.0000 3.6942 0.0000
# 3 42.5133 1.3040 99.2029 0.0000 -9.3926 0.0000
# 4 0.0000 0.0000 0.0000 27.4491 0.0000 -1.3411
# 5 -10.2893 3.6942 -9.3926 0.0000 50.4295 0.0000
# 6 0.0000 0.0000 0.0000 -1.3411 0.0000 31.0047
#
#
#
# Elastic Compliance Matrix: (Units=1/GPa)
#
#
# Indices 1 2 3 4 5 6 
#
# 1 0.009737 -0.003471 -0.003985 0.000000 0.001499 0.000000
# 2 -0.003471 0.010926 0.001223 0.000000 -0.001281 0.000000
# 3 -0.003985 0.001223 0.011897 0.000000 0.001313 0.000000
# 4 0.000000 0.000000 0.000000 0.036508 0.000000 0.001579
# 5 0.001499 -0.001281 0.001313 0.000000 0.020474 0.000000
# 6 0.000000 0.000000 0.000000 0.001579 0.000000 0.032321
#
#
# Mechanical properties :
#
#
# Convention : Reuss Voigt Hill
#
# Bulk Modulus (GPa) = 49.76943 55.43480 52.60212
# Shear Modulus (GPa) = 35.45390 38.90100 37.17745
#
# Velocity S-wave (km/s) = 4.16853 4.36648 4.26865
# Velocity P-wave (km/s) = 6.89651 7.25198 7.07647
#
# Compressibility (1/GPa) = 0.02009265
#
# Stress axis : x y z
#
# Youngs Moduli (GPa) = 102.69970 91.52241 84.05831
#
# Poissons Ratio (x) = 0.31766 0.33500
# Poissons Ratio (y) = 0.35646 -0.10276
# Poissons Ratio (z) = 0.40929 -0.11189
#
# Static dielectric constant tensor:
#      x y z
#    x 3.521600 0.000000 -0.436930 
#    y 0.000000 3.556460 0.000000 
#    z -0.436930 0.000000 3.744130 
# 
# 
# High freq. dielectric constant tensor:
#      x y z
#    x 1.794320 0.000000 -0.013860 
#    y 0.000000 1.800970 0.000000 
#    z -0.013860 0.000000 1.808640 
# 
# From -- ./inp_files/140901.got.cif
#   From: 2010.06.25/outbox.cif.g09.slc.cpg/sg12_71_cif.got.tgz:140901.got - 2010.06.28 00:19:55.
