data_PCOD8105485
_publ_section_title
;
Structure prediction by ZEFSAII (Michael W. Deem and Ramdas Pophale) SiO2 
 PCOD8105485
Probable space group: C 2/M
;
_chemical_formula_sum "Si O2"
_cell_formula_units_Z 56
_cell_length_a 8.113686
_cell_length_b 20.334042
_cell_length_c 20.937977
_cell_angle_alpha 90.000000
_cell_angle_beta 112.799695
_cell_angle_gamma 90.000000
_cell_volume 3184.520572
_symmetry_space_group_name_H-M "C 2/M"
_symmetry_group_IT_number 12
_symmetry_cell_setting 'monoclinic'
loop_
_space_group_symop_operation_xyz
x,y,z
-x,y,-z
-x,-y,-z
x,-y,z
1/2+x,1/2+y,z
1/2-x,1/2+y,-z
1/2-x,1/2-y,-z
1/2+x,1/2-y,z
loop_
_atom_site_type_symbol
_atom_site_label
_atom_site_fract_x
_atom_site_fract_y
_atom_site_fract_z
Si Si1 0.232788 0.180831 0.923658
Si Si2 0.021563 0.421820 0.337526
Si Si3 0.873288 0.573304 0.181447
Si Si4 0.078709 0.921612 0.578709
Si Si5 0.653489 0.421821 0.337526
Si Si6 0.885470 0.680830 0.076341
Si Si7 0.010395 0.073304 0.818552
O O1 0.141005 0.250000 0.891003
O O2 0.434098 0.185634 0.934097
O O3 0.146502 0.121119 0.873122
O O4 0.226732 0.169668 1.000000
O O5 0.020458 0.500000 0.341401
O O6 0.983918 0.400120 0.259055
O O7 0.859742 0.395659 0.359742
O O8 0.217616 0.394008 0.385686
O O9 0.940119 0.500000 0.172608
O O10 0.900255 0.621118 0.126877
O O11 0.666280 0.570602 0.166281
O O12 0.000000 0.896576 0.500000
O O13 0.946244 0.894008 0.614314
O O14 0.083081 0.000000 0.583081
O O15 0.662346 0.500000 0.341402
O O16 0.534192 0.400121 0.259056
O O17 0.094905 0.000000 0.827392
#
# Coordination Sequence:
#
# PCOD8105485 Si02
#       7
#     8   8   8   8   8   8   8
#     4  10  21  35  50  69  95 128 162 202 251 295
#     4   8  15  27  41  61  91 125 159 197 241 285
#     4   9  18  32  50  71  95 128 165 202 247 293
#     4   9  16  24  38  62  91 127 163 193 237 292
#     4   8  15  27  41  61  91 125 159 197 241 285
#     4  10  21  35  50  69  95 128 162 202 251 295
#     4   9  18  32  50  71  95 128 165 202 247 293
#
# _framework density 17.585065
#
# number of rings (size 3 to 8) (size 9 to 14) (size 15 to 20)
#    0.000    3.000    0.000    2.571    2.000    3.429 
#    0.000    5.714    0.000    0.000    0.000    0.000 
#    0.000    1.143    0.571    0.000    0.000    0.000 
#
# Total GULP energy -346952.416269 kJ/mol
# GULP energy per Si atom -12391.157724 kJ/mol
# Density = 1.754504 g / cm^3
# Si number density = 17.585065 Si / 1000 Ang^3
#
#
#
# Elastic Constant Matrix: (Units=GPa)
#
#
# Indices 1 2 3 4 5 6 
#
# 1 104.7185 31.4304 70.0785 0.0000 -0.0007 0.0000
# 2 31.4304 53.9590 40.8858 0.0000 0.0005 0.0000
# 3 70.0785 40.8858 108.8509 0.0000 0.0000 0.0000
# 4 0.0000 0.0000 0.0000 -3.7120 0.0000 0.0004
# 5 -0.0007 0.0005 0.0000 0.0000 26.9217 0.0000
# 6 0.0000 0.0000 0.0000 0.0004 0.0000 20.2326
#
#
#
# Elastic Compliance Matrix: (Units=1/GPa)
#
#
# Indices 1 2 3 4 5 6 
#
# 1 0.016970 -0.002246 -0.010082 0.000000 0.000000 0.000000
# 2 -0.002246 0.026203 -0.008396 0.000000 0.000000 0.000000
# 3 -0.010082 -0.008396 0.018832 0.000000 0.000000 0.000000
# 4 0.000000 0.000000 0.000000 -0.269400 0.000000 0.000005
# 5 0.000000 0.000000 0.000000 0.000000 0.037145 0.000000
# 6 0.000000 0.000000 0.000000 0.000005 0.000000 0.049425
#
#
# Mechanical properties :
#
#
# Convention : Reuss Voigt Hill
#
# Bulk Modulus (GPa) = 48.64635 61.36863 55.00749
# Shear Modulus (GPa) = -68.94208 17.03072 -25.95568
#
# Velocity S-wave (km/s) = -6.26817 3.11541 -3.84605
# Velocity P-wave (km/s) = 4.96620 6.92206 3.40968
#
# Compressibility (1/GPa) = 0.02055653
#
# Stress axis : x y z
#
# Youngs Moduli (GPa) = 58.92593 38.16399 53.10239
#
# Poissons Ratio (x) = 0.08570 0.53539
# Poissons Ratio (y) = 0.13233 0.44587
# Poissons Ratio (z) = 0.59410 0.32044
#
# Static dielectric constant tensor:
#      x y z
#    x 3.549440 0.000000 -0.000020 
#    y 0.000000 2.662250 0.000000 
#    z -0.000020 0.000000 3.611440 
# 
# 
# High freq. dielectric constant tensor:
#      x y z
#    x 1.692370 0.000000 0.000000 
#    y 0.000000 1.622200 0.000000 
#    z 0.000000 0.000000 1.677070 
# 
# From -- ./inp_files/258217.got.cif
#   From: 2010.06.25/outbox.cif.g09.slc.cpg/sg12_130_cif.got.tgz:258217.got - 2010.06.28 00:19:55.
