data_PCOD8105623
_publ_section_title
;
Structure prediction by ZEFSAII (Michael W. Deem and Ramdas Pophale) SiO2 
 PCOD8105623
Probable space group: C 2/M
;
_chemical_formula_sum "Si O2"
_cell_formula_units_Z 56
_cell_length_a 18.409500
_cell_length_b 8.759208
_cell_length_c 29.111938
_cell_angle_alpha 90.000000
_cell_angle_beta 142.160816
_cell_angle_gamma 90.000000
_cell_volume 2879.752752
_symmetry_space_group_name_H-M "C 2/M"
_symmetry_group_IT_number 12
_symmetry_cell_setting 'monoclinic'
loop_
_space_group_symop_operation_xyz
x,y,z
-x,y,-z
-x,-y,-z
x,-y,z
1/2+x,1/2+y,z
1/2-x,1/2+y,-z
1/2-x,1/2-y,-z
1/2+x,1/2-y,z
loop_
_atom_site_type_symbol
_atom_site_label
_atom_site_fract_x
_atom_site_fract_y
_atom_site_fract_z
Si Si1 0.762607 0.676024 0.143157
Si Si2 0.829583 0.180869 0.000569
Si Si3 0.290634 0.179361 0.567804
Si Si4 0.903414 0.176141 0.855403
Si Si5 0.957552 0.177599 0.298476
Si Si6 0.362961 0.821763 0.429688
Si Si7 0.708884 0.677679 0.700142
O O1 0.802691 0.500000 0.160914
O O2 0.719668 0.739026 0.072757
O O3 0.653413 0.697215 0.123033
O O4 0.874344 0.776122 0.214522
O O5 0.825650 0.000000 0.000250
O O6 0.750000 0.250000 0.000000
O O7 0.963312 0.238127 0.074764
O O8 0.250000 0.250000 0.500000
O O9 0.422972 0.228024 0.646107
O O10 0.202527 0.228675 0.563749
O O11 0.285019 0.000000 0.559753
O O12 0.836132 0.278445 0.784361
O O13 0.897515 0.000000 0.836790
O O14 0.893531 0.217985 0.314432
O O15 0.987683 0.000000 0.310140
O O16 0.500000 0.776392 0.500000
O O17 0.311366 0.778221 0.354669
O O18 0.342931 0.000000 0.428487
O O19 0.708140 0.500000 0.686830
#
# Coordination Sequence:
#
# PCOD8105623 Si02
#       7
#     8   8   8   8   8   8   8
#     4   9  18  35  58  81 107 144 191 235 277 331
#     4  10  21  35  53  79 110 145 184 231 285 337
#     4  12  25  41  62  87 117 152 190 233 281 333
#     4   9  18  35  58  80 106 145 191 234 276 330
#     4  10  21  38  60  87 118 150 188 233 282 337
#     4  11  24  41  62  87 115 150 191 233 280 335
#     4  10  21  37  59  87 117 149 186 232 284 336
#
# _framework density 19.446114000000001
#
# number of rings (size 3 to 8) (size 9 to 14) (size 15 to 20)
#    0.000    1.857    0.000    3.857    0.000    9.143 
#    0.000    2.857    0.000    4.286    0.000    0.000 
#    0.000    0.000    0.000    0.000    0.000    0.000 
#
# Total GULP energy -347347.545455 kJ/mol
# GULP energy per Si atom -12405.269481 kJ/mol
# Density = 1.940185 g / cm^3
# Si number density = 19.446114 Si / 1000 Ang^3
#
#
#
# Elastic Constant Matrix: (Units=GPa)
#
#
# Indices 1 2 3 4 5 6 
#
# 1 114.9539 52.2150 81.6728 0.0000 6.9530 0.0000
# 2 52.2150 87.8718 50.0225 0.0000 7.2033 0.0000
# 3 81.6728 50.0225 138.8992 0.0000 2.4140 0.0000
# 4 0.0000 0.0000 0.0000 31.9930 0.0000 -0.9466
# 5 6.9530 7.2033 2.4140 0.0000 35.6002 0.0000
# 6 0.0000 0.0000 0.0000 -0.9466 0.0000 33.6601
#
#
#
# Elastic Compliance Matrix: (Units=1/GPa)
#
#
# Indices 1 2 3 4 5 6 
#
# 1 0.016908 -0.005367 -0.007980 0.000000 -0.001675 0.000000
# 2 -0.005367 0.016254 -0.002662 0.000000 -0.002060 0.000000
# 3 -0.007980 -0.002662 0.012829 0.000000 0.001227 0.000000
# 4 0.000000 0.000000 0.000000 0.031283 0.000000 0.000880
# 5 -0.001675 -0.002060 0.001227 0.000000 0.028750 0.000000
# 6 0.000000 0.000000 0.000000 0.000880 0.000000 0.029733
#
#
# Mechanical properties :
#
#
# Convention : Reuss Voigt Hill
#
# Bulk Modulus (GPa) = 71.56717 78.83839 75.20278
# Shear Modulus (GPa) = 28.99690 30.77165 29.88427
#
# Velocity S-wave (km/s) = 3.86572 3.98226 3.92442
# Velocity P-wave (km/s) = 7.53709 7.85968 7.70007
#
# Compressibility (1/GPa) = 0.01397289
#
# Stress axis : x y z
#
# Youngs Moduli (GPa) = 59.14416 61.52503 77.94869
#
# Poissons Ratio (x) = 0.33020 0.62202
# Poissons Ratio (y) = 0.31742 0.20749
# Poissons Ratio (z) = 0.47196 0.16377
#
# Static dielectric constant tensor:
#      x y z
#    x 3.501050 0.000000 0.061090 
#    y 0.000000 3.534220 0.000000 
#    z 0.061090 0.000000 3.714340 
# 
# 
# High freq. dielectric constant tensor:
#      x y z
#    x 1.757940 0.000000 0.001240 
#    y 0.000000 1.757990 0.000000 
#    z 0.001240 0.000000 1.772370 
# 
# From -- ./inp_files/363223.got.cif
#   From: 2010.06.25/outbox.cif.g09.slc.cpg/sg12_182_cif.got.tgz:363223.got - 2010.06.28 00:19:55.
