data_PCOD8105033
_publ_section_title
;
Structure prediction by ZEFSAII (Michael W. Deem and Ramdas Pophale) SiO2 
 PCOD8105033
Probable space group: C 2/M
;
_chemical_formula_sum "Si O2"
_cell_formula_units_Z 64
_cell_length_a 29.801043
_cell_length_b 8.763832
_cell_length_c 12.228894
_cell_angle_alpha 90.000000
_cell_angle_beta 87.588170
_cell_angle_gamma 90.000000
_cell_volume 3191.007343
_symmetry_space_group_name_H-M "C 2/M"
_symmetry_group_IT_number 12
_symmetry_cell_setting 'monoclinic'
loop_
_space_group_symop_operation_xyz
x,y,z
-x,y,-z
-x,-y,-z
x,-y,z
1/2+x,1/2+y,z
1/2-x,1/2+y,-z
1/2-x,1/2-y,-z
1/2+x,1/2-y,z
loop_
_atom_site_type_symbol
_atom_site_label
_atom_site_fract_x
_atom_site_fract_y
_atom_site_fract_z
Si Si1 0.590534 0.678419 0.041038
Si Si2 0.563755 0.324533 0.800755
Si Si3 0.453393 0.678268 0.560407
Si Si4 0.971311 0.677692 0.778631
Si Si5 0.219510 0.679092 0.596611
Si Si6 0.374429 0.324950 0.403611
Si Si7 0.183222 0.321982 0.024996
Si Si8 0.765033 0.178395 0.170699
O O1 0.599717 0.500000 0.052491
O O2 0.549055 0.727800 0.119335
O O3 0.634901 0.768892 0.072931
O O4 0.578007 0.724362 0.919681
O O5 0.547464 0.500000 0.796051
O O6 0.523611 0.218534 0.763056
O O7 0.606720 0.298435 0.719842
O O8 0.500000 0.727073 0.500000
O O9 0.454203 0.500000 0.589910
O O10 0.445997 0.775342 0.670466
O O11 0.412556 0.720934 0.485797
O O12 0.964728 0.500000 0.801464
O O13 0.226447 0.500000 0.595069
O O14 0.250000 0.750000 0.500000
O O15 0.168057 0.717555 0.574720
O O16 0.234095 0.740564 0.713072
O O17 0.359504 0.500000 0.421004
O O18 0.183649 0.500000 0.998854
O O19 0.218028 0.281084 0.117537
O O20 0.194797 0.234891 0.911482
O O21 0.771632 0.000000 0.189704
#
# Coordination Sequence:
#
# PCOD8105033 Si02
#       8
#     8   8   8   8   8   8   8   8
#     4  11  23  38  60  87 121 163 205 249 302 367
#     4  10  21  40  63  87 117 157 204 249 298 364
#     4  10  20  40  67  90 117 157 204 251 300 366
#     4  12  25  38  57  86 124 162 200 253 306 357
#     4  12  26  43  64  91 126 164 207 258 313 369
#     4  10  21  40  68  95 121 156 201 254 311 369
#     4  10  21  38  63  94 124 156 199 254 307 361
#     4  10  21  40  65  91 123 161 202 248 304 368
#
# _framework density 20.056363000000001
#
# number of rings (size 3 to 8) (size 9 to 14) (size 15 to 20)
#    0.000    1.375    1.250    4.500    0.000    7.250 
#    0.000    0.000    0.000    0.000    0.000    0.000 
#    0.000    0.000    0.000    0.000    0.000    0.000 
#
# Total GULP energy -397025.716222 kJ/mol
# GULP energy per Si atom -12407.053632 kJ/mol
# Density = 2.001071 g / cm^3
# Si number density = 20.056363 Si / 1000 Ang^3
#
#
#
# Elastic Constant Matrix: (Units=GPa)
#
#
# Indices 1 2 3 4 5 6 
#
# 1 97.6931 40.4757 56.7081 0.0000 0.5340 0.0000
# 2 40.4757 92.1536 60.6070 0.0000 5.1396 0.0000
# 3 56.7081 60.6070 125.1514 0.0000 3.3392 0.0000
# 4 0.0000 0.0000 0.0000 29.4071 0.0000 -1.9395
# 5 0.5340 5.1396 3.3392 0.0000 27.7806 0.0000
# 6 0.0000 0.0000 0.0000 -1.9395 0.0000 37.2659
#
#
#
# Elastic Compliance Matrix: (Units=1/GPa)
#
#
# Indices 1 2 3 4 5 6 
#
# 1 0.014452 -0.003045 -0.005098 0.000000 0.000898 0.000000
# 2 -0.003045 0.016679 -0.006638 0.000000 -0.002229 0.000000
# 3 -0.005098 -0.006638 0.013523 0.000000 -0.000299 0.000000
# 4 0.000000 0.000000 0.000000 0.034122 0.000000 0.001776
# 5 0.000898 -0.002229 -0.000299 0.000000 0.036428 0.000000
# 6 0.000000 0.000000 0.000000 0.001776 0.000000 0.026927
#
#
# Mechanical properties :
#
#
# Convention : Reuss Voigt Hill
#
# Bulk Modulus (GPa) = 66.25934 70.06440 68.16187
# Shear Modulus (GPa) = 28.29308 29.37121 28.83214
#
# Velocity S-wave (km/s) = 3.75997 3.83094 3.79562
# Velocity P-wave (km/s) = 7.20820 7.38768 7.29849
#
# Compressibility (1/GPa) = 0.01509221
#
# Stress axis : x y z
#
# Youngs Moduli (GPa) = 69.19493 59.95682 73.95008
#
# Poissons Ratio (x) = 0.18257 0.37698
# Poissons Ratio (y) = 0.21070 0.49086
# Poissons Ratio (z) = 0.35274 0.39798
#
# Static dielectric constant tensor:
#      x y z
#    x 3.631340 0.000000 0.038810 
#    y 0.000000 3.593840 0.000000 
#    z 0.038810 0.000000 3.738720 
# 
# 
# High freq. dielectric constant tensor:
#      x y z
#    x 1.787750 0.000000 0.004330 
#    y 0.000000 1.782000 0.000000 
#    z 0.004330 0.000000 1.792000 
# 
# From -- ./inp_files/187509.got.cif
#   From: 2010.06.25/outbox.cif.g09.slc.cpg/sg12_94_cif.got.tgz:187509.got - 2010.06.28 00:19:55.
