data_PCOD8105974
_publ_section_title
;
Structure prediction by ZEFSAII (Michael W. Deem and Ramdas Pophale) SiO2 
 PCOD8105974
Probable space group: C 2/M
;
_chemical_formula_sum "Si O2"
_cell_formula_units_Z 64
_cell_length_a 15.131883
_cell_length_b 9.039469
_cell_length_c 23.912525
_cell_angle_alpha 90.000000
_cell_angle_beta 90.645992
_cell_angle_gamma 90.000000
_cell_volume 3270.647407
_symmetry_space_group_name_H-M "C 2/M"
_symmetry_group_IT_number 12
_symmetry_cell_setting 'monoclinic'
loop_
_space_group_symop_operation_xyz
x,y,z
-x,y,-z
-x,-y,-z
x,-y,z
1/2+x,1/2+y,z
1/2-x,1/2+y,-z
1/2-x,1/2-y,-z
1/2+x,1/2-y,z
loop_
_atom_site_type_symbol
_atom_site_label
_atom_site_fract_x
_atom_site_fract_y
_atom_site_fract_z
Si Si1 0.414674 0.324676 0.780640
Si Si2 0.587419 0.174665 0.775908
Si Si3 0.896536 0.174057 0.495023
Si Si4 0.846237 0.166959 0.118607
Si Si5 0.252817 0.675395 0.706605
Si Si6 0.395831 0.333002 0.997011
Si Si7 0.355760 0.166393 0.886376
Si Si8 0.754256 0.325892 0.419457
O O1 0.419370 0.500000 0.781183
O O2 0.500712 0.255802 0.752267
O O3 0.334301 0.262719 0.743063
O O4 0.410417 0.268888 0.844565
O O5 0.603389 0.223243 0.839818
O O6 0.664191 0.231536 0.735640
O O7 0.575399 0.000000 0.773885
O O8 0.843167 0.250834 0.444235
O O9 0.838011 0.213343 0.549671
O O10 0.000000 0.229462 0.500000
O O11 0.897404 0.000000 0.483557
O O12 0.744485 0.168152 0.134774
O O13 0.885348 0.000000 0.124134
O O14 0.858323 0.225780 0.055653
O O15 0.256560 0.500000 0.706750
O O16 0.257370 0.735048 0.643428
O O17 0.362434 0.500000 0.985180
O O18 0.359959 0.226320 0.949088
O O19 0.500000 0.326431 0.000000
O O20 0.394168 0.000000 0.885099
O O21 0.771667 0.500000 0.421589
#
# Coordination Sequence:
#
# PCOD8105974 Si02
#       8
#     8   8   8   8   8   8   8   8
#     4  11  22  39  60  82 111 151 191 231 289 348
#     4  11  22  38  59  84 111 145 191 239 286 340
#     4   9  18  33  55  85 119 153 190 234 281 327
#     4  10  21  37  56  81 111 145 185 229 284 345
#     4   9  20  38  58  81 113 153 192 231 283 340
#     4  10  21  36  54  77 107 143 183 228 282 347
#     4  11  22  36  56  82 110 142 187 236 282 338
#     4   9  18  35  57  81 114 154 194 234 277 331
#
# _framework density 19.567992
#
# number of rings (size 3 to 8) (size 9 to 14) (size 15 to 20)
#    0.000    2.000    1.250    2.250    0.000    3.500 
#    0.000    3.750    0.000    0.000    0.000    0.000 
#    0.000    0.000    0.000    0.000    0.000    0.000 
#
# Total GULP energy -396786.263073 kJ/mol
# GULP energy per Si atom -12399.570721 kJ/mol
# Density = 1.952345 g / cm^3
# Si number density = 19.567992 Si / 1000 Ang^3
#
#
#
# Elastic Constant Matrix: (Units=GPa)
#
#
# Indices 1 2 3 4 5 6 
#
# 1 138.8237 42.3550 58.6350 0.0000 -10.4621 0.0000
# 2 42.3550 71.1058 40.6651 0.0000 -0.6035 0.0000
# 3 58.6350 40.6651 136.6405 0.0000 -4.5911 0.0000
# 4 0.0000 0.0000 0.0000 25.6111 0.0000 3.2209
# 5 -10.4621 -0.6035 -4.5911 0.0000 14.2374 0.0000
# 6 0.0000 0.0000 0.0000 3.2209 0.0000 35.9039
#
#
#
# Elastic Compliance Matrix: (Units=1/GPa)
#
#
# Indices 1 2 3 4 5 6 
#
# 1 0.010243 -0.004406 -0.002868 0.000000 0.006415 0.000000
# 2 -0.004406 0.018856 -0.003844 0.000000 -0.003678 0.000000
# 3 -0.002868 -0.003844 0.009723 0.000000 0.000864 0.000000
# 4 0.000000 0.000000 0.000000 0.039491 0.000000 -0.003543
# 5 0.006415 -0.003678 0.000864 0.000000 0.075074 0.000000
# 6 0.000000 0.000000 0.000000 -0.003543 0.000000 0.028170
#
#
# Mechanical properties :
#
#
# Convention : Reuss Voigt Hill
#
# Bulk Modulus (GPa) = 60.30391 69.98669 65.14530
# Shear Modulus (GPa) = 23.88668 28.81147 26.34907
#
# Velocity S-wave (km/s) = 3.49764 3.84132 3.67350
# Velocity P-wave (km/s) = 6.86993 7.45103 7.16637
#
# Compressibility (1/GPa) = 0.01658267
#
# Stress axis : x y z
#
# Youngs Moduli (GPa) = 97.63019 53.03486 102.85398
#
# Poissons Ratio (x) = 0.23369 0.29503
# Poissons Ratio (y) = 0.43019 0.39540
# Poissons Ratio (z) = 0.28005 0.20388
#
# Static dielectric constant tensor:
#      x y z
#    x 3.776910 0.000000 -0.077920 
#    y 0.000000 3.425610 0.000000 
#    z -0.077920 0.000000 3.651030 
# 
# 
# High freq. dielectric constant tensor:
#      x y z
#    x 1.774640 0.000000 -0.004860 
#    y 0.000000 1.747850 0.000000 
#    z -0.004860 0.000000 1.756780 
# 
# From -- ./inp_files/338728.got.cif
#   From: 2010.06.25/outbox.cif.g09.slc.cpg/sg12_170_cif.got.tgz:338728.got - 2010.06.28 00:19:55.
