data_PCOD8105326
_publ_section_title
;
Structure prediction by ZEFSAII (Michael W. Deem and Ramdas Pophale) SiO2 
 PCOD8105326
Probable space group: C 2/M
;
_chemical_formula_sum "Si O2"
_cell_formula_units_Z 64
_cell_length_a 20.689185
_cell_length_b 9.403061
_cell_length_c 21.449182
_cell_angle_alpha 90.000000
_cell_angle_beta 59.753330
_cell_angle_gamma 90.000000
_cell_volume 3604.700114
_symmetry_space_group_name_H-M "C 2/M"
_symmetry_group_IT_number 12
_symmetry_cell_setting 'monoclinic'
loop_
_space_group_symop_operation_xyz
x,y,z
-x,y,-z
-x,-y,-z
x,-y,z
1/2+x,1/2+y,z
1/2-x,1/2+y,-z
1/2-x,1/2-y,-z
1/2+x,1/2-y,z
loop_
_atom_site_type_symbol
_atom_site_label
_atom_site_fract_x
_atom_site_fract_y
_atom_site_fract_z
Si Si1 0.533949 0.339418 0.659484
Si Si2 0.841068 0.840186 0.314873
Si Si3 0.450256 0.335019 0.828288
Si Si4 0.532308 0.831446 0.418773
Si Si5 0.927352 0.335590 0.175318
Si Si6 0.199148 0.663182 0.315992
Si Si7 0.280192 0.333633 0.926766
Si Si8 0.712763 0.164350 0.829859
O O1 0.515105 0.500000 0.647510
O O2 0.622824 0.324562 0.633708
O O3 0.484346 0.298248 0.744019
O O4 0.517460 0.233111 0.611847
O O5 0.876347 0.716677 0.256647
O O6 0.751128 0.822407 0.353287
O O7 0.863088 0.000000 0.279428
O O8 0.458404 0.500000 0.839590
O O9 0.494964 0.251572 0.861444
O O10 0.364667 0.285591 0.870800
O O11 0.500000 0.777055 0.500000
O O12 0.617522 0.776038 0.371876
O O13 0.526980 0.000000 0.416251
O O14 0.947307 0.500000 0.174334
O O15 0.876226 0.309497 0.138573
O O16 0.192686 0.500000 0.298223
O O17 0.234490 0.746141 0.241179
O O18 0.275757 0.500000 0.943600
O O19 0.229058 0.291647 0.892753
O O20 0.250000 0.250000 0.000000
O O21 0.733565 0.000000 0.807943
#
# Coordination Sequence:
#
# PCOD8105326 Si02
#       8
#     8   8   8   8   8   8   8   8
#     4   9  17  31  52  73  92 120 158 197 236 280
#     4   8  15  29  48  70  95 121 153 195 238 279
#     4   9  18  33  52  73  98 127 157 194 240 284
#     4  10  21  34  46  66  99 132 159 194 240 283
#     4   9  16  27  48  76  99 120 151 193 239 285
#     4   9  17  31  52  73  93 124 163 196 231 283
#     4  10  21  36  51  69  97 131 164 198 237 280
#     4   9  18  33  52  74  99 124 154 198 245 281
#
# _framework density 17.754597
#
# number of rings (size 3 to 8) (size 9 to 14) (size 15 to 20)
#    0.000    2.875    0.000    1.875    0.000    5.250 
#    0.000    1.250    0.000    3.750    0.000    0.000 
#    0.000    0.000    0.000    0.000    0.000    0.000 
#
# Total GULP energy -396564.709269 kJ/mol
# GULP energy per Si atom -12392.647165 kJ/mol
# Density = 1.771419 g / cm^3
# Si number density = 17.754597 Si / 1000 Ang^3
#
#
#
# Elastic Constant Matrix: (Units=GPa)
#
#
# Indices 1 2 3 4 5 6 
#
# 1 147.0900 49.4810 54.0470 0.0000 23.4911 -0.0002
# 2 49.4810 51.9597 34.4644 0.0000 8.8404 -0.0001
# 3 54.0470 34.4644 75.4129 0.0000 15.5611 0.0000
# 4 0.0000 0.0000 0.0000 21.5334 0.0000 4.9012
# 5 23.4911 8.8404 15.5611 0.0000 11.0122 0.0000
# 6 -0.0002 -0.0001 0.0000 4.9012 0.0000 30.1729
#
#
#
# Elastic Compliance Matrix: (Units=1/GPa)
#
#
# Indices 1 2 3 4 5 6 
#
# 1 0.013285 -0.008175 -0.001823 0.000000 -0.019200 0.000000
# 2 -0.008175 0.032944 -0.010358 0.000000 0.005630 0.000000
# 3 -0.001823 -0.010358 0.023690 0.000000 -0.021272 0.000000
# 4 0.000000 0.000000 0.000000 0.048222 0.000000 -0.007833
# 5 -0.019200 0.005630 -0.021272 0.000000 0.157306 0.000000
# 6 0.000000 0.000000 0.000000 -0.007833 0.000000 0.034415
#
#
# Mechanical properties :
#
#
# Convention : Reuss Voigt Hill
#
# Bulk Modulus (GPa) = 34.23994 61.16082 47.70038
# Shear Modulus (GPa) = 13.87697 21.64171 17.75934
#
# Velocity S-wave (km/s) = 2.79874 3.49511 3.16613
# Velocity P-wave (km/s) = 5.45627 7.12814 6.34749
#
# Compressibility (1/GPa) = 0.02920566
#
# Stress axis : x y z
#
# Youngs Moduli (GPa) = 75.27307 30.35496 42.21213
#
# Poissons Ratio (x) = 0.24816 0.07695
# Poissons Ratio (y) = 0.61538 0.43724
# Poissons Ratio (z) = 0.13722 0.31442
#
# Static dielectric constant tensor:
#      x y z
#    x 3.834280 0.000000 -0.038100 
#    y 0.000000 3.258700 0.000000 
#    z -0.038100 0.000000 2.918590 
# 
# 
# High freq. dielectric constant tensor:
#      x y z
#    x 1.712980 0.000000 0.000940 
#    y 0.000000 1.685730 0.000000 
#    z 0.000940 0.000000 1.636540 
# 
# From -- ./inp_files/319872.got.cif
#   From: 2010.06.25/outbox.cif.g09.slc.cpg/sg12_160_cif.got.tgz:319872.got - 2010.06.28 00:19:55.
