data_PCOD8105952
_publ_section_title
;
Structure prediction by ZEFSAII (Michael W. Deem and Ramdas Pophale) SiO2 
 PCOD8105952
Probable space group: C 2/M
;
_chemical_formula_sum "Si O2"
_cell_formula_units_Z 56
_cell_length_a 27.714213
_cell_length_b 13.754742
_cell_length_c 12.173831
_cell_angle_alpha 90.000000
_cell_angle_beta 139.536767
_cell_angle_gamma 90.000000
_cell_volume 3011.619972
_symmetry_space_group_name_H-M "C 2/M"
_symmetry_group_IT_number 12
_symmetry_cell_setting 'monoclinic'
loop_
_space_group_symop_operation_xyz
x,y,z
-x,y,-z
-x,-y,-z
x,-y,z
1/2+x,1/2+y,z
1/2-x,1/2+y,-z
1/2-x,1/2-y,-z
1/2+x,1/2-y,z
loop_
_atom_site_type_symbol
_atom_site_label
_atom_site_fract_x
_atom_site_fract_y
_atom_site_fract_z
Si Si1 0.417850 0.114497 0.327810
Si Si2 0.799514 0.113301 0.783025
Si Si3 0.421452 0.246627 0.906826
Si Si4 0.218083 0.724999 0.824524
Si Si5 0.904675 0.393407 0.060536
Si Si6 0.735088 0.394170 0.699412
Si Si7 0.803140 0.613079 0.597958
O O1 0.500000 0.148740 0.500000
O O2 0.357960 0.165256 0.301737
O O3 0.404945 0.150482 0.182238
O O4 0.406634 0.000000 0.322631
O O5 0.873922 0.161589 0.864629
O O6 0.779348 0.162598 0.864370
O O7 0.731242 0.131011 0.581259
O O8 0.815546 0.000000 0.828874
O O9 0.375082 0.181918 0.738331
O O10 0.500000 0.287178 0.000000
O O11 0.446701 0.178835 0.052214
O O12 0.195778 0.820029 0.714478
O O13 0.250000 0.750000 0.000000
O O14 0.943448 0.500000 0.125725
O O15 0.820464 0.402020 0.878941
O O16 0.696057 0.500000 0.643946
O O17 0.738571 0.360832 0.577099
O O18 0.826915 0.500000 0.654195
#
# Coordination Sequence:
#
# PCOD8105952 Si02
#       7
#     8   8   8   8   8   8   8
#     4  10  21  36  53  80 116 147 179 228 290 339
#     4  11  23  38  57  84 116 148 189 233 272 328
#     4  11  21  34  55  83 115 148 186 227 281 332
#     4  12  21  35  59  83 110 147 193 229 274 329
#     4   9  17  34  53  76 110 143 183 228 277 332
#     4   9  17  32  57  80 104 140 185 233 273 323
#     4   9  19  37  58  82 111 144 185 234 285 329
#
# _framework density 18.594643000000001
#
# number of rings (size 3 to 8) (size 9 to 14) (size 15 to 20)
#    0.000    1.857    4.286    2.143    0.000    3.143 
#    0.000    2.857    0.000    0.429    0.000    0.000 
#    0.000    0.000    0.000    0.000    0.000    0.000 
#
# Total GULP energy -347074.663340 kJ/mol
# GULP energy per Si atom -12395.523691 kJ/mol
# Density = 1.855232 g / cm^3
# Si number density = 18.594643 Si / 1000 Ang^3
#
#
#
# Elastic Constant Matrix: (Units=GPa)
#
#
# Indices 1 2 3 4 5 6 
#
# 1 110.9048 52.3845 52.0461 0.0000 6.3194 0.0000
# 2 52.3845 100.8355 32.6997 0.0000 4.9235 0.0000
# 3 52.0461 32.6997 42.4495 0.0000 -3.1240 0.0000
# 4 0.0000 0.0000 0.0000 22.7012 0.0000 -0.8827
# 5 6.3194 4.9235 -3.1240 0.0000 34.2497 0.0000
# 6 0.0000 0.0000 0.0000 -0.8827 0.0000 34.1912
#
#
#
# Elastic Compliance Matrix: (Units=1/GPa)
#
#
# Indices 1 2 3 4 5 6 
#
# 1 0.023427 -0.003196 -0.026725 0.000000 -0.006301 0.000000
# 2 -0.003196 0.013937 -0.006968 0.000000 -0.002049 0.000000
# 3 -0.026725 -0.006968 0.062548 0.000000 0.011638 0.000000
# 4 0.000000 0.000000 0.000000 0.044095 0.000000 0.001138
# 5 -0.006301 -0.002049 0.011638 0.000000 0.031716 0.000000
# 6 0.000000 0.000000 0.000000 0.001138 0.000000 0.029277
#
#
# Mechanical properties :
#
#
# Convention : Reuss Voigt Hill
#
# Bulk Modulus (GPa) = 38.26430 58.71671 48.49050
# Shear Modulus (GPa) = 17.39196 26.03239 21.71217
#
# Velocity S-wave (km/s) = 3.06162 3.74571 3.42081
# Velocity P-wave (km/s) = 5.75507 7.09598 6.46041
#
# Compressibility (1/GPa) = 0.02613402
#
# Stress axis : x y z
#
# Youngs Moduli (GPa) = 42.68581 71.74930 15.98776
#
# Poissons Ratio (x) = 0.22933 0.42727
# Poissons Ratio (y) = 0.13644 0.11141
# Poissons Ratio (z) = 1.14076 0.49996
#
# Static dielectric constant tensor:
#      x y z
#    x 0.848240 0.000000 2.601080 
#    y 0.000000 3.725530 0.000000 
#    z 2.601080 0.000000 -0.070600 
# 
# 
# High freq. dielectric constant tensor:
#      x y z
#    x 1.710090 0.000000 -0.026760 
#    y 0.000000 1.726610 0.000000 
#    z -0.026760 0.000000 1.701800 
# 
# From -- ./inp_files/183438.got.cif
#   From: 2010.06.25/outbox.cif.g09.slc.cpg/sg12_92_cif.got.tgz:183438.got - 2010.06.28 00:19:55.
