data_PCOD8105920
_publ_section_title
;
Structure prediction by ZEFSAII (Michael W. Deem and Ramdas Pophale) SiO2 
 PCOD8105920
Probable space group: C 2/M
;
_chemical_formula_sum "Si O2"
_cell_formula_units_Z 40
_cell_length_a 18.655560
_cell_length_b 8.945765
_cell_length_c 19.686437
_cell_angle_alpha 90.000000
_cell_angle_beta 133.935342
_cell_angle_gamma 90.000000
_cell_volume 2365.918260
_symmetry_space_group_name_H-M "C 2/M"
_symmetry_group_IT_number 12
_symmetry_cell_setting 'monoclinic'
loop_
_space_group_symop_operation_xyz
x,y,z
-x,y,-z
-x,-y,-z
x,-y,z
1/2+x,1/2+y,z
1/2-x,1/2+y,-z
1/2-x,1/2-y,-z
1/2+x,1/2-y,z
loop_
_atom_site_type_symbol
_atom_site_label
_atom_site_fract_x
_atom_site_fract_y
_atom_site_fract_z
Si Si1 0.355994 0.823706 0.582965
Si Si2 0.229636 0.173545 0.734144
Si Si3 0.408915 0.329951 0.897385
Si Si4 0.005056 0.171772 0.582557
Si Si5 0.855879 0.169689 0.717756
O O1 0.250000 0.750000 0.500000
O O2 0.432102 0.781353 0.573934
O O3 0.398625 0.762606 0.682628
O O4 0.344145 0.000000 0.578363
O O5 0.306364 0.236809 0.842145
O O6 0.116860 0.202998 0.682790
O O7 0.252177 0.257416 0.677053
O O8 0.249975 0.000000 0.735487
O O9 0.390447 0.500000 0.909383
O O10 0.433980 0.324549 0.832601
O O11 0.500000 0.258972 0.000000
O O12 0.000000 0.208847 0.500000
O O13 0.974130 0.000000 0.575709
O O14 0.834728 0.000000 0.680666
#
# Coordination Sequence:
#
# PCOD8105920 Si02
#       5
#     8   8   8   8   8
#     4  12  24  36  53  75 104 139 178 217 259 310
#     4   9  17  30  51  79 107 135 171 215 260 306
#     4   8  16  31  53  79 107 140 175 215 262 309
#     4  10  21  36  53  74 105 140 174 214 261 311
#     4   9  18  33  53  76 106 136 171 214 258 308
#
# _framework density 16.906756000000001
#
# number of rings (size 3 to 8) (size 9 to 14) (size 15 to 20)
#    1.200    1.200    0.000    3.600    0.000    4.000 
#    0.000    0.000    0.000    1.200    0.000    0.000 
#    0.000    0.000    0.000    0.000    0.000    0.000 
#
# Total GULP energy -247816.650340 kJ/mol
# GULP energy per Si atom -12390.832517 kJ/mol
# Density = 1.686828 g / cm^3
# Si number density = 16.906756 Si / 1000 Ang^3
#
#
#
# Elastic Constant Matrix: (Units=GPa)
#
#
# Indices 1 2 3 4 5 6 
#
# 1 84.0873 53.0255 39.7383 0.0000 4.1853 0.0000
# 2 53.0255 126.3940 51.0092 0.0000 5.9211 0.0000
# 3 39.7383 51.0092 113.1019 0.0000 6.4290 0.0000
# 4 0.0000 0.0000 0.0000 22.8617 0.0000 0.8513
# 5 4.1853 5.9211 6.4290 0.0000 21.1277 0.0000
# 6 0.0000 0.0000 0.0000 0.8513 0.0000 30.9831
#
#
#
# Elastic Compliance Matrix: (Units=1/GPa)
#
#
# Indices 1 2 3 4 5 6 
#
# 1 0.017192 -0.005815 -0.003375 0.000000 -0.000749 0.000000
# 2 -0.005815 0.011681 -0.003159 0.000000 -0.001160 0.000000
# 3 -0.003375 -0.003159 0.011564 0.000000 -0.001965 0.000000
# 4 0.000000 0.000000 0.000000 0.043786 0.000000 -0.001203
# 5 -0.000749 -0.001160 -0.001965 0.000000 0.048403 0.000000
# 6 0.000000 0.000000 0.000000 -0.001203 0.000000 0.032309
#
#
# Mechanical properties :
#
#
# Convention : Reuss Voigt Hill
#
# Bulk Modulus (GPa) = 63.54112 67.90323 65.72218
# Shear Modulus (GPa) = 25.65710 26.98184 26.31947
#
# Velocity S-wave (km/s) = 3.89982 3.99923 3.94984
# Velocity P-wave (km/s) = 7.61203 7.84702 7.73042
#
# Compressibility (1/GPa) = 0.01573784
#
# Stress axis : x y z
#
# Youngs Moduli (GPa) = 58.16739 85.61228 86.47709
#
# Poissons Ratio (x) = 0.49785 0.29187
# Poissons Ratio (y) = 0.33826 0.27317
# Poissons Ratio (z) = 0.19632 0.27043
#
# Static dielectric constant tensor:
#      x y z
#    x 2.962570 0.000000 -0.037010 
#    y 0.000000 3.219630 0.000000 
#    z -0.037010 0.000000 3.207520 
# 
# 
# High freq. dielectric constant tensor:
#      x y z
#    x 1.622960 0.000000 -0.003860 
#    y 0.000000 1.662420 0.000000 
#    z -0.003860 0.000000 1.641760 
# 
# From -- ./inp_files/342076.got.cif
#   From: 2010.06.25/outbox.cif.g09.slc.cpg/sg12_172_cif.got.tgz:342076.got - 2010.06.28 00:19:55.
