data_PCOD8105407
_publ_section_title
;
Structure prediction by ZEFSAII (Michael W. Deem and Ramdas Pophale) SiO2 
 PCOD8105407
Probable space group: C 2/M
;
_chemical_formula_sum "Si O2"
_cell_formula_units_Z 48
_cell_length_a 19.307703
_cell_length_b 18.284344
_cell_length_c 14.838059
_cell_angle_alpha 90.000000
_cell_angle_beta 28.495513
_cell_angle_gamma 90.000000
_cell_volume 2499.121336
_symmetry_space_group_name_H-M "C 2/M"
_symmetry_group_IT_number 12
_symmetry_cell_setting 'monoclinic'
loop_
_space_group_symop_operation_xyz
x,y,z
-x,y,-z
-x,-y,-z
x,-y,z
1/2+x,1/2+y,z
1/2-x,1/2+y,-z
1/2-x,1/2-y,-z
1/2+x,1/2-y,z
loop_
_atom_site_type_symbol
_atom_site_label
_atom_site_fract_x
_atom_site_fract_y
_atom_site_fract_z
Si Si1 0.849247 0.179656 0.719276
Si Si2 0.841612 0.821942 0.063551
Si Si3 0.734014 0.419468 0.504914
Si Si4 0.100529 0.083010 0.162923
Si Si5 0.839576 0.652973 0.218851
Si Si6 0.171783 0.810867 0.721172
O O1 0.758796 0.252769 0.845807
O O2 0.867884 0.132952 0.787588
O O3 0.759316 0.128490 0.752333
O O4 0.000000 0.201959 0.500000
O O5 0.815228 0.850302 0.195939
O O6 0.812827 0.885566 0.023251
O O7 0.010606 0.800529 0.866034
O O8 0.769213 0.500000 0.503159
O O9 0.569783 0.415240 0.660118
O O10 0.837905 0.406329 0.300058
O O11 0.767429 0.359703 0.543827
O O12 0.153871 0.000000 0.118732
O O13 0.767408 0.728504 0.339082
O O14 0.000000 0.668352 0.000000
#
# Coordination Sequence:
#
# PCOD8105407 Si02
#       6
#     8   8   8   8   8   8
#     4  11  20  35  57  82 108 144 187 224 266 320
#     4   9  18  35  56  83 105 140 187 226 270 314
#     4  10  21  34  53  83 113 146 180 219 274 327
#     4  10  21  35  54  81 114 145 179 223 270 328
#     4  11  20  37  58  80 112 144 181 228 271 317
#     4   9  17  35  57  80 108 141 183 229 269 316
#
# _framework density 19.206751000000001
#
# number of rings (size 3 to 8) (size 9 to 14) (size 15 to 20)
#    0.000    2.000    5.000    1.000    0.000    2.000 
#    0.000    3.333    0.000    0.500    0.000    0.000 
#    0.000    0.000    0.000    0.000    0.000    0.000 
#
# Total GULP energy -297455.475499 kJ/mol
# GULP energy per Si atom -12393.978146 kJ/mol
# Density = 1.916304 g / cm^3
# Si number density = 19.206751 Si / 1000 Ang^3
#
#
#
# Elastic Constant Matrix: (Units=GPa)
#
#
# Indices 1 2 3 4 5 6 
#
# 1 85.6035 51.8118 26.6828 0.0034 19.3970 -0.0021
# 2 51.8118 106.8114 40.3563 0.0013 17.1901 -0.0006
# 3 26.6828 40.3563 56.0493 -0.0036 17.6584 0.0020
# 4 0.0034 0.0013 -0.0036 20.4797 0.0035 3.5460
# 5 19.3970 17.1901 17.6584 0.0035 25.8953 -0.0015
# 6 -0.0021 -0.0006 0.0020 3.5460 -0.0015 19.7137
#
#
#
# Elastic Compliance Matrix: (Units=1/GPa)
#
#
# Indices 1 2 3 4 5 6 
#
# 1 0.018150 -0.007136 -0.000907 -0.000002 -0.008241 0.000001
# 2 -0.007136 0.015831 -0.008119 -0.000001 0.000372 0.000001
# 3 -0.000907 -0.008119 0.028283 0.000009 -0.013218 -0.000006
# 4 -0.000002 -0.000001 0.000009 0.050399 -0.000011 -0.009065
# 5 -0.008241 0.000372 -0.013218 -0.000011 0.053556 0.000006
# 6 0.000001 0.000001 -0.000006 -0.009065 0.000006 0.052357
#
#
# Mechanical properties :
#
#
# Convention : Reuss Voigt Hill
#
# Bulk Modulus (GPa) = 33.39762 54.01847 43.70805
# Shear Modulus (GPa) = 19.16587 21.85860 20.51223
#
# Velocity S-wave (km/s) = 3.16234 3.37719 3.27153
# Velocity P-wave (km/s) = 5.54618 6.58733 6.08905
#
# Compressibility (1/GPa) = 0.02994225
#
# Stress axis : x y z
#
# Youngs Moduli (GPa) = 55.09497 63.16598 35.35651
#
# Poissons Ratio (x) = 0.45072 0.03206
# Poissons Ratio (y) = 0.39313 0.28706
# Poissons Ratio (z) = 0.04996 0.51285
#
# Static dielectric constant tensor:
#      x y z
#    x 3.692620 0.000000 0.206320 
#    y 0.000000 3.524780 0.000010 
#    z 0.206320 0.000010 3.367030 
# 
# 
# High freq. dielectric constant tensor:
#      x y z
#    x 1.753370 0.000000 0.018710 
#    y 0.000000 1.731880 0.000000 
#    z 0.018710 0.000000 1.727230 
# 
# From -- ./inp_files/112734.got.cif
#   From: 2010.06.25/outbox.cif.g09.slc.cpg/sg12_57_cif.got.tgz:112734.got - 2010.06.28 00:19:55.
