data_PCOD8105425
_publ_section_title
;
Structure prediction by ZEFSAII (Michael W. Deem and Ramdas Pophale) SiO2 
 PCOD8105425
Probable space group: C 2/M
;
_chemical_formula_sum "Si O2"
_cell_formula_units_Z 40
_cell_length_a 20.578861
_cell_length_b 7.717769
_cell_length_c 20.465062
_cell_angle_alpha 90.000000
_cell_angle_beta 140.496097
_cell_angle_gamma 90.000000
_cell_volume 2067.628860
_symmetry_space_group_name_H-M "C 2/M"
_symmetry_group_IT_number 12
_symmetry_cell_setting 'monoclinic'
loop_
_space_group_symop_operation_xyz
x,y,z
-x,y,-z
-x,-y,-z
x,-y,z
1/2+x,1/2+y,z
1/2-x,1/2+y,-z
1/2-x,1/2-y,-z
1/2+x,1/2-y,z
loop_
_atom_site_type_symbol
_atom_site_label
_atom_site_fract_x
_atom_site_fract_y
_atom_site_fract_z
Si Si1 0.495142 0.500000 0.104215
Si Si2 0.977449 0.305066 0.639287
Si Si3 0.933169 0.292420 0.749150
Si Si4 0.298754 0.305938 0.414807
Si Si5 0.666343 0.500000 0.127178
Si Si6 0.153130 0.692967 0.687522
O O1 0.499762 0.677613 0.149437
O O2 0.584118 0.500000 0.120461
O O3 0.385263 0.500000 0.983713
O O4 0.013629 0.500000 0.678372
O O5 0.963997 0.226358 0.700843
O O6 0.871388 0.305125 0.517701
O O7 0.068913 0.213800 0.668978
O O8 0.948865 0.500000 0.772939
O O9 0.816025 0.235562 0.669248
O O10 0.304005 0.500000 0.445941
O O11 0.335543 0.305694 0.368533
O O12 0.737810 0.672088 0.190338
O O13 0.114759 0.500000 0.636343
#
# Coordination Sequence:
#
# PCOD8105425 Si02
#       6
#     4   8   8   8   4   8
#     4  11  20  40  67  82 110 145 195 247 285 329
#     4  10  21  34  55  78 116 156 183 221 286 343
#     4  10  22  38  56  86 117 150 188 236 281 339
#     4  11  21  33  52  84 117 151 190 228 272 341
#     4   9  20  38  64  87  98 146 199 239 285 341
#     4   9  18  37  56  76 112 147 187 230 281 334
#
# _framework density 19.345831
#
# number of rings (size 3 to 8) (size 9 to 14) (size 15 to 20)
#    0.600    1.400    2.000    1.800    2.800    3.200 
#    0.000    4.000    0.000    0.000    0.000    0.000 
#    0.000    0.000    0.000    0.000    0.000    0.000 
#
# Total GULP energy -247873.233176 kJ/mol
# GULP energy per Si atom -12393.661659 kJ/mol
# Density = 1.930180 g / cm^3
# Si number density = 19.345831 Si / 1000 Ang^3
#
#
#
# Elastic Constant Matrix: (Units=GPa)
#
#
# Indices 1 2 3 4 5 6 
#
# 1 106.5823 14.3906 32.7009 0.0000 -27.7714 0.0000
# 2 14.3906 47.5464 28.7563 0.0000 -5.2288 0.0000
# 3 32.7009 28.7563 130.0385 0.0000 -19.0618 0.0000
# 4 0.0000 0.0000 0.0000 14.4288 0.0000 0.4372
# 5 -27.7714 -5.2288 -19.0618 0.0000 23.2858 0.0000
# 6 0.0000 0.0000 0.0000 0.4372 0.0000 18.0957
#
#
#
# Elastic Compliance Matrix: (Units=1/GPa)
#
#
# Indices 1 2 3 4 5 6 
#
# 1 0.013945 -0.002042 -0.000778 0.000000 0.015536 0.000000
# 2 -0.002042 0.024608 -0.005085 0.000000 -0.001072 0.000000
# 3 -0.000778 -0.005085 0.009894 0.000000 0.006030 0.000000
# 4 0.000000 0.000000 0.000000 0.069357 0.000000 -0.001676
# 5 0.015536 -0.001072 0.006030 0.000000 0.066168 0.000000
# 6 0.000000 0.000000 0.000000 -0.001676 0.000000 0.055302
#
#
# Mechanical properties :
#
#
# Convention : Reuss Voigt Hill
#
# Bulk Modulus (GPa) = 30.64032 48.42922 39.53477
# Shear Modulus (GPa) = 18.79963 25.05002 21.92482
#
# Velocity S-wave (km/s) = 3.12070 3.60231 3.37012
# Velocity P-wave (km/s) = 5.37193 6.51076 5.96857
#
# Compressibility (1/GPa) = 0.03263674
#
# Stress axis : x y z
#
# Youngs Moduli (GPa) = 71.71139 40.63752 101.07051
#
# Poissons Ratio (x) = 0.08297 0.07862
# Poissons Ratio (y) = 0.14641 0.51399
# Poissons Ratio (z) = 0.05579 0.20666
#
# Static dielectric constant tensor:
#      x y z
#    x 3.797080 0.000000 0.000420 
#    y 0.000000 3.182010 0.000000 
#    z 0.000420 0.000000 3.384840 
# 
# 
# High freq. dielectric constant tensor:
#      x y z
#    x 1.767180 0.000000 -0.005250 
#    y 0.000000 1.730210 0.000000 
#    z -0.005250 0.000000 1.731680 
# 
# From -- ./inp_files/281910.got.cif
#   From: 2010.06.25/outbox.cif.g09.slc.cpg/sg12_141_cif.got.tgz:281910.got - 2010.06.28 00:19:55.
