data_PCOD8105247
_publ_section_title
;
Structure prediction by ZEFSAII (Michael W. Deem and Ramdas Pophale) SiO2 
 PCOD8105247
Probable space group: C 2/M
;
_chemical_formula_sum "Si O2"
_cell_formula_units_Z 48
_cell_length_a 14.100883
_cell_length_b 17.883175
_cell_length_c 9.965809
_cell_angle_alpha 90.000000
_cell_angle_beta 104.072191
_cell_angle_gamma 90.000000
_cell_volume 2437.647003
_symmetry_space_group_name_H-M "C 2/M"
_symmetry_group_IT_number 12
_symmetry_cell_setting 'monoclinic'
loop_
_space_group_symop_operation_xyz
x,y,z
-x,y,-z
-x,-y,-z
x,-y,z
1/2+x,1/2+y,z
1/2-x,1/2+y,-z
1/2-x,1/2-y,-z
1/2+x,1/2-y,z
loop_
_atom_site_type_symbol
_atom_site_label
_atom_site_fract_x
_atom_site_fract_y
_atom_site_fract_z
Si Si1 0.585077 0.579252 0.133049
Si Si2 0.286485 0.287208 0.224041
Si Si3 0.114790 0.779137 0.015714
Si Si4 0.077208 0.862851 0.407469
Si Si5 0.240760 0.414214 0.401870
Si Si6 0.388975 0.203504 0.496838
O O1 0.640818 0.500000 0.173721
O O2 0.654252 0.642613 0.093871
O O3 0.533791 0.609481 0.251858
O O4 0.500000 0.565972 0.000000
O O5 0.180089 0.280104 0.118519
O O6 0.282926 0.370184 0.286519
O O7 0.319863 0.225323 0.345949
O O8 0.368379 0.280213 0.137430
O O9 0.000000 0.764258 0.000000
O O10 0.170310 0.916197 0.462627
O O11 0.110928 0.776286 0.406516
O O12 0.000000 0.871505 0.500000
O O13 0.209144 0.500000 0.357116
O O14 0.151776 0.367739 0.436725
O O15 0.500000 0.182238 0.500000
#
# Coordination Sequence:
#
# PCOD8105247 Si02
#       6
#     8   8   8   8   8   8
#     4  10  21  32  50  82 121 154 185 232 296 364
#     4  10  22  40  59  93 114 159 206 250 291 358
#     4  10  22  37  63  85 120 158 204 246 299 352
#     4  10  21  37  59  86 117 158 202 245 298 359
#     4  11  23  37  59  88 123 153 198 252 303 362
#     4  10  22  38  65  86 116 155 204 252 297 346
#
# _framework density 19.691120999999999
#
# number of rings (size 3 to 8) (size 9 to 14) (size 15 to 20)
#    0.000    1.833    0.000    4.500   16.333    2.333 
#    0.000    0.000    0.000    1.500    0.000    0.000 
#    0.000    0.000    0.000    0.000    0.000    0.000 
#
# Total GULP energy -297314.462950 kJ/mol
# GULP energy per Si atom -12388.102623 kJ/mol
# Density = 1.964630 g / cm^3
# Si number density = 19.691121 Si / 1000 Ang^3
#
#
#
# Elastic Constant Matrix: (Units=GPa)
#
#
# Indices 1 2 3 4 5 6 
#
# 1 108.1775 33.6179 36.5202 0.0000 -1.1441 0.0000
# 2 33.6179 108.9317 40.4893 0.0000 -3.0167 0.0000
# 3 36.5202 40.4893 118.0421 0.0000 -5.3005 0.0000
# 4 0.0000 0.0000 0.0000 16.0096 0.0000 -1.5800
# 5 -1.1441 -3.0167 -5.3005 0.0000 20.5778 0.0000
# 6 0.0000 0.0000 0.0000 -1.5800 0.0000 13.4565
#
#
#
# Elastic Compliance Matrix: (Units=1/GPa)
#
#
# Indices 1 2 3 4 5 6 
#
# 1 0.010850 -0.002413 -0.002547 0.000000 -0.000407 0.000000
# 2 -0.002413 0.011066 -0.003017 0.000000 0.000711 0.000000
# 3 -0.002547 -0.003017 0.010389 0.000000 0.002092 0.000000
# 4 0.000000 0.000000 0.000000 0.063195 0.000000 0.007420
# 5 -0.000407 0.000711 0.002092 0.000000 0.049216 0.000000
# 6 0.000000 0.000000 0.000000 0.007420 0.000000 0.075185
#
#
# Mechanical properties :
#
#
# Convention : Reuss Voigt Hill
#
# Bulk Modulus (GPa) = 61.16507 61.82291 61.49399
# Shear Modulus (GPa) = 20.72070 24.97704 22.84887
#
# Velocity S-wave (km/s) = 3.24742 3.56538 3.41011
# Velocity P-wave (km/s) = 6.72240 6.95800 6.84121
#
# Compressibility (1/GPa) = 0.01634920
#
# Stress axis : x y z
#
# Youngs Moduli (GPa) = 92.16988 90.36797 96.25990
#
# Poissons Ratio (x) = 0.21804 0.24521
# Poissons Ratio (y) = 0.22238 0.29044
# Poissons Ratio (z) = 0.23479 0.27267
#
# Static dielectric constant tensor:
#      x y z
#    x 3.535800 0.000000 0.010260 
#    y 0.000000 4.028210 0.000000 
#    z 0.010260 0.000000 3.765280 
# 
# 
# High freq. dielectric constant tensor:
#      x y z
#    x 1.753380 0.000000 -0.000640 
#    y 0.000000 1.752040 0.000000 
#    z -0.000640 0.000000 1.783260 
# 
# From -- ./inp_files/61697.got.cif
#   From: 2010.06.25/outbox.cif.g09.slc.cpg/sg12_31_cif.got.tgz:61697.got - 2010.06.28 00:19:55.
