data_PCOD8105883
_publ_section_title
;
Structure prediction by ZEFSAII (Michael W. Deem and Ramdas Pophale) SiO2 
 PCOD8105883
Probable space group: C 2/M
;
_chemical_formula_sum "Si O2"
_cell_formula_units_Z 56
_cell_length_a 14.308525
_cell_length_b 9.021551
_cell_length_c 24.197093
_cell_angle_alpha 90.000000
_cell_angle_beta 104.355634
_cell_angle_gamma 90.000000
_cell_volume 3025.954468
_symmetry_space_group_name_H-M "C 2/M"
_symmetry_group_IT_number 12
_symmetry_cell_setting 'monoclinic'
loop_
_space_group_symop_operation_xyz
x,y,z
-x,y,-z
-x,-y,-z
x,-y,z
1/2+x,1/2+y,z
1/2-x,1/2+y,-z
1/2-x,1/2-y,-z
1/2+x,1/2-y,z
loop_
_atom_site_type_symbol
_atom_site_label
_atom_site_fract_x
_atom_site_fract_y
_atom_site_fract_z
Si Si1 0.108162 0.173965 0.238449
Si Si2 0.216190 0.827153 0.142909
Si Si3 0.379751 0.824592 0.425643
Si Si4 0.597011 0.175234 0.448904
Si Si5 0.703298 0.176182 0.356314
Si Si6 0.065092 0.673428 0.841939
Si Si7 0.456072 0.172801 0.936769
O O1 0.182028 0.211395 0.199794
O O2 0.144665 0.258418 0.297212
O O3 0.001635 0.233861 0.209384
O O4 0.102501 0.000000 0.249307
O O5 0.325438 0.771105 0.150359
O O6 0.146851 0.748245 0.088878
O O7 0.208901 0.000000 0.129680
O O8 0.358658 0.772460 0.485880
O O9 0.487014 0.772394 0.426127
O O10 0.311810 0.738101 0.372725
O O11 0.365261 0.000000 0.416059
O O12 0.656559 0.238200 0.406163
O O13 0.597807 0.000000 0.448863
O O14 0.702572 0.000000 0.352028
O O15 0.054558 0.500000 0.826136
O O16 0.032791 0.707547 0.899789
O O17 0.435084 0.000000 0.938958
O O18 0.500000 0.236561 0.000000
#
# Coordination Sequence:
#
# PCOD8105883 Si02
#       7
#     8   8   8   8   8   8   8
#     4  10  21  36  51  71  97 128 169 210 244 286
#     4   9  19  35  54  73  97 133 172 205 241 287
#     4   9  17  34  55  73  95 128 165 198 236 291
#     4   8  17  33  53  73  97 129 162 195 240 298
#     4  11  21  33  50  75 102 128 159 201 252 296
#     4   9  18  35  55  73  98 133 167 202 246 290
#     4   9  18  32  51  78 109 134 160 199 245 291
#
# _framework density 18.506558999999999
#
# number of rings (size 3 to 8) (size 9 to 14) (size 15 to 20)
#    0.000    2.714    0.000    2.143    0.000    3.143 
#    0.000    9.286    0.000    0.000    0.000    0.000 
#    0.000    0.000    0.000    0.000    0.000    0.000 
#
# Total GULP energy -347191.602907 kJ/mol
# GULP energy per Si atom -12399.700104 kJ/mol
# Density = 1.846444 g / cm^3
# Si number density = 18.506559 Si / 1000 Ang^3
#
#
#
# Elastic Constant Matrix: (Units=GPa)
#
#
# Indices 1 2 3 4 5 6 
#
# 1 110.2866 34.4485 49.9504 0.0000 23.4082 0.0000
# 2 34.4485 56.5153 46.1993 0.0000 11.2083 0.0000
# 3 49.9504 46.1993 120.3876 0.0000 22.8484 0.0000
# 4 0.0000 0.0000 0.0000 32.8593 0.0000 6.1034
# 5 23.4082 11.2083 22.8484 0.0000 23.2928 0.0000
# 6 0.0000 0.0000 0.0000 6.1034 0.0000 22.4930
#
#
#
# Elastic Compliance Matrix: (Units=1/GPa)
#
#
# Indices 1 2 3 4 5 6 
#
# 1 0.013405 -0.004699 -0.002004 0.000000 -0.009244 0.000000
# 2 -0.004699 0.027640 -0.008637 0.000000 -0.000105 0.000000
# 3 -0.002004 -0.008637 0.013862 0.000000 -0.007428 0.000000
# 4 0.000000 0.000000 0.000000 0.032048 0.000000 -0.008696
# 5 -0.009244 -0.000105 -0.007428 0.000000 0.059558 0.000000
# 6 0.000000 0.000000 0.000000 -0.008696 0.000000 0.046818
#
#
# Mechanical properties :
#
#
# Convention : Reuss Voigt Hill
#
# Bulk Modulus (GPa) = 41.27759 60.93178 51.10469
# Shear Modulus (GPa) = 21.54350 26.16844 23.85597
#
# Velocity S-wave (km/s) = 3.41559 3.76441 3.59424
# Velocity P-wave (km/s) = 6.15693 7.20349 6.70067
#
# Compressibility (1/GPa) = 0.02422622
#
# Stress axis : x y z
#
# Youngs Moduli (GPa) = 74.59988 36.17898 72.13790
#
# Poissons Ratio (x) = 0.17001 0.14457
# Poissons Ratio (y) = 0.35056 0.62308
# Poissons Ratio (z) = 0.14950 0.31249
#
# Static dielectric constant tensor:
#      x y z
#    x 3.622790 0.000000 -0.082380 
#    y 0.000000 3.195960 0.000000 
#    z -0.082380 0.000000 3.497860 
# 
# 
# High freq. dielectric constant tensor:
#      x y z
#    x 1.721150 0.000000 0.007090 
#    y 0.000000 1.702460 0.000000 
#    z 0.007090 0.000000 1.720530 
# 
# From -- ./inp_files/337854.got.cif
#   From: 2010.06.25/outbox.cif.g09.slc.cpg/sg12_169_cif.got.tgz:337854.got - 2010.06.28 00:19:55.
