data_PCOD8105706
_publ_section_title
;
Structure prediction by ZEFSAII (Michael W. Deem and Ramdas Pophale) SiO2 
 PCOD8105706
Probable space group: C 2/M
;
_chemical_formula_sum "Si O2"
_cell_formula_units_Z 56
_cell_length_a 27.418467
_cell_length_b 9.197128
_cell_length_c 18.522813
_cell_angle_alpha 90.000000
_cell_angle_beta 143.411350
_cell_angle_gamma 90.000000
_cell_volume 2784.175246
_symmetry_space_group_name_H-M "C 2/M"
_symmetry_group_IT_number 12
_symmetry_cell_setting 'monoclinic'
loop_
_space_group_symop_operation_xyz
x,y,z
-x,y,-z
-x,-y,-z
x,-y,z
1/2+x,1/2+y,z
1/2-x,1/2+y,-z
1/2-x,1/2-y,-z
1/2+x,1/2-y,z
loop_
_atom_site_type_symbol
_atom_site_label
_atom_site_fract_x
_atom_site_fract_y
_atom_site_fract_z
Si Si1 0.234679 0.169566 0.206711
Si Si2 0.873239 0.831234 0.455682
Si Si3 0.469700 0.167732 0.321858
Si Si4 0.786863 0.332424 0.111353
Si Si5 0.482972 0.835013 0.783040
Si Si6 0.828811 0.167272 0.567655
Si Si7 0.072980 0.668490 0.034565
O O1 0.315182 0.246447 0.332296
O O2 0.232429 0.194362 0.117732
O O3 0.238122 0.000000 0.230661
O O4 0.154156 0.238946 0.147190
O O5 0.839131 0.806797 0.495160
O O6 0.964447 0.765773 0.557895
O O7 0.876227 0.000000 0.438087
O O8 0.379600 0.218002 0.239280
O O9 0.472890 0.195079 0.239951
O O10 0.487623 0.000000 0.362443
O O11 0.788848 0.500000 0.091139
O O12 0.750000 0.250000 0.000000
O O13 0.406215 0.729566 0.702810
O O14 0.548189 0.802880 0.922696
O O15 0.450297 0.000000 0.749468
O O16 0.750000 0.250000 0.500000
O O17 0.819709 0.000000 0.577158
O O18 0.093537 0.500000 0.073976
O O19 0.000000 0.721137 0.000000
#
# Coordination Sequence:
#
# PCOD8105706 Si02
#       7
#     8   8   8   8   8   8   8
#     4  11  24  40  59  87 122 156 194 243 295 350
#     4  10  22  39  58  83 117 155 196 241 291 349
#     4   9  18  36  60  84 114 152 194 239 291 347
#     4  10  22  39  62  91 121 156 197 242 292 348
#     4   9  18  34  56  81 109 145 188 234 286 341
#     4  10  21  35  55  81 110 146 189 238 287 340
#     4  10  22  39  59  83 115 155 197 243 293 348
#
# _framework density 20.113676999999999
#
# number of rings (size 3 to 8) (size 9 to 14) (size 15 to 20)
#    0.000    2.143    0.000    2.143    2.000    6.000 
#    0.000    5.714    0.000    0.000    0.000    0.000 
#    0.000    0.000    0.000    0.000    0.000    0.000 
#
# Total GULP energy -347307.230110 kJ/mol
# GULP energy per Si atom -12403.829647 kJ/mol
# Density = 2.006790 g / cm^3
# Si number density = 20.113677 Si / 1000 Ang^3
#
#
#
# Elastic Constant Matrix: (Units=GPa)
#
#
# Indices 1 2 3 4 5 6 
#
# 1 78.6744 44.4713 34.2528 0.0000 25.0451 0.0000
# 2 44.4713 111.8911 61.3689 0.0000 14.1009 0.0000
# 3 34.2528 61.3689 107.2983 0.0000 12.4544 0.0000
# 4 0.0000 0.0000 0.0000 40.8210 0.0000 4.9481
# 5 25.0451 14.1009 12.4544 0.0000 31.9303 0.0000
# 6 0.0000 0.0000 0.0000 4.9481 0.0000 29.2067
#
#
#
# Elastic Compliance Matrix: (Units=1/GPa)
#
#
# Indices 1 2 3 4 5 6 
#
# 1 0.020908 -0.005577 -0.001956 0.000000 -0.013174 0.000000
# 2 -0.005577 0.014787 -0.006731 0.000000 0.000470 0.000000
# 3 -0.001956 -0.006731 0.013900 0.000000 -0.000915 0.000000
# 4 0.000000 0.000000 0.000000 0.025011 0.000000 -0.004237
# 5 -0.013174 0.000470 -0.000915 0.000000 0.041801 0.000000
# 6 0.000000 0.000000 0.000000 -0.004237 0.000000 0.034957
#
#
# Mechanical properties :
#
#
# Convention : Reuss Voigt Hill
#
# Bulk Modulus (GPa) = 47.46738 64.22776 55.84757
# Shear Modulus (GPa) = 26.75023 30.90966 28.82995
#
# Velocity S-wave (km/s) = 3.65081 3.92439 3.79007
# Velocity P-wave (km/s) = 6.43599 7.24818 6.85413
#
# Compressibility (1/GPa) = 0.02106710
#
# Stress axis : x y z
#
# Youngs Moduli (GPa) = 47.82751 67.62872 71.94112
#
# Poissons Ratio (x) = 0.37719 0.14068
# Poissons Ratio (y) = 0.26675 0.48426
# Poissons Ratio (z) = 0.09353 0.45523
#
# Static dielectric constant tensor:
#      x y z
#    x 3.698650 0.000000 0.073390 
#    y 0.000000 3.671180 0.000000 
#    z 0.073390 0.000000 3.641120 
# 
# 
# High freq. dielectric constant tensor:
#      x y z
#    x 1.786670 0.000000 0.005970 
#    y 0.000000 1.783650 0.000000 
#    z 0.005970 0.000000 1.787740 
# 
# From -- ./inp_files/292533.got.cif
#   From: 2010.06.25/outbox.cif.g09.slc.cpg/sg12_147_cif.got.tgz:292533.got - 2010.06.28 00:19:55.
