data_PCOD8105742
_publ_section_title
;
Structure prediction by ZEFSAII (Michael W. Deem and Ramdas Pophale) SiO2 
 PCOD8105742
Probable space group: C 2/M
;
_chemical_formula_sum "Si O2"
_cell_formula_units_Z 56
_cell_length_a 22.278305
_cell_length_b 8.552444
_cell_length_c 14.623782
_cell_angle_alpha 90.000000
_cell_angle_beta 102.689978
_cell_angle_gamma 90.000000
_cell_volume 2718.265380
_symmetry_space_group_name_H-M "C 2/M"
_symmetry_group_IT_number 12
_symmetry_cell_setting 'monoclinic'
loop_
_space_group_symop_operation_xyz
x,y,z
-x,y,-z
-x,-y,-z
x,-y,z
1/2+x,1/2+y,z
1/2-x,1/2+y,-z
1/2-x,1/2-y,-z
1/2+x,1/2-y,z
loop_
_atom_site_type_symbol
_atom_site_label
_atom_site_fract_x
_atom_site_fract_y
_atom_site_fract_z
Si Si1 0.093583 0.184950 0.290806
Si Si2 0.817740 0.683005 0.533335
Si Si3 0.611775 0.684494 0.908712
Si Si4 0.642932 0.317106 0.116531
Si Si5 0.774123 0.178724 0.175908
Si Si6 0.136514 0.819696 0.631726
Si Si7 0.036486 0.317983 0.727180
O O1 0.151670 0.227234 0.372167
O O2 0.107742 0.249290 0.193311
O O3 0.034465 0.274306 0.309521
O O4 0.082153 0.000000 0.287974
O O5 0.815175 0.500000 0.554023
O O6 0.750000 0.750000 0.500000
O O7 0.857220 0.712800 0.455258
O O8 0.598666 0.500000 0.897622
O O9 0.677545 0.724997 0.886352
O O10 0.557692 0.772072 0.836527
O O11 0.612934 0.749466 0.012985
O O12 0.634262 0.500000 0.111013
O O13 0.715233 0.285946 0.145371
O O14 0.804411 0.209390 0.284636
O O15 0.753309 0.000000 0.158927
O O16 0.074585 0.776697 0.664477
O O17 0.132386 0.000000 0.600392
O O18 0.046632 0.500000 0.713517
#
# Coordination Sequence:
#
# PCOD8105742 Si02
#       7
#     8   8   8   8   8   8   8
#     4  11  24  42  61  84 116 157 199 246 296 347
#     4  12  25  42  64  93 124 156 194 238 288 348
#     4   9  19  37  57  82 116 156 196 239 291 350
#     4  10  21  35  56  83 114 154 200 243 290 345
#     4   9  18  32  55  85 118 150 186 235 294 351
#     4  10  21  40  64  89 118 156 195 241 296 350
#     4  11  23  40  61  88 117 151 196 245 293 352
#
# _framework density 20.601375000000001
#
# number of rings (size 3 to 8) (size 9 to 14) (size 15 to 20)
#    0.000    1.714    0.000    5.571    0.000    8.000 
#    0.000    5.714    0.000    0.000    0.000    0.000 
#    0.000    0.000    0.000    0.000    0.000    0.000 
#
# Total GULP energy -347316.216803 kJ/mol
# GULP energy per Si atom -12404.150600 kJ/mol
# Density = 2.055448 g / cm^3
# Si number density = 20.601375 Si / 1000 Ang^3
#
#
#
# Elastic Constant Matrix: (Units=GPa)
#
#
# Indices 1 2 3 4 5 6 
#
# 1 85.4362 11.4494 32.5516 0.0000 6.3967 0.0000
# 2 11.4494 49.4069 18.0043 0.0000 -0.1470 0.0000
# 3 32.5516 18.0043 101.3638 0.0000 -16.8137 0.0000
# 4 0.0000 0.0000 0.0000 28.5026 0.0000 5.5798
# 5 6.3967 -0.1470 -16.8137 0.0000 27.2160 0.0000
# 6 0.0000 0.0000 0.0000 5.5798 0.0000 32.9947
#
#
#
# Elastic Compliance Matrix: (Units=1/GPa)
#
#
# Indices 1 2 3 4 5 6 
#
# 1 0.014517 -0.001359 -0.005557 0.000000 -0.006853 0.000000
# 2 -0.001359 0.021924 -0.003771 0.000000 -0.001892 0.000000
# 3 -0.005557 -0.003771 0.013964 0.000000 0.009913 0.000000
# 4 0.000000 0.000000 0.000000 0.036286 0.000000 -0.006136
# 5 -0.006853 -0.001892 0.009913 0.000000 0.044467 0.000000
# 6 0.000000 0.000000 0.000000 -0.006136 0.000000 0.031346
#
#
# Mechanical properties :
#
#
# Convention : Reuss Voigt Hill
#
# Bulk Modulus (GPa) = 34.44812 40.02416 37.23614
# Shear Modulus (GPa) = 25.83224 29.35609 27.59417
#
# Velocity S-wave (km/s) = 3.54490 3.77896 3.66380
# Velocity P-wave (km/s) = 5.78901 6.20570 6.00098
#
# Compressibility (1/GPa) = 0.02902916
#
# Stress axis : x y z
#
# Youngs Moduli (GPa) = 68.88381 45.61248 71.61164
#
# Poissons Ratio (x) = 0.06201 0.39796
# Poissons Ratio (y) = 0.09365 0.27007
# Poissons Ratio (z) = 0.38280 0.17202
#
# Static dielectric constant tensor:
#      x y z
#    x 3.637780 0.000000 -0.159380 
#    y 0.000000 3.625560 0.000000 
#    z -0.159380 0.000000 4.075970 
# 
# 
# High freq. dielectric constant tensor:
#      x y z
#    x 1.804110 0.000000 -0.004720 
#    y 0.000000 1.799270 0.000000 
#    z -0.004720 0.000000 1.815780 
# 
# From -- ./inp_files/237883.got.cif
#   From: 2010.06.25/outbox.cif.g09.slc.cpg/sg12_119_cif.got.tgz:237883.got - 2010.06.28 00:19:55.
