data_PCOD8105550
_publ_section_title
;
Structure prediction by ZEFSAII (Michael W. Deem and Ramdas Pophale) SiO2 
 PCOD8105550
Probable space group: C 2/M
;
_chemical_formula_sum "Si O2"
_cell_formula_units_Z 56
_cell_length_a 27.834039
_cell_length_b 9.700719
_cell_length_c 18.833921
_cell_angle_alpha 90.000000
_cell_angle_beta 143.464564
_cell_angle_gamma 90.000000
_cell_volume 3027.410100
_symmetry_space_group_name_H-M "C 2/M"
_symmetry_group_IT_number 12
_symmetry_cell_setting 'monoclinic'
loop_
_space_group_symop_operation_xyz
x,y,z
-x,y,-z
-x,-y,-z
x,-y,z
1/2+x,1/2+y,z
1/2-x,1/2+y,-z
1/2-x,1/2-y,-z
1/2+x,1/2-y,z
loop_
_atom_site_type_symbol
_atom_site_label
_atom_site_fract_x
_atom_site_fract_y
_atom_site_fract_z
Si Si1 0.773261 0.654727 0.219773
Si Si2 0.513273 0.663988 0.794102
Si Si3 0.309970 0.658608 0.024869
Si Si4 0.958489 0.836179 0.880008
Si Si5 0.132350 0.158256 0.475962
Si Si6 0.723090 0.660238 0.317453
Si Si7 0.587506 0.343192 0.584982
O O1 0.807890 0.500000 0.263462
O O2 0.709700 0.672836 0.081552
O O3 0.728669 0.690737 0.240147
O O4 0.847925 0.755665 0.294398
O O5 0.513691 0.500000 0.795405
O O6 0.503954 0.719490 0.863718
O O7 0.437686 0.717115 0.658203
O O8 0.597741 0.713539 0.859159
O O9 0.301861 0.500000 0.040419
O O10 0.250000 0.750000 0.000000
O O11 0.865286 0.790772 0.763774
O O12 0.963481 0.000000 0.890184
O O13 0.000000 0.772686 0.000000
O O14 0.212172 0.250700 0.561338
O O15 0.099353 0.172250 0.515751
O O16 0.153999 0.000000 0.483111
O O17 0.738458 0.500000 0.352857
O O18 0.500000 0.284439 0.500000
O O19 0.596383 0.500000 0.621559
#
# Coordination Sequence:
#
# PCOD8105550 Si02
#       7
#     8   8   8   8   8   8   8
#     4   9  18  32  48  71  99 126 158 202 253 295
#     4   9  18  32  50  72 100 132 166 206 247 293
#     4  10  21  35  52  73  99 132 168 207 253 300
#     4   9  16  28  51  79 101 127 166 206 244 292
#     4   9  18  32  48  70 101 134 166 202 246 294
#     4   9  17  31  52  76 102 129 162 205 249 292
#     4   9  18  30  48  70  92 126 171 208 237 284
#
# _framework density 18.49766
#
# number of rings (size 3 to 8) (size 9 to 14) (size 15 to 20)
#    0.000    2.857    0.000    0.857    2.000    4.857 
#    0.000    0.714    0.000    1.286    0.000    0.000 
#    0.000    0.000    0.000    0.000    0.000    0.000 
#
# Total GULP energy -347152.670866 kJ/mol
# GULP energy per Si atom -12398.309674 kJ/mol
# Density = 1.845556 g / cm^3
# Si number density = 18.497660 Si / 1000 Ang^3
#
#
#
# Elastic Constant Matrix: (Units=GPa)
#
#
# Indices 1 2 3 4 5 6 
#
# 1 96.9406 33.2654 50.2621 0.0000 26.1748 0.0000
# 2 33.2654 47.0860 39.7429 0.0000 12.1315 0.0000
# 3 50.2621 39.7429 126.7121 0.0000 17.2252 0.0000
# 4 0.0000 0.0000 0.0000 27.9432 0.0000 5.1148
# 5 26.1748 12.1315 17.2252 0.0000 31.8836 0.0000
# 6 0.0000 0.0000 0.0000 5.1148 0.0000 17.6978
#
#
#
# Elastic Compliance Matrix: (Units=1/GPa)
#
#
# Indices 1 2 3 4 5 6 
#
# 1 0.016904 -0.006690 -0.003310 0.000000 -0.009544 0.000000
# 2 -0.006690 0.032870 -0.007234 0.000000 -0.003107 0.000000
# 3 -0.003310 -0.007234 0.011580 0.000000 -0.000787 0.000000
# 4 0.000000 0.000000 0.000000 0.037786 0.000000 -0.010920
# 5 -0.009544 -0.003107 -0.000787 0.000000 0.040807 0.000000
# 6 0.000000 0.000000 0.000000 -0.010920 0.000000 0.059660
#
#
# Mechanical properties :
#
#
# Convention : Reuss Voigt Hill
#
# Bulk Modulus (GPa) = 37.19092 57.47550 47.33321
# Shear Modulus (GPa) = 20.57302 25.33612 22.95457
#
# Velocity S-wave (km/s) = 3.33858 3.70495 3.52653
# Velocity P-wave (km/s) = 5.91700 7.03146 6.49817
#
# Compressibility (1/GPa) = 0.02688829
#
# Stress axis : x y z
#
# Youngs Moduli (GPa) = 59.15671 30.42278 86.35228
#
# Poissons Ratio (x) = 0.20353 0.28579
# Poissons Ratio (y) = 0.39577 0.62463
# Poissons Ratio (z) = 0.19578 0.22007
#
# Static dielectric constant tensor:
#      x y z
#    x 3.436270 0.000000 0.075850 
#    y 0.000000 3.163910 0.000000 
#    z 0.075850 0.000000 3.571150 
# 
# 
# High freq. dielectric constant tensor:
#      x y z
#    x 1.720440 0.000000 0.004150 
#    y 0.000000 1.674250 0.000000 
#    z 0.004150 0.000000 1.726400 
# 
# From -- ./inp_files/245701.got.cif
#   From: 2010.06.25/outbox.cif.g09.slc.cpg/sg12_123_cif.got.tgz:245701.got - 2010.06.28 00:19:55.
