data_PCOD8105173
_publ_section_title
;
Structure prediction by ZEFSAII (Michael W. Deem and Ramdas Pophale) SiO2 
 PCOD8105173
Probable space group: C 2/M
;
_chemical_formula_sum "Si O2"
_cell_formula_units_Z 40
_cell_length_a 9.876547
_cell_length_b 22.851571
_cell_length_c 9.091271
_cell_angle_alpha 90.000000
_cell_angle_beta 88.581013
_cell_angle_gamma 90.000000
_cell_volume 2051.221684
_symmetry_space_group_name_H-M "C 2/M"
_symmetry_group_IT_number 12
_symmetry_cell_setting 'monoclinic'
loop_
_space_group_symop_operation_xyz
x,y,z
-x,y,-z
-x,-y,-z
x,-y,z
1/2+x,1/2+y,z
1/2-x,1/2+y,-z
1/2-x,1/2-y,-z
1/2+x,1/2-y,z
loop_
_atom_site_type_symbol
_atom_site_label
_atom_site_fract_x
_atom_site_fract_y
_atom_site_fract_z
Si Si1 0.401192 0.000000 0.140472
Si Si2 0.755093 0.807979 0.677444
Si Si3 0.997391 0.888675 0.332832
Si Si4 0.471445 0.124070 0.173368
Si Si5 0.084850 0.000000 0.144275
Si Si6 0.722269 0.826410 0.342718
O O1 0.434743 0.058566 0.231576
O O2 0.243273 0.000000 0.099207
O O3 0.500000 0.000000 0.000000
O O4 0.658770 0.835592 0.801890
O O5 0.697278 0.824467 0.518220
O O6 0.754995 0.739470 0.711581
O O7 0.906344 0.832504 0.690598
O O8 0.848094 0.867092 0.292972
O O9 0.000000 0.910885 0.500000
O O10 0.045945 0.942124 0.233582
O O11 0.594186 0.146699 0.266488
O O12 0.500000 0.124461 0.000000
O O13 0.000000 0.000000 0.000000
#
# Coordination Sequence:
#
# PCOD8105173 Si02
#       6
#     4   8   8   8   4   8
#     4  10  24  43  60  85 125 163 202 249 305 362
#     4  10  20  42  63  90 125 160 202 246 303 364
#     4  10  22  39  63  92 123 155 204 256 297 360
#     4  11  23  39  62  88 127 160 201 254 300 363
#     4  12  25  41  67  86 120 168 204 252 311 363
#     4  10  22  38  66  92 121 163 199 246 308 366
#
# _framework density 19.500574
#
# number of rings (size 3 to 8) (size 9 to 14) (size 15 to 20)
#    0.000    1.600    2.000    2.100    5.600    4.000 
#    0.000    5.000    0.000    0.000    0.000    0.000 
#    0.000    0.000    0.000    0.000    0.000    0.000 
#
# Total GULP energy -248023.318728 kJ/mol
# GULP energy per Si atom -12401.165936 kJ/mol
# Density = 1.945619 g / cm^3
# Si number density = 19.500574 Si / 1000 Ang^3
#
#
#
# Elastic Constant Matrix: (Units=GPa)
#
#
# Indices 1 2 3 4 5 6 
#
# 1 118.8724 46.9203 41.6096 0.0000 -1.7463 0.0000
# 2 46.9203 141.0085 45.4901 0.0000 -2.3278 0.0000
# 3 41.6096 45.4901 62.6202 0.0000 3.0422 0.0000
# 4 0.0000 0.0000 0.0000 29.8211 0.0000 -2.1743
# 5 -1.7463 -2.3278 3.0422 0.0000 32.5337 0.0000
# 6 0.0000 0.0000 0.0000 -2.1743 0.0000 35.5239
#
#
#
# Elastic Compliance Matrix: (Units=1/GPa)
#
#
# Indices 1 2 3 4 5 6 
#
# 1 0.011319 -0.001705 -0.006335 0.000000 0.001078 0.000000
# 2 -0.001705 0.009574 -0.005878 0.000000 0.001143 0.000000
# 3 -0.006335 -0.005878 0.024597 0.000000 -0.003061 0.000000
# 4 0.000000 0.000000 0.000000 0.033684 0.000000 0.002062
# 5 0.001078 0.001143 -0.003061 0.000000 0.031163 0.000000
# 6 0.000000 0.000000 0.000000 0.002062 0.000000 0.028276
#
#
# Mechanical properties :
#
#
# Convention : Reuss Voigt Hill
#
# Bulk Modulus (GPa) = 56.64108 65.61567 61.12837
# Shear Modulus (GPa) = 29.01361 32.14112 30.57736
#
# Velocity S-wave (km/s) = 3.86143 4.06422 3.96412
# Velocity P-wave (km/s) = 6.99927 7.46626 7.23653
#
# Compressibility (1/GPa) = 0.01765503
#
# Stress axis : x y z
#
# Youngs Moduli (GPa) = 88.35072 104.44828 40.65498
#
# Poissons Ratio (x) = 0.17806 0.25754
# Poissons Ratio (y) = 0.15062 0.23896
# Poissons Ratio (z) = 0.55969 0.61393
#
# Static dielectric constant tensor:
#      x y z
#    x 3.342770 0.000000 -0.299840 
#    y 0.000000 3.939600 0.000000 
#    z -0.299840 0.000000 3.377910 
# 
# 
# High freq. dielectric constant tensor:
#      x y z
#    x 1.778480 0.000000 -0.005710 
#    y 0.000000 1.777960 0.000000 
#    z -0.005710 0.000000 1.740580 
# 
# From -- ./inp_files/39486.got.cif
#   From: 2010.06.25/outbox.cif.g09.slc.cpg/sg12_20_cif.got.tgz:39486.got - 2010.06.28 00:19:55.
