data_PCOD8105250
_publ_section_title
;
Structure prediction by ZEFSAII (Michael W. Deem and Ramdas Pophale) SiO2 
 PCOD8105250
Probable space group: C 2/M
;
_chemical_formula_sum "Si O2"
_cell_formula_units_Z 40
_cell_length_a 16.069331
_cell_length_b 20.283681
_cell_length_c 9.969978
_cell_angle_alpha 90.000000
_cell_angle_beta 40.014391
_cell_angle_gamma 90.000000
_cell_volume 2089.470436
_symmetry_space_group_name_H-M "C 2/M"
_symmetry_group_IT_number 12
_symmetry_cell_setting 'monoclinic'
loop_
_space_group_symop_operation_xyz
x,y,z
-x,y,-z
-x,-y,-z
x,-y,z
1/2+x,1/2+y,z
1/2-x,1/2+y,-z
1/2-x,1/2-y,-z
1/2+x,1/2-y,z
loop_
_atom_site_type_symbol
_atom_site_label
_atom_site_fract_x
_atom_site_fract_y
_atom_site_fract_z
Si Si1 0.790321 0.321060 0.999389
Si Si2 0.122440 0.868889 0.985732
Si Si3 0.853836 0.075412 0.325123
Si Si4 0.465320 0.760298 0.228232
Si Si5 0.236099 0.179260 0.364751
O O1 0.735755 0.373444 0.957995
O O2 0.723027 0.337121 0.224436
O O3 0.750000 0.250000 0.000000
O O4 0.946928 0.319996 0.819220
O O5 0.008470 0.920830 0.160322
O O6 0.059823 0.796152 0.053381
O O7 0.183683 0.886947 0.766368
O O8 0.776396 0.111055 0.539187
O O9 0.809220 0.000000 0.374087
O O10 0.376706 0.788785 0.218266
O O11 0.375983 0.730734 0.456432
#
# Coordination Sequence:
#
# PCOD8105250 Si02
#       5
#     8   8   8   8   8
#     4  10  21  32  51  84 120 141 172 230 288 340
#     4   9  19  34  55  82 109 141 185 231 286 319
#     4  10  21  38  59  77 107 153 197 227 260 327
#     4   9  20  32  56  82 117 144 176 228 285 343
#     4  10  21  34  55  82 113 151 183 221 280 333
#
# _framework density 19.143608
#
# number of rings (size 3 to 8) (size 9 to 14) (size 15 to 20)
#    0.000    2.400    0.000    1.800   25.200    7.200 
#    0.000    3.000    0.000    6.000    0.000    0.000 
#    0.000    0.000    0.000    0.000    0.000    0.000 
#
# Total GULP energy -247927.442122 kJ/mol
# GULP energy per Si atom -12396.372106 kJ/mol
# Density = 1.910004 g / cm^3
# Si number density = 19.143608 Si / 1000 Ang^3
#
#
#
# Elastic Constant Matrix: (Units=GPa)
#
#
# Indices 1 2 3 4 5 6 
#
# 1 147.1074 48.4204 60.8662 -0.0005 19.5447 0.0006
# 2 48.4204 77.7311 41.6384 -0.0001 12.3346 0.0002
# 3 60.8662 41.6384 78.3404 -0.0004 16.9030 0.0004
# 4 -0.0005 -0.0001 -0.0004 19.2940 0.0004 -1.0688
# 5 19.5447 12.3346 16.9030 0.0004 29.9014 -0.0005
# 6 0.0006 0.0002 0.0004 -1.0688 -0.0005 15.2513
#
#
#
# Elastic Compliance Matrix: (Units=1/GPa)
#
#
# Indices 1 2 3 4 5 6 
#
# 1 0.010634 -0.002940 -0.006220 0.000000 -0.002222 0.000000
# 2 -0.002940 0.018938 -0.007415 0.000000 -0.001699 0.000000
# 3 -0.006220 -0.007415 0.022780 0.000000 -0.005753 -0.000001
# 4 0.000000 0.000000 0.000000 0.052032 -0.000001 0.003646
# 5 -0.002222 -0.001699 -0.005753 -0.000001 0.038848 0.000002
# 6 0.000000 0.000000 -0.000001 0.003646 0.000002 0.065824
#
#
# Mechanical properties :
#
#
# Convention : Reuss Voigt Hill
#
# Bulk Modulus (GPa) = 52.07811 67.22542 59.65177
# Shear Modulus (GPa) = 20.11213 23.03959 21.57586
#
# Velocity S-wave (km/s) = 3.24480 3.47293 3.36080
# Velocity P-wave (km/s) = 6.42661 7.16061 6.80351
#
# Compressibility (1/GPa) = 0.01920192
#
# Stress axis : x y z
#
# Youngs Moduli (GPa) = 94.03581 52.80504 43.89816
#
# Poissons Ratio (x) = 0.15523 0.27306
# Poissons Ratio (y) = 0.27643 0.32550
# Poissons Ratio (z) = 0.58494 0.39155
#
# Static dielectric constant tensor:
#      x y z
#    x 4.319040 0.000000 -0.252270 
#    y 0.000000 3.266430 0.000000 
#    z -0.252270 0.000000 3.464070 
# 
# 
# High freq. dielectric constant tensor:
#      x y z
#    x 1.752490 0.000000 0.007500 
#    y 0.000000 1.697860 0.000000 
#    z 0.007500 0.000000 1.738150 
# 
# From -- ./inp_files/158772.got.cif
#   From: 2010.06.25/outbox.cif.g09.slc.cpg/sg12_80_cif.got.tgz:158772.got - 2010.06.28 00:19:55.
