data_PCOD8105777
_publ_section_title
;
Structure prediction by ZEFSAII (Michael W. Deem and Ramdas Pophale) SiO2 
 PCOD8105777
Probable space group: C 2/M
;
_chemical_formula_sum "Si O2"
_cell_formula_units_Z 56
_cell_length_a 19.339797
_cell_length_b 22.683616
_cell_length_c 8.415869
_cell_angle_alpha 90.000000
_cell_angle_beta 55.323359
_cell_angle_gamma 90.000000
_cell_volume 3036.222718
_symmetry_space_group_name_H-M "C 2/M"
_symmetry_group_IT_number 12
_symmetry_cell_setting 'monoclinic'
loop_
_space_group_symop_operation_xyz
x,y,z
-x,y,-z
-x,-y,-z
x,-y,z
1/2+x,1/2+y,z
1/2-x,1/2+y,-z
1/2-x,1/2-y,-z
1/2+x,1/2-y,z
loop_
_atom_site_type_symbol
_atom_site_label
_atom_site_fract_x
_atom_site_fract_y
_atom_site_fract_z
Si Si1 0.629515 0.265483 0.166332
Si Si2 0.269569 0.163937 0.851815
Si Si3 0.040364 0.779719 0.777413
Si Si4 0.671429 0.663045 0.419456
Si Si5 0.241612 0.567093 0.889523
Si Si6 0.904993 0.433837 0.154743
Si Si7 0.830476 0.673578 0.416545
O O1 0.667805 0.199505 0.111138
O O2 0.531704 0.264078 0.254893
O O3 0.646423 0.289370 0.320515
O O4 0.677438 0.306024 0.974847
O O5 0.302901 0.165819 0.632260
O O6 0.262035 0.098065 0.933274
O O7 0.092687 0.837153 0.646260
O O8 0.101335 0.723649 0.705197
O O9 0.000000 0.794271 0.000000
O O10 0.690848 0.599503 0.315882
O O11 0.752316 0.688526 0.405104
O O12 0.272643 0.500000 0.870829
O O13 0.148470 0.569796 0.937629
O O14 0.901215 0.500000 0.229884
O O15 0.867934 0.390358 0.332782
O O16 0.000000 0.414277 0.000000
#
# Coordination Sequence:
#
# PCOD8105777 Si02
#       7
#     8   8   8   8   8   8   8
#     4  10  22  37  54  81 113 153 178 230 283 341
#     4  10  21  35  57  77 115 140 188 230 280 330
#     4  12  24  33  55  84 118 148 190 229 283 338
#     4  10  21  39  58  80 119 150 188 229 284 340
#     4   9  20  38  61  81 106 151 193 233 284 337
#     4   9  19  36  53  75 110 151 193 230 275 330
#     4  11  22  34  55  85 113 153 184 234 277 336
#
# _framework density 18.443968999999999
#
# number of rings (size 3 to 8) (size 9 to 14) (size 15 to 20)
#    0.000    1.857    1.429    2.143   10.000    0.571 
#    0.000    0.000    0.000    9.857    0.000    0.000 
#    0.000    0.000    0.000    0.000    0.000    0.000 
#
# Total GULP energy -347137.787636 kJ/mol
# GULP energy per Si atom -12397.778130 kJ/mol
# Density = 1.840199 g / cm^3
# Si number density = 18.443969 Si / 1000 Ang^3
#
#
#
# Elastic Constant Matrix: (Units=GPa)
#
#
# Indices 1 2 3 4 5 6 
#
# 1 102.4236 30.8901 33.6306 0.0000 -13.6387 0.0000
# 2 30.8901 85.3366 32.1509 0.0000 -0.7290 0.0000
# 3 33.6306 32.1509 118.7778 0.0000 -2.3990 0.0000
# 4 0.0000 0.0000 0.0000 24.0535 0.0000 0.6506
# 5 -13.6387 -0.7290 -2.3990 0.0000 28.3769 0.0000
# 6 0.0000 0.0000 0.0000 0.6506 0.0000 18.6368
#
#
#
# Elastic Compliance Matrix: (Units=1/GPa)
#
#
# Indices 1 2 3 4 5 6 
#
# 1 0.012376 -0.003513 -0.002439 0.000000 0.005652 0.000000
# 2 -0.003513 0.014046 -0.002839 0.000000 -0.001567 0.000000
# 3 -0.002439 -0.002839 0.009870 0.000000 -0.000411 0.000000
# 4 0.000000 0.000000 0.000000 0.041613 0.000000 -0.001453
# 5 0.005652 -0.001567 -0.000411 0.000000 0.037881 0.000000
# 6 0.000000 0.000000 0.000000 -0.001453 0.000000 0.053708
#
#
# Mechanical properties :
#
#
# Convention : Reuss Voigt Hill
#
# Bulk Modulus (GPa) = 53.44662 55.54236 54.49449
# Shear Modulus (GPa) = 25.86471 28.20454 27.03462
#
# Velocity S-wave (km/s) = 3.74884 3.91474 3.83269
# Velocity P-wave (km/s) = 6.91225 7.11429 7.01400
#
# Compressibility (1/GPa) = 0.01871026
#
# Stress axis : x y z
#
# Youngs Moduli (GPa) = 80.79956 71.19430 101.31807
#
# Poissons Ratio (x) = 0.25008 0.24714
# Poissons Ratio (y) = 0.28382 0.28765
# Poissons Ratio (z) = 0.19709 0.20213
#
# Static dielectric constant tensor:
#      x y z
#    x 3.460200 0.000000 -0.152070 
#    y 0.000000 3.445630 0.000000 
#    z -0.152070 0.000000 3.542540 
# 
# 
# High freq. dielectric constant tensor:
#      x y z
#    x 1.717430 0.000000 -0.002790 
#    y 0.000000 1.700000 0.000000 
#    z -0.002790 0.000000 1.720380 
# 
# From -- ./inp_files/77384.got.cif
#   From: 2010.06.25/outbox.cif.g09.slc.cpg/sg12_39_cif.got.tgz:77384.got - 2010.06.28 00:19:55.
