data_PCOD8105355
_publ_section_title
;
Structure prediction by ZEFSAII (Michael W. Deem and Ramdas Pophale) SiO2 
 PCOD8105355
Probable space group: C 2/M
;
_chemical_formula_sum "Si O2"
_cell_formula_units_Z 64
_cell_length_a 19.797548
_cell_length_b 18.218752
_cell_length_c 17.021019
_cell_angle_alpha 90.000000
_cell_angle_beta 148.232494
_cell_angle_gamma 90.000000
_cell_volume 3232.155727
_symmetry_space_group_name_H-M "C 2/M"
_symmetry_group_IT_number 12
_symmetry_cell_setting 'monoclinic'
loop_
_space_group_symop_operation_xyz
x,y,z
-x,y,-z
-x,-y,-z
x,-y,z
1/2+x,1/2+y,z
1/2-x,1/2+y,-z
1/2-x,1/2-y,-z
1/2+x,1/2-y,z
loop_
_atom_site_type_symbol
_atom_site_label
_atom_site_fract_x
_atom_site_fract_y
_atom_site_fract_z
Si Si1 0.725121 0.914590 0.549441
Si Si2 0.752599 0.330848 0.096479
Si Si3 0.484858 0.414666 0.311913
Si Si4 0.765422 0.659412 0.928394
Si Si5 0.260468 0.083268 0.619616
Si Si6 0.976650 0.684291 0.887917
Si Si7 0.474275 0.081611 0.383801
Si Si8 0.974129 0.836716 0.808680
O O1 0.722749 0.895976 0.455265
O O2 0.595988 0.882262 0.459919
O O3 0.849041 0.879430 0.715702
O O4 0.735624 0.000000 0.577144
O O5 0.767538 0.243900 0.120031
O O6 0.851375 0.368085 0.252168
O O7 0.782168 0.356715 0.037253
O O8 0.610319 0.356993 0.984073
O O9 0.479128 0.500000 0.276613
O O10 0.350894 0.391377 0.220992
O O11 0.609064 0.406297 0.491831
O O12 0.505398 0.356047 0.262428
O O13 0.898509 0.638174 0.017090
O O14 0.350153 0.133815 0.761895
O O15 0.303605 0.000000 0.677253
O O16 0.952238 0.750425 0.802642
O O17 0.000000 0.712360 0.000000
O O18 0.500000 0.076866 0.500000
O O19 0.448118 0.000000 0.323787
#
# Coordination Sequence:
#
# PCOD8105355 Si02
#       8
#     8   8   8   8   8   8   8   8
#     4   9  18  33  54  79 105 136 179 228 274 323
#     4   9  18  34  55  76 104 140 179 225 271 316
#     4   9  18  35  61  88 107 129 173 233 286 329
#     4   9  19  35  54  79 106 136 182 232 272 318
#     4   9  19  36  56  79 105 136 183 234 273 317
#     4  11  23  36  52  79 115 152 186 219 263 323
#     4  10  21  34  49  76 112 147 184 222 265 326
#     4   9  19  34  55  81 109 135 172 221 271 326
#
# _framework density 19.801027000000001
#
# number of rings (size 3 to 8) (size 9 to 14) (size 15 to 20)
#    0.000    2.625    0.000    2.625    0.000    8.250 
#    0.000    0.625    0.000    5.250    0.000    0.000 
#    0.000    0.000    0.000    0.000    0.000    0.000 
#
# Total GULP energy -396578.153904 kJ/mol
# GULP energy per Si atom -12393.067310 kJ/mol
# Density = 1.975596 g / cm^3
# Si number density = 19.801027 Si / 1000 Ang^3
#
#
#
# Elastic Constant Matrix: (Units=GPa)
#
#
# Indices 1 2 3 4 5 6 
#
# 1 24.1512 13.1367 28.0238 0.0000 8.8982 -0.0001
# 2 13.1367 72.3050 62.1832 -0.0002 2.6918 -0.0003
# 3 28.0238 62.1832 130.2670 0.0001 28.0999 -0.0001
# 4 0.0000 -0.0002 0.0001 29.8058 0.0000 8.8448
# 5 8.8982 2.6918 28.0999 0.0000 28.5668 -0.0002
# 6 -0.0001 -0.0003 -0.0001 8.8448 -0.0002 20.6121
#
#
#
# Elastic Compliance Matrix: (Units=1/GPa)
#
#
# Indices 1 2 3 4 5 6 
#
# 1 0.056410 -0.001682 -0.009617 0.000000 -0.007953 0.000000
# 2 -0.001682 0.026707 -0.015177 0.000000 0.012937 0.000000
# 3 -0.009617 -0.015177 0.020354 0.000000 -0.015596 0.000000
# 4 0.000000 0.000000 0.000000 0.038446 0.000000 -0.016497
# 5 -0.007953 0.012937 -0.015596 0.000000 0.051605 0.000001
# 6 0.000000 0.000000 0.000000 -0.016497 0.000001 0.055594
#
#
# Mechanical properties :
#
#
# Convention : Reuss Voigt Hill
#
# Bulk Modulus (GPa) = 19.79465 48.15676 33.97570
# Shear Modulus (GPa) = 15.67847 24.02223 19.85035
#
# Velocity S-wave (km/s) = 2.81695 3.48685 3.16965
# Velocity P-wave (km/s) = 4.53858 6.37056 5.53095
#
# Compressibility (1/GPa) = 0.05051870
#
# Stress axis : x y z
#
# Youngs Moduli (GPa) = 17.72748 37.44342 49.12929
#
# Poissons Ratio (x) = 0.06299 0.47245
# Poissons Ratio (y) = 0.02982 0.74565
# Poissons Ratio (z) = 0.17048 0.56829
#
# Static dielectric constant tensor:
#      x y z
#    x 3.493850 0.000000 0.479450 
#    y 0.000000 3.485650 0.000000 
#    z 0.479450 0.000000 3.777520 
# 
# 
# High freq. dielectric constant tensor:
#      x y z
#    x 1.748070 0.000000 0.033040 
#    y 0.000000 1.757910 0.000000 
#    z 0.033040 0.000000 1.775760 
# 
# From -- ./inp_files/285243.got.cif
#   From: 2010.06.25/outbox.cif.g09.slc.cpg/sg12_143_cif.got.tgz:285243.got - 2010.06.28 00:19:55.
