data_PCOD8105389
_publ_section_title
;
Structure prediction by ZEFSAII (Michael W. Deem and Ramdas Pophale) SiO2 
 PCOD8105389
Probable space group: C 2/M
;
_chemical_formula_sum "Si O2"
_cell_formula_units_Z 40
_cell_length_a 25.379127
_cell_length_b 10.154836
_cell_length_c 20.694893
_cell_angle_alpha 90.000000
_cell_angle_beta 155.974408
_cell_angle_gamma 90.000000
_cell_volume 2171.508390
_symmetry_space_group_name_H-M "C 2/M"
_symmetry_group_IT_number 12
_symmetry_cell_setting 'monoclinic'
loop_
_space_group_symop_operation_xyz
x,y,z
-x,y,-z
-x,-y,-z
x,-y,z
1/2+x,1/2+y,z
1/2-x,1/2+y,-z
1/2-x,1/2-y,-z
1/2+x,1/2-y,z
loop_
_atom_site_type_symbol
_atom_site_label
_atom_site_fract_x
_atom_site_fract_y
_atom_site_fract_z
Si Si1 0.634259 0.843368 0.680691
Si Si2 0.157262 0.855498 0.321959
Si Si3 0.568438 0.142717 0.307031
Si Si4 0.660925 0.153037 0.858764
Si Si5 0.355570 0.654261 0.835456
O O1 0.500000 0.787536 0.500000
O O2 0.653790 0.798641 0.776689
O O3 0.755388 0.784702 0.775263
O O4 0.630386 0.000000 0.672037
O O5 0.283406 0.860035 0.506507
O O6 0.051573 0.754822 0.233454
O O7 0.199014 0.813929 0.296814
O O8 0.090108 0.000000 0.245269
O O9 0.482514 0.170485 0.273477
O O10 0.531361 0.000000 0.235515
O O11 0.707562 0.000000 0.915995
O O12 0.750000 0.250000 0.000000
O O13 0.364293 0.500000 0.859467
O O14 0.500000 0.716469 0.000000
#
# Coordination Sequence:
#
# PCOD8105389 Si02
#       5
#     8   8   8   8   8
#     4   9  17  31  51  73  99 133 170 209 256 305
#     4   9  17  30  51  74  98 128 163 203 248 298
#     4   9  18  32  48  71 101 132 163 199 245 300
#     4  10  21  34  52  76 105 136 170 211 256 305
#     4   9  17  27  44  72  99 120 156 209 250 283
#
# _framework density 18.420376000000001
#
# number of rings (size 3 to 8) (size 9 to 14) (size 15 to 20)
#    0.000    2.800    0.000    1.200    2.800    5.600 
#    0.000    0.000    0.000    2.400    0.000    0.000 
#    0.000    0.000    0.000    0.000    0.000    0.000 
#
# Total GULP energy -247828.863174 kJ/mol
# GULP energy per Si atom -12391.443159 kJ/mol
# Density = 1.837845 g / cm^3
# Si number density = 18.420376 Si / 1000 Ang^3
#
#
#
# Elastic Constant Matrix: (Units=GPa)
#
#
# Indices 1 2 3 4 5 6 
#
# 1 174.6383 63.7336 47.6766 0.0000 3.3185 0.0000
# 2 63.7336 65.1456 26.1442 0.0000 -6.0754 0.0000
# 3 47.6766 26.1442 73.8343 0.0000 -0.2626 0.0000
# 4 0.0000 0.0000 0.0000 14.1797 0.0000 -0.4953
# 5 3.3185 -6.0754 -0.2626 0.0000 33.8725 0.0000
# 6 0.0000 0.0000 0.0000 -0.4953 0.0000 22.8830
#
#
#
# Elastic Compliance Matrix: (Units=1/GPa)
#
#
# Indices 1 2 3 4 5 6 
#
# 1 0.009766 -0.008454 -0.003321 0.000000 -0.002499 0.000000
# 2 -0.008454 0.025556 -0.003571 0.000000 0.005384 0.000000
# 3 -0.003321 -0.003571 0.016952 0.000000 -0.000184 0.000000
# 4 0.000000 0.000000 0.000000 0.070577 0.000000 0.001528
# 5 -0.002499 0.005384 -0.000184 0.000000 0.030732 0.000000
# 6 0.000000 0.000000 0.000000 0.001528 0.000000 0.043734
#
#
# Mechanical properties :
#
#
# Convention : Reuss Voigt Hill
#
# Bulk Modulus (GPa) = 46.33642 65.41413 55.87527
# Shear Modulus (GPa) = 21.25824 25.92464 23.59144
#
# Velocity S-wave (km/s) = 3.40083 3.75559 3.58260
# Velocity P-wave (km/s) = 6.37420 7.37529 6.89294
#
# Compressibility (1/GPa) = 0.02158130
#
# Stress axis : x y z
#
# Youngs Moduli (GPa) = 102.40025 39.12912 58.98898
#
# Poissons Ratio (x) = 0.33080 0.19592
# Poissons Ratio (y) = 0.86570 0.21066
# Poissons Ratio (z) = 0.34010 0.13974
#
# Static dielectric constant tensor:
#      x y z
#    x 3.698280 0.000000 0.115370 
#    y 0.000000 3.397230 0.000000 
#    z 0.115370 0.000000 3.285630 
# 
# 
# High freq. dielectric constant tensor:
#      x y z
#    x 1.729310 0.000000 0.004470 
#    y 0.000000 1.663610 0.000000 
#    z 0.004470 0.000000 1.705310 
# 
# From -- ./inp_files/71421.got.cif
#   From: 2010.06.25/outbox.cif.g09.slc.cpg/sg12_36_cif.got.tgz:71421.got - 2010.06.28 00:19:55.
