data_PCOD8105759
_publ_section_title
;
Structure prediction by ZEFSAII (Michael W. Deem and Ramdas Pophale) SiO2 
 PCOD8105759
Probable space group: C 2/M
;
_chemical_formula_sum "Si O2"
_cell_formula_units_Z 56
_cell_length_a 28.043943
_cell_length_b 8.569916
_cell_length_c 19.036358
_cell_angle_alpha 90.000000
_cell_angle_beta 144.477872
_cell_angle_gamma 90.000000
_cell_volume 2658.205731
_symmetry_space_group_name_H-M "C 2/M"
_symmetry_group_IT_number 12
_symmetry_cell_setting 'monoclinic'
loop_
_space_group_symop_operation_xyz
x,y,z
-x,y,-z
-x,-y,-z
x,-y,z
1/2+x,1/2+y,z
1/2-x,1/2+y,-z
1/2-x,1/2-y,-z
1/2+x,1/2-y,z
loop_
_atom_site_type_symbol
_atom_site_label
_atom_site_fract_x
_atom_site_fract_y
_atom_site_fract_z
Si Si1 0.683161 0.817772 0.972558
Si Si2 0.239729 0.818940 0.787230
Si Si3 0.958961 0.683071 0.878021
Si Si4 0.626889 0.318541 0.465676
Si Si5 0.982956 0.816301 0.191124
Si Si6 0.208864 0.181886 0.293526
Si Si7 0.421994 0.181477 0.450138
O O1 0.594479 0.738560 0.854818
O O2 0.675111 0.000000 0.948480
O O3 0.750000 0.750000 0.000000
O O4 0.707900 0.778787 0.081785
O O5 0.291511 0.776901 0.779966
O O6 0.157905 0.714934 0.692664
O O7 0.215414 0.000000 0.755438
O O8 0.942424 0.500000 0.858252
O O9 0.873370 0.773493 0.763641
O O10 0.018818 0.729509 0.886016
O O11 0.000000 0.737586 0.000000
O O12 0.648085 0.500000 0.487063
O O13 0.566770 0.267563 0.330944
O O14 0.712387 0.224279 0.564061
O O15 0.580675 0.283232 0.482876
O O16 0.977834 0.000000 0.173471
O O17 0.211407 0.000000 0.279512
O O18 0.500000 0.236698 0.500000
O O19 0.426283 0.000000 0.475308
#
# Coordination Sequence:
#
# PCOD8105759 Si02
#       7
#     8   8   8   8   8   8   8
#     4  11  25  42  62  88 121 163 206 252 308 367
#     4  10  21  38  59  85 117 156 201 247 301 363
#     4  11  24  42  66  94 125 164 207 251 305 367
#     4  10  22  40  61  87 123 163 204 251 304 368
#     4  11  25  43  64  93 125 161 207 256 309 365
#     4  11  22  38  64  94 124 160 202 252 308 362
#     4  10  21  35  56  87 117 153 201 252 303 358
#
# _framework density 21.066842000000001
#
# number of rings (size 3 to 8) (size 9 to 14) (size 15 to 20)
#    0.000    1.429    0.000    6.429    2.000   10.857 
#    0.000    0.000    0.000    0.000    0.000    0.000 
#    0.000    0.000    0.000    0.000    0.000    0.000 
#
# Total GULP energy -347349.808047 kJ/mol
# GULP energy per Si atom -12405.350287 kJ/mol
# Density = 2.101889 g / cm^3
# Si number density = 21.066842 Si / 1000 Ang^3
#
#
#
# Elastic Constant Matrix: (Units=GPa)
#
#
# Indices 1 2 3 4 5 6 
#
# 1 101.8438 21.5542 44.1776 0.0000 21.5346 0.0000
# 2 21.5542 68.9560 46.1062 0.0000 -0.9483 0.0000
# 3 44.1776 46.1062 103.9263 0.0000 -0.4744 0.0000
# 4 0.0000 0.0000 0.0000 31.5630 0.0000 4.5313
# 5 21.5346 -0.9483 -0.4744 0.0000 30.4796 0.0000
# 6 0.0000 0.0000 0.0000 4.5313 0.0000 37.6564
#
#
#
# Elastic Compliance Matrix: (Units=1/GPa)
#
#
# Indices 1 2 3 4 5 6 
#
# 1 0.014829 -0.000759 -0.006015 0.000000 -0.010594 0.000000
# 2 -0.000759 0.020664 -0.008840 0.000000 0.001042 0.000000
# 3 -0.006015 -0.008840 0.016120 0.000000 0.004226 0.000000
# 4 0.000000 0.000000 0.000000 0.032240 0.000000 -0.003879
# 5 -0.010594 0.001042 0.004226 0.000000 0.040392 0.000000
# 6 0.000000 0.000000 0.000000 -0.003879 0.000000 0.027023
#
#
# Mechanical properties :
#
#
# Convention : Reuss Voigt Hill
#
# Bulk Modulus (GPa) = 49.05587 55.37801 52.21694
# Shear Modulus (GPa) = 26.41418 30.79901 28.60660
#
# Velocity S-wave (km/s) = 3.54478 3.82771 3.68896
# Velocity P-wave (km/s) = 6.33170 6.77341 6.55627
#
# Compressibility (1/GPa) = 0.02038492
#
# Stress axis : x y z
#
# Youngs Moduli (GPa) = 67.43544 48.39228 62.03307
#
# Poissons Ratio (x) = 0.03673 0.37315
# Poissons Ratio (y) = 0.05118 0.54839
# Poissons Ratio (z) = 0.40564 0.42780
#
# Static dielectric constant tensor:
#      x y z
#    x 3.808530 0.000000 0.076320 
#    y 0.000000 3.790910 0.000000 
#    z 0.076320 0.000000 3.901150 
# 
# 
# High freq. dielectric constant tensor:
#      x y z
#    x 1.825980 0.000000 0.009500 
#    y 0.000000 1.834620 0.000000 
#    z 0.009500 0.000000 1.830480 
# 
# From -- ./inp_files/292568.got.cif
#   From: 2010.06.25/outbox.cif.g09.slc.cpg/sg12_147_cif.got.tgz:292568.got - 2010.06.28 00:19:55.
