data_PCOD8105546
_publ_section_title
;
Structure prediction by ZEFSAII (Michael W. Deem and Ramdas Pophale) SiO2 
 PCOD8105546
Probable space group: C 2/M
;
_chemical_formula_sum "Si O2"
_cell_formula_units_Z 56
_cell_length_a 24.930241
_cell_length_b 9.048085
_cell_length_c 16.022684
_cell_angle_alpha 90.000000
_cell_angle_beta 124.509671
_cell_angle_gamma 90.000000
_cell_volume 2978.254051
_symmetry_space_group_name_H-M "C 2/M"
_symmetry_group_IT_number 12
_symmetry_cell_setting 'monoclinic'
loop_
_space_group_symop_operation_xyz
x,y,z
-x,y,-z
-x,-y,-z
x,-y,z
1/2+x,1/2+y,z
1/2-x,1/2+y,-z
1/2-x,1/2-y,-z
1/2+x,1/2-y,z
loop_
_atom_site_type_symbol
_atom_site_label
_atom_site_fract_x
_atom_site_fract_y
_atom_site_fract_z
Si Si1 0.896615 0.826888 0.411485
Si Si2 0.528227 0.168932 0.222579
Si Si3 0.713453 0.326575 0.042599
Si Si4 0.092134 0.330087 0.001240
Si Si5 0.376738 0.325545 0.804177
Si Si6 0.265188 0.169259 0.268999
Si Si7 0.496917 0.674277 0.362471
O O1 0.825311 0.760025 0.357322
O O2 0.934021 0.774591 0.360631
O O3 0.938190 0.782575 0.529319
O O4 0.888669 0.000000 0.400214
O O5 0.592620 0.261141 0.253880
O O6 0.495654 0.236651 0.275834
O O7 0.547902 0.000000 0.257418
O O8 0.478030 0.180349 0.102447
O O9 0.705188 0.500000 0.018565
O O10 0.642592 0.254415 0.986254
O O11 0.753904 0.294960 0.162013
O O12 0.750000 0.250000 0.000000
O O13 0.113986 0.500000 0.031889
O O14 0.088075 0.252300 0.087086
O O15 0.388832 0.500000 0.821823
O O16 0.299790 0.289331 0.736662
O O17 0.283127 0.000000 0.297638
O O18 0.494705 0.500000 0.342349
#
# Coordination Sequence:
#
# PCOD8105546 Si02
#       7
#     8   8   8   8   8   8   8
#     4   9  19  37  60  83 108 141 180 223 275 330
#     4  11  23  36  55  83 112 144 185 231 276 321
#     4  10  21  35  51  77 112 147 185 226 268 321
#     4  10  21  36  53  78 113 147 183 227 272 322
#     4  10  21  38  57  80 110 148 188 226 271 327
#     4   9  20  36  55  79 108 141 179 223 273 325
#     4   9  20  38  57  82 112 140 179 227 272 329
#
# _framework density 18.802962000000001
#
# number of rings (size 3 to 8) (size 9 to 14) (size 15 to 20)
#    0.000    2.286    0.000    3.857    2.000    8.571 
#    0.000    2.143    0.000    0.000    0.000    0.000 
#    0.000    0.000    0.000    0.000    0.000    0.000 
#
# Total GULP energy -347244.433072 kJ/mol
# GULP energy per Si atom -12401.586895 kJ/mol
# Density = 1.876017 g / cm^3
# Si number density = 18.802962 Si / 1000 Ang^3
#
#
#
# Elastic Constant Matrix: (Units=GPa)
#
#
# Indices 1 2 3 4 5 6 
#
# 1 86.8755 39.0287 25.6271 0.0000 2.5896 0.0000
# 2 39.0287 92.0491 29.1307 0.0000 2.8590 0.0000
# 3 25.6271 29.1307 48.5947 0.0000 8.0850 0.0000
# 4 0.0000 0.0000 0.0000 30.4906 0.0000 1.5362
# 5 2.5896 2.8590 8.0850 0.0000 28.5819 0.0000
# 6 0.0000 0.0000 0.0000 1.5362 0.0000 30.7803
#
#
#
# Elastic Compliance Matrix: (Units=1/GPa)
#
#
# Indices 1 2 3 4 5 6 
#
# 1 0.015195 -0.004806 -0.005229 0.000000 0.000583 0.000000
# 2 -0.004806 0.014953 -0.006562 0.000000 0.000796 0.000000
# 3 -0.005229 -0.006562 0.028419 0.000000 -0.006909 0.000000
# 4 0.000000 0.000000 0.000000 0.032880 0.000000 -0.001641
# 5 0.000583 0.000796 -0.006909 0.000000 0.036809 0.000000
# 6 0.000000 0.000000 0.000000 -0.001641 0.000000 0.032570
#
#
# Mechanical properties :
#
#
# Convention : Reuss Voigt Hill
#
# Bulk Modulus (GPa) = 39.41164 46.12138 42.76651
# Shear Modulus (GPa) = 24.69396 26.88607 25.79001
#
# Velocity S-wave (km/s) = 3.62788 3.78548 3.70752
# Velocity P-wave (km/s) = 6.20923 6.60973 6.41261
#
# Compressibility (1/GPa) = 0.02537322
#
# Stress axis : x y z
#
# Youngs Moduli (GPa) = 65.81135 66.87455 35.18735
#
# Poissons Ratio (x) = 0.32139 0.18401
# Poissons Ratio (y) = 0.31628 0.23090
# Poissons Ratio (z) = 0.34415 0.43883
#
# Static dielectric constant tensor:
#      x y z
#    x 3.656150 0.000000 0.064890 
#    y 0.000000 3.493030 0.000000 
#    z 0.064890 0.000000 3.254030 
# 
# 
# High freq. dielectric constant tensor:
#      x y z
#    x 1.740260 0.000000 0.000250 
#    y 0.000000 1.737200 0.000000 
#    z 0.000250 0.000000 1.711480 
# 
# From -- ./inp_files/238379.got.cif
#   From: 2010.06.25/outbox.cif.g09.slc.cpg/sg12_120_cif.got.tgz:238379.got - 2010.06.28 00:19:55.
