data_PCOD8105080
_publ_section_title
;
Structure prediction by ZEFSAII (Michael W. Deem and Ramdas Pophale) SiO2 
 PCOD8105080
Probable space group: C 2/M
;
_chemical_formula_sum "Si O2"
_cell_formula_units_Z 48
_cell_length_a 13.979347
_cell_length_b 19.852581
_cell_length_c 21.665798
_cell_angle_alpha 90.000000
_cell_angle_beta 156.741738
_cell_angle_gamma 90.000000
_cell_volume 2374.322267
_symmetry_space_group_name_H-M "C 2/M"
_symmetry_group_IT_number 12
_symmetry_cell_setting 'monoclinic'
loop_
_space_group_symop_operation_xyz
x,y,z
-x,y,-z
-x,-y,-z
x,-y,z
1/2+x,1/2+y,z
1/2-x,1/2+y,-z
1/2-x,1/2-y,-z
1/2+x,1/2-y,z
loop_
_atom_site_type_symbol
_atom_site_label
_atom_site_fract_x
_atom_site_fract_y
_atom_site_fract_z
Si Si1 0.800450 0.826783 0.546778
Si Si2 0.081100 0.921141 0.618508
Si Si3 0.510255 0.292629 0.795443
Si Si4 0.055186 0.926162 0.967723
Si Si5 0.943203 0.345195 0.125755
Si Si6 0.138228 0.383380 0.641169
O O1 0.750000 0.750000 0.500000
O O2 0.990442 0.823601 0.715625
O O3 0.549410 0.858929 0.419131
O O4 0.903023 0.875240 0.554164
O O5 0.346977 0.888660 0.781998
O O6 0.000000 0.916387 0.500000
O O7 0.080999 0.000000 0.640255
O O8 0.462309 0.212440 0.771247
O O9 0.298911 0.320771 0.713923
O O10 0.782741 0.310466 0.977404
O O11 0.822403 0.933247 0.784703
O O12 0.146298 0.000000 0.039000
O O13 0.281610 0.893897 0.069726
O O14 0.000000 0.887836 0.000000
O O15 0.000000 0.416872 0.500000
#
# Coordination Sequence:
#
# PCOD8105080 Si02
#       6
#     8   8   8   8   8   8
#     4  11  22  37  63  92 119 160 205 254 300 364
#     4  11  25  41  60  88 126 169 207 251 315 379
#     4   9  20  38  63  92 117 152 203 252 307 359
#     4  10  22  36  58  86 112 152 200 242 294 353
#     4  10  20  41  60  85 123 157 194 254 302 364
#     4   9  20  39  58  85 119 147 193 250 300 352
#
# _framework density 20.216296
#
# number of rings (size 3 to 8) (size 9 to 14) (size 15 to 20)
#    0.000    2.000    0.000    2.500    4.667    3.000 
#    0.000    8.333    0.000    0.000    0.000    0.000 
#    0.000    0.000    0.000    0.000    0.000    0.000 
#
# Total GULP energy -297461.839053 kJ/mol
# GULP energy per Si atom -12394.243294 kJ/mol
# Density = 2.017028 g / cm^3
# Si number density = 20.216296 Si / 1000 Ang^3
#
#
#
# Elastic Constant Matrix: (Units=GPa)
#
#
# Indices 1 2 3 4 5 6 
#
# 1 117.2853 54.0515 43.2185 0.0128 14.3526 -0.0472
# 2 54.0515 125.1235 33.4253 -0.0142 10.8030 -0.3154
# 3 43.2185 33.4253 89.4468 -0.0394 10.9913 -0.6315
# 4 0.0128 -0.0142 -0.0394 21.6582 -0.0174 -13.5478
# 5 14.3526 10.8030 10.9913 -0.0174 30.0037 -0.0505
# 6 -0.0472 -0.3154 -0.6315 -13.5478 -0.0505 87.3278
#
#
#
# Elastic Compliance Matrix: (Units=1/GPa)
#
#
# Indices 1 2 3 4 5 6 
#
# 1 0.012193 -0.003929 -0.004063 -0.000048 -0.002929 -0.000046
# 2 -0.003929 0.010269 -0.001797 0.000020 -0.001160 0.000024
# 3 -0.004063 -0.001797 0.014133 0.000091 -0.002587 0.000106
# 4 -0.000048 0.000020 0.000091 0.051135 0.000026 0.007934
# 5 -0.002929 -0.001160 -0.002587 0.000026 0.036096 0.000000
# 6 -0.000046 0.000024 0.000106 0.007934 0.000000 0.012683
#
#
# Mechanical properties :
#
#
# Convention : Reuss Voigt Hill
#
# Bulk Modulus (GPa) = 58.76226 65.91625 62.33925
# Shear Modulus (GPa) = 30.91029 41.20864 36.05946
#
# Velocity S-wave (km/s) = 3.91446 4.51975 4.22795
# Velocity P-wave (km/s) = 7.03992 7.74040 7.39846
#
# Compressibility (1/GPa) = 0.01701772
#
# Stress axis : x y z
#
# Youngs Moduli (GPa) = 82.01705 97.37655 70.75565
#
# Poissons Ratio (x) = 0.38257 0.28751
# Poissons Ratio (y) = 0.32222 0.12712
# Poissons Ratio (z) = 0.33327 0.17494
#
# Static dielectric constant tensor:
#      x y z
#    x 3.592710 0.000420 0.135360 
#    y 0.000420 3.732770 -0.001010 
#    z 0.135360 -0.001010 3.438030 
# 
# 
# High freq. dielectric constant tensor:
#      x y z
#    x 1.790540 0.000000 -0.000100 
#    y 0.000000 1.787680 -0.000020 
#    z -0.000100 -0.000020 1.798790 
# 
# From -- ./inp_files/341239.got.cif
#   From: 2010.06.25/outbox.cif.g09.slc.cpg/sg12_171_cif.got.tgz:341239.got - 2010.06.28 00:19:55.
