data_PCOD8105001
_publ_section_title
;
Structure prediction by ZEFSAII (Michael W. Deem and Ramdas Pophale) SiO2 
 PCOD8105001
Probable space group: C 2/M
;
_chemical_formula_sum "Si O2"
_cell_formula_units_Z 64
_cell_length_a 14.067378
_cell_length_b 28.464237
_cell_length_c 8.774094
_cell_angle_alpha 90.000000
_cell_angle_beta 60.139517
_cell_angle_gamma 90.000000
_cell_volume 3046.873779
_symmetry_space_group_name_H-M "C 2/M"
_symmetry_group_IT_number 12
_symmetry_cell_setting 'monoclinic'
loop_
_space_group_symop_operation_xyz
x,y,z
-x,y,-z
-x,-y,-z
x,-y,z
1/2+x,1/2+y,z
1/2-x,1/2+y,-z
1/2-x,1/2-y,-z
1/2+x,1/2-y,z
loop_
_atom_site_type_symbol
_atom_site_label
_atom_site_fract_x
_atom_site_fract_y
_atom_site_fract_z
Si Si1 0.047772 0.446097 0.800619
Si Si2 0.356999 0.693180 0.396347
Si Si3 0.248007 0.259661 0.751797
Si Si4 0.258487 0.903374 0.531248
Si Si5 0.593095 0.102221 0.314147
Si Si6 0.553045 0.640148 0.122534
Si Si7 0.206797 0.318172 0.056774
Si Si8 0.474603 0.446500 0.344350
O O1 0.084887 0.500000 0.781261
O O2 0.153855 0.415238 0.670806
O O3 0.954613 0.441357 0.744514
O O4 0.000000 0.428534 0.000000
O O5 0.340918 0.717411 0.571964
O O6 0.341736 0.731723 0.275539
O O7 0.266797 0.652018 0.451057
O O8 0.479027 0.672352 0.292685
O O9 0.311822 0.225298 0.815036
O O10 0.187722 0.300353 0.898987
O O11 0.304739 0.914867 0.664068
O O12 0.151151 0.934332 0.591001
O O13 0.500000 0.123154 0.500000
O O14 0.620747 0.141886 0.167922
O O15 0.556066 0.586992 0.184120
O O16 0.500000 0.639521 0.000000
O O17 0.672278 0.661200 0.019009
O O18 0.500000 0.438261 0.500000
O O19 0.498181 0.500000 0.276989
#
# Coordination Sequence:
#
# PCOD8105001 Si02
#       8
#     8   8   8   8   8   8   8   8
#     4  10  23  40  62  95 124 159 211 261 311 370
#     4  10  21  41  61  91 121 164 204 252 307 371
#     4  10  22  39  62  85 125 156 209 252 299 370
#     4  10  20  40  66  86 129 168 201 256 313 371
#     4  10  22  42  64  91 126 170 208 255 310 374
#     4  11  22  40  62  89 128 161 201 252 317 370
#     4  11  22  41  60  93 124 161 203 259 308 363
#     4  10  23  40  63  96 124 162 212 252 304 383
#
# _framework density 21.005137999999999
#
# number of rings (size 3 to 8) (size 9 to 14) (size 15 to 20)
#    0.000    1.750    2.500    1.125    5.250    3.000 
#    4.500    4.375    0.000    0.000    0.000    0.000 
#    0.000    0.000    0.000    0.000    0.000    0.000 
#
# Total GULP energy -396838.935426 kJ/mol
# GULP energy per Si atom -12401.216732 kJ/mol
# Density = 2.095733 g / cm^3
# Si number density = 21.005138 Si / 1000 Ang^3
#
#
#
# Elastic Constant Matrix: (Units=GPa)
#
#
# Indices 1 2 3 4 5 6 
#
# 1 77.0780 32.9311 28.8636 0.0000 6.7959 0.0000
# 2 32.9311 104.8692 58.9333 0.0000 1.5344 0.0000
# 3 28.8636 58.9333 124.5933 0.0000 10.8142 0.0000
# 4 0.0000 0.0000 0.0000 36.4882 0.0000 14.2898
# 5 6.7959 1.5344 10.8142 0.0000 24.6858 0.0000
# 6 0.0000 0.0000 0.0000 14.2898 0.0000 1.7159
#
#
#
# Elastic Compliance Matrix: (Units=1/GPa)
#
#
# Indices 1 2 3 4 5 6 
#
# 1 0.015522 -0.004045 -0.001386 0.000000 -0.003415 0.000000
# 2 -0.004045 0.014134 -0.005997 0.000000 0.002862 0.000000
# 3 -0.001386 -0.005997 0.011558 0.000000 -0.004309 0.000000
# 4 0.000000 0.000000 0.000000 -0.012119 0.000000 0.100926
# 5 -0.003415 0.002862 -0.004309 0.000000 0.043159 0.000000
# 6 0.000000 0.000000 0.000000 0.100926 0.000000 -0.257710
#
#
# Mechanical properties :
#
#
# Convention : Reuss Voigt Hill
#
# Bulk Modulus (GPa) = 54.47318 60.88850 57.68084
# Shear Modulus (GPa) = -31.95290 24.96548 -3.49371
#
# Velocity S-wave (km/s) = -3.90448 3.45126 -1.29107
# Velocity P-wave (km/s) = 2.37969 6.70313 5.02966
#
# Compressibility (1/GPa) = 0.01835766
#
# Stress axis : x y z
#
# Youngs Moduli (GPa) = 64.42312 70.75037 86.52226
#
# Poissons Ratio (x) = 0.28622 0.11992
# Poissons Ratio (y) = 0.26062 0.51886
# Poissons Ratio (z) = 0.08929 0.42428
#
# Static dielectric constant tensor:
#      x y z
#    x 3.657550 0.000000 0.093000 
#    y 0.000000 3.891470 0.000000 
#    z 0.093000 0.000000 4.057050 
# 
# 
# High freq. dielectric constant tensor:
#      x y z
#    x 1.807280 0.000000 0.010600 
#    y 0.000000 1.823820 0.000000 
#    z 0.010600 0.000000 1.836040 
# 
# From -- ./inp_files/68252.got.cif
#   From: 2010.06.25/outbox.cif.g09.slc.cpg/sg12_35_cif.got.tgz:68252.got - 2010.06.28 00:19:55.
