data_PCOD8105151
_publ_section_title
;
Structure prediction by ZEFSAII (Michael W. Deem and Ramdas Pophale) SiO2 
 PCOD8105151
Probable space group: C 2/M
;
_chemical_formula_sum "Si O2"
_cell_formula_units_Z 64
_cell_length_a 16.158098
_cell_length_b 29.942448
_cell_length_c 11.344136
_cell_angle_alpha 90.000000
_cell_angle_beta 31.667153
_cell_angle_gamma 90.000000
_cell_volume 2881.342415
_symmetry_space_group_name_H-M "C 2/M"
_symmetry_group_IT_number 12
_symmetry_cell_setting 'monoclinic'
loop_
_space_group_symop_operation_xyz
x,y,z
-x,y,-z
-x,-y,-z
x,-y,z
1/2+x,1/2+y,z
1/2-x,1/2+y,-z
1/2-x,1/2-y,-z
1/2+x,1/2-y,z
loop_
_atom_site_type_symbol
_atom_site_label
_atom_site_fract_x
_atom_site_fract_y
_atom_site_fract_z
Si Si1 0.039639 0.606381 0.676738
Si Si2 0.912880 0.905406 0.814656
Si Si3 0.180410 0.791935 0.313298
Si Si4 0.747551 0.881782 0.641618
Si Si5 0.331253 0.295154 0.154585
Si Si6 0.221613 0.325169 0.035488
Si Si7 0.293299 0.050577 0.098823
Si Si8 0.824917 0.895814 0.179862
O O1 0.111084 0.623673 0.712614
O O2 0.174253 0.583700 0.429843
O O3 0.944018 0.648829 0.735795
O O4 0.924732 0.565233 0.844856
O O5 0.872696 0.945697 0.772846
O O6 0.098472 0.901515 0.612107
O O7 0.847508 0.861029 0.829367
O O8 0.811053 0.907077 0.058924
O O9 0.223538 0.832677 0.344885
O O10 0.214841 0.744560 0.337219
O O11 0.000000 0.792399 0.500000
O O12 0.290640 0.791695 0.061093
O O13 0.697623 0.917348 0.800116
O O14 0.303269 0.301327 0.047803
O O15 0.301270 0.343833 0.246479
O O16 0.500000 0.279691 0.000000
O O17 0.319027 0.000000 0.109890
O O18 0.000000 0.913500 0.000000
#
# Coordination Sequence:
#
# PCOD8105151 Si02
#       8
#     8   8   8   8   8   8   8   8
#     4  11  24  40  72  98 129 178 220 277 342 400
#     4  10  20  41  68  91 129 173 221 267 327 396
#     4  12  23  39  61  93 137 179 223 280 331 394
#     4  12  22  41  68  98 134 177 220 272 340 406
#     4  10  25  40  61  91 132 177 235 279 322 386
#     4  10  22  41  60  90 133 173 217 279 337 388
#     4  11  25  43  67 103 136 168 216 275 339 407
#     4  10  21  44  66  92 126 176 230 278 321 393
#
# _framework density 22.211867999999999
#
# number of rings (size 3 to 8) (size 9 to 14) (size 15 to 20)
#    0.000    1.250    5.000    1.125    3.500    6.000 
#    0.000    2.500    0.000    0.750    0.000    0.000 
#    0.000    0.000    0.000    0.000    0.000    0.000 
#
# Total GULP energy -396455.286627 kJ/mol
# GULP energy per Si atom -12389.227707 kJ/mol
# Density = 2.216131 g / cm^3
# Si number density = 22.211868 Si / 1000 Ang^3
#
#
#
# Elastic Constant Matrix: (Units=GPa)
#
#
# Indices 1 2 3 4 5 6 
#
# 1 121.4447 23.7473 19.6461 0.0000 -9.4424 -0.0002
# 2 23.7473 80.0889 19.3059 -0.0003 1.1980 0.0001
# 3 19.6461 19.3059 94.8985 0.0000 0.0998 -0.0003
# 4 0.0000 -0.0003 0.0000 14.1794 0.0000 -4.7503
# 5 -9.4424 1.1980 0.0998 0.0000 32.6772 0.0002
# 6 -0.0002 0.0001 -0.0003 -4.7503 0.0002 14.9522
#
#
#
# Elastic Compliance Matrix: (Units=1/GPa)
#
#
# Indices 1 2 3 4 5 6 
#
# 1 0.009146 -0.002414 -0.001405 0.000000 0.002736 0.000000
# 2 -0.002414 0.013775 -0.002301 0.000000 -0.001196 0.000000
# 3 -0.001405 -0.002301 0.011297 0.000000 -0.000356 0.000000
# 4 0.000000 0.000000 0.000000 0.078925 0.000000 0.025074
# 5 0.002736 -0.001196 -0.000356 0.000000 0.031438 0.000000
# 6 0.000000 0.000000 0.000000 0.025074 0.000000 0.074846
#
#
# Mechanical properties :
#
#
# Convention : Reuss Voigt Hill
#
# Bulk Modulus (GPa) = 45.50286 46.87008 46.18647
# Shear Modulus (GPa) = 20.92110 27.94395 24.43252
#
# Velocity S-wave (km/s) = 3.07235 3.55077 3.32019
# Velocity P-wave (km/s) = 5.75466 6.16099 5.96129
#
# Compressibility (1/GPa) = 0.02197664
#
# Stress axis : x y z
#
# Youngs Moduli (GPa) = 109.33389 72.59759 88.51894
#
# Poissons Ratio (x) = 0.17526 0.12439
# Poissons Ratio (y) = 0.26395 0.20370
# Poissons Ratio (z) = 0.15364 0.16706
#
# Static dielectric constant tensor:
#      x y z
#    x 4.176240 0.000000 -0.185850 
#    y 0.000000 3.809490 0.000000 
#    z -0.185850 0.000000 3.961880 
# 
# 
# High freq. dielectric constant tensor:
#      x y z
#    x 1.889510 0.000000 -0.009820 
#    y 0.000000 1.840330 0.000000 
#    z -0.009820 0.000000 1.867440 
# 
# From -- ./inp_files/161203.got.cif
#   From: 2010.06.25/outbox.cif.g09.slc.cpg/sg12_81_cif.got.tgz:161203.got - 2010.06.28 00:19:55.
