data_PCOD8105522
_publ_section_title
;
Structure prediction by ZEFSAII (Michael W. Deem and Ramdas Pophale) SiO2 
 PCOD8105522
Probable space group: C 2/M
;
_chemical_formula_sum "Si O2"
_cell_formula_units_Z 48
_cell_length_a 14.227274
_cell_length_b 9.406722
_cell_length_c 28.446792
_cell_angle_alpha 90.000000
_cell_angle_beta 41.857807
_cell_angle_gamma 90.000000
_cell_volume 2540.412154
_symmetry_space_group_name_H-M "C 2/M"
_symmetry_group_IT_number 12
_symmetry_cell_setting 'monoclinic'
loop_
_space_group_symop_operation_xyz
x,y,z
-x,y,-z
-x,-y,-z
x,-y,z
1/2+x,1/2+y,z
1/2-x,1/2+y,-z
1/2-x,1/2-y,-z
1/2+x,1/2-y,z
loop_
_atom_site_type_symbol
_atom_site_label
_atom_site_fract_x
_atom_site_fract_y
_atom_site_fract_z
Si Si1 0.710632 0.834415 0.621248
Si Si2 0.123419 0.665344 0.988626
Si Si3 0.647572 0.834647 0.504190
Si Si4 0.556978 0.839058 0.341463
Si Si5 0.318909 0.833909 0.259759
Si Si6 0.602122 0.165446 0.104884
O O1 0.839552 0.740063 0.551772
O O2 0.567683 0.795157 0.647248
O O3 0.685537 0.792016 0.684135
O O4 0.749353 0.000000 0.600608
O O5 0.155130 0.500000 0.968648
O O6 0.265034 0.750441 0.923830
O O7 0.077205 0.697063 0.059205
O O8 0.000000 0.718444 0.000000
O O9 0.750000 0.750000 0.500000
O O10 0.492983 0.821386 0.585332
O O11 0.691711 0.000000 0.484055
O O12 0.690099 0.740687 0.281052
O O13 0.603216 0.000000 0.314377
O O14 0.465002 0.779519 0.183518
O O15 0.301447 0.000000 0.257803
O O16 0.629947 0.000000 0.103813
#
# Coordination Sequence:
#
# PCOD8105522 Si02
#       6
#     8   8   8   8   8   8
#     4   9  19  35  51  70  99 134 170 210 257 304
#     4   9  18  34  56  79 103 132 165 203 248 296
#     4   9  17  31  51  73  98 130 170 216 259 299
#     4   9  19  34  50  70  98 130 166 209 255 300
#     4  10  21  35  51  73 103 136 168 205 250 301
#     4   9  19  35  52  75 106 134 165 205 246 295
#
# _framework density 18.894572
#
# number of rings (size 3 to 8) (size 9 to 14) (size 15 to 20)
#    0.000    2.833    0.000    1.500    0.000    7.000 
#    0.000    3.333    0.000    0.000    0.000    0.000 
#    0.000    0.000    0.000    0.000    0.000    0.000 
#
# Total GULP energy -297553.740215 kJ/mol
# GULP energy per Si atom -12398.072509 kJ/mol
# Density = 1.885157 g / cm^3
# Si number density = 18.894572 Si / 1000 Ang^3
#
#
#
# Elastic Constant Matrix: (Units=GPa)
#
#
# Indices 1 2 3 4 5 6 
#
# 1 69.1766 22.0084 17.7436 0.0000 -12.2977 -0.0002
# 2 22.0084 56.1425 34.7072 -0.0001 -10.7295 -0.0006
# 3 17.7436 34.7072 82.7165 0.0000 -14.9424 0.0000
# 4 0.0000 -0.0001 0.0000 33.3124 0.0000 -7.4386
# 5 -12.2977 -10.7295 -14.9424 0.0000 25.2735 0.0000
# 6 -0.0002 -0.0006 0.0000 -7.4386 0.0000 25.1366
#
#
#
# Elastic Compliance Matrix: (Units=1/GPa)
#
#
# Indices 1 2 3 4 5 6 
#
# 1 0.017330 -0.005436 -0.000369 0.000000 0.005906 0.000000
# 2 -0.005436 0.026276 -0.009317 0.000000 0.003002 0.000001
# 3 -0.000369 -0.009317 0.017164 0.000000 0.006013 0.000000
# 4 0.000000 0.000000 0.000000 0.032143 0.000000 0.009512
# 5 0.005906 0.003002 0.006013 0.000000 0.047270 0.000000
# 6 0.000000 0.000001 0.000000 0.009512 0.000000 0.042597
#
#
# Mechanical properties :
#
#
# Convention : Reuss Voigt Hill
#
# Bulk Modulus (GPa) = 32.76011 39.66156 36.21084
# Shear Modulus (GPa) = 22.40126 25.64960 24.02543
#
# Velocity S-wave (km/s) = 3.44698 3.68844 3.56975
# Velocity P-wave (km/s) = 5.76353 6.25907 6.01640
#
# Compressibility (1/GPa) = 0.03052493
#
# Stress axis : x y z
#
# Youngs Moduli (GPa) = 57.70319 38.05711 58.26069
#
# Poissons Ratio (x) = 0.20689 0.02153
# Poissons Ratio (y) = 0.31370 0.54281
# Poissons Ratio (z) = 0.02132 0.35458
#
# Static dielectric constant tensor:
#      x y z
#    x 3.322030 0.000000 0.099090 
#    y 0.000000 3.442660 0.000000 
#    z 0.099090 0.000000 3.705640 
# 
# 
# High freq. dielectric constant tensor:
#      x y z
#    x 1.726350 0.000000 0.001690 
#    y 0.000000 1.729520 0.000000 
#    z 0.001690 0.000000 1.731910 
# 
# From -- ./inp_files/308287.got.cif
#   From: 2010.06.25/outbox.cif.g09.slc.cpg/sg12_155_cif.got.tgz:308287.got - 2010.06.28 00:19:55.
