data_PCOD8105031
_publ_section_title
;
Structure prediction by ZEFSAII (Michael W. Deem and Ramdas Pophale) SiO2 
 PCOD8105031
Probable space group: C 2/M
;
_chemical_formula_sum "Si O2"
_cell_formula_units_Z 48
_cell_length_a 9.301018
_cell_length_b 29.353476
_cell_length_c 19.231655
_cell_angle_alpha 90.000000
_cell_angle_beta 26.246808
_cell_angle_gamma 90.000000
_cell_volume 2322.006600
_symmetry_space_group_name_H-M "C 2/M"
_symmetry_group_IT_number 12
_symmetry_cell_setting 'monoclinic'
loop_
_space_group_symop_operation_xyz
x,y,z
-x,y,-z
-x,-y,-z
x,-y,z
1/2+x,1/2+y,z
1/2-x,1/2+y,-z
1/2-x,1/2-y,-z
1/2+x,1/2-y,z
loop_
_atom_site_type_symbol
_atom_site_label
_atom_site_fract_x
_atom_site_fract_y
_atom_site_fract_z
Si Si1 0.756327 0.053181 0.445233
Si Si2 0.138936 0.368287 0.142247
Si Si3 0.879127 0.800685 0.335127
Si Si4 0.618210 0.948734 0.655456
Si Si5 0.206327 0.217094 0.341090
Si Si6 0.815666 0.613587 0.146830
O O1 0.500000 0.068278 0.500000
O O2 0.577951 0.068031 0.593642
O O3 0.096948 0.077230 0.282606
O O4 0.837003 0.000000 0.411223
O O5 0.072967 0.415301 0.211058
O O6 0.894260 0.329456 0.273234
O O7 0.101228 0.373697 0.076195
O O8 0.500000 0.351399 0.000000
O O9 0.500000 0.816467 0.500000
O O10 0.935850 0.762295 0.249538
O O11 0.995131 0.783414 0.361922
O O12 0.101512 0.843172 0.216727
O O13 0.000000 0.947802 0.500000
O O14 0.481581 0.000000 0.726522
O O15 0.000000 0.224880 0.500000
O O16 0.000000 0.592701 0.000000
#
# Coordination Sequence:
#
# PCOD8105031 Si02
#       6
#     8   8   8   8   8   8
#     4  10  22  41  65  92 118 156 203 246 299 355
#     4  11  25  39  59  90 123 160 199 246 301 351
#     4  10  21  39  62  90 117 154 201 245 296 351
#     4  10  20  40  67  88 116 156 204 253 292 350
#     4  10  21  38  62  89 119 153 199 249 292 351
#     4  11  25  40  58  89 126 161 195 244 303 358
#
# _framework density 20.671776000000001
#
# number of rings (size 3 to 8) (size 9 to 14) (size 15 to 20)
#    0.000    1.667    1.667    3.000    4.667    4.000 
#    0.000    3.333    0.000    0.000    0.000    0.000 
#    0.000    0.000    0.000    0.000    0.000    0.000 
#
# Total GULP energy -297463.265953 kJ/mol
# GULP energy per Si atom -12394.302748 kJ/mol
# Density = 2.062473 g / cm^3
# Si number density = 20.671776 Si / 1000 Ang^3
#
#
#
# Elastic Constant Matrix: (Units=GPa)
#
#
# Indices 1 2 3 4 5 6 
#
# 1 133.9505 31.4173 31.4298 0.0016 -11.0772 0.0002
# 2 31.4173 81.2817 23.2038 0.0020 1.5913 0.0004
# 3 31.4298 23.2038 46.2579 -0.0038 -3.0414 -0.0022
# 4 0.0016 0.0020 -0.0038 14.3882 -0.0019 1.7685
# 5 -11.0772 1.5913 -3.0414 -0.0019 28.8439 0.0014
# 6 0.0002 0.0004 -0.0022 1.7685 0.0014 31.2922
#
#
#
# Elastic Compliance Matrix: (Units=1/GPa)
#
#
# Indices 1 2 3 4 5 6 
#
# 1 0.009455 -0.002269 -0.005074 -0.000002 0.003221 0.000000
# 2 -0.002269 0.014974 -0.006124 -0.000004 -0.002343 0.000000
# 3 -0.005074 -0.006124 0.028227 0.000009 0.001366 0.000002
# 4 -0.000002 -0.000004 0.000009 0.069988 0.000005 -0.003955
# 5 0.003221 -0.002343 0.001366 0.000005 0.036180 -0.000002
# 6 0.000000 0.000000 0.000002 -0.003955 -0.000002 0.032180
#
#
# Mechanical properties :
#
#
# Convention : Reuss Voigt Hill
#
# Bulk Modulus (GPa) = 38.87670 48.17688 43.52679
# Shear Modulus (GPa) = 22.07408 26.60081 24.33744
#
# Velocity S-wave (km/s) = 3.27132 3.59112 3.43494
# Velocity P-wave (km/s) = 5.75467 6.36797 6.06907
#
# Compressibility (1/GPa) = 0.02572235
#
# Stress axis : x y z
#
# Youngs Moduli (GPa) = 105.76949 66.78280 35.42719
#
# Poissons Ratio (x) = 0.15153 0.17975
# Poissons Ratio (y) = 0.23999 0.21694
# Poissons Ratio (z) = 0.53666 0.40895
#
# Static dielectric constant tensor:
#      x y z
#    x 4.044700 0.000000 -0.098880 
#    y 0.000000 3.909090 -0.000030 
#    z -0.098880 -0.000030 3.321800 
# 
# 
# High freq. dielectric constant tensor:
#      x y z
#    x 1.831180 0.000000 -0.000220 
#    y 0.000000 1.817510 0.000000 
#    z -0.000220 0.000000 1.780580 
# 
# From -- ./inp_files/260213.got.cif
#   From: 2010.06.25/outbox.cif.g09.slc.cpg/sg12_131_cif.got.tgz:260213.got - 2010.06.28 00:19:55.
