data_PCOD8105254
_publ_section_title
;
Structure prediction by ZEFSAII (Michael W. Deem and Ramdas Pophale) SiO2 
 PCOD8105254
Probable space group: C 2/M
;
_chemical_formula_sum "Si O2"
_cell_formula_units_Z 48
_cell_length_a 15.160858
_cell_length_b 19.571437
_cell_length_c 8.919595
_cell_angle_alpha 90.000000
_cell_angle_beta 109.553397
_cell_angle_gamma 90.000000
_cell_volume 2493.989624
_symmetry_space_group_name_H-M "C 2/M"
_symmetry_group_IT_number 12
_symmetry_cell_setting 'monoclinic'
loop_
_space_group_symop_operation_xyz
x,y,z
-x,y,-z
-x,-y,-z
x,-y,z
1/2+x,1/2+y,z
1/2-x,1/2+y,-z
1/2-x,1/2-y,-z
1/2+x,1/2-y,z
loop_
_atom_site_type_symbol
_atom_site_label
_atom_site_fract_x
_atom_site_fract_y
_atom_site_fract_z
Si Si1 0.091073 0.268620 0.643574
Si Si2 0.918011 0.922916 0.133435
Si Si3 0.268942 0.171758 0.473042
Si Si4 0.092116 0.708538 0.988816
Si Si5 0.102523 0.853301 0.168736
Si Si6 0.232754 0.146808 0.767255
O O1 0.137373 0.331942 0.576278
O O2 0.068826 0.287942 0.800420
O O3 0.167546 0.210270 0.694719
O O4 0.000000 0.244081 0.500000
O O5 0.833875 0.911645 0.203581
O O6 0.003879 0.868477 0.198809
O O7 0.954395 0.000000 0.175476
O O8 0.878727 0.912484 0.942905
O O9 0.250000 0.250000 0.500000
O O10 0.181916 0.140591 0.335882
O O11 0.280308 0.127719 0.633773
O O12 0.101895 0.780986 0.080910
O O13 0.186488 0.665354 0.067209
O O14 0.000000 0.670475 0.000000
#
# Coordination Sequence:
#
# PCOD8105254 Si02
#       6
#     8   8   8   8   8   8
#     4  11  21  31  53  84 119 152 186 237 309 370
#     4  11  24  39  58  81 119 173 214 239 282 349
#     4  10  21  32  52  83 118 150 190 242 316 356
#     4  12  20  34  57  88 115 155 187 249 319 358
#     4  11  19  36  56  82 118 156 196 247 292 364
#     4  11  22  35  56  80 121 152 201 248 298 361
#
# _framework density 19.246269999999999
#
# number of rings (size 3 to 8) (size 9 to 14) (size 15 to 20)
#    0.000    1.000    6.667    3.500    7.000    0.000 
#    0.000    2.500    0.000    0.500    0.000    0.000 
#    0.000    8.000    0.000    0.000    0.000    0.000 
#
# Total GULP energy -297356.187140 kJ/mol
# GULP energy per Si atom -12389.841131 kJ/mol
# Density = 1.920247 g / cm^3
# Si number density = 19.246270 Si / 1000 Ang^3
#
#
#
# Elastic Constant Matrix: (Units=GPa)
#
#
# Indices 1 2 3 4 5 6 
#
# 1 107.4991 22.9270 38.8807 0.0000 -7.8127 0.0000
# 2 22.9270 29.1697 0.7155 0.0000 -4.8171 0.0000
# 3 38.8807 0.7155 117.6743 0.0000 3.2597 0.0000
# 4 0.0000 0.0000 0.0000 10.6073 0.0000 -1.7539
# 5 -7.8127 -4.8171 3.2597 0.0000 42.8906 0.0000
# 6 0.0000 0.0000 0.0000 -1.7539 0.0000 22.6721
#
#
#
# Elastic Compliance Matrix: (Units=1/GPa)
#
#
# Indices 1 2 3 4 5 6 
#
# 1 0.013094 -0.009922 -0.004310 0.000000 0.001598 0.000000
# 2 -0.009922 0.042460 0.002944 0.000000 0.002738 0.000000
# 3 -0.004310 0.002944 0.009938 0.000000 -0.001210 0.000000
# 4 0.000000 0.000000 0.000000 0.095496 0.000000 0.007388
# 5 0.001598 0.002738 -0.001210 0.000000 0.024006 0.000000
# 6 0.000000 0.000000 0.000000 0.007388 0.000000 0.044679
#
#
# Mechanical properties :
#
#
# Convention : Reuss Voigt Hill
#
# Bulk Modulus (GPa) = 23.30116 42.15439 32.72778
# Shear Modulus (GPa) = 18.75801 28.02199 23.39000
#
# Velocity S-wave (km/s) = 3.12529 3.81986 3.48990
# Velocity P-wave (km/s) = 5.01562 6.43469 5.76895
#
# Compressibility (1/GPa) = 0.04291632
#
# Stress axis : x y z
#
# Youngs Moduli (GPa) = 76.37359 23.55142 100.62629
#
# Poissons Ratio (x) = 0.23367 0.43372
# Poissons Ratio (y) = 0.75775 -0.29626
# Poissons Ratio (z) = 0.32918 -0.06934
#
# Static dielectric constant tensor:
#      x y z
#    x 4.469710 0.000000 -0.712700 
#    y 0.000000 3.300940 0.000000 
#    z -0.712700 0.000000 4.246170 
# 
# 
# High freq. dielectric constant tensor:
#      x y z
#    x 1.767190 0.000000 -0.014080 
#    y 0.000000 1.668620 0.000000 
#    z -0.014080 0.000000 1.765660 
# 
# From -- ./inp_files/63598.got.cif
#   From: 2010.06.25/outbox.cif.g09.slc.cpg/sg12_32_cif.got.tgz:63598.got - 2010.06.28 00:19:55.
