data_PCOD8105713
_publ_section_title
;
Structure prediction by ZEFSAII (Michael W. Deem and Ramdas Pophale) SiO2 
 PCOD8105713
Probable space group: C 2/M
;
_chemical_formula_sum "Si O2"
_cell_formula_units_Z 52
_cell_length_a 9.419536
_cell_length_b 21.261660
_cell_length_c 23.008765
_cell_angle_alpha 90.000000
_cell_angle_beta 143.947646
_cell_angle_gamma 90.000000
_cell_volume 2711.966666
_symmetry_space_group_name_H-M "C 2/M"
_symmetry_group_IT_number 12
_symmetry_cell_setting 'monoclinic'
loop_
_space_group_symop_operation_xyz
x,y,z
-x,y,-z
-x,-y,-z
x,-y,z
1/2+x,1/2+y,z
1/2-x,1/2+y,-z
1/2-x,1/2-y,-z
1/2+x,1/2-y,z
loop_
_atom_site_type_symbol
_atom_site_label
_atom_site_fract_x
_atom_site_fract_y
_atom_site_fract_z
Si Si1 0.598274 0.184100 0.287566
Si Si2 0.434925 0.734946 0.613244
Si Si3 0.905880 0.069815 0.408643
Si Si4 0.716586 0.400644 0.405839
Si Si5 0.735571 0.396112 0.113214
Si Si6 0.033687 0.000000 0.126697
Si Si7 0.940631 0.500000 0.101168
Si Si8 0.490564 0.500000 0.248539
O O1 0.552920 0.208034 0.337594
O O2 0.687689 0.112325 0.316487
O O3 0.352414 0.171841 0.170290
O O4 0.794457 0.228483 0.321737
O O5 0.250000 0.750000 0.500000
O O6 0.352160 0.672835 0.620266
O O7 0.000000 0.098576 0.500000
O O8 0.122047 0.069583 0.434256
O O9 0.803418 0.000000 0.383690
O O10 0.600977 0.436974 0.313339
O O11 0.000000 0.410036 0.500000
O O12 0.662109 0.437435 0.144879
O O13 0.910512 0.437541 0.130173
O O14 0.500000 0.376352 0.000000
O O15 0.058464 0.000000 0.203841
O O16 0.754042 0.000000 0.014985
O O17 0.204443 0.500000 0.161288
#
# Coordination Sequence:
#
# PCOD8105713 Si02
#       8
#     8   8   8   8   8   4   4   4
#     4  11  22  38  62  85 112 155 201 239 293 347
#     4  11  23  40  60  83 115 163 204 238 281 354
#     4  10  21  35  55  83 113 152 198 243 290 339
#     4  11  23  38  53  80 124 159 191 239 294 346
#     4   9  20  39  61  85 114 149 197 247 295 350
#     4   9  21  34  58  89 115 151 190 241 297 358
#     4   9  17  38  60  82 117 153 190 239 297 357
#     4  12  22  34  55  89 120 152 189 242 304 349
#
# _framework density 19.174275000000002
#
# number of rings (size 3 to 8) (size 9 to 14) (size 15 to 20)
#    0.000    1.692    0.769    6.462    2.154    3.692 
#    0.000    0.769    0.000    1.846    0.000    0.000 
#    0.000    0.000    0.000    0.000    0.000    0.000 
#
# Total GULP energy -322363.547370 kJ/mol
# GULP energy per Si atom -12398.597976 kJ/mol
# Density = 1.913063 g / cm^3
# Si number density = 19.174275 Si / 1000 Ang^3
#
#
#
# Elastic Constant Matrix: (Units=GPa)
#
#
# Indices 1 2 3 4 5 6 
#
# 1 119.0598 34.9671 71.3838 -0.0019 -9.1077 -0.0001
# 2 34.9671 78.7315 45.0623 -0.0053 -3.8001 -0.0008
# 3 71.3838 45.0623 110.9076 -0.0122 -7.4815 -0.0024
# 4 -0.0019 -0.0053 -0.0122 35.8530 -0.0070 -0.5102
# 5 -9.1077 -3.8001 -7.4815 -0.0070 38.1889 -0.0022
# 6 -0.0001 -0.0008 -0.0024 -0.5102 -0.0022 20.4527
#
#
#
# Elastic Compliance Matrix: (Units=1/GPa)
#
#
# Indices 1 2 3 4 5 6 
#
# 1 0.013878 -0.001350 -0.008279 -0.000002 0.001554 -0.000001
# 2 -0.001350 0.016686 -0.005898 0.000000 0.000183 0.000000
# 3 -0.008279 -0.005898 0.016791 0.000005 0.000728 0.000002
# 4 -0.000002 0.000000 0.000005 0.027902 0.000006 0.000696
# 5 0.001554 0.000183 0.000728 0.000006 0.026717 0.000003
# 6 -0.000001 0.000000 0.000002 0.000696 0.000003 0.048911
#
#
# Mechanical properties :
#
#
# Convention : Reuss Voigt Hill
#
# Bulk Modulus (GPa) = 61.35010 67.94725 64.64867
# Shear Modulus (GPa) = 26.68480 29.38464 28.03472
#
# Velocity S-wave (km/s) = 3.73459 3.91897 3.82789
# Velocity P-wave (km/s) = 7.11771 7.48274 7.30250
#
# Compressibility (1/GPa) = 0.01629989
#
# Stress axis : x y z
#
# Youngs Moduli (GPa) = 72.05418 59.93163 59.55636
#
# Poissons Ratio (x) = 0.08092 0.49308
# Poissons Ratio (y) = 0.09729 0.35127
# Poissons Ratio (z) = 0.59655 0.35348
#
# Static dielectric constant tensor:
#      x y z
#    x 3.555390 0.000000 0.025710 
#    y 0.000000 3.474090 0.000000 
#    z 0.025710 0.000000 3.577520 
# 
# 
# High freq. dielectric constant tensor:
#      x y z
#    x 1.750920 0.000000 0.003340 
#    y 0.000000 1.737010 0.000000 
#    z 0.003340 0.000000 1.747070 
# 
# From -- ./inp_files/302399.got.cif
#   From: 2010.06.25/outbox.cif.g09.slc.cpg/sg12_152_cif.got.tgz:302399.got - 2010.06.28 00:19:55.
