data_PCOD8105672
_publ_section_title
;
Structure prediction by ZEFSAII (Michael W. Deem and Ramdas Pophale) SiO2 
 PCOD8105672
Probable space group: C 2/M
;
_chemical_formula_sum "Si O2"
_cell_formula_units_Z 64
_cell_length_a 21.545468
_cell_length_b 27.159698
_cell_length_c 10.746906
_cell_angle_alpha 90.000000
_cell_angle_beta 143.052039
_cell_angle_gamma 90.000000
_cell_volume 3780.100945
_symmetry_space_group_name_H-M "C 2/M"
_symmetry_group_IT_number 12
_symmetry_cell_setting 'monoclinic'
loop_
_space_group_symop_operation_xyz
x,y,z
-x,y,-z
-x,-y,-z
x,-y,z
1/2+x,1/2+y,z
1/2-x,1/2+y,-z
1/2-x,1/2-y,-z
1/2+x,1/2-y,z
loop_
_atom_site_type_symbol
_atom_site_label
_atom_site_fract_x
_atom_site_fract_y
_atom_site_fract_z
Si Si1 0.757309 0.776283 0.745789
Si Si2 0.786572 0.140306 0.127117
Si Si3 0.621618 0.648915 0.211314
Si Si4 0.920216 0.778844 0.209685
Si Si5 0.078371 0.056125 0.734628
Si Si6 0.085361 0.053870 0.029573
Si Si7 0.142034 0.177083 0.512458
Si Si8 0.105260 0.320295 0.700097
O O1 0.801336 0.807992 0.703776
O O2 0.707575 0.727246 0.609253
O O3 0.675551 0.808363 0.693275
O O4 0.858240 0.763210 0.987787
O O5 0.847811 0.187866 0.178659
O O6 0.820792 0.089675 0.117239
O O7 0.807047 0.139750 0.306947
O O8 0.667056 0.147731 0.900716
O O9 0.644665 0.643570 0.393806
O O10 0.500000 0.661553 0.000000
O O11 0.655194 0.600290 0.183948
O O12 0.942048 0.729356 0.317613
O O13 0.023479 0.809228 0.349453
O O14 0.038541 0.062647 0.814428
O O15 0.000000 0.073808 0.500000
O O16 0.109728 0.000000 0.758761
O O17 0.142092 0.000000 0.120848
O O18 0.000000 0.052997 0.000000
O O19 0.000000 0.350533 0.500000
#
# Coordination Sequence:
#
# PCOD8105672 Si02
#       8
#     8   8   8   8   8   8   8   8
#     4  11  20  34  49  71 104 140 178 215 260 314
#     4  11  21  31  53  79 103 136 179 219 268 316
#     4  11  23  34  50  72 103 147 179 209 260 320
#     4  11  18  33  50  74 101 137 174 217 264 308
#     4  10  21  35  54  81 109 137 175 226 274 317
#     4   9  19  35  51  71 102 139 176 212 258 318
#     4  12  21  33  51  73 110 142 175 220 262 311
#     4  11  19  33  54  75 101 135 180 225 263 312
#
# _framework density 16.930764
#
# number of rings (size 3 to 8) (size 9 to 14) (size 15 to 20)
#    0.000    1.250    5.000    3.750    5.250    0.000 
#    0.000    0.000    0.000    0.375    0.000    0.000 
#    0.000    0.000    0.000    7.750    0.000    0.000 
#
# Total GULP energy -396491.474563 kJ/mol
# GULP energy per Si atom -12390.358580 kJ/mol
# Density = 1.689223 g / cm^3
# Si number density = 16.930764 Si / 1000 Ang^3
#
#
#
# Elastic Constant Matrix: (Units=GPa)
#
#
# Indices 1 2 3 4 5 6 
#
# 1 71.1358 20.1840 47.1133 0.0000 -16.4224 0.0000
# 2 20.1840 42.4877 28.0674 0.0000 -6.5637 0.0000
# 3 47.1133 28.0674 128.2200 0.0000 -9.4390 0.0000
# 4 0.0000 0.0000 0.0000 19.4092 0.0000 -5.3243
# 5 -16.4224 -6.5637 -9.4390 0.0000 34.3419 0.0000
# 6 0.0000 0.0000 0.0000 -5.3243 0.0000 23.0998
#
#
#
# Elastic Compliance Matrix: (Units=1/GPa)
#
#
# Indices 1 2 3 4 5 6 
#
# 1 0.021284 -0.004847 -0.006204 0.000000 0.007546 0.000000
# 2 -0.004847 0.029082 -0.004436 0.000000 0.002021 0.000000
# 3 -0.006204 -0.004436 0.010991 0.000000 -0.000794 0.000000
# 4 0.000000 0.000000 0.000000 0.055000 0.000000 0.012677
# 5 0.007546 0.002021 -0.000794 0.000000 0.032896 0.000000
# 6 0.000000 0.000000 0.000000 0.012677 0.000000 0.046212
#
#
# Mechanical properties :
#
#
# Convention : Reuss Voigt Hill
#
# Bulk Modulus (GPa) = 32.91353 48.06365 40.48859
# Shear Modulus (GPa) = 21.13570 25.13542 23.13556
#
# Velocity S-wave (km/s) = 3.53705 3.85723 3.70060
# Velocity P-wave (km/s) = 6.01359 6.94893 6.49811
#
# Compressibility (1/GPa) = 0.03038264
#
# Stress axis : x y z
#
# Youngs Moduli (GPa) = 46.98359 34.38605 90.98014
#
# Poissons Ratio (x) = 0.16666 0.56445
# Poissons Ratio (y) = 0.22772 0.40361
# Poissons Ratio (z) = 0.29149 0.15254
#
# Static dielectric constant tensor:
#      x y z
#    x 3.177810 0.000000 -0.171840 
#    y 0.000000 3.344290 0.000000 
#    z -0.171840 0.000000 3.430890 
# 
# 
# High freq. dielectric constant tensor:
#      x y z
#    x 1.640390 0.000000 -0.026060 
#    y 0.000000 1.637530 0.000000 
#    z -0.026060 0.000000 1.651750 
# 
# From -- ./inp_files/185080.got.cif
#   From: 2010.06.25/outbox.cif.g09.slc.cpg/sg12_93_cif.got.tgz:185080.got - 2010.06.28 00:19:55.
