data_PCOD8105817
_publ_section_title
;
Structure prediction by ZEFSAII (Michael W. Deem and Ramdas Pophale) SiO2 
 PCOD8105817
Probable space group: C 2/M
;
_chemical_formula_sum "Si O2"
_cell_formula_units_Z 56
_cell_length_a 10.198021
_cell_length_b 18.598941
_cell_length_c 15.323327
_cell_angle_alpha 90.000000
_cell_angle_beta 68.636482
_cell_angle_gamma 90.000000
_cell_volume 2706.706553
_symmetry_space_group_name_H-M "C 2/M"
_symmetry_group_IT_number 12
_symmetry_cell_setting 'monoclinic'
loop_
_space_group_symop_operation_xyz
x,y,z
-x,y,-z
-x,-y,-z
x,-y,z
1/2+x,1/2+y,z
1/2-x,1/2+y,-z
1/2-x,1/2-y,-z
1/2+x,1/2-y,z
loop_
_atom_site_type_symbol
_atom_site_label
_atom_site_fract_x
_atom_site_fract_y
_atom_site_fract_z
Si Si1 0.723433 0.817899 0.070995
Si Si2 0.463976 0.791260 0.252469
Si Si3 0.399602 0.717233 0.441991
Si Si4 0.559755 0.580941 0.665748
Si Si5 0.063817 0.151683 0.839616
Si Si6 0.273616 0.079689 0.256116
Si Si7 0.732371 0.418489 0.073888
O O1 0.616704 0.807365 0.176478
O O2 0.861709 0.850426 0.084895
O O3 0.750000 0.750000 0.000000
O O4 0.666841 0.884068 0.024523
O O5 0.479731 0.760350 0.346014
O O6 0.399459 0.731273 0.204862
O O7 0.362778 0.860591 0.285068
O O8 0.500000 0.719764 0.500000
O O9 0.250000 0.750000 0.500000
O O10 0.368929 0.635047 0.420027
O O11 0.601564 0.500000 0.629900
O O12 0.612710 0.595385 0.752295
O O13 0.392559 0.594275 0.697977
O O14 0.899636 0.136309 0.894771
O O15 0.316134 0.083708 0.144166
O O16 0.308973 0.000000 0.284888
O O17 0.684932 0.500000 0.063629
#
# Coordination Sequence:
#
# PCOD8105817 Si02
#       7
#     8   8   8   8   8   8   8
#     4  12  24  36  55  91 127 170 212 248 313 373
#     4  11  24  38  64  86 128 162 202 258 320 374
#     4  11  25  43  70 100 126 162 212 267 327 385
#     4   9  20  40  69  96 121 159 208 264 318 374
#     4  10  21  35  58  86 124 164 206 258 301 368
#     4   9  19  39  63  91 126 165 210 254 307 373
#     4  10  21  37  58  86 121 164 215 263 297 355
#
# _framework density 20.689350000000001
#
# number of rings (size 3 to 8) (size 9 to 14) (size 15 to 20)
#    0.000    1.714    1.429    3.429    8.000    4.286 
#    0.000    2.143    0.000    0.857    0.000    0.000 
#    0.000    0.000    0.000    0.000    0.000    0.000 
#
# Total GULP energy -346976.986193 kJ/mol
# GULP energy per Si atom -12392.035221 kJ/mol
# Density = 2.064226 g / cm^3
# Si number density = 20.689350 Si / 1000 Ang^3
#
#
#
# Elastic Constant Matrix: (Units=GPa)
#
#
# Indices 1 2 3 4 5 6 
#
# 1 55.1345 38.1249 25.3769 0.0000 12.7201 0.0000
# 2 38.1249 158.9262 51.8851 0.0000 7.2114 0.0000
# 3 25.3769 51.8851 108.1109 0.0000 5.4861 0.0000
# 4 0.0000 0.0000 0.0000 31.2328 0.0000 -3.3752
# 5 12.7201 7.2114 5.4861 0.0000 30.7191 0.0000
# 6 0.0000 0.0000 0.0000 -3.3752 0.0000 29.8705
#
#
#
# Elastic Compliance Matrix: (Units=1/GPa)
#
#
# Indices 1 2 3 4 5 6 
#
# 1 0.024702 -0.004488 -0.003208 0.000000 -0.008602 0.000000
# 2 -0.004488 0.008315 -0.002959 0.000000 0.000435 0.000000
# 3 -0.003208 -0.002959 0.011424 0.000000 -0.000017 0.000000
# 4 0.000000 0.000000 0.000000 0.032413 0.000000 0.003663
# 5 -0.008602 0.000435 -0.000017 0.000000 0.036016 0.000000
# 6 0.000000 0.000000 0.000000 0.003663 0.000000 0.033892
#
#
# Mechanical properties :
#
#
# Convention : Reuss Voigt Hill
#
# Bulk Modulus (GPa) = 43.23271 61.43835 52.33553
# Shear Modulus (GPa) = 28.44417 32.15013 30.29715
#
# Velocity S-wave (km/s) = 3.71188 3.94629 3.83088
# Velocity P-wave (km/s) = 6.26995 7.10805 6.70211
#
# Compressibility (1/GPa) = 0.02313063
#
# Stress axis : x y z
#
# Youngs Moduli (GPa) = 40.48244 120.26031 87.53633
#
# Poissons Ratio (x) = 0.53975 0.28080
# Poissons Ratio (y) = 0.18169 0.25904
# Poissons Ratio (z) = 0.12986 0.35588
#
# Static dielectric constant tensor:
#      x y z
#    x 3.179160 0.000000 0.063650 
#    y 0.000000 3.976950 0.000000 
#    z 0.063650 0.000000 3.917740 
# 
# 
# High freq. dielectric constant tensor:
#      x y z
#    x 1.776650 0.000000 0.009630 
#    y 0.000000 1.820430 0.000000 
#    z 0.009630 0.000000 1.811600 
# 
# From -- ./inp_files/206541.got.cif
#   From: 2010.06.25/outbox.cif.g09.slc.cpg/sg12_104_cif.got.tgz:206541.got - 2010.06.28 00:19:55.
