data_PCOD8105373
_publ_section_title
;
Structure prediction by ZEFSAII (Michael W. Deem and Ramdas Pophale) SiO2 
 PCOD8105373
Probable space group: C 2/M
;
_chemical_formula_sum "Si O2"
_cell_formula_units_Z 64
_cell_length_a 13.327604
_cell_length_b 32.010418
_cell_length_c 8.676385
_cell_angle_alpha 90.000000
_cell_angle_beta 89.823659
_cell_angle_gamma 90.000000
_cell_volume 3701.520708
_symmetry_space_group_name_H-M "C 2/M"
_symmetry_group_IT_number 12
_symmetry_cell_setting 'monoclinic'
loop_
_space_group_symop_operation_xyz
x,y,z
-x,y,-z
-x,-y,-z
x,-y,z
1/2+x,1/2+y,z
1/2-x,1/2+y,-z
1/2-x,1/2-y,-z
1/2+x,1/2-y,z
loop_
_atom_site_type_symbol
_atom_site_label
_atom_site_fract_x
_atom_site_fract_y
_atom_site_fract_z
Si Si1 0.034326 0.131774 0.834568
Si Si2 0.291305 0.194802 0.138607
Si Si3 0.673163 0.633661 0.325050
Si Si4 0.957144 0.731049 0.344425
Si Si5 0.561667 0.544903 0.736004
Si Si6 0.168966 0.813018 0.632679
Si Si7 0.160718 0.274895 0.179286
Si Si8 0.154071 0.045235 0.416586
O O1 0.944831 0.133979 0.711738
O O2 0.071058 0.083532 0.854359
O O3 0.127084 0.158452 0.771183
O O4 0.000000 0.149379 0.000000
O O5 0.236915 0.151320 0.181056
O O6 0.374824 0.201539 0.268471
O O7 0.208354 0.230748 0.136628
O O8 0.339766 0.193904 0.968197
O O9 0.686065 0.662298 0.475128
O O10 0.712781 0.586173 0.353620
O O11 0.909163 0.775440 0.391343
O O12 0.000000 0.709989 0.500000
O O13 0.047433 0.736040 0.223796
O O14 0.582074 0.500000 0.819607
O O15 0.642321 0.551345 0.599750
O O16 0.452776 0.543737 0.662876
O O17 0.278001 0.795979 0.681388
O O18 0.208398 0.000000 0.384087
#
# Coordination Sequence:
#
# PCOD8105373 Si02
#       8
#     8   8   8   8   8   8   8   8
#     4  11  20  28  42  67  96 128 161 197 238 278
#     4  10  21  34  51  70  95 128 159 197 244 284
#     4  11  19  32  49  70  96 123 166 203 232 281
#     4  11  21  34  51  69  93 124 163 198 238 279
#     4   8  14  26  41  61  89 124 159 190 231 280
#     4  11  21  32  50  69  92 125 165 202 233 274
#     4  10  21  36  48  68  98 128 158 199 244 285
#     4   8  14  26  46  66  91 123 155 194 237 278
#
# _framework density 17.290189999999999
#
# number of rings (size 3 to 8) (size 9 to 14) (size 15 to 20)
#    0.000    2.000    1.250    5.250    0.000    4.250 
#    0.000    0.000    0.000    0.000    0.000    0.000 
#    0.000    7.500    0.000    0.000    0.000    0.375 
#
# Total GULP energy -396638.025750 kJ/mol
# GULP energy per Si atom -12394.938305 kJ/mol
# Density = 1.725084 g / cm^3
# Si number density = 17.290190 Si / 1000 Ang^3
#
#
#
# Elastic Constant Matrix: (Units=GPa)
#
#
# Indices 1 2 3 4 5 6 
#
# 1 45.3279 25.5274 3.4352 0.0000 -5.9542 0.0000
# 2 25.5274 90.2954 20.1377 0.0000 1.4383 0.0000
# 3 3.4352 20.1377 62.0393 0.0000 -6.2292 0.0000
# 4 0.0000 0.0000 0.0000 23.5201 0.0000 -6.7105
# 5 -5.9542 1.4383 -6.2292 0.0000 17.4221 0.0000
# 6 0.0000 0.0000 0.0000 -6.7105 0.0000 15.7244
#
#
#
# Elastic Compliance Matrix: (Units=1/GPa)
#
#
# Indices 1 2 3 4 5 6 
#
# 1 0.028254 -0.008699 0.002387 0.000000 0.011228 0.000000
# 2 -0.008699 0.014720 -0.004892 0.000000 -0.005937 0.000000
# 3 0.002387 -0.004892 0.018356 0.000000 0.007783 0.000000
# 4 0.000000 0.000000 0.000000 0.048411 0.000000 0.020660
# 5 0.011228 -0.005937 0.007783 0.000000 0.064508 0.000000
# 6 0.000000 0.000000 0.000000 0.020660 0.000000 0.072412
#
#
# Mechanical properties :
#
#
# Convention : Reuss Voigt Hill
#
# Bulk Modulus (GPa) = 25.69331 32.87369 29.28350
# Shear Modulus (GPa) = 17.72765 21.23749 19.48257
#
# Velocity S-wave (km/s) = 3.20551 3.50851 3.36042
# Velocity P-wave (km/s) = 5.34721 5.95542 5.65949
#
# Compressibility (1/GPa) = 0.03892064
#
# Stress axis : x y z
#
# Youngs Moduli (GPa) = 35.39261 67.93600 54.47756
#
# Poissons Ratio (x) = 0.59097 -0.13001
# Poissons Ratio (y) = 0.30788 0.26653
# Poissons Ratio (z) = -0.08446 0.33237
#
# Static dielectric constant tensor:
#      x y z
#    x 2.915400 0.000000 -0.065330 
#    y 0.000000 3.607030 0.000000 
#    z -0.065330 0.000000 3.246470 
# 
# 
# High freq. dielectric constant tensor:
#      x y z
#    x 1.622280 0.000000 -0.003540 
#    y 0.000000 1.660530 0.000000 
#    z -0.003540 0.000000 1.672450 
# 
# From -- ./inp_files/67858.got.cif
#   From: 2010.06.25/outbox.cif.g09.slc.cpg/sg12_34_cif.got.tgz:67858.got - 2010.06.28 00:19:55.
