data_PCOD8105598
_publ_section_title
;
Structure prediction by ZEFSAII (Michael W. Deem and Ramdas Pophale) SiO2 
 PCOD8105598
Probable space group: C 2/M
;
_chemical_formula_sum "Si O2"
_cell_formula_units_Z 56
_cell_length_a 23.442639
_cell_length_b 13.185623
_cell_length_c 9.425253
_cell_angle_alpha 90.000000
_cell_angle_beta 83.218884
_cell_angle_gamma 90.000000
_cell_volume 2893.019614
_symmetry_space_group_name_H-M "C 2/M"
_symmetry_group_IT_number 12
_symmetry_cell_setting 'monoclinic'
loop_
_space_group_symop_operation_xyz
x,y,z
-x,y,-z
-x,-y,-z
x,-y,z
1/2+x,1/2+y,z
1/2-x,1/2+y,-z
1/2-x,1/2-y,-z
1/2+x,1/2-y,z
loop_
_atom_site_type_symbol
_atom_site_label
_atom_site_fract_x
_atom_site_fract_y
_atom_site_fract_z
Si Si1 0.797696 0.884166 0.566905
Si Si2 0.888702 0.313984 0.882200
Si Si3 0.694713 0.757161 0.676779
Si Si4 0.485573 0.119194 0.661237
Si Si5 0.259786 0.884558 0.876338
Si Si6 0.091653 0.616693 0.825948
Si Si7 0.834958 0.112932 0.872796
O O1 0.731925 0.846724 0.595716
O O2 0.830241 0.815666 0.439962
O O3 0.829078 0.871398 0.707153
O O4 0.797704 0.000000 0.516345
O O5 0.927021 0.328756 0.730993
O O6 0.826605 0.363579 0.878533
O O7 0.881465 0.193714 0.915049
O O8 0.921303 0.368040 0.003445
O O9 0.734292 0.690284 0.767624
O O10 0.643263 0.808048 0.775806
O O11 0.500000 0.160169 0.500000
O O12 0.536810 0.149313 0.751506
O O13 0.474908 0.000000 0.661159
O O14 0.251702 0.000000 0.826290
O O15 0.227103 0.867907 0.035966
O O16 0.108362 0.500000 0.790026
O O17 0.857469 0.000000 0.902563
#
# Coordination Sequence:
#
# PCOD8105598 Si02
#       7
#     8   8   8   8   8   8   8
#     4  10  21  35  52  80 121 162 197 239 295 356
#     4  12  21  39  63  89 121 162 200 242 303 357
#     4  11  21  35  56  86 122 158 200 244 299 358
#     4  10  24  42  62  89 119 156 202 250 298 352
#     4  11  21  35  58  92 125 157 200 246 295 359
#     4  11  23  39  61  89 120 155 200 248 300 356
#     4  10  21  37  58  87 123 155 196 244 293 355
#
# _framework density 19.356938
#
# number of rings (size 3 to 8) (size 9 to 14) (size 15 to 20)
#    0.000    1.286    2.857    3.857    2.000    2.286 
#    0.000    2.857    0.000    3.857    0.000    0.000 
#    0.000    0.000    0.000    0.000    0.000    0.000 
#
# Total GULP energy -347265.827309 kJ/mol
# GULP energy per Si atom -12402.350975 kJ/mol
# Density = 1.931288 g / cm^3
# Si number density = 19.356938 Si / 1000 Ang^3
#
#
#
# Elastic Constant Matrix: (Units=GPa)
#
#
# Indices 1 2 3 4 5 6 
#
# 1 86.5994 37.2209 46.2754 0.0000 -1.9836 0.0000
# 2 37.2209 97.5133 31.2056 0.0000 -0.6995 0.0000
# 3 46.2754 31.2056 111.2656 0.0000 -4.3735 0.0000
# 4 0.0000 0.0000 0.0000 30.5777 0.0000 -0.5731
# 5 -1.9836 -0.6995 -4.3735 0.0000 29.8451 0.0000
# 6 0.0000 0.0000 0.0000 -0.5731 0.0000 20.0973
#
#
#
# Elastic Compliance Matrix: (Units=1/GPa)
#
#
# Indices 1 2 3 4 5 6 
#
# 1 0.016467 -0.004498 -0.005580 0.000000 0.000171 0.000000
# 2 -0.004498 0.012496 -0.001644 0.000000 -0.000247 0.000000
# 3 -0.005580 -0.001644 0.011821 0.000000 0.001323 0.000000
# 4 0.000000 0.000000 0.000000 0.032721 0.000000 0.000933
# 5 0.000171 -0.000247 0.001323 0.000000 0.033706 0.000000
# 6 0.000000 0.000000 0.000000 0.000933 0.000000 0.049785
#
#
# Mechanical properties :
#
#
# Convention : Reuss Voigt Hill
#
# Bulk Modulus (GPa) = 57.67011 58.30912 57.98962
# Shear Modulus (GPa) = 26.85004 28.14911 27.49958
#
# Velocity S-wave (km/s) = 3.72842 3.81755 3.77325
# Velocity P-wave (km/s) = 6.95647 7.04415 7.00045
#
# Compressibility (1/GPa) = 0.01734000
#
# Stress axis : x y z
#
# Youngs Moduli (GPa) = 60.72906 80.02415 84.59369
#
# Poissons Ratio (x) = 0.35998 0.47204
# Poissons Ratio (y) = 0.27318 0.13903
# Poissons Ratio (z) = 0.33887 0.13152
#
# Static dielectric constant tensor:
#      x y z
#    x 3.193950 0.000000 -0.062540 
#    y 0.000000 3.785470 0.000000 
#    z -0.062540 0.000000 3.747200 
# 
# 
# High freq. dielectric constant tensor:
#      x y z
#    x 1.719120 0.000000 -0.003460 
#    y 0.000000 1.762460 0.000000 
#    z -0.003460 0.000000 1.768440 
# 
# From -- ./inp_files/86371.got.cif
#   From: 2010.06.25/outbox.cif.g09.slc.cpg/sg12_44_cif.got.tgz:86371.got - 2010.06.28 00:19:55.
