data_PCOD8105973
_publ_section_title
;
Structure prediction by ZEFSAII (Michael W. Deem and Ramdas Pophale) SiO2 
 PCOD8105973
Probable space group: C 2/M
;
_chemical_formula_sum "Si O2"
_cell_formula_units_Z 40
_cell_length_a 18.663192
_cell_length_b 8.921854
_cell_length_c 26.922012
_cell_angle_alpha 90.000000
_cell_angle_beta 31.496042
_cell_angle_gamma 90.000000
_cell_volume 2341.988133
_symmetry_space_group_name_H-M "C 2/M"
_symmetry_group_IT_number 12
_symmetry_cell_setting 'monoclinic'
loop_
_space_group_symop_operation_xyz
x,y,z
-x,y,-z
-x,-y,-z
x,-y,z
1/2+x,1/2+y,z
1/2-x,1/2+y,-z
1/2-x,1/2-y,-z
1/2+x,1/2-y,z
loop_
_atom_site_type_symbol
_atom_site_label
_atom_site_fract_x
_atom_site_fract_y
_atom_site_fract_z
Si Si1 0.898357 0.176727 0.415963
Si Si2 0.349741 0.325660 0.262101
Si Si3 0.546568 0.827591 0.417152
Si Si4 0.886306 0.330368 0.902456
Si Si5 0.464790 0.170041 0.280858
O O1 0.750000 0.250000 0.500000
O O2 0.991078 0.239532 0.315913
O O3 0.969843 0.218386 0.425134
O O4 0.885041 0.000000 0.419594
O O5 0.377893 0.500000 0.253814
O O6 0.209287 0.298016 0.315707
O O7 0.478040 0.253410 0.155668
O O8 0.341932 0.247737 0.321471
O O9 0.500000 0.787840 0.500000
O O10 0.510749 0.000000 0.425693
O O11 0.884932 0.500000 0.923180
O O12 0.898170 0.326201 0.834881
O O13 0.750000 0.250000 0.000000
O O14 0.421581 0.000000 0.319155
#
# Coordination Sequence:
#
# PCOD8105973 Si02
#       5
#     8   8   8   8   8
#     4  12  24  36  54  76 106 144 181 224 267 317
#     4   9  17  31  53  79 109 140 175 217 266 318
#     4  10  21  36  54  77 107 143 180 219 266 320
#     4   9  18  31  54  82 110 141 178 226 269 316
#     4   9  19  34  53  78 108 138 175 220 264 316
#
# _framework density 17.079505999999999
#
# number of rings (size 3 to 8) (size 9 to 14) (size 15 to 20)
#    1.200    1.000    0.000    4.200    0.000    3.600 
#    0.000    0.000    0.000    1.200    0.000    8.400 
#    0.000    0.000    0.000    0.000    0.000    0.000 
#
# Total GULP energy -247844.324810 kJ/mol
# GULP energy per Si atom -12392.216241 kJ/mol
# Density = 1.704063 g / cm^3
# Si number density = 17.079506 Si / 1000 Ang^3
#
#
#
# Elastic Constant Matrix: (Units=GPa)
#
#
# Indices 1 2 3 4 5 6 
#
# 1 88.4253 60.5803 40.4748 0.0000 -3.8736 0.0000
# 2 60.5803 160.4297 55.8591 -0.0001 -5.6851 -0.0001
# 3 40.4748 55.8591 91.8293 -0.0002 -12.6464 0.0000
# 4 0.0000 -0.0001 -0.0002 27.8113 0.0000 1.3332
# 5 -3.8736 -5.6851 -12.6464 0.0000 25.1314 0.0000
# 6 0.0000 -0.0001 0.0000 1.3332 0.0000 31.3047
#
#
#
# Elastic Compliance Matrix: (Units=1/GPa)
#
#
# Indices 1 2 3 4 5 6 
#
# 1 0.016582 -0.004703 -0.004559 0.000000 -0.000802 0.000000
# 2 -0.004703 0.009253 -0.003618 0.000000 -0.000452 0.000000
# 3 -0.004559 -0.003618 0.015999 0.000000 0.006530 0.000000
# 4 0.000000 0.000000 0.000000 0.036030 0.000000 -0.001534
# 5 -0.000802 -0.000452 0.006530 0.000000 0.042851 0.000000
# 6 0.000000 0.000000 0.000000 -0.001534 0.000000 0.032009
#
#
# Mechanical properties :
#
#
# Convention : Reuss Voigt Hill
#
# Bulk Modulus (GPa) = 62.20623 72.72362 67.46492
# Shear Modulus (GPa) = 27.19731 29.10082 28.14907
#
# Velocity S-wave (km/s) = 3.99481 4.13224 4.06411
# Velocity P-wave (km/s) = 7.60123 8.08945 7.84913
#
# Compressibility (1/GPa) = 0.01607556
#
# Stress axis : x y z
#
# Youngs Moduli (GPa) = 60.30480 108.07552 62.50401
#
# Poissons Ratio (x) = 0.50827 0.28493
# Poissons Ratio (y) = 0.28361 0.22613
# Poissons Ratio (z) = 0.27490 0.39100
#
# Static dielectric constant tensor:
#      x y z
#    x 3.017880 0.000000 0.005410 
#    y 0.000000 3.335680 0.000000 
#    z 0.005410 0.000000 3.120290 
# 
# 
# High freq. dielectric constant tensor:
#      x y z
#    x 1.629630 0.000000 -0.002860 
#    y 0.000000 1.677960 0.000000 
#    z -0.002860 0.000000 1.648350 
# 
# From -- ./inp_files/341888.got.cif
#   From: 2010.06.25/outbox.cif.g09.slc.cpg/sg12_171_cif.got.tgz:341888.got - 2010.06.28 00:19:55.
