data_PCOD8105842
_publ_section_title
;
Structure prediction by ZEFSAII (Michael W. Deem and Ramdas Pophale) SiO2 
 PCOD8105842
Probable space group: C 2/M
;
_chemical_formula_sum "Si O2"
_cell_formula_units_Z 48
_cell_length_a 20.183600
_cell_length_b 12.257529
_cell_length_c 15.593082
_cell_angle_alpha 90.000000
_cell_angle_beta 39.636126
_cell_angle_gamma 90.000000
_cell_volume 2460.892932
_symmetry_space_group_name_H-M "C 2/M"
_symmetry_group_IT_number 12
_symmetry_cell_setting 'monoclinic'
loop_
_space_group_symop_operation_xyz
x,y,z
-x,y,-z
-x,-y,-z
x,-y,z
1/2+x,1/2+y,z
1/2-x,1/2+y,-z
1/2-x,1/2-y,-z
1/2+x,1/2-y,z
loop_
_atom_site_type_symbol
_atom_site_label
_atom_site_fract_x
_atom_site_fract_y
_atom_site_fract_z
Si Si1 0.230409 0.282886 0.116739
Si Si2 0.140968 0.875128 0.551390
Si Si3 0.880811 0.500000 0.519543
Si Si4 0.612175 0.627833 0.918237
Si Si5 0.264006 0.317784 0.371276
Si Si6 0.122739 0.500000 0.275935
Si Si7 0.057508 0.126448 0.356424
O O1 0.344098 0.300293 0.046533
O O2 0.168824 0.395668 0.182533
O O3 0.163307 0.191869 0.233899
O O4 0.250000 0.250000 0.000000
O O5 0.223648 0.806366 0.412900
O O6 0.149927 0.839829 0.641544
O O7 0.021982 0.854883 0.642836
O O8 0.171928 0.000000 0.505506
O O9 0.836116 0.394426 0.515306
O O10 0.849646 0.500000 0.651101
O O11 0.001391 0.500000 0.383315
O O12 0.609135 0.500000 0.946823
O O13 0.690216 0.648642 0.763972
O O14 0.500000 0.670093 0.000000
O O15 0.000000 0.169099 0.500000
O O16 0.088189 0.000000 0.336659
#
# Coordination Sequence:
#
# PCOD8105842 Si02
#       7
#     8   8   4   8   8   4   8
#     4  12  25  41  65  94 133 166 211 267 323 383
#     4  10  21  35  59  93 123 158 205 261 315 375
#     4  11  20  38  68  94 118 158 209 276 322 370
#     4  11  23  42  66  89 123 166 216 261 315 382
#     4  11  19  37  62  90 123 156 208 262 322 365
#     4  11  24  40  64  94 125 161 212 265 325 378
#     4  10  23  41  64  90 125 172 214 255 313 381
#
# _framework density 19.505115
#
# number of rings (size 3 to 8) (size 9 to 14) (size 15 to 20)
#    0.000    1.167    4.167    2.000    5.833    0.000 
#    0.000    0.000    0.000    2.000    0.000    0.000 
#    0.000    0.000    0.000    0.000    0.000    0.000 
#
# Total GULP energy -297615.136449 kJ/mol
# GULP energy per Si atom -12400.630685 kJ/mol
# Density = 1.946072 g / cm^3
# Si number density = 19.505115 Si / 1000 Ang^3
#
#
#
# Elastic Constant Matrix: (Units=GPa)
#
#
# Indices 1 2 3 4 5 6 
#
# 1 136.0790 46.8076 49.4716 0.0000 -10.1196 0.0000
# 2 46.8076 109.5808 38.6634 0.0000 -9.2631 0.0000
# 3 49.4716 38.6634 84.4259 0.0000 -2.8077 0.0000
# 4 0.0000 0.0000 0.0000 68.0493 0.0000 -8.7476
# 5 -10.1196 -9.2631 -2.8077 0.0000 23.8727 0.0000
# 6 0.0000 0.0000 0.0000 -8.7476 0.0000 33.3201
#
#
#
# Elastic Compliance Matrix: (Units=1/GPa)
#
#
# Indices 1 2 3 4 5 6 
#
# 1 0.010103 -0.002414 -0.004722 0.000000 0.002791 0.000000
# 2 -0.002414 0.011788 -0.003881 0.000000 0.003094 0.000000
# 3 -0.004722 -0.003881 0.016336 0.000000 -0.001586 0.000000
# 4 0.000000 0.000000 0.000000 0.015208 0.000000 0.003993
# 5 0.002791 0.003094 -0.001586 0.000000 0.044086 0.000000
# 6 0.000000 0.000000 0.000000 0.003993 0.000000 0.031060
#
#
# Mechanical properties :
#
#
# Convention : Reuss Voigt Hill
#
# Bulk Modulus (GPa) = 61.75235 66.66343 64.20789
# Shear Modulus (GPa) = 32.04868 38.05796 35.05332
#
# Velocity S-wave (km/s) = 4.05790 4.42201 4.24386
# Velocity P-wave (km/s) = 7.32692 7.76684 7.55008
#
# Compressibility (1/GPa) = 0.01619372
#
# Stress axis : x y z
#
# Youngs Moduli (GPa) = 98.97928 84.83544 61.21338
#
# Poissons Ratio (x) = 0.20476 0.28905
# Poissons Ratio (y) = 0.23889 0.23757
# Poissons Ratio (z) = 0.46739 0.32925
#
# Static dielectric constant tensor:
#      x y z
#    x 3.927120 0.000000 -0.076990 
#    y 0.000000 3.730980 0.000000 
#    z -0.076990 0.000000 3.338610 
# 
# 
# High freq. dielectric constant tensor:
#      x y z
#    x 1.780210 0.000000 -0.004110 
#    y 0.000000 1.762640 0.000000 
#    z -0.004110 0.000000 1.736850 
# 
# From -- ./inp_files/232837.got.cif
#   From: 2010.06.25/outbox.cif.g09.slc.cpg/sg12_117_cif.got.tgz:232837.got - 2010.06.28 00:19:55.
