data_PCOD8105437
_publ_section_title
;
Structure prediction by ZEFSAII (Michael W. Deem and Ramdas Pophale) SiO2 
 PCOD8105437
Probable space group: C 2/M
;
_chemical_formula_sum "Si O2"
_cell_formula_units_Z 52
_cell_length_a 22.906434
_cell_length_b 7.650234
_cell_length_c 16.072269
_cell_angle_alpha 90.000000
_cell_angle_beta 88.443480
_cell_angle_gamma 90.000000
_cell_volume 2815.458430
_symmetry_space_group_name_H-M "C 2/M"
_symmetry_group_IT_number 12
_symmetry_cell_setting 'monoclinic'
loop_
_space_group_symop_operation_xyz
x,y,z
-x,y,-z
-x,-y,-z
x,-y,z
1/2+x,1/2+y,z
1/2-x,1/2+y,-z
1/2-x,1/2-y,-z
1/2+x,1/2-y,z
loop_
_atom_site_type_symbol
_atom_site_label
_atom_site_fract_x
_atom_site_fract_y
_atom_site_fract_z
Si Si1 0.905673 0.300508 0.284770
Si Si2 0.601832 0.500000 0.134513
Si Si3 0.703212 0.292879 0.394516
Si Si4 0.302483 0.693064 0.786219
Si Si5 0.829817 0.699883 0.433948
Si Si6 0.616538 0.500000 0.943187
Si Si7 0.183985 0.300109 0.859629
Si Si8 0.527494 0.500000 0.799101
O O1 0.929592 0.500000 0.287744
O O2 0.882705 0.226878 0.375022
O O3 0.851181 0.286766 0.224633
O O4 0.957564 0.174532 0.253155
O O5 0.638344 0.673964 0.161371
O O6 0.541096 0.500000 0.183979
O O7 0.591836 0.500000 0.036989
O O8 0.700434 0.500000 0.399055
O O9 0.684432 0.217831 0.304143
O O10 0.767453 0.214067 0.412358
O O11 0.658482 0.224989 0.467793
O O12 0.277147 0.500000 0.765007
O O13 0.249346 0.778337 0.840395
O O14 0.825950 0.500000 0.408165
O O15 0.655049 0.674455 0.929332
O O16 0.560835 0.500000 0.885434
O O17 0.184372 0.500000 0.894104
#
# Coordination Sequence:
#
# PCOD8105437 Si02
#       8
#     8   4   8   8   8   4   8   4
#     4   9  17  31  54  76 105 135 173 224 262 306
#     4  10  21  36  55  72 105 142 176 216 269 315
#     4   9  15  26  44  70 103 134 165 201 256 318
#     4   8  16  31  51  68 102 145 163 205 255 325
#     4   9  16  25  42  74 107 132 160 213 261 298
#     4  10  21  34  56  84 102 129 178 235 261 312
#     4   9  16  33  53  77 107 135 167 209 278 317
#     4  10  21  36  55  78  99 143 184 222 260 304
#
# _framework density 18.469460999999999
#
# number of rings (size 3 to 8) (size 9 to 14) (size 15 to 20)
#    0.462    2.462    1.538    0.231    1.077    0.615 
#    1.385    0.769    1.692    5.538    0.000    2.154 
#    0.000    0.000    0.000    0.000    0.000    0.000 
#
# Total GULP energy -322105.211695 kJ/mol
# GULP energy per Si atom -12388.661988 kJ/mol
# Density = 1.842742 g / cm^3
# Si number density = 18.469461 Si / 1000 Ang^3
#
#
#
# Elastic Constant Matrix: (Units=GPa)
#
#
# Indices 1 2 3 4 5 6 
#
# 1 74.9018 20.1762 23.8805 0.0000 -24.6299 0.0000
# 2 20.1762 62.0950 23.3606 0.0000 -13.7407 0.0000
# 3 23.8805 23.3606 91.2721 0.0000 -20.1284 0.0000
# 4 0.0000 0.0000 0.0000 20.5858 0.0000 -2.2774
# 5 -24.6299 -13.7407 -20.1284 0.0000 27.3634 0.0000
# 6 0.0000 0.0000 0.0000 -2.2774 0.0000 11.8263
#
#
#
# Elastic Compliance Matrix: (Units=1/GPa)
#
#
# Indices 1 2 3 4 5 6 
#
# 1 0.019447 -0.002503 -0.001032 0.000000 0.015488 0.000000
# 2 -0.002503 0.019227 -0.003144 0.000000 0.005089 0.000000
# 3 -0.001032 -0.003144 0.013700 0.000000 0.007571 0.000000
# 4 0.000000 0.000000 0.000000 0.049635 0.000000 0.009558
# 5 0.015488 0.005089 0.007571 0.000000 0.058611 0.000000
# 6 0.000000 0.000000 0.000000 0.009558 0.000000 0.086398
#
#
# Mechanical properties :
#
#
# Convention : Reuss Voigt Hill
#
# Bulk Modulus (GPa) = 25.63018 40.34481 32.98749
# Shear Modulus (GPa) = 18.28953 22.67855 20.48404
#
# Velocity S-wave (km/s) = 3.15025 3.50793 3.33389
# Velocity P-wave (km/s) = 5.20954 6.18861 5.72006
#
# Compressibility (1/GPa) = 0.03901651
#
# Stress axis : x y z
#
# Youngs Moduli (GPa) = 51.42150 52.01142 72.99082
#
# Poissons Ratio (x) = 0.13020 0.07531
# Poissons Ratio (y) = 0.12873 0.22946
# Poissons Ratio (z) = 0.05305 0.16351
#
# Static dielectric constant tensor:
#      x y z
#    x 2.917500 0.000000 -0.098930 
#    y 0.000000 3.275870 0.000000 
#    z -0.098930 0.000000 3.465380 
# 
# 
# High freq. dielectric constant tensor:
#      x y z
#    x 1.662440 0.000000 -0.013000 
#    y 0.000000 1.694910 0.000000 
#    z -0.013000 0.000000 1.725470 
# 
# From -- ./inp_files/280136.got.cif
#   From: 2010.06.25/outbox.cif.g09.slc.cpg/sg12_141_cif.got.tgz:280136.got - 2010.06.28 00:19:55.
