data_PCOD8105285
_publ_section_title
;
Structure prediction by ZEFSAII (Michael W. Deem and Ramdas Pophale) SiO2 
 PCOD8105285
Probable space group: C 2/M
;
_chemical_formula_sum "Si O2"
_cell_formula_units_Z 52
_cell_length_a 12.329618
_cell_length_b 20.583308
_cell_length_c 22.795506
_cell_angle_alpha 90.000000
_cell_angle_beta 149.861383
_cell_angle_gamma 90.000000
_cell_volume 2904.683574
_symmetry_space_group_name_H-M "C 2/M"
_symmetry_group_IT_number 12
_symmetry_cell_setting 'monoclinic'
loop_
_space_group_symop_operation_xyz
x,y,z
-x,y,-z
-x,-y,-z
x,-y,z
1/2+x,1/2+y,z
1/2-x,1/2+y,-z
1/2-x,1/2-y,-z
1/2+x,1/2-y,z
loop_
_atom_site_type_symbol
_atom_site_label
_atom_site_fract_x
_atom_site_fract_y
_atom_site_fract_z
Si Si1 0.035524 0.073108 0.947271
Si Si2 0.175867 0.500000 0.318203
Si Si3 0.333789 0.283852 0.319744
Si Si4 0.894415 0.000000 0.546433
Si Si5 0.954626 0.628210 0.177290
Si Si6 0.746760 0.135735 0.513971
Si Si7 0.000000 0.298564 0.500000
Si Si8 0.658208 0.835287 0.753308
O O1 0.844182 0.112021 0.825715
O O2 0.043646 0.000000 0.925165
O O3 0.000000 0.071012 0.000000
O O4 0.262546 0.110766 0.041911
O O5 0.275524 0.500000 0.428931
O O6 0.351215 0.500000 0.348183
O O7 0.026460 0.562407 0.242851
O O8 0.564961 0.315218 0.415796
O O9 0.349110 0.246519 0.388867
O O10 0.270694 0.234068 0.239014
O O11 0.149750 0.338383 0.234109
O O12 0.834513 0.062468 0.557209
O O13 0.870617 0.674593 0.190384
O O14 0.655561 0.155229 0.534747
O O15 0.563419 0.140795 0.379143
#
# Coordination Sequence:
#
# PCOD8105285 Si02
#       8
#     8   4   8   4   8   8   4   8
#     4   9  19  32  51  77 105 135 170 213 262 310
#     4  11  20  32  52  85 109 136 168 222 274 306
#     4  11  21  35  54  77 108 138 176 212 260 319
#     4  11  22  31  53  82 110 136 179 214 267 320
#     4  11  19  34  56  78 107 135 172 215 266 308
#     4  11  21  35  53  78 107 139 176 218 261 316
#     4  10  22  35  50  73 110 146 172 208 264 316
#     4  10  21  33  50  78 106 142 167 210 264 314
#
# _framework density 17.902121999999999
#
# number of rings (size 3 to 8) (size 9 to 14) (size 15 to 20)
#    0.000    1.538    3.846    3.692    2.154    0.923 
#    0.000    0.000    0.000    0.000    0.000    0.000 
#    0.000   11.077    0.000    0.000    0.000    0.000 
#
# Total GULP energy -322445.399135 kJ/mol
# GULP energy per Si atom -12401.746121 kJ/mol
# Density = 1.786138 g / cm^3
# Si number density = 17.902122 Si / 1000 Ang^3
#
#
#
# Elastic Constant Matrix: (Units=GPa)
#
#
# Indices 1 2 3 4 5 6 
#
# 1 82.7996 44.3149 36.0167 0.0008 14.2320 0.0007
# 2 44.3149 117.4103 49.2659 -0.0047 3.5191 -0.0022
# 3 36.0167 49.2659 98.0044 -0.0200 24.1728 -0.0054
# 4 0.0008 -0.0047 -0.0200 21.6315 -0.0014 -6.4904
# 5 14.2320 3.5191 24.1728 -0.0014 20.7364 0.0009
# 6 0.0007 -0.0022 -0.0054 -6.4904 0.0009 18.2723
#
#
#
# Elastic Compliance Matrix: (Units=1/GPa)
#
#
# Indices 1 2 3 4 5 6 
#
# 1 0.017300 -0.005793 -0.001066 -0.000004 -0.009648 -0.000003
# 2 -0.005793 0.013355 -0.007027 -0.000003 0.009901 -0.000002
# 3 -0.001066 -0.007027 0.019163 0.000019 -0.020414 0.000012
# 4 -0.000004 -0.000003 0.000019 0.051744 -0.000016 0.018380
# 5 -0.009648 0.009901 -0.020414 -0.000016 0.076963 -0.000014
# 6 -0.000003 -0.000002 0.000012 0.018380 -0.000014 0.061256
#
#
# Mechanical properties :
#
#
# Convention : Reuss Voigt Hill
#
# Bulk Modulus (GPa) = 45.35852 61.93436 53.64644
# Shear Modulus (GPa) = 18.18837 23.36915 20.77876
#
# Velocity S-wave (km/s) = 3.19092 3.61693 3.41058
# Velocity P-wave (km/s) = 6.24243 7.21901 6.74841
#
# Compressibility (1/GPa) = 0.02204657
#
# Stress axis : x y z
#
# Youngs Moduli (GPa) = 57.80400 74.87650 52.18451
#
# Poissons Ratio (x) = 0.43377 0.05563
# Poissons Ratio (y) = 0.33487 0.36668
# Poissons Ratio (z) = 0.06162 0.52613
#
# Static dielectric constant tensor:
#      x y z
#    x 3.157910 -0.000010 0.264910 
#    y -0.000010 3.479600 -0.000010 
#    z 0.264910 -0.000010 3.308220 
# 
# 
# High freq. dielectric constant tensor:
#      x y z
#    x 1.671530 0.000000 0.028420 
#    y 0.000000 1.702950 0.000000 
#    z 0.028420 0.000000 1.682550 
# 
# From -- ./inp_files/133384.got.cif
#   From: 2010.06.25/outbox.cif.g09.slc.cpg/sg12_67_cif.got.tgz:133384.got - 2010.06.28 00:19:55.
