data_PCOD8105708
_publ_section_title
;
Structure prediction by ZEFSAII (Michael W. Deem and Ramdas Pophale) SiO2 
 PCOD8105708
Probable space group: C 2/M
;
_chemical_formula_sum "Si O2"
_cell_formula_units_Z 44
_cell_length_a 30.187482
_cell_length_b 15.991724
_cell_length_c 15.344660
_cell_angle_alpha 90.000000
_cell_angle_beta 161.468785
_cell_angle_gamma 90.000000
_cell_volume 2354.303186
_symmetry_space_group_name_H-M "C 2/M"
_symmetry_group_IT_number 12
_symmetry_cell_setting 'monoclinic'
loop_
_space_group_symop_operation_xyz
x,y,z
-x,y,-z
-x,-y,-z
x,-y,z
1/2+x,1/2+y,z
1/2-x,1/2+y,-z
1/2-x,1/2-y,-z
1/2+x,1/2-y,z
loop_
_atom_site_type_symbol
_atom_site_label
_atom_site_fract_x
_atom_site_fract_y
_atom_site_fract_z
Si Si1 0.500000 0.804231 0.000000
Si Si2 0.742272 0.769911 0.775358
Si Si3 0.455650 0.716549 0.736503
Si Si4 0.573329 0.905959 0.547020
Si Si5 0.225207 0.592794 0.335143
Si Si6 0.324280 0.092340 0.950550
O O1 0.521541 0.748941 0.124527
O O2 0.639564 0.858667 0.249095
O O3 0.646467 0.776098 0.510442
O O4 0.694768 0.838492 0.757411
O O5 0.730691 0.675334 0.795839
O O6 0.899878 0.793037 0.044872
O O7 0.380068 0.627402 0.606506
O O8 0.500000 0.880955 0.500000
O O9 0.465386 0.901054 0.266975
O O10 0.636285 0.000000 0.671068
O O11 0.243551 0.500000 0.404519
O O12 0.137553 0.597432 0.081030
O O13 0.253002 0.000000 0.836599
#
# Coordination Sequence:
#
# PCOD8105708 Si02
#       6
#     4   8   8   8   8   8
#     4  12  19  36  59  78 114 152 194 232 279 342
#     4  11  20  39  60  85 112 156 189 230 291 343
#     4  11  22  36  59  83 114 150 195 232 286 331
#     4  10  21  37  60  89 116 146 188 234 283 345
#     4  10  21  35  55  81 111 150 194 237 278 333
#     4   9  18  36  57  78 112 150 188 228 275 342
#
# _framework density 18.689181999999999
#
# number of rings (size 3 to 8) (size 9 to 14) (size 15 to 20)
#    0.000    1.636    5.455    0.818    0.000    1.455 
#    0.000    1.364    0.000    0.545    0.000    0.000 
#    0.000    0.000    0.000    0.000    0.000    0.000 
#
# Total GULP energy -272632.852526 kJ/mol
# GULP energy per Si atom -12392.402388 kJ/mol
# Density = 1.864664 g / cm^3
# Si number density = 18.689182 Si / 1000 Ang^3
#
#
#
# Elastic Constant Matrix: (Units=GPa)
#
#
# Indices 1 2 3 4 5 6 
#
# 1 81.5395 68.8087 42.6790 0.0000 20.2489 0.0000
# 2 68.8087 140.8279 43.0297 0.0000 16.1844 0.0000
# 3 42.6790 43.0297 89.9568 0.0000 18.0576 0.0000
# 4 0.0000 0.0000 0.0000 23.6225 0.0000 7.4010
# 5 20.2489 16.1844 18.0576 0.0000 19.2508 0.0000
# 6 0.0000 0.0000 0.0000 7.4010 0.0000 0.1162
#
#
#
# Elastic Compliance Matrix: (Units=1/GPa)
#
#
# Indices 1 2 3 4 5 6 
#
# 1 0.027113 -0.009941 -0.005003 0.000000 -0.015468 0.000000
# 2 -0.009941 0.012221 -0.001436 0.000000 0.001529 0.000000
# 3 -0.005003 -0.001436 0.015866 0.000000 -0.008412 0.000000
# 4 0.000000 0.000000 0.000000 -0.002232 0.000000 0.142242
# 5 -0.015468 0.001529 -0.008412 0.000000 0.074821 0.000000
# 6 0.000000 0.000000 0.000000 0.142242 0.000000 -0.454009
#
#
# Mechanical properties :
#
#
# Convention : Reuss Voigt Hill
#
# Bulk Modulus (GPa) = 44.56616 69.03988 56.80302
# Shear Modulus (GPa) = -17.48376 19.11835 0.81730
#
# Velocity S-wave (km/s) = -3.06191 3.20185 0.66201
# Velocity P-wave (km/s) = 3.37599 7.11972 5.57170
#
# Compressibility (1/GPa) = 0.02243855
#
# Stress axis : x y z
#
# Youngs Moduli (GPa) = 36.88285 81.82494 63.02811
#
# Poissons Ratio (x) = 0.81342 0.31535
# Poissons Ratio (y) = 0.36665 0.09054
# Poissons Ratio (z) = 0.18454 0.11754
#
# Static dielectric constant tensor:
#      x y z
#    x 3.349450 0.000000 -0.048980 
#    y 0.000000 3.866910 0.000000 
#    z -0.048980 0.000000 3.418580 
# 
# 
# High freq. dielectric constant tensor:
#      x y z
#    x 1.711000 0.000000 -0.013660 
#    y 0.000000 1.737060 0.000000 
#    z -0.013660 0.000000 1.711040 
# 
# From -- ./inp_files/251680.got.cif
#   From: 2010.06.25/outbox.cif.g09.slc.cpg/sg12_126_cif.got.tgz:251680.got - 2010.06.28 00:19:55.
