data_PCOD8105423
_publ_section_title
;
Structure prediction by ZEFSAII (Michael W. Deem and Ramdas Pophale) SiO2 
 PCOD8105423
Probable space group: C 2/M
;
_chemical_formula_sum "Si O2"
_cell_formula_units_Z 60
_cell_length_a 23.683357
_cell_length_b 27.743432
_cell_length_c 14.345701
_cell_angle_alpha 90.000000
_cell_angle_beta 161.091696
_cell_angle_gamma 90.000000
_cell_volume 3054.522452
_symmetry_space_group_name_H-M "C 2/M"
_symmetry_group_IT_number 12
_symmetry_cell_setting 'monoclinic'
loop_
_space_group_symop_operation_xyz
x,y,z
-x,y,-z
-x,-y,-z
x,-y,z
1/2+x,1/2+y,z
1/2-x,1/2+y,-z
1/2-x,1/2-y,-z
1/2+x,1/2-y,z
loop_
_atom_site_type_symbol
_atom_site_label
_atom_site_fract_x
_atom_site_fract_y
_atom_site_fract_z
Si Si1 0.593254 0.902719 0.547611
Si Si2 0.531298 0.443819 0.884776
Si Si3 0.085392 0.243177 0.873405
Si Si4 0.238565 0.586563 0.058519
Si Si5 0.570125 0.553990 0.475862
Si Si6 0.500000 0.373526 0.000000
Si Si7 0.148800 0.814107 0.800492
Si Si8 0.230255 0.308658 0.675063
O O1 0.500000 0.907564 0.500000
O O2 0.631834 0.846167 0.588456
O O3 0.764850 0.934848 0.811146
O O4 0.463229 0.928215 0.268693
O O5 0.500788 0.500000 0.862673
O O6 0.432021 0.429432 0.634540
O O7 0.452482 0.408487 0.839686
O O8 0.062420 0.199391 0.764690
O O9 0.909496 0.275236 0.598078
O O10 0.253729 0.270783 0.098006
O O11 0.132760 0.223374 0.050251
O O12 0.375245 0.554491 0.214338
O O13 0.294495 0.587105 0.254772
O O14 0.229688 0.639681 0.997253
O O15 0.641192 0.500000 0.594671
O O16 0.665014 0.339291 0.238318
O O17 0.000000 0.833083 0.500000
#
# Coordination Sequence:
#
# PCOD8105423 Si02
#       8
#     8   8   8   8   8   4   8   8
#     4  11  21  34  56  93 127 156 192 242 296 356
#     4  10  22  41  64  86 114 156 201 247 302 359
#     4  11  23  36  57  87 123 155 194 242 294 353
#     4  11  19  32  55  86 131 158 185 226 291 362
#     4  10  21  34  54  87 123 160 190 230 293 365
#     4  10  25  44  64  84 110 154 216 264 297 332
#     4  11  20  31  55  91 122 160 191 222 289 368
#     4  11  24  40  60  84 119 157 203 253 293 345
#
# _framework density 19.643004999999999
#
# number of rings (size 3 to 8) (size 9 to 14) (size 15 to 20)
#    0.000    1.333    5.333    1.800    3.733    1.867 
#    0.000    0.000    0.000    3.200    0.000    8.400 
#    0.000    0.000    0.000    0.000    0.000    0.000 
#
# Total GULP energy -371856.314795 kJ/mol
# GULP energy per Si atom -12395.210493 kJ/mol
# Density = 1.959830 g / cm^3
# Si number density = 19.643005 Si / 1000 Ang^3
#
#
#
# Elastic Constant Matrix: (Units=GPa)
#
#
# Indices 1 2 3 4 5 6 
#
# 1 113.1315 47.5760 50.8026 0.0000 -9.2754 0.0000
# 2 47.5760 86.3884 38.6233 0.0000 -8.4449 0.0000
# 3 50.8026 38.6233 104.6151 0.0002 -19.4923 0.0001
# 4 0.0000 0.0000 0.0002 19.8535 0.0001 -1.8080
# 5 -9.2754 -8.4449 -19.4923 0.0001 27.4454 0.0000
# 6 0.0000 0.0000 0.0001 -1.8080 0.0000 32.6133
#
#
#
# Elastic Compliance Matrix: (Units=1/GPa)
#
#
# Indices 1 2 3 4 5 6 
#
# 1 0.013000 -0.005201 -0.004463 0.000000 -0.000377 0.000000
# 2 -0.005201 0.015957 -0.003202 0.000000 0.000878 0.000000
# 3 -0.004463 -0.003202 0.014342 0.000000 0.007692 0.000000
# 4 0.000000 0.000000 0.000000 0.050625 0.000000 0.002807
# 5 -0.000377 0.000878 0.007692 0.000000 0.042042 0.000000
# 6 0.000000 0.000000 0.000000 0.002807 0.000000 0.030818
#
#
# Mechanical properties :
#
#
# Convention : Reuss Voigt Hill
#
# Bulk Modulus (GPa) = 56.92525 64.23763 60.58144
# Shear Modulus (GPa) = 25.20542 27.12462 26.16502
#
# Velocity S-wave (km/s) = 3.58603 3.72005 3.65365
# Velocity P-wave (km/s) = 6.79625 7.15718 6.97905
#
# Compressibility (1/GPa) = 0.01756690
#
# Stress axis : x y z
#
# Youngs Moduli (GPa) = 76.92565 62.66746 69.72748
#
# Poissons Ratio (x) = 0.32591 0.31119
# Poissons Ratio (y) = 0.40006 0.22328
# Poissons Ratio (z) = 0.34331 0.20067
#
# Static dielectric constant tensor:
#      x y z
#    x 3.428140 0.000000 -0.227170 
#    y 0.000000 3.619530 0.000000 
#    z -0.227170 0.000000 3.680980 
# 
# 
# High freq. dielectric constant tensor:
#      x y z
#    x 1.738400 0.000000 -0.023840 
#    y 0.000000 1.773050 0.000000 
#    z -0.023840 0.000000 1.762930 
# 
# From -- ./inp_files/242375.got.cif
#   From: 2010.06.25/outbox.cif.g09.slc.cpg/sg12_122_cif.got.tgz:242375.got - 2010.06.28 00:19:55.
