data_PCOD8105395
_publ_section_title
;
Structure prediction by ZEFSAII (Michael W. Deem and Ramdas Pophale) SiO2 
 PCOD8105395
Probable space group: C 2/M
;
_chemical_formula_sum "Si O2"
_cell_formula_units_Z 56
_cell_length_a 18.781330
_cell_length_b 11.782392
_cell_length_c 14.142842
_cell_angle_alpha 90.000000
_cell_angle_beta 62.784746
_cell_angle_gamma 90.000000
_cell_volume 2783.185667
_symmetry_space_group_name_H-M "C 2/M"
_symmetry_group_IT_number 12
_symmetry_cell_setting 'monoclinic'
loop_
_space_group_symop_operation_xyz
x,y,z
-x,y,-z
-x,-y,-z
x,-y,z
1/2+x,1/2+y,z
1/2-x,1/2+y,-z
1/2-x,1/2-y,-z
1/2+x,1/2-y,z
loop_
_atom_site_type_symbol
_atom_site_label
_atom_site_fract_x
_atom_site_fract_y
_atom_site_fract_z
Si Si1 0.376340 0.000000 0.045111
Si Si2 0.271566 0.786098 0.123697
Si Si3 0.094175 0.283172 0.696968
Si Si4 0.930962 0.131228 0.466193
Si Si5 0.528568 0.000000 0.822875
Si Si6 0.977209 0.128198 0.115366
Si Si7 0.743450 0.367403 0.343395
Si Si8 0.153075 0.872449 0.055249
O O1 0.325987 0.111029 0.056283
O O2 0.403451 0.000000 0.138026
O O3 0.444642 0.000000 0.925376
O O4 0.250066 0.790479 0.246409
O O5 0.189017 0.792543 0.114952
O O6 0.319438 0.671702 0.065853
O O7 0.060706 0.214792 0.627577
O O8 0.037197 0.390744 0.750098
O O9 0.090160 0.202859 0.792387
O O10 0.186356 0.324879 0.628117
O O11 0.843356 0.153227 0.561005
O O12 0.000000 0.161105 0.500000
O O13 0.939877 0.000000 0.427834
O O14 0.057898 0.130445 0.128226
O O15 0.944566 0.000000 0.121649
O O16 0.000000 0.182167 0.000000
O O17 0.755619 0.500000 0.311155
O O18 0.184984 0.000000 0.046664
#
# Coordination Sequence:
#
# PCOD8105395 Si02
#       8
#     4   8   8   8   4   8   8   8
#     4  11  20  38  56  96 117 170 198 254 289 379
#     4  11  19  35  59  83 121 159 206 251 305 363
#     4  12  21  40  63  94 121 164 203 260 306 374
#     4  10  25  45  67  93 121 157 213 266 315 364
#     4  11  24  34  65  88 132 156 211 238 309 369
#     4  10  22  36  56  86 125 163 201 249 309 365
#     4  11  21  40  66  90 118 159 207 262 309 366
#     4  10  21  34  52  84 123 164 201 248 303 372
#
# _framework density 20.120827999999999
#
# number of rings (size 3 to 8) (size 9 to 14) (size 15 to 20)
#    0.000    1.286    3.571    2.571    4.000    0.000 
#    0.000    1.071    1.571    0.000    0.000    0.000 
#    0.000    0.000    0.000    0.000    0.000    0.000 
#
# Total GULP energy -347205.307624 kJ/mol
# GULP energy per Si atom -12400.189558 kJ/mol
# Density = 2.007503 g / cm^3
# Si number density = 20.120828 Si / 1000 Ang^3
#
#
#
# Elastic Constant Matrix: (Units=GPa)
#
#
# Indices 1 2 3 4 5 6 
#
# 1 71.3149 16.2518 32.4116 0.0000 -0.4323 0.0000
# 2 16.2518 78.0589 42.9823 0.0000 1.9397 0.0000
# 3 32.4116 42.9823 98.6156 0.0000 2.5054 0.0000
# 4 0.0000 0.0000 0.0000 33.2234 0.0000 -0.3038
# 5 -0.4323 1.9397 2.5054 0.0000 31.4510 0.0000
# 6 0.0000 0.0000 0.0000 -0.3038 0.0000 30.6437
#
#
#
# Elastic Compliance Matrix: (Units=1/GPa)
#
#
# Indices 1 2 3 4 5 6 
#
# 1 0.016520 -0.000601 -0.005185 0.000000 0.000677 0.000000
# 2 -0.000601 0.016885 -0.007149 0.000000 -0.000480 0.000000
# 3 -0.005185 -0.007149 0.014981 0.000000 -0.000824 0.000000
# 4 0.000000 0.000000 0.000000 0.030102 0.000000 0.000298
# 5 0.000677 -0.000480 -0.000824 0.000000 0.031900 0.000000
# 6 0.000000 0.000000 0.000000 0.000298 0.000000 0.032636
#
#
# Mechanical properties :
#
#
# Convention : Reuss Voigt Hill
#
# Bulk Modulus (GPa) = 44.41465 47.92009 46.16737
# Shear Modulus (GPa) = 28.34465 29.48653 28.91559
#
# Velocity S-wave (km/s) = 3.75737 3.83230 3.79502
# Velocity P-wave (km/s) = 6.39888 6.59166 6.49598
#
# Compressibility (1/GPa) = 0.02251510
#
# Stress axis : x y z
#
# Youngs Moduli (GPa) = 60.53343 59.22498 66.74911
#
# Poissons Ratio (x) = 0.03562 0.34607
# Poissons Ratio (y) = 0.03640 0.47722
# Poissons Ratio (z) = 0.31384 0.42343
#
# Static dielectric constant tensor:
#      x y z
#    x 3.683100 0.000000 -0.084650 
#    y 0.000000 3.740990 0.000000 
#    z -0.084650 0.000000 3.499160 
# 
# 
# High freq. dielectric constant tensor:
#      x y z
#    x 1.791650 0.000000 -0.009900 
#    y 0.000000 1.783600 0.000000 
#    z -0.009900 0.000000 1.771430 
# 
# From -- ./inp_files/223759.got.cif
#   From: 2010.06.25/outbox.cif.g09.slc.cpg/sg12_112_cif.got.tgz:223759.got - 2010.06.28 00:19:55.
