data_PCOD8105581
_publ_section_title
;
Structure prediction by ZEFSAII (Michael W. Deem and Ramdas Pophale) SiO2 
 PCOD8105581
Probable space group: C 2/M
;
_chemical_formula_sum "Si O2"
_cell_formula_units_Z 64
_cell_length_a 15.388559
_cell_length_b 8.864335
_cell_length_c 24.116269
_cell_angle_alpha 90.000000
_cell_angle_beta 90.929297
_cell_angle_gamma 90.000000
_cell_volume 3289.251698
_symmetry_space_group_name_H-M "C 2/M"
_symmetry_group_IT_number 12
_symmetry_cell_setting 'monoclinic'
loop_
_space_group_symop_operation_xyz
x,y,z
-x,y,-z
-x,-y,-z
x,-y,z
1/2+x,1/2+y,z
1/2-x,1/2+y,-z
1/2-x,1/2-y,-z
1/2+x,1/2-y,z
loop_
_atom_site_type_symbol
_atom_site_label
_atom_site_fract_x
_atom_site_fract_y
_atom_site_fract_z
Si Si1 0.421273 0.822910 0.372196
Si Si2 0.642849 0.829933 0.741414
Si Si3 0.261576 0.821843 0.440681
Si Si4 0.005873 0.678980 0.062730
Si Si5 0.114553 0.674917 0.367210
Si Si6 0.648293 0.819847 0.862011
Si Si7 0.153199 0.169705 0.258847
Si Si8 0.343731 0.321977 0.866616
O O1 0.404264 0.747882 0.311092
O O2 0.352677 0.759816 0.416425
O O3 0.519612 0.791764 0.392732
O O4 0.402902 0.000000 0.365676
O O5 0.623309 0.752022 0.800857
O O6 0.744564 0.826825 0.730186
O O7 0.608095 0.000000 0.745091
O O8 0.250000 0.750000 0.500000
O O9 0.183116 0.777343 0.399640
O O10 0.262443 0.000000 0.447614
O O11 0.007678 0.500000 0.064648
O O12 0.921276 0.741251 0.094440
O O13 0.093846 0.738433 0.090374
O O14 0.000000 0.739235 0.000000
O O15 0.139589 0.500000 0.373909
O O16 0.109224 0.717094 0.302113
O O17 0.745481 0.767497 0.879491
O O18 0.648828 0.000000 0.858107
O O19 0.131147 0.223345 0.196152
O O20 0.118341 0.000000 0.268351
O O21 0.352673 0.500000 0.874719
#
# Coordination Sequence:
#
# PCOD8105581 Si02
#       8
#     8   8   8   8   8   8   8   8
#     4   9  19  34  56  83 111 147 185 217 263 332
#     4   8  13  28  54  78 101 141 186 214 256 329
#     4  11  23  43  64  81 111 151 188 228 271 320
#     4  10  21  35  52  78 110 143 182 230 280 325
#     4  11  22  35  57  90 116 143 186 227 269 325
#     4   8  16  31  52  75 105 144 183 218 265 336
#     4   9  17  33  56  80 111 145 180 225 277 327
#     4   9  19  35  55  78 104 143 189 226 269 329
#
# _framework density 19.457312999999999
#
# number of rings (size 3 to 8) (size 9 to 14) (size 15 to 20)
#    0.000    2.625    1.250    2.250    1.750    1.750 
#    0.000    5.625    0.000    0.750    0.000    0.000 
#    0.000    0.000    0.000    0.000    0.000    0.000 
#
# Total GULP energy -396644.039630 kJ/mol
# GULP energy per Si atom -12395.126238 kJ/mol
# Density = 1.941303 g / cm^3
# Si number density = 19.457313 Si / 1000 Ang^3
#
#
#
# Elastic Constant Matrix: (Units=GPa)
#
#
# Indices 1 2 3 4 5 6 
#
# 1 106.5319 22.3766 61.5441 0.0000 -19.2612 0.0000
# 2 22.3766 32.1558 25.0468 0.0000 -4.0296 0.0000
# 3 61.5441 25.0468 130.9141 0.0000 -18.9680 0.0000
# 4 0.0000 0.0000 0.0000 26.0130 0.0000 5.2019
# 5 -19.2612 -4.0296 -18.9680 0.0000 28.7198 0.0000
# 6 0.0000 0.0000 0.0000 5.2019 0.0000 23.1709
#
#
#
# Elastic Compliance Matrix: (Units=1/GPa)
#
#
# Indices 1 2 3 4 5 6 
#
# 1 0.014390 -0.005493 -0.004896 0.000000 0.005647 0.000000
# 2 -0.005493 0.038649 -0.005043 0.000000 -0.001591 0.000000
# 3 -0.004896 -0.005043 0.011420 0.000000 0.003551 0.000000
# 4 0.000000 0.000000 0.000000 0.040249 0.000000 -0.009036
# 5 0.005647 -0.001591 0.003551 0.000000 0.040728 0.000000
# 6 0.000000 0.000000 0.000000 -0.009036 0.000000 0.045186
#
#
# Mechanical properties :
#
#
# Convention : Reuss Voigt Hill
#
# Bulk Modulus (GPa) = 29.76546 54.17075 41.96811
# Shear Modulus (GPa) = 21.48843 26.28971 23.88907
#
# Velocity S-wave (km/s) = 3.32684 3.67978 3.50775
# Velocity P-wave (km/s) = 5.48527 6.77906 6.16619
#
# Compressibility (1/GPa) = 0.03359598
#
# Stress axis : x y z
#
# Youngs Moduli (GPa) = 69.49361 25.87369 87.56936
#
# Poissons Ratio (x) = 0.14211 0.42873
# Poissons Ratio (y) = 0.38169 0.44161
# Poissons Ratio (z) = 0.34023 0.13048
#
# Static dielectric constant tensor:
#      x y z
#    x 3.609750 0.000000 -0.134280 
#    y 0.000000 3.106620 0.000000 
#    z -0.134280 0.000000 3.828850 
# 
# 
# High freq. dielectric constant tensor:
#      x y z
#    x 1.762490 0.000000 -0.002090 
#    y 0.000000 1.712190 0.000000 
#    z -0.002090 0.000000 1.763540 
# 
# From -- ./inp_files/338686.got.cif
#   From: 2010.06.25/outbox.cif.g09.slc.cpg/sg12_170_cif.got.tgz:338686.got - 2010.06.28 00:19:55.
