data_PCOD8105028
_publ_section_title
;
Structure prediction by ZEFSAII (Michael W. Deem and Ramdas Pophale) SiO2 
 PCOD8105028
Probable space group: C 2/M
;
_chemical_formula_sum "Si O2"
_cell_formula_units_Z 56
_cell_length_a 27.765305
_cell_length_b 8.462980
_cell_length_c 11.828583
_cell_angle_alpha 90.000000
_cell_angle_beta 109.341619
_cell_angle_gamma 90.000000
_cell_volume 2622.577266
_symmetry_space_group_name_H-M "C 2/M"
_symmetry_group_IT_number 12
_symmetry_cell_setting 'monoclinic'
loop_
_space_group_symop_operation_xyz
x,y,z
-x,y,-z
-x,-y,-z
x,-y,z
1/2+x,1/2+y,z
1/2-x,1/2+y,-z
1/2-x,1/2-y,-z
1/2+x,1/2-y,z
loop_
_atom_site_type_symbol
_atom_site_label
_atom_site_fract_x
_atom_site_fract_y
_atom_site_fract_z
Si Si1 0.156603 0.319728 0.563814
Si Si2 0.391893 0.314300 0.272106
Si Si3 0.496711 0.188027 0.368030
Si Si4 0.807756 0.684642 0.040652
Si Si5 0.742227 0.817863 0.370782
Si Si6 0.407538 0.817958 0.699808
Si Si7 0.155102 0.181298 0.159690
O O1 0.172913 0.500000 0.597697
O O2 0.109546 0.272384 0.606802
O O3 0.201806 0.202925 0.640095
O O4 0.141557 0.297626 0.420669
O O5 0.393083 0.500000 0.286994
O O6 0.445921 0.252909 0.265373
O O7 0.342899 0.266000 0.161360
O O8 0.500000 0.252185 0.500000
O O9 0.543390 0.252766 0.327055
O O10 0.497787 0.000000 0.369161
O O11 0.804847 0.500000 0.062926
O O12 0.750000 0.750000 0.000000
O O13 0.836068 0.713031 0.943775
O O14 0.750000 0.750000 0.500000
O O15 0.703627 0.705859 0.276346
O O16 0.724221 0.000000 0.353685
O O17 0.395623 0.729649 0.808846
O O18 0.416708 0.000000 0.736382
O O19 0.150361 0.000000 0.118530
#
# Coordination Sequence:
#
# PCOD8105028 Si02
#       7
#     8   8   8   8   8   8   8
#     4  11  21  37  60  89 126 168 212 261 319 383
#     4  12  25  41  64  97 133 169 217 269 326 386
#     4  10  20  40  66  95 131 174 220 268 325 387
#     4  12  26  48  73  96 128 170 221 270 323 388
#     4  12  23  36  55  86 124 164 208 257 316 383
#     4  10  21  38  63  92 128 169 214 263 320 384
#     4  12  25  42  64  92 130 170 213 268 329 387
#
# _framework density 21.353041000000001
#
# number of rings (size 3 to 8) (size 9 to 14) (size 15 to 20)
#    0.000    0.714    2.857    6.429    0.000    1.429 
#    0.000    0.714    0.000    4.286    0.000    0.000 
#    0.000    0.000    0.000    0.000    0.000    0.000 
#
# Total GULP energy -347176.070076 kJ/mol
# GULP energy per Si atom -12399.145360 kJ/mol
# Density = 2.130444 g / cm^3
# Si number density = 21.353041 Si / 1000 Ang^3
#
#
#
# Elastic Constant Matrix: (Units=GPa)
#
#
# Indices 1 2 3 4 5 6 
#
# 1 122.7971 19.6222 25.3888 0.0000 -8.2813 0.0000
# 2 19.6222 65.6520 8.5682 0.0000 -4.1324 0.0000
# 3 25.3888 8.5682 58.3841 0.0000 -12.7962 0.0000
# 4 0.0000 0.0000 0.0000 28.9937 0.0000 -1.4241
# 5 -8.2813 -4.1324 -12.7962 0.0000 38.2523 0.0000
# 6 0.0000 0.0000 0.0000 -1.4241 0.0000 37.5400
#
#
#
# Elastic Compliance Matrix: (Units=1/GPa)
#
#
# Indices 1 2 3 4 5 6 
#
# 1 0.009285 -0.002272 -0.003580 0.000000 0.000567 0.000000
# 2 -0.002272 0.016120 -0.001191 0.000000 0.000851 0.000000
# 3 -0.003580 -0.001191 0.020138 0.000000 0.005833 0.000000
# 4 0.000000 0.000000 0.000000 0.034555 0.000000 0.001311
# 5 0.000567 0.000851 0.005833 0.000000 0.028308 0.000000
# 6 0.000000 0.000000 0.000000 0.001311 0.000000 0.026688
#
#
# Mechanical properties :
#
#
# Convention : Reuss Voigt Hill
#
# Bulk Modulus (GPa) = 31.78996 39.33241 35.56118
# Shear Modulus (GPa) = 31.31548 33.84081 32.57815
#
# Velocity S-wave (km/s) = 3.83372 3.98530 3.91025
# Velocity P-wave (km/s) = 5.87509 6.29578 6.08907
#
# Compressibility (1/GPa) = 0.03145648
#
# Stress axis : x y z
#
# Youngs Moduli (GPa) = 107.70057 62.03490 49.65762
#
# Poissons Ratio (x) = 0.14096 0.17777
# Poissons Ratio (y) = 0.24472 0.05915
# Poissons Ratio (z) = 0.38556 0.07389
#
# Static dielectric constant tensor:
#      x y z
#    x 57.742000 0.000000 -17.744810 
#    y 0.000000 3.856320 0.000000 
#    z -17.744810 0.000000 9.701450 
# 
# 
# High freq. dielectric constant tensor:
#      x y z
#    x 1.858340 0.000000 -0.010940 
#    y 0.000000 1.833840 0.000000 
#    z -0.010940 0.000000 1.816850 
# 
# From -- ./inp_files/181035.got.cif
#   From: 2010.06.25/outbox.cif.g09.slc.cpg/sg12_91_cif.got.tgz:181035.got - 2010.06.28 00:19:55.
