data_PCOD8105568
_publ_section_title
;
Structure prediction by ZEFSAII (Michael W. Deem and Ramdas Pophale) SiO2 
 PCOD8105568
Probable space group: C 2/M
;
_chemical_formula_sum "Si O2"
_cell_formula_units_Z 48
_cell_length_a 15.017648
_cell_length_b 8.601327
_cell_length_c 18.783580
_cell_angle_alpha 90.000000
_cell_angle_beta 88.893675
_cell_angle_gamma 90.000000
_cell_volume 2425.854688
_symmetry_space_group_name_H-M "C 2/M"
_symmetry_group_IT_number 12
_symmetry_cell_setting 'monoclinic'
loop_
_space_group_symop_operation_xyz
x,y,z
-x,y,-z
-x,-y,-z
x,-y,z
1/2+x,1/2+y,z
1/2-x,1/2+y,-z
1/2-x,1/2-y,-z
1/2+x,1/2-y,z
loop_
_atom_site_type_symbol
_atom_site_label
_atom_site_fract_x
_atom_site_fract_y
_atom_site_fract_z
Si Si1 0.141994 0.317408 0.813566
Si Si2 0.508411 0.182247 0.078681
Si Si3 0.518609 0.819484 0.580553
Si Si4 0.326891 0.319128 0.335770
Si Si5 0.638172 0.319034 0.328670
Si Si6 0.657565 0.321466 0.165433
O O1 0.130290 0.500000 0.797456
O O2 0.129199 0.226455 0.740165
O O3 0.238381 0.284045 0.846038
O O4 0.068975 0.250112 0.869289
O O5 0.604750 0.218040 0.109759
O O6 0.494414 0.000000 0.073293
O O7 0.500000 0.256684 0.000000
O O8 0.500000 0.772340 0.500000
O O9 0.602451 0.718217 0.604011
O O10 0.431524 0.784257 0.627958
O O11 0.542603 0.000000 0.588109
O O12 0.303125 0.500000 0.336873
O O13 0.237631 0.222131 0.352317
O O14 0.620599 0.500000 0.343809
O O15 0.627422 0.278664 0.245643
O O16 0.636854 0.500000 0.149146
#
# Coordination Sequence:
#
# PCOD8105568 Si02
#       6
#     8   8   8   8   8   8
#     4   9  19  37  57  77 108 145 181 227 279 328
#     4  10  21  35  52  77 109 145 182 222 273 330
#     4  11  24  40  58  83 116 152 188 228 277 331
#     4  11  22  37  60  87 113 145 188 233 280 334
#     4  10  21  39  62  86 113 145 186 234 281 332
#     4   9  19  35  55  79 105 138 179 224 274 324
#
# _framework density 19.786839000000001
#
# number of rings (size 3 to 8) (size 9 to 14) (size 15 to 20)
#    0.000    2.000    0.000    4.500    0.000    9.667 
#    0.000    0.000    0.000    0.000    0.000    0.000 
#    0.000    0.000    0.000    0.000    0.000    0.000 
#
# Total GULP energy -297712.457974 kJ/mol
# GULP energy per Si atom -12404.685749 kJ/mol
# Density = 1.974180 g / cm^3
# Si number density = 19.786839 Si / 1000 Ang^3
#
#
#
# Elastic Constant Matrix: (Units=GPa)
#
#
# Indices 1 2 3 4 5 6 
#
# 1 79.1190 5.9608 39.6807 0.0000 19.6102 0.0000
# 2 5.9608 40.8409 21.3111 0.0000 6.8408 0.0000
# 3 39.6807 21.3111 82.0505 0.0000 25.3439 0.0000
# 4 0.0000 0.0000 0.0000 21.7336 0.0000 4.8698
# 5 19.6102 6.8408 25.3439 0.0000 21.9141 0.0000
# 6 0.0000 0.0000 0.0000 4.8698 0.0000 34.1653
#
#
#
# Elastic Compliance Matrix: (Units=1/GPa)
#
#
# Indices 1 2 3 4 5 6 
#
# 1 0.018011 0.002286 -0.006387 0.000000 -0.009445 0.000000
# 2 0.002286 0.028618 -0.008008 0.000000 -0.001718 0.000000
# 3 -0.006387 -0.008008 0.023054 0.000000 -0.018448 0.000000
# 4 0.000000 0.000000 0.000000 0.047530 0.000000 -0.006775
# 5 -0.009445 -0.001718 -0.018448 0.000000 0.075956 0.000000
# 6 0.000000 0.000000 0.000000 -0.006775 0.000000 0.030235
#
#
# Mechanical properties :
#
#
# Convention : Reuss Voigt Hill
#
# Bulk Modulus (GPa) = 21.99452 37.32397 29.65924
# Shear Modulus (GPa) = 19.02756 24.56645 21.79700
#
# Velocity S-wave (km/s) = 3.10438 3.52739 3.32262
# Velocity P-wave (km/s) = 4.89790 5.95768 5.45359
#
# Compressibility (1/GPa) = 0.04546587
#
# Stress axis : x y z
#
# Youngs Moduli (GPa) = 55.52127 34.94317 43.37566
#
# Poissons Ratio (x) = -0.07988 0.27703
# Poissons Ratio (y) = -0.12692 0.34735
# Poissons Ratio (z) = 0.35461 0.27982
#
# Static dielectric constant tensor:
#      x y z
#    x 3.642380 0.000000 -0.067740 
#    y 0.000000 3.454190 0.000000 
#    z -0.067740 0.000000 3.668330 
# 
# 
# High freq. dielectric constant tensor:
#      x y z
#    x 1.781730 0.000000 0.002400 
#    y 0.000000 1.764720 0.000000 
#    z 0.002400 0.000000 1.766600 
# 
# From -- ./inp_files/267637.got.cif
#   From: 2010.06.25/outbox.cif.g09.slc.cpg/sg12_134_cif.got.tgz:267637.got - 2010.06.28 00:19:55.
