data_PCOD8105520
_publ_section_title
;
Structure prediction by ZEFSAII (Michael W. Deem and Ramdas Pophale) SiO2 
 PCOD8105520
Probable space group: C 2/M
;
_chemical_formula_sum "Si O2"
_cell_formula_units_Z 56
_cell_length_a 9.387071
_cell_length_b 18.355755
_cell_length_c 22.846925
_cell_angle_alpha 90.000000
_cell_angle_beta 128.046589
_cell_angle_gamma 90.000000
_cell_volume 3100.174373
_symmetry_space_group_name_H-M "C 2/M"
_symmetry_group_IT_number 12
_symmetry_cell_setting 'monoclinic'
loop_
_space_group_symop_operation_xyz
x,y,z
-x,y,-z
-x,-y,-z
x,-y,z
1/2+x,1/2+y,z
1/2-x,1/2+y,-z
1/2-x,1/2-y,-z
1/2+x,1/2-y,z
loop_
_atom_site_type_symbol
_atom_site_label
_atom_site_fract_x
_atom_site_fract_y
_atom_site_fract_z
Si Si1 0.976051 0.916217 0.928036
Si Si2 0.191942 0.583783 0.071964
Si Si3 0.238852 0.824778 0.214450
Si Si4 0.595501 0.324778 0.785550
Si Si5 0.338864 0.413334 0.500000
Si Si6 0.623471 0.415467 0.358819
Si Si7 0.452985 0.915467 0.358819
O O1 0.821010 0.869093 0.858018
O O2 0.166382 0.906250 0.944255
O O3 0.912325 0.000000 0.910719
O O4 0.000000 0.887705 0.000000
O O5 0.180169 0.500000 0.089281
O O6 0.246957 0.630907 0.141982
O O7 0.000000 0.612295 0.000000
O O8 0.325970 0.750000 0.217314
O O9 0.388677 0.871961 0.285811
O O10 0.069143 0.808788 0.212762
O O11 0.531243 0.371961 0.714189
O O12 0.500000 0.383298 0.500000
O O13 0.335148 0.500000 0.500000
O O14 0.368024 0.384497 0.573167
O O15 0.148525 0.384497 0.426834
O O16 0.568255 0.500000 0.343295
O O17 0.819043 0.403597 0.379362
O O18 0.461630 0.000000 0.343295
#
# Coordination Sequence:
#
# PCOD8105520 Si02
#       7
#     8   8   8   8   8   8   8
#     4   9  18  34  55  77 100 128 165 207 248 291
#     4   9  18  34  55  77 100 128 165 207 248 291
#     4  10  21  35  51  73 102 134 167 204 246 293
#     4  10  21  35  51  73 102 134 167 204 246 293
#     4   9  17  29  48  77 106 127 155 203 256 297
#     4   9  17  32  54  75  96 128 169 207 244 291
#     4   9  17  32  54  75  96 128 169 207 244 291
#
# _framework density 18.063500000000001
#
# number of rings (size 3 to 8) (size 9 to 14) (size 15 to 20)
#    0.000    2.714    0.000    1.286    0.000    8.000 
#    0.000    3.571    0.000    8.571    0.000    0.000 
#    0.000    0.000    0.000    0.000    0.000    0.000 
#
# Total GULP energy -347258.917338 kJ/mol
# GULP energy per Si atom -12402.104191 kJ/mol
# Density = 1.802239 g / cm^3
# Si number density = 18.063500 Si / 1000 Ang^3
#
#
#
# Elastic Constant Matrix: (Units=GPa)
#
#
# Indices 1 2 3 4 5 6 
#
# 1 74.5325 49.7653 85.0570 0.0000 0.0033 0.0000
# 2 49.7653 87.4822 81.4783 0.0000 0.0014 0.0000
# 3 85.0570 81.4783 199.6246 0.0000 0.0022 0.0000
# 4 0.0000 0.0000 0.0000 3.1455 0.0000 -0.0011
# 5 0.0033 0.0014 0.0022 0.0000 32.0711 0.0000
# 6 0.0000 0.0000 0.0000 -0.0011 0.0000 29.6628
#
#
#
# Elastic Compliance Matrix: (Units=1/GPa)
#
#
# Indices 1 2 3 4 5 6 
#
# 1 0.029313 -0.008135 -0.009169 0.000000 -0.000002 0.000000
# 2 -0.008135 0.020699 -0.004982 0.000000 0.000000 0.000000
# 3 -0.009169 -0.004982 0.010950 0.000000 0.000000 0.000000
# 4 0.000000 0.000000 0.000000 0.317917 0.000000 0.000012
# 5 -0.000002 0.000000 0.000000 0.000000 0.031181 0.000000
# 6 0.000000 0.000000 0.000000 0.000012 0.000000 0.033712
#
#
# Mechanical properties :
#
#
# Convention : Reuss Voigt Hill
#
# Bulk Modulus (GPa) = 61.01835 88.24894 74.63364
# Shear Modulus (GPa) = 10.12540 22.66512 16.39526
#
# Velocity S-wave (km/s) = 2.37015 3.54608 3.01598
# Velocity P-wave (km/s) = 6.42988 8.10723 7.31678
#
# Compressibility (1/GPa) = 0.01638851
#
# Stress axis : x y z
#
# Youngs Moduli (GPa) = 34.11478 48.31198 91.32476
#
# Poissons Ratio (x) = 0.39301 0.83740
# Poissons Ratio (y) = 0.27752 0.45501
# Poissons Ratio (z) = 0.31281 0.24070
#
# Static dielectric constant tensor:
#      x y z
#    x 3.317870 0.000000 0.000010 
#    y 0.000000 3.123060 0.000000 
#    z 0.000010 0.000000 3.538260 
# 
# 
# High freq. dielectric constant tensor:
#      x y z
#    x 1.694150 0.000000 0.000000 
#    y 0.000000 1.679060 0.000000 
#    z 0.000000 0.000000 1.714870 
# 
# From -- ./inp_files/300909.got.cif
#   From: 2010.06.25/outbox.cif.g09.slc.cpg/sg12_151_cif.got.tgz:300909.got - 2010.06.28 00:19:55.
