data_PCOD8105776
_publ_section_title
;
Structure prediction by ZEFSAII (Michael W. Deem and Ramdas Pophale) SiO2 
 PCOD8105776
Probable space group: C 2/M
;
_chemical_formula_sum "Si O2"
_cell_formula_units_Z 52
_cell_length_a 14.031778
_cell_length_b 19.249947
_cell_length_c 19.396671
_cell_angle_alpha 90.000000
_cell_angle_beta 31.329435
_cell_angle_gamma 90.000000
_cell_volume 2724.192020
_symmetry_space_group_name_H-M "C 2/M"
_symmetry_group_IT_number 12
_symmetry_cell_setting 'monoclinic'
loop_
_space_group_symop_operation_xyz
x,y,z
-x,y,-z
-x,-y,-z
x,-y,z
1/2+x,1/2+y,z
1/2-x,1/2+y,-z
1/2-x,1/2-y,-z
1/2+x,1/2-y,z
loop_
_atom_site_type_symbol
_atom_site_label
_atom_site_fract_x
_atom_site_fract_y
_atom_site_fract_z
Si Si1 0.941522 0.423475 0.126813
Si Si2 0.965552 0.500000 0.361625
Si Si3 0.590665 0.500000 0.669610
Si Si4 0.023702 0.136002 0.062570
Si Si5 0.186305 0.000000 0.769383
Si Si6 0.567752 0.733848 0.153568
Si Si7 0.950901 0.384752 0.798866
Si Si8 0.694058 0.379796 0.170119
O O1 0.897353 0.500000 0.124982
O O2 0.786889 0.373323 0.188672
O O3 0.935523 0.424555 0.212440
O O4 0.146675 0.401789 0.980662
O O5 0.757827 0.500000 0.513737
O O6 0.098993 0.500000 0.345020
O O7 0.001004 0.427448 0.299291
O O8 0.663437 0.500000 0.702115
O O9 0.472550 0.432581 0.727614
O O10 0.953200 0.189326 0.166771
O O11 0.903555 0.067160 0.140418
O O12 0.233464 0.114300 0.945803
O O13 0.000000 0.168793 0.000000
O O14 0.475970 0.804730 0.239529
O O15 0.610907 0.692854 0.197107
O O16 0.750000 0.750000 0.000000
#
# Coordination Sequence:
#
# PCOD8105776 Si02
#       8
#     8   4   4   8   4   8   8   8
#     4  11  19  33  62  91 118 143 187 248 305 351
#     4  12  26  41  59  84 113 164 208 256 277 335
#     4  12  23  41  62  83 117 160 211 240 285 336
#     4  11  20  33  62  92 124 151 186 240 309 360
#     4  12  21  38  62  89 115 156 205 250 290 339
#     4  10  21  35  56  92 124 158 176 237 308 364
#     4  11  22  38  55  89 126 149 191 241 306 348
#     4  11  20  36  58  91 117 150 195 234 296 363
#
# _framework density 19.088228999999998
#
# number of rings (size 3 to 8) (size 9 to 14) (size 15 to 20)
#    0.000    0.923    8.462    1.385    0.000    2.462 
#    0.000    2.308    0.000    0.000    0.000    0.000 
#    0.000    0.000    0.000    0.000    0.000    0.000 
#
# Total GULP energy -322162.367170 kJ/mol
# GULP energy per Si atom -12390.860276 kJ/mol
# Density = 1.904478 g / cm^3
# Si number density = 19.088229 Si / 1000 Ang^3
#
#
#
# Elastic Constant Matrix: (Units=GPa)
#
#
# Indices 1 2 3 4 5 6 
#
# 1 136.7943 32.3648 36.1085 -0.0386 -5.6121 -0.0122
# 2 32.3648 116.5109 31.9525 -0.1322 -4.0022 -0.0405
# 3 36.1085 31.9525 63.2450 -0.3266 -5.2473 -0.1174
# 4 -0.0386 -0.1322 -0.3266 -40.8208 0.0831 -14.5698
# 5 -5.6121 -4.0022 -5.2473 0.0831 15.4982 0.0244
# 6 -0.0122 -0.0405 -0.1174 -14.5698 0.0244 10.1269
#
#
#
# Elastic Compliance Matrix: (Units=1/GPa)
#
#
# Indices 1 2 3 4 5 6 
#
# 1 0.008787 -0.001217 -0.004284 0.000033 0.001417 0.000000
# 2 -0.001217 0.010144 -0.004372 0.000006 0.000699 -0.000004
# 3 -0.004284 -0.004372 0.020828 -0.000141 0.004372 0.000005
# 4 0.000033 0.000006 -0.000141 -0.016185 0.000089 -0.023287
# 5 0.001417 0.000699 0.004372 0.000089 0.066697 0.000023
# 6 0.000000 -0.000004 0.000005 -0.023287 0.000023 0.065243
#
#
# Mechanical properties :
#
#
# Convention : Reuss Voigt Hill
#
# Bulk Modulus (GPa) = 49.96826 57.48909 53.72868
# Shear Modulus (GPa) = 27.48256 11.36915 19.42586
#
# Velocity S-wave (km/s) = 3.79854 2.44316 3.19358
# Velocity P-wave (km/s) = 6.74336 6.17589 6.46585
#
# Compressibility (1/GPa) = 0.02001270
#
# Stress axis : x y z
#
# Youngs Moduli (GPa) = 113.80108 98.58017 48.01151
#
# Poissons Ratio (x) = 0.12001 0.20569
# Poissons Ratio (y) = 0.13853 0.20990
# Poissons Ratio (z) = 0.48754 0.43099
#
# Static dielectric constant tensor:
#      x y z
#    x 4.090000 -0.000040 0.087770 
#    y -0.000040 3.937280 0.000040 
#    z 0.087770 0.000040 2.978500 
# 
# 
# High freq. dielectric constant tensor:
#      x y z
#    x 1.769160 0.000000 0.000250 
#    y 0.000000 1.751240 0.000000 
#    z 0.000250 0.000000 1.673100 
# 
# From -- ./inp_files/311493.got.cif
#   From: 2010.06.25/outbox.cif.g09.slc.cpg/sg12_156_cif.got.tgz:311493.got - 2010.06.28 00:19:55.
