data_PCOD8105161
_publ_section_title
;
Structure prediction by ZEFSAII (Michael W. Deem and Ramdas Pophale) SiO2 
 PCOD8105161
Probable space group: C 2/M
;
_chemical_formula_sum "Si O2"
_cell_formula_units_Z 64
_cell_length_a 9.197618
_cell_length_b 28.933098
_cell_length_c 19.095280
_cell_angle_alpha 90.000000
_cell_angle_beta 41.233204
_cell_angle_gamma 90.000000
_cell_volume 3349.379651
_symmetry_space_group_name_H-M "C 2/M"
_symmetry_group_IT_number 12
_symmetry_cell_setting 'monoclinic'
loop_
_space_group_symop_operation_xyz
x,y,z
-x,y,-z
-x,-y,-z
x,-y,z
1/2+x,1/2+y,z
1/2-x,1/2+y,-z
1/2-x,1/2-y,-z
1/2+x,1/2-y,z
loop_
_atom_site_type_symbol
_atom_site_label
_atom_site_fract_x
_atom_site_fract_y
_atom_site_fract_z
Si Si1 0.780040 0.109461 0.040780
Si Si2 0.247708 0.875808 0.103738
Si Si3 0.982786 0.304792 0.802641
Si Si4 0.654737 0.052935 0.814598
Si Si5 0.734284 0.549467 0.379553
Si Si6 0.237101 0.354570 0.587470
Si Si7 0.785490 0.705474 0.532440
Si Si8 0.142887 0.211822 0.221863
O O1 0.690967 0.157875 0.105054
O O2 0.590111 0.070959 0.115167
O O3 0.860488 0.112171 0.931226
O O4 0.000000 0.092876 0.000000
O O5 0.225894 0.917252 0.168210
O O6 0.135630 0.829129 0.169020
O O7 0.500000 0.864334 0.000000
O O8 0.853547 0.260322 0.820400
O O9 0.129797 0.323009 0.685520
O O10 0.141961 0.289653 0.807711
O O11 0.798277 0.057937 0.691915
O O12 0.640235 0.000000 0.845742
O O13 0.500000 0.545335 0.500000
O O14 0.860808 0.500000 0.345051
O O15 0.859242 0.593265 0.368315
O O16 0.500000 0.353448 0.500000
O O17 0.174155 0.338309 0.532658
O O18 0.750000 0.750000 0.500000
O O19 0.574362 0.700326 0.656490
O O20 0.000000 0.713040 0.500000
#
# Coordination Sequence:
#
# PCOD8105161 Si02
#       8
#     8   8   8   8   8   8   8   8
#     4  11  25  42  59  89 125 157 208 264 314 366
#     4  10  22  42  61  86 122 156 211 263 303 360
#     4  12  24  39  60  88 120 167 209 251 308 365
#     4  10  20  41  70  94 121 159 206 254 311 375
#     4   9  18  33  63  99 122 151 196 244 300 366
#     4  11  20  36  62  86 126 159 194 255 304 357
#     4  12  24  38  57  90 123 159 203 249 301 364
#     4  12  24  39  61  87 122 165 210 251 300 371
#
# _framework density 19.108015999999999
#
# number of rings (size 3 to 8) (size 9 to 14) (size 15 to 20)
#    0.000    1.125    6.250    1.125    3.500    3.500 
#    0.000    0.000    0.000    0.375    0.000    0.000 
#    0.000    0.000    0.000    0.000    0.000    0.000 
#
# Total GULP energy -396676.583238 kJ/mol
# GULP energy per Si atom -12396.143226 kJ/mol
# Density = 1.906453 g / cm^3
# Si number density = 19.108016 Si / 1000 Ang^3
#
#
#
# Elastic Constant Matrix: (Units=GPa)
#
#
# Indices 1 2 3 4 5 6 
#
# 1 102.3958 31.6289 24.8182 0.0001 14.5635 0.0001
# 2 31.6289 153.8124 37.3437 0.0000 21.1241 0.0000
# 3 24.8182 37.3437 88.2745 0.0003 27.4521 0.0002
# 4 0.0001 0.0000 0.0003 -29.8473 -0.0002 -22.7305
# 5 14.5635 21.1241 27.4521 -0.0002 27.4181 -0.0001
# 6 0.0001 0.0000 0.0002 -22.7305 -0.0001 17.4728
#
#
#
# Elastic Compliance Matrix: (Units=1/GPa)
#
#
# Indices 1 2 3 4 5 6 
#
# 1 0.011039 -0.001465 -0.001469 0.000000 -0.003264 0.000000
# 2 -0.001465 0.007701 -0.001805 0.000000 -0.003348 0.000000
# 3 -0.001469 -0.001805 0.017179 0.000000 -0.015029 0.000000
# 4 0.000000 0.000000 0.000000 -0.016830 0.000000 -0.021894
# 5 -0.003264 -0.003348 -0.015029 0.000000 0.055833 0.000000
# 6 0.000000 0.000000 0.000000 -0.021894 0.000000 0.028749
#
#
# Mechanical properties :
#
#
# Convention : Reuss Voigt Hill
#
# Bulk Modulus (GPa) = 37.81973 59.11825 48.46899
# Shear Modulus (GPa) = 40.99669 19.72153 30.35911
#
# Velocity S-wave (km/s) = 4.63700 3.21613 3.99032
# Velocity P-wave (km/s) = 6.96453 6.69309 6.83016
#
# Compressibility (1/GPa) = 0.02644122
#
# Stress axis : x y z
#
# Youngs Moduli (GPa) = 90.58967 129.85977 58.21209
#
# Poissons Ratio (x) = 0.19025 0.08549
# Poissons Ratio (y) = 0.13272 0.10505
# Poissons Ratio (z) = 0.13304 0.23435
#
# Static dielectric constant tensor:
#      x y z
#    x 3.379240 0.000000 0.166570 
#    y 0.000000 4.092800 0.000000 
#    z 0.166570 0.000000 3.506290 
# 
# 
# High freq. dielectric constant tensor:
#      x y z
#    x 1.719230 0.000000 0.024700 
#    y 0.000000 1.756020 0.000000 
#    z 0.024700 0.000000 1.757160 
# 
# From -- ./inp_files/260332.got.cif
#   From: 2010.06.25/outbox.cif.g09.slc.cpg/sg12_131_cif.got.tgz:260332.got - 2010.06.28 00:19:55.
