data_PCOD8105481
_publ_section_title
;
Structure prediction by ZEFSAII (Michael W. Deem and Ramdas Pophale) SiO2 
 PCOD8105481
Probable space group: C 2/M
;
_chemical_formula_sum "Si O2"
_cell_formula_units_Z 56
_cell_length_a 19.617753
_cell_length_b 9.157001
_cell_length_c 24.586797
_cell_angle_alpha 90.000000
_cell_angle_beta 45.155585
_cell_angle_gamma 90.000000
_cell_volume 3131.595056
_symmetry_space_group_name_H-M "C 2/M"
_symmetry_group_IT_number 12
_symmetry_cell_setting 'monoclinic'
loop_
_space_group_symop_operation_xyz
x,y,z
-x,y,-z
-x,-y,-z
x,-y,z
1/2+x,1/2+y,z
1/2-x,1/2+y,-z
1/2-x,1/2-y,-z
1/2+x,1/2-y,z
loop_
_atom_site_type_symbol
_atom_site_label
_atom_site_fract_x
_atom_site_fract_y
_atom_site_fract_z
Si Si1 0.239094 0.670927 0.449151
Si Si2 0.929958 0.826343 0.697163
Si Si3 0.952232 0.327126 0.158089
Si Si4 0.716358 0.826306 0.828009
Si Si5 0.918083 0.672826 0.007190
Si Si6 0.553572 0.667602 0.526292
Si Si7 0.562810 0.670186 0.720054
O O1 0.226640 0.500000 0.466853
O O2 0.250000 0.750000 0.500000
O O3 0.147976 0.734167 0.468653
O O4 0.330799 0.704711 0.360621
O O5 0.822058 0.759663 0.757747
O O6 0.985320 0.770678 0.612456
O O7 0.986533 0.771569 0.718589
O O8 0.926081 0.000000 0.698384
O O9 0.948035 0.500000 0.168459
O O10 0.858861 0.274176 0.176031
O O11 0.955118 0.253284 0.214395
O O12 0.052100 0.278658 0.070793
O O13 0.721620 0.000000 0.823502
O O14 0.682316 0.774796 0.908462
O O15 0.921072 0.500000 0.007134
O O16 0.000000 0.736450 0.000000
O O17 0.500000 0.682004 0.500000
O O18 0.583035 0.500000 0.521848
O O19 0.547874 0.500000 0.739168
#
# Coordination Sequence:
#
# PCOD8105481 Si02
#       7
#     8   8   8   8   8   8   8
#     4  11  22  38  57  75 102 139 177 214 258 310
#     4   9  17  32  48  69 101 134 166 200 247 300
#     4   9  17  29  51  79 100 122 165 213 246 289
#     4   8  14  26  50  76  97 127 166 208 250 288
#     4   7  11  23  43  72 102 123 154 206 253 285
#     4  10  21  36  56  80 106 133 171 219 257 305
#     4  10  21  35  49  69 103 136 163 200 248 306
#
# _framework density 17.882259999999999
#
# number of rings (size 3 to 8) (size 9 to 14) (size 15 to 20)
#    0.000    2.857    1.429    2.143    2.000    1.429 
#    0.000    0.714    0.000    4.714    0.000    0.000 
#    0.000    0.000    0.000    0.000    0.000    0.000 
#
# Total GULP energy -346919.330008 kJ/mol
# GULP energy per Si atom -12389.976072 kJ/mol
# Density = 1.784156 g / cm^3
# Si number density = 17.882260 Si / 1000 Ang^3
#
#
#
# Elastic Constant Matrix: (Units=GPa)
#
#
# Indices 1 2 3 4 5 6 
#
# 1 94.9795 19.8338 68.5515 0.0000 7.0255 -0.0001
# 2 19.8338 25.1204 28.6354 0.0000 9.4614 -0.0003
# 3 68.5515 28.6354 136.8408 0.0000 17.0512 0.0000
# 4 0.0000 0.0000 0.0000 18.5936 0.0000 7.7586
# 5 7.0255 9.4614 17.0512 0.0000 33.3503 0.0000
# 6 -0.0001 -0.0003 0.0000 7.7586 0.0000 23.4571
#
#
#
# Elastic Compliance Matrix: (Units=1/GPa)
#
#
# Indices 1 2 3 4 5 6 
#
# 1 0.017032 -0.005459 -0.007621 0.000000 0.001858 0.000000
# 2 -0.005459 0.057257 -0.007867 -0.000001 -0.011071 0.000001
# 3 -0.007621 -0.007867 0.013130 0.000000 -0.002876 0.000000
# 4 0.000000 -0.000001 0.000000 0.062393 0.000000 -0.020637
# 5 0.001858 -0.011071 -0.002876 0.000000 0.034205 0.000000
# 6 0.000000 0.000001 0.000000 -0.020637 0.000000 0.049457
#
#
# Mechanical properties :
#
#
# Convention : Reuss Voigt Hill
#
# Bulk Modulus (GPa) = 21.96681 54.55358 38.26020
# Shear Modulus (GPa) = 17.20911 24.40819 20.80865
#
# Velocity S-wave (km/s) = 3.10555 3.69852 3.41493
# Velocity P-wave (km/s) = 5.01698 6.98656 6.08203
#
# Compressibility (1/GPa) = 0.04552323
#
# Stress axis : x y z
#
# Youngs Moduli (GPa) = 58.71334 17.46526 76.15955
#
# Poissons Ratio (x) = 0.09535 0.58043
# Poissons Ratio (y) = 0.32054 0.59915
# Poissons Ratio (z) = 0.44747 0.13740
#
# Static dielectric constant tensor:
#      x y z
#    x 3.313730 0.000000 -0.148550 
#    y 0.000000 2.929390 0.000000 
#    z -0.148550 0.000000 3.685610 
# 
# 
# High freq. dielectric constant tensor:
#      x y z
#    x 1.679740 0.000000 0.000810 
#    y 0.000000 1.642560 0.000000 
#    z 0.000810 0.000000 1.714880 
# 
# From -- ./inp_files/342251.got.cif
#   From: 2010.06.25/outbox.cif.g09.slc.cpg/sg12_172_cif.got.tgz:342251.got - 2010.06.28 00:19:55.
