data_PCOD8105784
_publ_section_title
;
Structure prediction by ZEFSAII (Michael W. Deem and Ramdas Pophale) SiO2 
 PCOD8105784
Probable space group: C 2/M
;
_chemical_formula_sum "Si O2"
_cell_formula_units_Z 40
_cell_length_a 21.426588
_cell_length_b 9.832887
_cell_length_c 8.929072
_cell_angle_alpha 90.000000
_cell_angle_beta 101.415345
_cell_angle_gamma 90.000000
_cell_volume 1844.009505
_symmetry_space_group_name_H-M "C 2/M"
_symmetry_group_IT_number 12
_symmetry_cell_setting 'monoclinic'
loop_
_space_group_symop_operation_xyz
x,y,z
-x,y,-z
-x,-y,-z
x,-y,z
1/2+x,1/2+y,z
1/2-x,1/2+y,-z
1/2-x,1/2-y,-z
1/2+x,1/2-y,z
loop_
_atom_site_type_symbol
_atom_site_label
_atom_site_fract_x
_atom_site_fract_y
_atom_site_fract_z
Si Si1 0.555598 0.850211 0.715297
Si Si2 0.654212 0.781912 0.526485
Si Si3 0.945929 0.842622 0.715074
Si Si4 0.770809 0.352900 0.717859
Si Si5 0.391392 0.840244 0.939196
O O1 0.603211 0.865045 0.597924
O O2 0.504395 0.732115 0.658248
O O3 0.523401 0.000000 0.718484
O O4 0.595578 0.811286 0.881771
O O5 0.616799 0.661248 0.420281
O O6 0.707797 0.734969 0.669184
O O7 0.689335 0.870754 0.417765
O O8 0.937849 0.755300 0.863592
O O9 0.962080 0.000000 0.758177
O O10 0.746541 0.500000 0.756082
O O11 0.818450 0.295370 0.868223
O O12 0.402016 0.000000 0.902514
#
# Coordination Sequence:
#
# PCOD8105784 Si02
#       5
#     8   8   8   8   8
#     4  11  23  38  58  85 115 149 191 234 277 332
#     4  10  21  35  57  84 112 146 188 232 279 332
#     4  11  23  38  57  84 117 151 188 231 281 335
#     4   9  18  36  58  79 109 148 186 228 280 334
#     4   9  20  39  61  84 112 149 190 230 277 336
#
# _framework density 21.691863000000001
#
# number of rings (size 3 to 8) (size 9 to 14) (size 15 to 20)
#    0.000    2.000    0.000    3.000    0.000    9.600 
#    0.000    1.000    0.000    0.000    0.000    0.000 
#    0.000    0.000    0.000    0.000    0.000    0.000 
#
# Total GULP energy -247840.389303 kJ/mol
# GULP energy per Si atom -12392.019465 kJ/mol
# Density = 2.164249 g / cm^3
# Si number density = 21.691863 Si / 1000 Ang^3
#
#
#
# Elastic Constant Matrix: (Units=GPa)
#
#
# Indices 1 2 3 4 5 6 
#
# 1 83.2137 32.5951 24.3460 0.0000 16.2141 0.0000
# 2 32.5951 115.1163 12.8138 0.0000 5.9411 0.0000
# 3 24.3460 12.8138 71.1965 0.0000 9.6922 0.0000
# 4 0.0000 0.0000 0.0000 20.0268 0.0000 2.4172
# 5 16.2141 5.9411 9.6922 0.0000 33.5633 0.0000
# 6 0.0000 0.0000 0.0000 2.4172 0.0000 16.6595
#
#
#
# Elastic Compliance Matrix: (Units=1/GPa)
#
#
# Indices 1 2 3 4 5 6 
#
# 1 0.015759 -0.003725 -0.003926 0.000000 -0.005820 0.000000
# 2 -0.003725 0.009788 -0.000517 0.000000 0.000216 0.000000
# 3 -0.003926 -0.000517 0.015833 0.000000 -0.002584 0.000000
# 4 0.000000 0.000000 0.000000 0.050823 0.000000 -0.007374
# 5 -0.005820 0.000216 -0.002584 0.000000 0.033314 0.000000
# 6 0.000000 0.000000 0.000000 -0.007374 0.000000 0.061096
#
#
# Mechanical properties :
#
#
# Convention : Reuss Voigt Hill
#
# Bulk Modulus (GPa) = 39.93073 45.44850 42.68961
# Shear Modulus (GPa) = 23.66335 27.36802 25.51568
#
# Velocity S-wave (km/s) = 3.30644 3.55586 3.43341
# Velocity P-wave (km/s) = 5.74672 6.15274 5.95319
#
# Compressibility (1/GPa) = 0.02504337
#
# Stress axis : x y z
#
# Youngs Moduli (GPa) = 63.45601 102.16633 63.15892
#
# Poissons Ratio (x) = 0.38054 0.24797
# Poissons Ratio (y) = 0.23636 0.03268
# Poissons Ratio (z) = 0.24914 0.05286
#
# Static dielectric constant tensor:
#      x y z
#    x 3.915660 0.000000 0.254360 
#    y 0.000000 3.544410 0.000000 
#    z 0.254360 0.000000 3.873590 
# 
# 
# High freq. dielectric constant tensor:
#      x y z
#    x 1.851220 0.000000 0.019550 
#    y 0.000000 1.828480 0.000000 
#    z 0.019550 0.000000 1.851960 
# 
# From -- ./inp_files/92910.got.cif
#   From: 2010.06.25/outbox.cif.g09.slc.cpg/sg12_47_cif.got.tgz:92910.got - 2010.06.28 00:19:55.
