data_PCOD8105753
_publ_section_title
;
Structure prediction by ZEFSAII (Michael W. Deem and Ramdas Pophale) SiO2 
 PCOD8105753
Probable space group: C 2/M
;
_chemical_formula_sum "Si O2"
_cell_formula_units_Z 64
_cell_length_a 30.556808
_cell_length_b 18.783885
_cell_length_c 9.570744
_cell_angle_alpha 90.000000
_cell_angle_beta 142.651022
_cell_angle_gamma 90.000000
_cell_volume 3332.654684
_symmetry_space_group_name_H-M "C 2/M"
_symmetry_group_IT_number 12
_symmetry_cell_setting 'monoclinic'
loop_
_space_group_symop_operation_xyz
x,y,z
-x,y,-z
-x,-y,-z
x,-y,z
1/2+x,1/2+y,z
1/2-x,1/2+y,-z
1/2-x,1/2-y,-z
1/2+x,1/2-y,z
loop_
_atom_site_type_symbol
_atom_site_label
_atom_site_fract_x
_atom_site_fract_y
_atom_site_fract_z
Si Si1 0.199908 0.418979 0.071792
Si Si2 0.343629 0.419151 0.881098
Si Si3 0.069577 0.666422 0.765561
Si Si4 0.672058 0.290065 0.963892
Si Si5 0.307603 0.697574 0.298402
Si Si6 0.580746 0.332521 0.168277
Si Si7 0.563247 0.826424 0.057632
Si Si8 0.189652 0.421760 0.366816
O O1 0.213618 0.500000 0.064765
O O2 0.118381 0.396523 0.822002
O O3 0.259009 0.371924 0.142786
O O4 0.210950 0.401657 0.263080
O O5 0.371267 0.500000 0.984442
O O6 0.385794 0.389817 0.852583
O O7 0.259763 0.421448 0.637481
O O8 0.348606 0.367914 0.028488
O O9 0.117906 0.736600 0.902386
O O10 0.000000 0.681864 0.500000
O O11 0.044083 0.643988 0.855623
O O12 0.654948 0.286310 0.754960
O O13 0.754629 0.263711 0.206778
O O14 0.369319 0.680119 0.568214
O O15 0.574464 0.257590 0.075220
O O16 0.500000 0.359769 0.000000
O O17 0.635629 0.864372 0.295966
O O18 0.500000 0.848524 0.000000
O O19 0.153308 0.500000 0.275672
#
# Coordination Sequence:
#
# PCOD8105753 Si02
#       8
#     8   8   8   8   8   8   8   8
#     4   9  18  35  58  84 112 151 193 227 276 336
#     4  11  22  39  60  84 115 149 192 239 291 347
#     4  10  21  36  57  82 116 153 185 230 281 341
#     4  10  22  37  58  87 114 154 191 239 291 342
#     4  10  21  37  60  86 117 148 195 241 285 340
#     4  11  23  37  59  88 112 150 193 248 291 338
#     4  10  21  35  56  86 114 148 192 233 280 337
#     4   9  18  34  58  84 114 151 187 230 281 340
#
# _framework density 19.20391
#
# number of rings (size 3 to 8) (size 9 to 14) (size 15 to 20)
#    0.000    2.000    2.500    0.750    3.500    2.250 
#    2.250    0.000    0.000    2.625    0.000    0.000 
#    0.000    0.000    0.000    0.000    0.000    0.000 
#
# Total GULP energy -396668.863205 kJ/mol
# GULP energy per Si atom -12395.901975 kJ/mol
# Density = 1.916020 g / cm^3
# Si number density = 19.203910 Si / 1000 Ang^3
#
#
#
# Elastic Constant Matrix: (Units=GPa)
#
#
# Indices 1 2 3 4 5 6 
#
# 1 91.5928 25.7098 30.5156 0.0000 3.7041 0.0000
# 2 25.7098 77.9804 -0.1826 0.0000 5.1250 0.0000
# 3 30.5156 -0.1826 80.1930 0.0000 4.6505 0.0000
# 4 0.0000 0.0000 0.0000 19.1428 0.0000 -2.1998
# 5 3.7041 5.1250 4.6505 0.0000 20.8657 0.0000
# 6 0.0000 0.0000 0.0000 -2.1998 0.0000 22.8497
#
#
#
# Elastic Compliance Matrix: (Units=1/GPa)
#
#
# Indices 1 2 3 4 5 6 
#
# 1 0.013995 -0.004616 -0.005326 0.000000 -0.000164 0.000000
# 2 -0.004616 0.014560 0.001975 0.000000 -0.003197 0.000000
# 3 -0.005326 0.001975 0.014664 0.000000 -0.002808 0.000000
# 4 0.000000 0.000000 0.000000 0.052823 0.000000 0.005085
# 5 -0.000164 -0.003197 -0.002808 0.000000 0.049366 0.000000
# 6 0.000000 0.000000 0.000000 0.005085 0.000000 0.044254
#
#
# Mechanical properties :
#
#
# Convention : Reuss Voigt Hill
#
# Bulk Modulus (GPa) = 36.65053 40.20576 38.42814
# Shear Modulus (GPa) = 23.28927 25.48652 24.38790
#
# Velocity S-wave (km/s) = 3.48621 3.64696 3.56749
# Velocity P-wave (km/s) = 5.94401 6.22218 6.08468
#
# Compressibility (1/GPa) = 0.02728474
#
# Stress axis : x y z
#
# Youngs Moduli (GPa) = 71.45568 68.68017 68.19382
#
# Poissons Ratio (x) = 0.31701 0.36323
# Poissons Ratio (y) = 0.32982 -0.13468
# Poissons Ratio (z) = 0.38060 -0.13564
#
# Static dielectric constant tensor:
#      x y z
#    x 3.456670 0.000000 0.099650 
#    y 0.000000 3.639320 0.000000 
#    z 0.099650 0.000000 3.294860 
# 
# 
# High freq. dielectric constant tensor:
#      x y z
#    x 1.746950 0.000000 0.003800 
#    y 0.000000 1.746240 0.000000 
#    z 0.003800 0.000000 1.728810 
# 
# From -- ./inp_files/112916.got.cif
#   From: 2010.06.25/outbox.cif.g09.slc.cpg/sg12_57_cif.got.tgz:112916.got - 2010.06.28 00:19:55.
