data_PCOD8105587
_publ_section_title
;
Structure prediction by ZEFSAII (Michael W. Deem and Ramdas Pophale) SiO2 
 PCOD8105587
Probable space group: C 2/M
;
_chemical_formula_sum "Si O2"
_cell_formula_units_Z 64
_cell_length_a 21.618146
_cell_length_b 9.062703
_cell_length_c 20.058790
_cell_angle_alpha 90.000000
_cell_angle_beta 53.411842
_cell_angle_gamma 90.000000
_cell_volume 3155.472431
_symmetry_space_group_name_H-M "C 2/M"
_symmetry_group_IT_number 12
_symmetry_cell_setting 'monoclinic'
loop_
_space_group_symop_operation_xyz
x,y,z
-x,y,-z
-x,-y,-z
x,-y,z
1/2+x,1/2+y,z
1/2-x,1/2+y,-z
1/2-x,1/2-y,-z
1/2+x,1/2-y,z
loop_
_atom_site_type_symbol
_atom_site_label
_atom_site_fract_x
_atom_site_fract_y
_atom_site_fract_z
Si Si1 0.082918 0.830428 0.720240
Si Si2 0.294869 0.675805 0.866443
Si Si3 0.623668 0.173015 0.966461
Si Si4 0.914810 0.325738 0.537011
Si Si5 0.361921 0.164007 0.190867
Si Si6 0.833696 0.675738 0.452496
Si Si7 0.319881 0.664378 0.706341
Si Si8 0.422351 0.669896 0.881648
O O1 0.117650 0.787961 0.769212
O O2 0.114998 0.724117 0.642871
O O3 0.991644 0.807139 0.785104
O O4 0.104704 0.000000 0.690372
O O5 0.290986 0.500000 0.867819
O O6 0.208614 0.739485 0.928003
O O7 0.335581 0.724249 0.770905
O O8 0.346421 0.734909 0.894200
O O9 0.601443 0.209581 0.904317
O O10 0.621652 0.000000 0.979283
O O11 0.564184 0.245443 0.057099
O O12 0.918795 0.500000 0.532982
O O13 0.879850 0.269887 0.488818
O O14 0.856793 0.277143 0.631417
O O15 0.000000 0.261487 0.500000
O O16 0.270904 0.157521 0.244222
O O17 0.392128 0.000000 0.191927
O O18 0.822601 0.500000 0.458988
O O19 0.750000 0.750000 0.500000
O O20 0.354614 0.500000 0.672813
O O21 0.412516 0.500000 0.906204
#
# Coordination Sequence:
#
# PCOD8105587 Si02
#       8
#     8   8   8   8   8   8   8   8
#     4  11  24  38  56  84 115 149 189 233 284 341
#     4   8  16  33  55  79 110 144 182 231 279 329
#     4   9  18  34  57  82 107 143 191 235 279 335
#     4  10  23  40  57  84 121 152 182 232 295 349
#     4   9  19  37  58  81 110 145 189 237 283 334
#     4  11  24  43  66  88 117 156 197 243 291 350
#     4   9  18  34  59  84 105 140 187 231 276 332
#     4  10  21  35  52  78 115 150 182 229 284 336
#
# _framework density 20.282223999999999
#
# number of rings (size 3 to 8) (size 9 to 14) (size 15 to 20)
#    0.000    2.375    0.000    3.375    1.750    5.750 
#    0.000    5.000    0.000    0.000    0.000    0.000 
#    0.000    0.000    0.000    0.000    0.000    0.000 
#
# Total GULP energy -396691.008961 kJ/mol
# GULP energy per Si atom -12396.594030 kJ/mol
# Density = 2.023606 g / cm^3
# Si number density = 20.282224 Si / 1000 Ang^3
#
#
#
# Elastic Constant Matrix: (Units=GPa)
#
#
# Indices 1 2 3 4 5 6 
#
# 1 86.6505 29.9267 26.3520 -0.0001 17.4535 0.0004
# 2 29.9267 36.8455 30.4928 -0.0003 3.2931 0.0010
# 3 26.3520 30.4928 98.8669 -0.0001 20.8280 0.0003
# 4 -0.0001 -0.0003 -0.0001 33.0302 0.0001 -0.6259
# 5 17.4535 3.2931 20.8280 0.0001 21.8189 -0.0001
# 6 0.0004 0.0010 0.0003 -0.6259 -0.0001 23.8339
#
#
#
# Elastic Compliance Matrix: (Units=1/GPa)
#
#
# Indices 1 2 3 4 5 6 
#
# 1 0.019927 -0.017746 0.003700 0.000000 -0.016794 0.000000
# 2 -0.017746 0.053008 -0.016177 0.000000 0.021638 -0.000002
# 3 0.003700 -0.016177 0.017808 0.000000 -0.017517 0.000000
# 4 0.000000 0.000000 0.000000 0.030290 0.000000 0.000796
# 5 -0.016794 0.021638 -0.017517 0.000000 0.072722 0.000000
# 6 0.000000 -0.000002 0.000000 0.000796 0.000000 0.041978
#
#
# Mechanical properties :
#
#
# Convention : Reuss Voigt Hill
#
# Bulk Modulus (GPa) = 33.00722 43.98955 38.49839
# Shear Modulus (GPa) = 16.32496 24.77603 20.55049
#
# Velocity S-wave (km/s) = 2.84014 3.49888 3.18658
# Velocity P-wave (km/s) = 5.20235 6.16917 5.70627
#
# Compressibility (1/GPa) = 0.03029640
#
# Stress axis : x y z
#
# Youngs Moduli (GPa) = 50.18294 18.86499 56.15379
#
# Poissons Ratio (x) = 0.33478 -0.20776
# Poissons Ratio (y) = 0.89055 0.90841
# Poissons Ratio (z) = -0.18567 0.30518
#
# Static dielectric constant tensor:
#      x y z
#    x 3.991500 0.000000 0.082940 
#    y 0.000000 4.122960 0.000000 
#    z 0.082940 0.000000 3.734140 
# 
# 
# High freq. dielectric constant tensor:
#      x y z
#    x 1.795960 0.000000 0.005380 
#    y 0.000000 1.769410 0.000000 
#    z 0.005380 0.000000 1.802030 
# 
# From -- ./inp_files/324159.got.cif
#   From: 2010.06.25/outbox.cif.g09.slc.cpg/sg12_163_cif.got.tgz:324159.got - 2010.06.28 00:19:55.
