data_PCOD8105410
_publ_section_title
;
Structure prediction by ZEFSAII (Michael W. Deem and Ramdas Pophale) SiO2 
 PCOD8105410
Probable space group: C 2/M
;
_chemical_formula_sum "Si O2"
_cell_formula_units_Z 48
_cell_length_a 22.306386
_cell_length_b 21.049762
_cell_length_c 9.206201
_cell_angle_alpha 90.000000
_cell_angle_beta 143.306847
_cell_angle_gamma 90.000000
_cell_volume 2582.950493
_symmetry_space_group_name_H-M "C 2/M"
_symmetry_group_IT_number 12
_symmetry_cell_setting 'monoclinic'
loop_
_space_group_symop_operation_xyz
x,y,z
-x,y,-z
-x,-y,-z
x,-y,z
1/2+x,1/2+y,z
1/2-x,1/2+y,-z
1/2-x,1/2-y,-z
1/2+x,1/2-y,z
loop_
_atom_site_type_symbol
_atom_site_label
_atom_site_fract_x
_atom_site_fract_y
_atom_site_fract_z
Si Si1 0.957094 0.570638 0.657053
Si Si2 0.030653 0.763954 0.404312
Si Si3 0.653794 0.259130 0.148923
Si Si4 0.148358 0.571427 0.855053
Si Si5 0.770902 0.189895 0.145887
Si Si6 0.644261 0.181658 0.407547
O O1 0.963810 0.500000 0.735126
O O2 0.893630 0.570074 0.387562
O O3 0.902473 0.610847 0.680932
O O4 0.068178 0.593967 0.822978
O O5 0.110271 0.820312 0.590364
O O6 0.093831 0.708148 0.455113
O O7 0.000000 0.734801 0.500000
O O8 0.936550 0.787595 0.124455
O O9 0.712718 0.203231 0.181996
O O10 0.607977 0.224681 0.201787
O O11 0.733466 0.315262 0.343690
O O12 0.186418 0.500000 0.967856
O O13 0.237921 0.622088 0.021233
O O14 0.750000 0.250000 0.000000
#
# Coordination Sequence:
#
# PCOD8105410 Si02
#       6
#     8   8   8   8   8   8
#     4   9  18  31  53  80 106 143 180 221 271 327
#     4  11  21  31  51  79 104 137 176 225 265 325
#     4  10  21  35  49  81 108 140 178 220 284 314
#     4   9  18  32  51  79 112 141 182 227 273 325
#     4  11  20  32  54  78 103 143 181 225 270 323
#     4  10  21  34  54  74 112 144 172 227 271 332
#
# _framework density 18.583397999999999
#
# number of rings (size 3 to 8) (size 9 to 14) (size 15 to 20)
#    0.000    2.000    1.667    4.500    2.333    0.000 
#    0.000    0.833    0.000    5.500    0.000    0.000 
#    0.000    8.000    0.000    0.000    0.000    0.000 
#
# Total GULP energy -297330.165023 kJ/mol
# GULP energy per Si atom -12388.756876 kJ/mol
# Density = 1.854110 g / cm^3
# Si number density = 18.583398 Si / 1000 Ang^3
#
#
#
# Elastic Constant Matrix: (Units=GPa)
#
#
# Indices 1 2 3 4 5 6 
#
# 1 96.9588 42.3134 30.8266 0.0000 1.3427 0.0000
# 2 42.3134 93.3390 36.7417 0.0000 7.6163 0.0000
# 3 30.8266 36.7417 121.0848 0.0000 14.6983 0.0000
# 4 0.0000 0.0000 0.0000 22.8069 0.0000 3.5951
# 5 1.3427 7.6163 14.6983 0.0000 24.8596 0.0000
# 6 0.0000 0.0000 0.0000 3.5951 0.0000 31.4663
#
#
#
# Elastic Compliance Matrix: (Units=1/GPa)
#
#
# Indices 1 2 3 4 5 6 
#
# 1 0.013279 -0.005406 -0.001997 0.000000 0.002120 0.000000
# 2 -0.005406 0.014432 -0.002695 0.000000 -0.002536 0.000000
# 3 -0.001997 -0.002695 0.010204 0.000000 -0.005100 0.000000
# 4 0.000000 0.000000 0.000000 0.044651 0.000000 -0.005101
# 5 0.002120 -0.002536 -0.005100 0.000000 0.043904 0.000000
# 6 0.000000 0.000000 0.000000 -0.005101 0.000000 0.032363
#
#
# Mechanical properties :
#
#
# Convention : Reuss Voigt Hill
#
# Bulk Modulus (GPa) = 56.44200 59.01620 57.72910
# Shear Modulus (GPa) = 27.03645 29.25995 28.14820
#
# Velocity S-wave (km/s) = 3.81842 3.97233 3.89613
# Velocity P-wave (km/s) = 7.06248 7.27087 7.16743
#
# Compressibility (1/GPa) = 0.01771730
#
# Stress axis : x y z
#
# Youngs Moduli (GPa) = 75.30842 69.28887 98.00075
#
# Poissons Ratio (x) = 0.37460 0.19575
# Poissons Ratio (y) = 0.40715 0.26412
# Poissons Ratio (z) = 0.15042 0.18674
#
# Static dielectric constant tensor:
#      x y z
#    x 3.623130 0.000000 0.141060 
#    y 0.000000 3.410330 0.000000 
#    z 0.141060 0.000000 3.597050 
# 
# 
# High freq. dielectric constant tensor:
#      x y z
#    x 1.727470 0.000000 -0.002560 
#    y 0.000000 1.679250 0.000000 
#    z -0.002560 0.000000 1.719050 
# 
# From -- ./inp_files/89415.got.cif
#   From: 2010.06.25/outbox.cif.g09.slc.cpg/sg12_45_cif.got.tgz:89415.got - 2010.06.28 00:19:55.
