data_PCOD8105796
_publ_section_title
;
Structure prediction by ZEFSAII (Michael W. Deem and Ramdas Pophale) SiO2 
 PCOD8105796
Probable space group: C 2/M
;
_chemical_formula_sum "Si O2"
_cell_formula_units_Z 48
_cell_length_a 13.911693
_cell_length_b 19.317763
_cell_length_c 13.900291
_cell_angle_alpha 90.000000
_cell_angle_beta 138.791819
_cell_angle_gamma 90.000000
_cell_volume 2461.003603
_symmetry_space_group_name_H-M "C 2/M"
_symmetry_group_IT_number 12
_symmetry_cell_setting 'monoclinic'
loop_
_space_group_symop_operation_xyz
x,y,z
-x,y,-z
-x,-y,-z
x,-y,z
1/2+x,1/2+y,z
1/2-x,1/2+y,-z
1/2-x,1/2-y,-z
1/2+x,1/2-y,z
loop_
_atom_site_type_symbol
_atom_site_label
_atom_site_fract_x
_atom_site_fract_y
_atom_site_fract_z
Si Si1 0.644107 0.658721 0.865283
Si Si2 0.606644 0.179840 0.804959
Si Si3 0.711185 0.171103 0.477307
Si Si4 0.539196 0.575147 0.133122
Si Si5 0.655267 0.885320 0.637014
Si Si6 0.522520 0.580926 0.404741
O O1 0.622683 0.737765 0.820953
O O2 0.508907 0.634070 0.829492
O O3 0.625586 0.611177 0.756220
O O4 0.796199 0.645809 0.036154
O O5 0.439395 0.156323 0.694804
O O6 0.663080 0.155769 0.743479
O O7 0.750000 0.250000 0.500000
O O8 0.679768 0.166270 0.566909
O O9 0.834506 0.120584 0.527203
O O10 0.464199 0.500000 0.096295
O O11 0.712653 0.560770 0.267129
O O12 0.500000 0.604780 0.000000
O O13 0.500000 0.923321 0.500000
O O14 0.500000 0.593202 0.500000
O O15 0.541089 0.500000 0.393266
#
# Coordination Sequence:
#
# PCOD8105796 Si02
#       6
#     8   8   8   8   8   8
#     4  11  21  39  61  85 127 159 203 255 306 377
#     4  10  22  37  58  96 123 156 200 254 320 363
#     4  11  21  38  64  91 122 163 204 261 311 362
#     4  11  21  36  57  84 120 160 198 239 297 366
#     4  10  21  35  57  88 123 152 194 249 304 364
#     4  11  25  43  65  90 121 169 217 255 307 379
#
# _framework density 19.504238000000001
#
# number of rings (size 3 to 8) (size 9 to 14) (size 15 to 20)
#    0.000    1.333    5.000    0.500    2.333    0.333 
#    0.000    5.000    0.000    2.000    0.000    0.000 
#    0.000    0.000    0.000    0.000    0.000    0.000 
#
# Total GULP energy -297332.757322 kJ/mol
# GULP energy per Si atom -12388.864888 kJ/mol
# Density = 1.945985 g / cm^3
# Si number density = 19.504238 Si / 1000 Ang^3
#
#
#
# Elastic Constant Matrix: (Units=GPa)
#
#
# Indices 1 2 3 4 5 6 
#
# 1 72.9890 33.3570 52.4700 0.0000 -3.8678 0.0000
# 2 33.3570 96.6804 46.1432 0.0000 -3.8976 0.0000
# 3 52.4700 46.1432 171.4278 0.0000 1.5007 0.0000
# 4 0.0000 0.0000 0.0000 -8.7203 0.0000 11.7684
# 5 -3.8678 -3.8976 1.5007 0.0000 38.8921 0.0000
# 6 0.0000 0.0000 0.0000 11.7684 0.0000 10.2820
#
#
#
# Elastic Compliance Matrix: (Units=1/GPa)
#
#
# Indices 1 2 3 4 5 6 
#
# 1 0.019139 -0.004284 -0.004719 0.000000 0.001656 0.000000
# 2 -0.004284 0.012894 -0.002168 0.000000 0.000950 0.000000
# 3 -0.004719 -0.002168 0.007870 0.000000 -0.000990 0.000000
# 4 0.000000 0.000000 0.000000 -0.045065 0.000000 0.051580
# 5 0.001656 0.000950 -0.000990 0.000000 0.026010 0.000000
# 6 0.000000 0.000000 0.000000 0.051580 0.000000 0.038221
#
#
# Mechanical properties :
#
#
# Convention : Reuss Voigt Hill
#
# Bulk Modulus (GPa) = 56.94513 67.22639 62.08576
# Shear Modulus (GPa) = 57.29654 22.03256 39.66455
#
# Velocity S-wave (km/s) = 5.42588 3.36464 4.51448
# Velocity P-wave (km/s) = 8.27728 7.04534 7.68603
#
# Compressibility (1/GPa) = 0.01756076
#
# Stress axis : x y z
#
# Youngs Moduli (GPa) = 52.24935 77.55273 127.06475
#
# Poissons Ratio (x) = 0.33225 0.59966
# Poissons Ratio (y) = 0.22385 0.27545
# Poissons Ratio (z) = 0.24658 0.16812
#
# Static dielectric constant tensor:
#      x y z
#    x 3.608510 0.000000 0.043220 
#    y 0.000000 3.161450 0.000000 
#    z 0.043220 0.000000 4.213550 
# 
# 
# High freq. dielectric constant tensor:
#      x y z
#    x 1.747070 0.000000 -0.004920 
#    y 0.000000 1.750200 0.000000 
#    z -0.004920 0.000000 1.788670 
# 
# From -- ./inp_files/217466.got.cif
#   From: 2010.06.25/outbox.cif.g09.slc.cpg/sg12_109_cif.got.tgz:217466.got - 2010.06.28 00:19:55.
