data_PCOD8105748
_publ_section_title
;
Structure prediction by ZEFSAII (Michael W. Deem and Ramdas Pophale) SiO2 
 PCOD8105748
Probable space group: C 2/M
;
_chemical_formula_sum "Si O2"
_cell_formula_units_Z 56
_cell_length_a 9.800200
_cell_length_b 17.673733
_cell_length_c 16.362976
_cell_angle_alpha 90.000000
_cell_angle_beta 118.421681
_cell_angle_gamma 90.000000
_cell_volume 2492.561177
_symmetry_space_group_name_H-M "C 2/M"
_symmetry_group_IT_number 12
_symmetry_cell_setting 'monoclinic'
loop_
_space_group_symop_operation_xyz
x,y,z
-x,y,-z
-x,-y,-z
x,-y,z
1/2+x,1/2+y,z
1/2-x,1/2+y,-z
1/2-x,1/2-y,-z
1/2+x,1/2-y,z
loop_
_atom_site_type_symbol
_atom_site_label
_atom_site_fract_x
_atom_site_fract_y
_atom_site_fract_z
Si Si1 0.737169 0.584522 0.219931
Si Si2 0.065952 0.699948 0.810243
Si Si3 0.688620 0.784335 0.394792
Si Si4 0.580298 0.365337 0.792768
Si Si5 0.526066 0.914911 0.418788
Si Si6 0.084080 0.415242 0.108376
Si Si7 0.014210 0.168988 0.591335
O O1 0.742435 0.500000 0.182886
O O2 0.784685 0.647759 0.166961
O O3 0.565911 0.598955 0.203783
O O4 0.862142 0.591006 0.327117
O O5 0.121800 0.784516 0.849238
O O6 0.961497 0.727787 0.704888
O O7 0.961141 0.652308 0.842992
O O8 0.668484 0.870751 0.418370
O O9 0.842151 0.772740 0.383781
O O10 0.649823 0.717311 0.451612
O O11 0.731253 0.415497 0.852205
O O12 0.545992 0.374120 0.684541
O O13 0.500000 0.879417 0.500000
O O14 0.587469 0.000000 0.441759
O O15 0.038688 0.500000 0.127714
O O16 0.000000 0.398110 0.000000
O O17 0.000000 0.122005 0.500000
#
# Coordination Sequence:
#
# PCOD8105748 Si02
#       7
#     8   8   8   8   8   8   8
#     4  10  21  37  60  85 118 162 204 249 307 364
#     4  10  21  40  65  90 123 161 204 249 308 369
#     4  10  21  35  56  84 118 161 199 253 294 365
#     4  11  23  40  64  93 126 159 207 266 306 358
#     4   9  19  33  52  76 111 156 203 245 292 358
#     4  11  24  44  68  94 125 163 202 250 319 387
#     4  11  23  35  57  90 123 163 205 254 307 357
#
# _framework density 22.466850999999998
#
# number of rings (size 3 to 8) (size 9 to 14) (size 15 to 20)
#    0.000    1.714    1.429    2.571   12.000    1.143 
#    0.000    0.714    0.000    4.714    0.000    0.000 
#    0.000    0.000    0.000    0.000    0.000    0.000 
#
# Total GULP energy -346869.579250 kJ/mol
# GULP energy per Si atom -12388.199259 kJ/mol
# Density = 2.241572 g / cm^3
# Si number density = 22.466851 Si / 1000 Ang^3
#
#
#
# Elastic Constant Matrix: (Units=GPa)
#
#
# Indices 1 2 3 4 5 6 
#
# 1 129.3004 8.6621 27.4759 0.0000 12.1622 0.0000
# 2 8.6621 85.4355 25.1412 0.0000 -2.3435 0.0000
# 3 27.4759 25.1412 39.3531 0.0000 14.7497 0.0000
# 4 0.0000 0.0000 0.0000 10.3879 0.0000 -1.5539
# 5 12.1622 -2.3435 14.7497 0.0000 22.7938 0.0000
# 6 0.0000 0.0000 0.0000 -1.5539 0.0000 31.4964
#
#
#
# Elastic Compliance Matrix: (Units=1/GPa)
#
#
# Indices 1 2 3 4 5 6 
#
# 1 0.009177 0.001140 -0.007055 0.000000 -0.000214 0.000000
# 2 0.001140 0.016440 -0.015452 0.000000 0.011081 0.000000
# 3 -0.007055 -0.015452 0.052006 0.000000 -0.031477 0.000000
# 4 0.000000 0.000000 0.000000 0.096981 0.000000 0.004785
# 5 -0.000214 0.011081 -0.031477 0.000000 0.065494 0.000000
# 6 0.000000 0.000000 0.000000 0.004785 0.000000 0.031986
#
#
# Mechanical properties :
#
#
# Convention : Reuss Voigt Hill
#
# Bulk Modulus (GPa) = 28.66269 41.84971 35.25620
# Shear Modulus (GPa) = 15.31636 25.78961 20.55298
#
# Velocity S-wave (km/s) = 2.61383 3.39174 3.02787
# Velocity P-wave (km/s) = 4.67920 5.83149 5.28683
#
# Compressibility (1/GPa) = 0.03488856
#
# Stress axis : x y z
#
# Youngs Moduli (GPa) = 108.96918 60.82636 19.22843
#
# Poissons Ratio (x) = -0.06933 0.13566
# Poissons Ratio (y) = -0.12421 0.29712
# Poissons Ratio (z) = 0.76880 0.93989
#
# Static dielectric constant tensor:
#      x y z
#    x 4.281260 0.000000 -0.021810 
#    y 0.000000 4.097430 0.000000 
#    z -0.021810 0.000000 4.012000 
# 
# 
# High freq. dielectric constant tensor:
#      x y z
#    x 1.901010 0.000000 0.009540 
#    y 0.000000 1.876950 0.000000 
#    z 0.009540 0.000000 1.866270 
# 
# From -- ./inp_files/257197.got.cif
#   From: 2010.06.25/outbox.cif.g09.slc.cpg/sg12_129_cif.got.tgz:257197.got - 2010.06.28 00:19:55.
