data_PCOD8105571
_publ_section_title
;
Structure prediction by ZEFSAII (Michael W. Deem and Ramdas Pophale) SiO2 
 PCOD8105571
Probable space group: C 2/M
;
_chemical_formula_sum "Si O2"
_cell_formula_units_Z 64
_cell_length_a 25.672326
_cell_length_b 8.898587
_cell_length_c 15.792358
_cell_angle_alpha 90.000000
_cell_angle_beta 65.033487
_cell_angle_gamma 90.000000
_cell_volume 3270.598499
_symmetry_space_group_name_H-M "C 2/M"
_symmetry_group_IT_number 12
_symmetry_cell_setting 'monoclinic'
loop_
_space_group_symop_operation_xyz
x,y,z
-x,y,-z
-x,-y,-z
x,-y,z
1/2+x,1/2+y,z
1/2-x,1/2+y,-z
1/2-x,1/2-y,-z
1/2+x,1/2-y,z
loop_
_atom_site_type_symbol
_atom_site_label
_atom_site_fract_x
_atom_site_fract_y
_atom_site_fract_z
Si Si1 0.722985 0.327668 0.392035
Si Si2 0.442768 0.158619 0.083975
Si Si3 0.950635 0.321203 0.269842
Si Si4 0.930353 0.180287 0.772854
Si Si5 0.115733 0.830888 0.017631
Si Si6 0.330845 0.672385 0.386640
Si Si7 0.837044 0.679809 0.721218
Si Si8 0.755394 0.170339 0.083463
O O1 0.731661 0.500000 0.357463
O O2 0.694301 0.318246 0.502835
O O3 0.785663 0.247677 0.351787
O O4 0.678803 0.243467 0.359946
O O5 0.452798 0.225835 0.169970
O O6 0.406732 0.000000 0.114791
O O7 0.500000 0.109398 0.000000
O O8 0.417810 0.283986 0.041523
O O9 0.955486 0.500000 0.280139
O O10 0.890827 0.261195 0.348011
O O11 0.004275 0.239500 0.278393
O O12 0.900741 0.246024 0.880600
O O13 0.896000 0.249859 0.716657
O O14 0.929153 0.000000 0.766583
O O15 0.100211 0.000000 0.048322
O O16 0.178963 0.807375 0.937807
O O17 0.340593 0.500000 0.351596
O O18 0.842288 0.500000 0.712759
O O19 0.785384 0.738738 0.816823
O O20 0.737178 0.000000 0.081994
O O21 0.750000 0.250000 0.000000
#
# Coordination Sequence:
#
# PCOD8105571 Si02
#       8
#     8   8   8   8   8   8   8   8
#     4  10  22  42  67  93 121 153 190 238 296 355
#     4  10  21  36  53  78 114 154 196 239 286 342
#     4  11  23  39  60  88 120 157 200 245 296 352
#     4  11  22  38  59  83 117 161 204 247 294 347
#     4  10  21  35  52  77 112 154 198 243 290 340
#     4  10  22  42  67  93 121 152 190 240 296 353
#     4  11  23  38  60  89 121 158 199 246 296 351
#     4  10  21  36  53  80 114 153 197 240 287 341
#
# _framework density 19.568283000000001
#
# number of rings (size 3 to 8) (size 9 to 14) (size 15 to 20)
#    0.000    1.625    2.500    1.875    1.750    4.250 
#    0.000    0.625    0.000    3.750    0.000    0.000 
#    0.000    0.000    0.000    0.000    0.000    0.000 
#
# Total GULP energy -396567.689629 kJ/mol
# GULP energy per Si atom -12392.740301 kJ/mol
# Density = 1.952374 g / cm^3
# Si number density = 19.568283 Si / 1000 Ang^3
#
#
#
# Elastic Constant Matrix: (Units=GPa)
#
#
# Indices 1 2 3 4 5 6 
#
# 1 150.6034 33.6862 30.0449 0.0000 0.0506 0.0000
# 2 33.6862 193.7383 36.6895 0.0000 46.9329 0.0000
# 3 30.0449 36.6895 41.1345 0.0000 9.8106 0.0000
# 4 0.0000 0.0000 0.0000 30.3989 0.0000 4.5583
# 5 0.0506 46.9329 9.8106 0.0000 52.4040 0.0000
# 6 0.0000 0.0000 0.0000 4.5583 0.0000 38.8844
#
#
#
# Elastic Compliance Matrix: (Units=1/GPa)
#
#
# Indices 1 2 3 4 5 6 
#
# 1 0.007905 -0.000738 -0.005518 0.000000 0.001686 0.000000
# 2 -0.000738 0.007651 -0.004868 0.000000 -0.005940 0.000000
# 3 -0.005518 -0.004868 0.033121 0.000000 -0.001835 0.000000
# 4 0.000000 0.000000 0.000000 0.033484 0.000000 -0.003925
# 5 0.001686 -0.005940 -0.001835 0.000000 0.024744 0.000000
# 6 0.000000 0.000000 0.000000 -0.003925 0.000000 0.026177
#
#
# Mechanical properties :
#
#
# Convention : Reuss Voigt Hill
#
# Bulk Modulus (GPa) = 37.83830 65.14637 51.49233
# Shear Modulus (GPa) = 30.46158 43.34116 36.90137
#
# Velocity S-wave (km/s) = 3.94976 4.71134 4.34726
# Velocity P-wave (km/s) = 6.33872 7.93472 7.18119
#
# Compressibility (1/GPa) = 0.02642825
#
# Stress axis : x y z
#
# Youngs Moduli (GPa) = 126.49744 130.70493 30.19250
#
# Poissons Ratio (x) = 0.09647 0.16660
# Poissons Ratio (y) = 0.09337 0.14699
# Poissons Ratio (z) = 0.69801 0.63631
#
# Static dielectric constant tensor:
#      x y z
#    x 3.551340 0.000000 -0.054380 
#    y 0.000000 3.578890 0.000000 
#    z -0.054380 0.000000 3.485120 
# 
# 
# High freq. dielectric constant tensor:
#      x y z
#    x 1.767030 0.000000 0.001450 
#    y 0.000000 1.771060 0.000000 
#    z 0.001450 0.000000 1.749030 
# 
# From -- ./inp_files/243800.got.cif
#   From: 2010.06.25/outbox.cif.g09.slc.cpg/sg12_122_cif.got.tgz:243800.got - 2010.06.28 00:19:55.
