data_PCOD8105383
_publ_section_title
;
Structure prediction by ZEFSAII (Michael W. Deem and Ramdas Pophale) SiO2 
 PCOD8105383
Probable space group: C 2/M
;
_chemical_formula_sum "Si O2"
_cell_formula_units_Z 56
_cell_length_a 19.988155
_cell_length_b 8.943177
_cell_length_c 29.186361
_cell_angle_alpha 90.000000
_cell_angle_beta 30.284465
_cell_angle_gamma 90.000000
_cell_volume 2631.042485
_symmetry_space_group_name_H-M "C 2/M"
_symmetry_group_IT_number 12
_symmetry_cell_setting 'monoclinic'
loop_
_space_group_symop_operation_xyz
x,y,z
-x,y,-z
-x,-y,-z
x,-y,z
1/2+x,1/2+y,z
1/2-x,1/2+y,-z
1/2-x,1/2-y,-z
1/2+x,1/2-y,z
loop_
_atom_site_type_symbol
_atom_site_label
_atom_site_fract_x
_atom_site_fract_y
_atom_site_fract_z
Si Si1 0.164086 0.330409 0.367336
Si Si2 0.964424 0.830885 0.162685
Si Si3 0.460745 0.175749 0.408750
Si Si4 0.092190 0.174934 0.903388
Si Si5 0.528835 0.826053 0.212596
Si Si6 0.229698 0.826059 0.416692
Si Si7 0.137826 0.177090 0.231838
O O1 0.138073 0.500000 0.398554
O O2 0.308383 0.310293 0.261010
O O3 0.143416 0.228500 0.424237
O O4 0.063142 0.280762 0.388012
O O5 0.990660 0.788184 0.094027
O O6 0.044269 0.724576 0.150456
O O7 0.009353 0.000000 0.146470
O O8 0.318211 0.240706 0.508984
O O9 0.510556 0.253898 0.333046
O O10 0.449484 0.000000 0.405863
O O11 0.226481 0.269646 0.825112
O O12 0.131152 0.000000 0.881512
O O13 0.000000 0.221805 0.000000
O O14 0.382306 0.786565 0.317288
O O15 0.632678 0.735884 0.182525
O O16 0.562306 0.000000 0.195939
O O17 0.206663 0.000000 0.437743
O O18 0.129921 0.000000 0.237849
#
# Coordination Sequence:
#
# PCOD8105383 Si02
#       7
#     8   8   8   8   8   8   8
#     4   9  17  31  52  78 112 154 197 240 289 347
#     4   9  17  35  61  89 119 153 195 239 288 349
#     4  11  21  35  55  80 115 158 202 245 296 353
#     4  10  21  41  69  97 124 154 189 234 294 362
#     4  10  22  40  60  83 119 163 204 244 293 352
#     4  10  21  34  51  81 116 154 200 250 296 342
#     4  12  25  40  61  88 120 156 198 249 300 350
#
# _framework density 21.284338999999999
#
# number of rings (size 3 to 8) (size 9 to 14) (size 15 to 20)
#    0.000    1.857    1.429    3.000    0.000    6.000 
#    0.000    0.714    0.000    0.000    0.000    0.000 
#    0.000    0.000    0.000    0.000    0.000    0.000 
#
# Total GULP energy -347266.998996 kJ/mol
# GULP energy per Si atom -12402.392821 kJ/mol
# Density = 2.123589 g / cm^3
# Si number density = 21.284339 Si / 1000 Ang^3
#
#
#
# Elastic Constant Matrix: (Units=GPa)
#
#
# Indices 1 2 3 4 5 6 
#
# 1 94.0535 45.2114 17.0314 -0.0091 23.8367 0.0669
# 2 45.2114 110.7963 27.6177 -0.0120 12.5073 0.0360
# 3 17.0314 27.6177 58.5061 0.0033 29.7974 -0.0118
# 4 -0.0091 -0.0120 0.0033 22.6446 -0.0002 3.3470
# 5 23.8367 12.5073 29.7974 -0.0002 27.6785 -0.0063
# 6 0.0669 0.0360 -0.0118 3.3470 -0.0063 35.0419
#
#
#
# Elastic Compliance Matrix: (Units=1/GPa)
#
#
# Indices 1 2 3 4 5 6 
#
# 1 0.018159 -0.007270 0.009824 0.000006 -0.022929 -0.000029
# 2 -0.007270 0.013160 -0.009422 0.000006 0.010458 -0.000001
# 3 0.009824 -0.009422 0.046093 -0.000008 -0.053824 -0.000003
# 4 0.000006 0.000006 -0.000008 0.044793 0.000000 -0.004278
# 5 -0.022929 0.010458 -0.053824 0.000000 0.109095 0.000035
# 6 -0.000029 -0.000001 -0.000003 -0.004278 0.000035 0.028946
#
#
# Mechanical properties :
#
#
# Convention : Reuss Voigt Hill
#
# Bulk Modulus (GPa) = 15.70472 49.23077 32.46775
# Shear Modulus (GPa) = 16.93716 28.63938 22.78827
#
# Velocity S-wave (km/s) = 2.82398 3.67217 3.27564
# Velocity P-wave (km/s) = 4.24590 6.41561 5.44002
#
# Compressibility (1/GPa) = 0.06367511
#
# Stress axis : x y z
#
# Youngs Moduli (GPa) = 55.06793 75.98561 21.69527
#
# Poissons Ratio (x) = 0.55245 -0.21313
# Poissons Ratio (y) = 0.40037 0.20441
# Poissons Ratio (z) = -0.54097 0.71594
#
# Static dielectric constant tensor:
#      x y z
#    x 3.967230 0.000020 0.268010 
#    y 0.000020 3.703150 0.000090 
#    z 0.268010 0.000090 3.740890 
# 
# 
# High freq. dielectric constant tensor:
#      x y z
#    x 1.841970 0.000000 0.015790 
#    y 0.000000 1.825850 0.000000 
#    z 0.015790 0.000000 1.816370 
# 
# From -- ./inp_files/380578.got.cif
#   From: 2010.06.25/outbox.cif.g09.slc.cpg/sg12_191_cif.got.tgz:380578.got - 2010.06.28 00:19:55.
