data_PCOD8105576
_publ_section_title
;
Structure prediction by ZEFSAII (Michael W. Deem and Ramdas Pophale) SiO2 
 PCOD8105576
Probable space group: C 2/M
;
_chemical_formula_sum "Si O2"
_cell_formula_units_Z 64
_cell_length_a 18.822543
_cell_length_b 8.844859
_cell_length_c 30.815128
_cell_angle_alpha 90.000000
_cell_angle_beta 40.895649
_cell_angle_gamma 90.000000
_cell_volume 3358.648273
_symmetry_space_group_name_H-M "C 2/M"
_symmetry_group_IT_number 12
_symmetry_cell_setting 'monoclinic'
loop_
_space_group_symop_operation_xyz
x,y,z
-x,y,-z
-x,-y,-z
x,-y,z
1/2+x,1/2+y,z
1/2-x,1/2+y,-z
1/2-x,1/2-y,-z
1/2+x,1/2-y,z
loop_
_atom_site_type_symbol
_atom_site_label
_atom_site_fract_x
_atom_site_fract_y
_atom_site_fract_z
Si Si1 0.251228 0.173050 0.931086
Si Si2 0.171954 0.672672 0.327087
Si Si3 0.474782 0.176977 0.684269
Si Si4 0.640794 0.324651 0.825831
Si Si5 0.278581 0.178291 0.441274
Si Si6 0.378676 0.321267 0.561323
Si Si7 0.296473 0.677782 0.821236
Si Si8 0.585995 0.826861 0.065273
O O1 0.288962 0.279160 0.874775
O O2 0.342210 0.191084 0.925324
O O3 0.238566 0.000000 0.921642
O O4 0.136059 0.230521 0.002669
O O5 0.159799 0.500000 0.347572
O O6 0.073057 0.718394 0.340965
O O7 0.285273 0.700816 0.250554
O O8 0.170799 0.776327 0.369775
O O9 0.599957 0.224114 0.628382
O O10 0.413745 0.271280 0.749432
O O11 0.455429 0.000000 0.702590
O O12 0.615194 0.500000 0.845069
O O13 0.700547 0.262841 0.840638
O O14 0.531549 0.234002 0.868316
O O15 0.250000 0.250000 0.500000
O O16 0.197059 0.242602 0.442300
O O17 0.268114 0.000000 0.451008
O O18 0.500000 0.254130 0.500000
O O19 0.381103 0.500000 0.557535
O O20 0.282777 0.500000 0.821374
O O21 0.578632 0.000000 0.053552
#
# Coordination Sequence:
#
# PCOD8105576 Si02
#       8
#     8   8   8   8   8   8   8   8
#     4  10  21  38  58  80 112 150 183 225 282 331
#     4   9  19  35  55  77 102 137 178 218 261 317
#     4   9  19  37  56  76 106 142 180 222 273 327
#     4  10  21  38  58  82 114 147 181 224 278 332
#     4  10  21  36  55  79 107 141 180 222 268 321
#     4  10  21  35  52  78 110 140 173 217 269 320
#     4  11  22  36  57  84 111 142 186 232 273 327
#     4  10  21  37  58  84 111 143 187 231 272 326
#
# _framework density 19.055284
#
# number of rings (size 3 to 8) (size 9 to 14) (size 15 to 20)
#    0.000    2.125    0.000    3.750    0.000    6.750 
#    0.000    6.250    0.000    0.000    0.000    0.000 
#    0.000    0.000    0.000    0.000    0.000    0.000 
#
# Total GULP energy -396929.491480 kJ/mol
# GULP energy per Si atom -12404.046609 kJ/mol
# Density = 1.901191 g / cm^3
# Si number density = 19.055284 Si / 1000 Ang^3
#
#
#
# Elastic Constant Matrix: (Units=GPa)
#
#
# Indices 1 2 3 4 5 6 
#
# 1 100.6333 32.6547 68.0162 0.0025 -8.4764 0.0025
# 2 32.6547 28.3354 28.8296 0.0032 -2.1835 -0.0018
# 3 68.0162 28.8296 107.7767 0.0023 -4.9558 0.0011
# 4 0.0025 0.0032 0.0023 34.7935 -0.0001 6.0869
# 5 -8.4764 -2.1835 -4.9558 -0.0001 38.4109 -0.0002
# 6 0.0025 -0.0018 0.0011 6.0869 -0.0002 27.4963
#
#
#
# Elastic Compliance Matrix: (Units=1/GPa)
#
#
# Indices 1 2 3 4 5 6 
#
# 1 0.021286 -0.014815 -0.009349 0.000001 0.002649 -0.000003
# 2 -0.014815 0.058845 -0.006426 -0.000005 -0.000753 0.000007
# 3 -0.009349 -0.006426 0.016886 0.000000 -0.000250 0.000000
# 4 0.000001 -0.000005 0.000000 0.029899 0.000000 -0.006619
# 5 0.002649 -0.000753 -0.000250 0.000000 0.026544 0.000000
# 6 -0.000003 0.000007 0.000000 -0.006619 0.000000 0.037834
#
#
# Mechanical properties :
#
#
# Convention : Reuss Voigt Hill
#
# Bulk Modulus (GPa) = 27.90365 55.08293 41.49329
# Shear Modulus (GPa) = 18.90952 27.28981 23.09966
#
# Velocity S-wave (km/s) = 3.15358 3.78847 3.48551
# Velocity P-wave (km/s) = 5.28539 6.93587 6.16610
#
# Compressibility (1/GPa) = 0.03583760
#
# Stress axis : x y z
#
# Youngs Moduli (GPa) = 46.97898 16.99392 59.22240
#
# Poissons Ratio (x) = 0.25177 0.55364
# Poissons Ratio (y) = 0.69600 0.38054
# Poissons Ratio (z) = 0.43919 0.10920
#
# Static dielectric constant tensor:
#      x y z
#    x 3.618150 -0.000010 -0.261910 
#    y -0.000010 3.462510 0.000000 
#    z -0.261910 0.000000 3.668810 
# 
# 
# High freq. dielectric constant tensor:
#      x y z
#    x 1.739780 0.000000 -0.003240 
#    y 0.000000 1.741370 0.000000 
#    z -0.003240 0.000000 1.749400 
# 
# From -- ./inp_files/378128.got.cif
#   From: 2010.06.25/outbox.cif.g09.slc.cpg/sg12_190_cif.got.tgz:378128.got - 2010.06.28 00:19:55.
