data_PCOD8105356
_publ_section_title
;
Structure prediction by ZEFSAII (Michael W. Deem and Ramdas Pophale) SiO2 
 PCOD8105356
Probable space group: C 2/M
;
_chemical_formula_sum "Si O2"
_cell_formula_units_Z 64
_cell_length_a 9.027292
_cell_length_b 22.842089
_cell_length_c 21.267606
_cell_angle_alpha 90.000000
_cell_angle_beta 55.630298
_cell_angle_gamma 90.000000
_cell_volume 3619.784922
_symmetry_space_group_name_H-M "C 2/M"
_symmetry_group_IT_number 12
_symmetry_cell_setting 'monoclinic'
loop_
_space_group_symop_operation_xyz
x,y,z
-x,y,-z
-x,-y,-z
x,-y,z
1/2+x,1/2+y,z
1/2-x,1/2+y,-z
1/2-x,1/2-y,-z
1/2+x,1/2-y,z
loop_
_atom_site_type_symbol
_atom_site_label
_atom_site_fract_x
_atom_site_fract_y
_atom_site_fract_z
Si Si1 0.927935 0.877247 0.369376
Si Si2 0.452749 0.737374 0.439942
Si Si3 0.652518 0.936480 0.515754
Si Si4 0.279527 0.932003 0.226515
Si Si5 0.180737 0.430149 0.923996
Si Si6 0.875809 0.567849 0.771167
Si Si7 0.994381 0.932155 0.070700
Si Si8 0.400012 0.857109 0.643884
O O1 0.983727 0.816294 0.386355
O O2 0.847107 0.919191 0.442575
O O3 0.776078 0.872726 0.352936
O O4 0.106484 0.902948 0.297925
O O5 0.500000 0.723845 0.500000
O O6 0.250000 0.750000 0.500000
O O7 0.561545 0.788840 0.377910
O O8 0.500000 0.938600 0.500000
O O9 0.585630 0.889412 0.581652
O O10 0.671914 0.000000 0.543453
O O11 0.312088 0.906012 0.149063
O O12 0.452014 0.919485 0.227602
O O13 0.237372 0.000000 0.231645
O O14 0.180211 0.500000 0.923116
O O15 0.352746 0.404749 0.920652
O O16 0.000000 0.406323 0.000000
O O17 0.878914 0.500000 0.744085
O O18 0.701927 0.577465 0.854931
O O19 0.864221 0.619392 0.722391
O O20 0.042486 0.000000 0.052246
O O21 0.000000 0.902855 0.000000
#
# Coordination Sequence:
#
# PCOD8105356 Si02
#       8
#     8   8   8   8   8   8   8   8
#     4  11  22  35  55  76 103 135 175 221 268 316
#     4  12  23  41  59  78 100 131 179 230 273 319
#     4   9  17  30  49  72  98 131 169 206 253 315
#     4  10  21  34  49  77 112 143 176 218 266 313
#     4   9  16  28  48  73 105 143 179 214 255 307
#     4  10  21  34  50  77 112 144 177 218 262 315
#     4   9  16  28  48  73 104 143 180 213 254 308
#     4  11  21  36  53  76 101 137 177 216 269 318
#
# _framework density 17.680607999999999
#
# number of rings (size 3 to 8) (size 9 to 14) (size 15 to 20)
#    0.000    1.875    2.500    2.625    1.750    5.500 
#    0.000    0.000    0.000    3.000    0.000    0.875 
#    0.000    6.000    0.000    0.000    0.000    0.000 
#
# Total GULP energy -396520.407128 kJ/mol
# GULP energy per Si atom -12391.262723 kJ/mol
# Density = 1.764037 g / cm^3
# Si number density = 17.680608 Si / 1000 Ang^3
#
#
#
# Elastic Constant Matrix: (Units=GPa)
#
#
# Indices 1 2 3 4 5 6 
#
# 1 119.5754 31.7577 63.5458 0.0000 -3.9759 0.0000
# 2 31.7577 60.5464 39.6758 0.0000 1.8004 0.0000
# 3 63.5458 39.6758 131.0293 0.0000 -4.9321 0.0000
# 4 0.0000 0.0000 0.0000 1.9176 0.0000 3.8391
# 5 -3.9759 1.8004 -4.9321 0.0000 39.3858 0.0000
# 6 0.0000 0.0000 0.0000 3.8391 0.0000 18.7900
#
#
#
# Elastic Compliance Matrix: (Units=1/GPa)
#
#
# Indices 1 2 3 4 5 6 
#
# 1 0.011713 -0.003070 -0.004723 0.000000 0.000731 0.000000
# 2 -0.003070 0.021528 -0.005102 0.000000 -0.001933 0.000000
# 3 -0.004723 -0.005102 0.011513 0.000000 0.001198 0.000000
# 4 0.000000 0.000000 0.000000 0.882483 0.000000 -0.180307
# 5 0.000731 -0.001933 0.001198 0.000000 0.025702 0.000000
# 6 0.000000 0.000000 0.000000 -0.180307 0.000000 0.090060
#
#
# Mechanical properties :
#
#
# Convention : Reuss Voigt Hill
#
# Bulk Modulus (GPa) = 52.73858 64.56776 58.65317
# Shear Modulus (GPa) = 4.65069 23.76344 14.20706
#
# Velocity S-wave (km/s) = 1.62361 3.67009 2.83775
# Velocity P-wave (km/s) = 5.77997 7.38632 6.63196
#
# Compressibility (1/GPa) = 0.01896145
#
# Stress axis : x y z
#
# Youngs Moduli (GPa) = 85.37772 46.45179 86.86135
#
# Poissons Ratio (x) = 0.14262 0.41026
# Poissons Ratio (y) = 0.26213 0.44320
# Poissons Ratio (z) = 0.40325 0.23702
#
# Static dielectric constant tensor:
#      x y z
#    x 3.382250 0.000000 0.019010 
#    y 0.000000 3.009710 0.000000 
#    z 0.019010 0.000000 3.371480 
# 
# 
# High freq. dielectric constant tensor:
#      x y z
#    x 1.696380 0.000000 -0.005450 
#    y 0.000000 1.640100 0.000000 
#    z -0.005450 0.000000 1.690860 
# 
# From -- ./inp_files/302299.got.cif
#   From: 2010.06.25/outbox.cif.g09.slc.cpg/sg12_152_cif.got.tgz:302299.got - 2010.06.28 00:19:55.
