data_PCOD8105385
_publ_section_title
;
Structure prediction by ZEFSAII (Michael W. Deem and Ramdas Pophale) SiO2 
 PCOD8105385
Probable space group: C 2/M
;
_chemical_formula_sum "Si O2"
_cell_formula_units_Z 40
_cell_length_a 18.283935
_cell_length_b 18.464974
_cell_length_c 14.885039
_cell_angle_alpha 90.000000
_cell_angle_beta 22.425208
_cell_angle_gamma 90.000000
_cell_volume 1917.064938
_symmetry_space_group_name_H-M "C 2/M"
_symmetry_group_IT_number 12
_symmetry_cell_setting 'monoclinic'
loop_
_space_group_symop_operation_xyz
x,y,z
-x,y,-z
-x,-y,-z
x,-y,z
1/2+x,1/2+y,z
1/2-x,1/2+y,-z
1/2-x,1/2-y,-z
1/2+x,1/2-y,z
loop_
_atom_site_type_symbol
_atom_site_label
_atom_site_fract_x
_atom_site_fract_y
_atom_site_fract_z
Si Si1 0.185490 0.801859 0.652092
Si Si2 0.376516 0.297673 0.564350
Si Si3 0.647385 0.921583 0.911310
Si Si4 0.506238 0.915544 0.263833
Si Si5 0.857119 0.823617 0.901949
O O1 0.250000 0.750000 0.500000
O O2 0.209281 0.755733 0.717362
O O3 0.319624 0.872509 0.509767
O O4 0.966824 0.822744 0.874371
O O5 0.500000 0.253743 0.500000
O O6 0.300967 0.362131 0.712374
O O7 0.493472 0.334664 0.349435
O O8 0.747058 0.000000 0.816057
O O9 0.500000 0.929834 0.000000
O O10 0.526217 0.898252 0.135881
O O11 0.477219 0.000000 0.318961
O O12 0.702678 0.887766 0.087109
O O13 0.750000 0.750000 0.000000
#
# Coordination Sequence:
#
# PCOD8105385 Si02
#       5
#     8   8   8   8   8
#     4  10  21  38  59  83 118 157 203 242 284 346
#     4  11  21  33  58  85 116 153 199 242 292 344
#     4  10  21  34  51  83 126 158 182 228 297 359
#     4  11  22  38  61  88 120 158 196 242 295 352
#     4  11  21  38  58  82 117 160 203 241 283 346
#
# _framework density 20.865228999999999
#
# number of rings (size 3 to 8) (size 9 to 14) (size 15 to 20)
#    0.000    1.400    6.000    2.400    0.000    2.000 
#    0.000    0.000    0.000    0.600    0.000    1.400 
#    0.000    0.000    0.000    0.000    0.000    0.000 
#
# Total GULP energy -247829.687015 kJ/mol
# GULP energy per Si atom -12391.484351 kJ/mol
# Density = 2.081774 g / cm^3
# Si number density = 20.865229 Si / 1000 Ang^3
#
#
#
# Elastic Constant Matrix: (Units=GPa)
#
#
# Indices 1 2 3 4 5 6 
#
# 1 120.3322 30.3301 23.0525 0.0017 -37.7128 0.0071
# 2 30.3301 118.7464 37.7053 -0.0048 -12.0791 0.0026
# 3 23.0525 37.7053 61.4663 0.0676 -26.7619 -0.0214
# 4 0.0017 -0.0048 0.0676 57.2758 -0.0253 -0.5333
# 5 -37.7128 -12.0791 -26.7619 -0.0253 38.0620 0.0047
# 6 0.0071 0.0026 -0.0214 -0.5333 0.0047 26.9162
#
#
#
# Elastic Compliance Matrix: (Units=1/GPa)
#
#
# Indices 1 2 3 4 5 6 
#
# 1 0.012795 -0.002795 0.002954 0.000002 0.013868 -0.000003
# 2 -0.002795 0.011148 -0.007863 0.000008 -0.004760 -0.000006
# 3 0.002954 -0.007863 0.029072 -0.000026 0.020873 0.000019
# 4 0.000002 0.000008 -0.000026 0.017463 -0.000002 0.000346
# 5 0.013868 -0.004760 0.020873 -0.000002 0.053179 0.000004
# 6 -0.000003 -0.000006 0.000019 0.000346 0.000004 0.037159
#
#
# Mechanical properties :
#
#
# Convention : Reuss Voigt Hill
#
# Bulk Modulus (GPa) = 26.59077 53.63563 40.11320
# Shear Modulus (GPa) = 26.48875 38.41459 32.45167
#
# Velocity S-wave (km/s) = 3.56689 4.29544 3.94801
# Velocity P-wave (km/s) = 5.45301 7.09666 6.32843
#
# Compressibility (1/GPa) = 0.03760703
#
# Stress axis : x y z
#
# Youngs Moduli (GPa) = 78.15390 89.70492 34.39715
#
# Poissons Ratio (x) = 0.25077 -0.10161
# Poissons Ratio (y) = 0.21848 0.27045
# Poissons Ratio (z) = -0.23086 0.70531
#
# Static dielectric constant tensor:
#      x y z
#    x 4.341200 0.000080 -0.584510 
#    y 0.000080 4.086590 -0.000170 
#    z -0.584510 -0.000170 3.984190 
# 
# 
# High freq. dielectric constant tensor:
#      x y z
#    x 1.819370 0.000000 -0.028240 
#    y 0.000000 1.803250 0.000010 
#    z -0.028240 0.000010 1.798400 
# 
# From -- ./inp_files/284904.got.cif
#   From: 2010.06.25/outbox.cif.g09.slc.cpg/sg12_143_cif.got.tgz:284904.got - 2010.06.28 00:19:55.
