data_PCOD8105279
_publ_section_title
;
Structure prediction by ZEFSAII (Michael W. Deem and Ramdas Pophale) SiO2 
 PCOD8105279
Probable space group: C 2/M
;
_chemical_formula_sum "Si O2"
_cell_formula_units_Z 48
_cell_length_a 34.212535
_cell_length_b 9.249518
_cell_length_c 27.066271
_cell_angle_alpha 90.000000
_cell_angle_beta 161.810066
_cell_angle_gamma 90.000000
_cell_volume 2673.752413
_symmetry_space_group_name_H-M "C 2/M"
_symmetry_group_IT_number 12
_symmetry_cell_setting 'monoclinic'
loop_
_space_group_symop_operation_xyz
x,y,z
-x,y,-z
-x,-y,-z
x,-y,z
1/2+x,1/2+y,z
1/2-x,1/2+y,-z
1/2-x,1/2-y,-z
1/2+x,1/2-y,z
loop_
_atom_site_type_symbol
_atom_site_label
_atom_site_fract_x
_atom_site_fract_y
_atom_site_fract_z
Si Si1 0.949763 0.671606 0.363697
Si Si2 0.810390 0.672101 0.292013
Si Si3 0.124861 0.671471 0.833482
Si Si4 0.539340 0.327754 0.994086
Si Si5 0.588665 0.831606 0.346222
Si Si6 0.628402 0.669183 0.297110
O O1 0.952256 0.500000 0.364652
O O2 0.848893 0.724781 0.283280
O O3 0.912905 0.732166 0.265839
O O4 0.087650 0.727247 0.545464
O O5 0.806604 0.500000 0.288246
O O6 0.675166 0.736769 0.143161
O O7 0.146947 0.500000 0.859596
O O8 0.013776 0.716045 0.736948
O O9 0.250000 0.750000 0.000000
O O10 0.544626 0.500000 0.002262
O O11 0.438162 0.275137 0.832505
O O12 0.500000 0.264939 0.000000
O O13 0.563475 0.746644 0.265478
O O14 0.725266 0.791435 0.531760
O O15 0.579716 0.000000 0.323362
O O16 0.606907 0.500000 0.278950
#
# Coordination Sequence:
#
# PCOD8105279 Si02
#       6
#     8   8   8   8   8   8
#     4   8  15  27  43  63  91 123 153 190 236 284
#     4   8  14  25  41  64  91 119 151 189 237 285
#     4  10  21  33  49  72  99 129 162 201 241 285
#     4   9  17  25  41  70  98 120 149 194 242 285
#     4   9  19  34  49  69  98 132 164 196 239 285
#     4   9  18  32  51  73  98 129 161 197 241 287
#
# _framework density 17.952297999999999
#
# number of rings (size 3 to 8) (size 9 to 14) (size 15 to 20)
#    0.000    3.167    0.000    1.000    4.667    0.667 
#    0.000    0.000    0.000    0.500    0.000    3.500 
#    0.000    0.000    0.000    0.000    0.000    0.000 
#
# Total GULP energy -297524.814688 kJ/mol
# GULP energy per Si atom -12396.867279 kJ/mol
# Density = 1.791144 g / cm^3
# Si number density = 17.952298 Si / 1000 Ang^3
#
#
#
# Elastic Constant Matrix: (Units=GPa)
#
#
# Indices 1 2 3 4 5 6 
#
# 1 186.2287 29.2611 112.5528 0.0000 -8.2756 0.0000
# 2 29.2611 14.2239 24.4129 -0.0001 -1.2788 0.0000
# 3 112.5528 24.4129 146.6433 0.0000 -5.4451 0.0000
# 4 0.0000 -0.0001 0.0000 19.1978 0.0000 -1.9604
# 5 -8.2756 -1.2788 -5.4451 0.0000 38.6038 0.0000
# 6 0.0000 0.0000 0.0000 -1.9604 0.0000 18.3703
#
#
#
# Elastic Compliance Matrix: (Units=1/GPa)
#
#
# Indices 1 2 3 4 5 6 
#
# 1 0.011289 -0.011653 -0.006684 0.000000 0.001091 0.000000
# 2 -0.011653 0.110493 -0.009457 0.000000 -0.000172 0.000000
# 3 -0.006684 -0.009457 0.013530 0.000000 0.000162 0.000000
# 4 0.000000 0.000000 0.000000 0.052663 0.000000 0.005620
# 5 0.001091 -0.000172 0.000162 0.000000 0.026155 0.000000
# 6 0.000000 0.000000 0.000000 0.005620 0.000000 0.055035
#
#
# Mechanical properties :
#
#
# Convention : Reuss Voigt Hill
#
# Bulk Modulus (GPa) = 12.54341 75.50550 44.02446
# Shear Modulus (GPa) = 14.23173 27.29232 20.76202
#
# Velocity S-wave (km/s) = 2.81864 3.90329 3.40444
# Velocity P-wave (km/s) = 4.19467 7.90345 6.32692
#
# Compressibility (1/GPa) = 0.07972314
#
# Stress axis : x y z
#
# Youngs Moduli (GPa) = 88.58229 9.05039 73.91067
#
# Poissons Ratio (x) = 0.10547 0.49402
# Poissons Ratio (y) = 1.03227 0.69896
# Poissons Ratio (z) = 0.59209 0.08559
#
# Static dielectric constant tensor:
#      x y z
#    x 3.621090 0.000000 -0.022540 
#    y 0.000000 2.740140 0.000000 
#    z -0.022540 0.000000 3.549890 
# 
# 
# High freq. dielectric constant tensor:
#      x y z
#    x 1.706860 0.000000 -0.000390 
#    y 0.000000 1.628990 0.000000 
#    z -0.000390 0.000000 1.706740 
# 
# From -- ./inp_files/164117.got.cif
#   From: 2010.06.25/outbox.cif.g09.slc.cpg/sg12_83_cif.got.tgz:164117.got - 2010.06.28 00:19:55.
