data_PCOD8105795
_publ_section_title
;
Structure prediction by ZEFSAII (Michael W. Deem and Ramdas Pophale) SiO2 
 PCOD8105795
Probable space group: C 2/M
;
_chemical_formula_sum "Si O2"
_cell_formula_units_Z 40
_cell_length_a 13.618372
_cell_length_b 27.956476
_cell_length_c 8.473184
_cell_angle_alpha 90.000000
_cell_angle_beta 32.959603
_cell_angle_gamma 90.000000
_cell_volume 1755.056672
_symmetry_space_group_name_H-M "C 2/M"
_symmetry_group_IT_number 12
_symmetry_cell_setting 'monoclinic'
loop_
_space_group_symop_operation_xyz
x,y,z
-x,y,-z
-x,-y,-z
x,-y,z
1/2+x,1/2+y,z
1/2-x,1/2+y,-z
1/2-x,1/2-y,-z
1/2+x,1/2-y,z
loop_
_atom_site_type_symbol
_atom_site_label
_atom_site_fract_x
_atom_site_fract_y
_atom_site_fract_z
Si Si1 0.672451 0.775060 0.450962
Si Si2 0.681332 0.401830 0.166628
Si Si3 0.029193 0.445752 0.782566
Si Si4 0.305099 0.124022 0.681003
Si Si5 0.854335 0.305774 0.054134
O O1 0.750000 0.750000 0.500000
O O2 0.771933 0.825319 0.278617
O O3 0.703159 0.735151 0.276705
O O4 0.462662 0.789173 0.751965
O O5 0.500000 0.418495 0.500000
O O6 0.756499 0.355458 0.156147
O O7 0.830270 0.443690 0.973679
O O8 0.656695 0.392714 0.011629
O O9 0.101742 0.500000 0.678871
O O10 0.173923 0.412740 0.494159
O O11 0.000000 0.427236 0.000000
O O12 0.500000 0.129835 0.500000
O O13 0.000000 0.310629 0.000000
#
# Coordination Sequence:
#
# PCOD8105795 Si02
#       5
#     8   8   8   8   8
#     4  10  21  35  57  88 121 173 209 261 307 370
#     4  11  24  39  62  95 133 169 199 273 317 371
#     4  10  22  44  75  95 118 166 214 261 321 389
#     4  10  21  40  62  92 130 163 215 261 315 379
#     4  10  21  38  58  85 127 174 220 254 307 374
#
# _framework density 22.791287000000001
#
# number of rings (size 3 to 8) (size 9 to 14) (size 15 to 20)
#    0.000    1.800    4.000    0.600    5.600    5.600 
#    0.000    1.000    0.000    2.400    0.000    0.000 
#    0.000    0.000    0.000    0.000    0.000    0.000 
#
# Total GULP energy -247807.236757 kJ/mol
# GULP energy per Si atom -12390.361838 kJ/mol
# Density = 2.273941 g / cm^3
# Si number density = 22.791287 Si / 1000 Ang^3
#
#
#
# Elastic Constant Matrix: (Units=GPa)
#
#
# Indices 1 2 3 4 5 6 
#
# 1 40.6062 24.0812 16.3455 0.0000 21.9789 0.0000
# 2 24.0812 101.2185 13.1806 0.0000 26.5845 0.0000
# 3 16.3455 13.1806 119.3561 0.0000 32.4668 0.0000
# 4 0.0000 0.0000 0.0000 27.1575 0.0000 0.3971
# 5 21.9789 26.5845 32.4668 0.0000 39.8876 0.0000
# 6 0.0000 0.0000 0.0000 0.3971 0.0000 29.6448
#
#
#
# Elastic Compliance Matrix: (Units=1/GPa)
#
#
# Indices 1 2 3 4 5 6 
#
# 1 0.036462 -0.004095 0.000233 0.000000 -0.017551 0.000000
# 2 -0.004095 0.012547 0.001074 0.000000 -0.006980 0.000000
# 3 0.000233 0.001074 0.010862 0.000000 -0.009686 0.000000
# 4 0.000000 0.000000 0.000000 0.036829 0.000000 -0.000493
# 5 -0.017551 -0.006980 -0.009686 0.000000 0.047278 0.000000
# 6 0.000000 0.000000 0.000000 -0.000493 0.000000 0.033739
#
#
# Mechanical properties :
#
#
# Convention : Reuss Voigt Hill
#
# Bulk Modulus (GPa) = 18.41782 40.93285 29.67533
# Shear Modulus (GPa) = 24.82712 33.17622 29.00167
#
# Velocity S-wave (km/s) = 3.30407 3.81944 3.57107
# Velocity P-wave (km/s) = 4.75967 6.11962 5.48198
#
# Compressibility (1/GPa) = 0.05429526
#
# Stress axis : x y z
#
# Youngs Moduli (GPa) = 27.42605 79.69782 92.06013
#
# Poissons Ratio (x) = 0.32639 -0.02147
# Poissons Ratio (y) = 0.11232 -0.09887
# Poissons Ratio (z) = -0.00640 -0.08559
#
# Static dielectric constant tensor:
#      x y z
#    x 3.937070 0.000000 0.528040 
#    y 0.000000 4.120130 0.000000 
#    z 0.528040 0.000000 4.841430 
# 
# 
# High freq. dielectric constant tensor:
#      x y z
#    x 1.869950 0.000000 0.034700 
#    y 0.000000 1.896910 0.000000 
#    z 0.034700 0.000000 1.905840 
# 
# From -- ./inp_files/66379.got.cif
#   From: 2010.06.25/outbox.cif.g09.slc.cpg/sg12_34_cif.got.tgz:66379.got - 2010.06.28 00:19:55.
