data_PCOD8105771
_publ_section_title
;
Structure prediction by ZEFSAII (Michael W. Deem and Ramdas Pophale) SiO2 
 PCOD8105771
Probable space group: C 2/M
;
_chemical_formula_sum "Si O2"
_cell_formula_units_Z 40
_cell_length_a 30.610025
_cell_length_b 7.410950
_cell_length_c 19.824921
_cell_angle_alpha 90.000000
_cell_angle_beta 154.404754
_cell_angle_gamma 90.000000
_cell_volume 1942.870066
_symmetry_space_group_name_H-M "C 2/M"
_symmetry_group_IT_number 12
_symmetry_cell_setting 'monoclinic'
loop_
_space_group_symop_operation_xyz
x,y,z
-x,y,-z
-x,-y,-z
x,-y,z
1/2+x,1/2+y,z
1/2-x,1/2+y,-z
1/2-x,1/2-y,-z
1/2+x,1/2-y,z
loop_
_atom_site_type_symbol
_atom_site_label
_atom_site_fract_x
_atom_site_fract_y
_atom_site_fract_z
Si Si1 0.166627 0.000000 0.226131
Si Si2 0.392080 0.714413 0.372591
Si Si3 0.993425 0.711365 0.213983
Si Si4 0.222257 0.709879 0.037571
Si Si5 0.331918 0.709647 0.437395
Si Si6 0.993520 0.000000 0.879732
O O1 0.233463 0.180047 0.321546
O O2 0.099102 0.000000 0.198293
O O3 0.100257 0.000000 0.066297
O O4 0.500000 0.794692 0.500000
O O5 0.394545 0.500000 0.371121
O O6 0.306311 0.796855 0.203836
O O7 0.369257 0.777793 0.416526
O O8 0.989582 0.500000 0.190875
O O9 0.016048 0.818896 0.177370
O O10 0.079125 0.752719 0.387022
O O11 0.888372 0.786555 0.098864
O O12 0.220196 0.500000 0.048213
O O13 0.250000 0.750000 0.000000
O O14 0.301821 0.500000 0.394612
#
# Coordination Sequence:
#
# PCOD8105771 Si02
#       6
#     4   8   8   8   8   4
#     4  11  26  46  67 100 129 159 225 271 320 407
#     4   9  18  34  58  87 124 170 212 255 315 382
#     4  11  23  42  65  97 131 170 220 266 318 393
#     4  10  21  35  56  89 127 169 214 261 313 381
#     4  11  22  42  68  95 130 172 212 275 329 376
#     4  11  26  46  70  94 130 175 205 271 341 381
#
# _framework density 20.588097999999999
#
# number of rings (size 3 to 8) (size 9 to 14) (size 15 to 20)
#    0.000    1.600    2.000    2.400    1.400    5.600 
#    1.800    2.500    0.000    0.000    0.000    0.000 
#    0.000    0.000    0.000    0.000    0.000    0.000 
#
# Total GULP energy -248059.713326 kJ/mol
# GULP energy per Si atom -12402.985666 kJ/mol
# Density = 2.054124 g / cm^3
# Si number density = 20.588098 Si / 1000 Ang^3
#
#
#
# Elastic Constant Matrix: (Units=GPa)
#
#
# Indices 1 2 3 4 5 6 
#
# 1 146.0102 44.6777 99.0004 0.0000 -10.0110 0.0000
# 2 44.6777 97.5596 41.6131 0.0001 2.2804 0.0000
# 3 99.0004 41.6131 205.6579 0.0000 -6.2190 0.0000
# 4 0.0000 0.0001 0.0000 -24.1605 0.0000 -8.3044
# 5 -10.0110 2.2804 -6.2190 0.0000 40.7396 0.0000
# 6 0.0000 0.0000 0.0000 -8.3044 0.0000 25.5047
#
#
#
# Elastic Compliance Matrix: (Units=1/GPa)
#
#
# Indices 1 2 3 4 5 6 
#
# 1 0.011116 -0.003161 -0.004645 0.000000 0.002199 0.000000
# 2 -0.003161 0.012156 -0.000987 0.000000 -0.001608 0.000000
# 3 -0.004645 -0.000987 0.007299 0.000000 0.000028 0.000000
# 4 0.000000 0.000000 0.000000 -0.037224 0.000000 -0.012120
# 5 0.002199 -0.001608 0.000028 0.000000 0.025181 0.000000
# 6 0.000000 0.000000 0.000000 -0.012120 0.000000 0.035262
#
#
# Mechanical properties :
#
#
# Convention : Reuss Voigt Hill
#
# Bulk Modulus (GPa) = 77.00545 91.09001 84.04773
# Shear Modulus (GPa) = 66.04595 26.01253 46.02924
#
# Velocity S-wave (km/s) = 5.67004 3.55839 4.73347
# Velocity P-wave (km/s) = 8.96381 7.82451 8.41347
#
# Compressibility (1/GPa) = 0.01298609
#
# Stress axis : x y z
#
# Youngs Moduli (GPa) = 89.95683 82.26312 137.00377
#
# Poissons Ratio (x) = 0.26002 0.63641
# Poissons Ratio (y) = 0.28434 0.13518
# Poissons Ratio (z) = 0.41787 0.08117
#
# Static dielectric constant tensor:
#      x y z
#    x 3.674330 0.000000 0.018440 
#    y 0.000000 3.768470 0.000000 
#    z 0.018440 0.000000 4.083150 
# 
# 
# High freq. dielectric constant tensor:
#      x y z
#    x 1.805220 0.000000 -0.003600 
#    y 0.000000 1.805420 0.000000 
#    z -0.003600 0.000000 1.825330 
# 
# From -- ./inp_files/292351.got.cif
#   From: 2010.06.25/outbox.cif.g09.slc.cpg/sg12_147_cif.got.tgz:292351.got - 2010.06.28 00:19:55.
