data_PCOD8105024
_publ_section_title
;
Structure prediction by ZEFSAII (Michael W. Deem and Ramdas Pophale) SiO2 
 PCOD8105024
Probable space group: C 2/M
;
_chemical_formula_sum "Si O2"
_cell_formula_units_Z 56
_cell_length_a 14.911534
_cell_length_b 17.466242
_cell_length_c 10.988987
_cell_angle_alpha 90.000000
_cell_angle_beta 65.756162
_cell_angle_gamma 90.000000
_cell_volume 2609.648419
_symmetry_space_group_name_H-M "C 2/M"
_symmetry_group_IT_number 12
_symmetry_cell_setting 'monoclinic'
loop_
_space_group_symop_operation_xyz
x,y,z
-x,y,-z
-x,-y,-z
x,-y,z
1/2+x,1/2+y,z
1/2-x,1/2+y,-z
1/2-x,1/2-y,-z
1/2+x,1/2-y,z
loop_
_atom_site_type_symbol
_atom_site_label
_atom_site_fract_x
_atom_site_fract_y
_atom_site_fract_z
Si Si1 0.457945 0.910646 0.657799
Si Si2 0.398572 0.586323 0.002305
Si Si3 0.065463 0.409913 0.848572
Si Si4 0.060828 0.914326 0.300051
Si Si5 0.834090 0.911930 0.425873
Si Si6 0.749859 0.158098 0.242655
Si Si7 0.760672 0.832071 0.686176
O O1 0.500000 0.891321 0.500000
O O2 0.525413 0.886436 0.735967
O O3 0.361148 0.861043 0.727176
O O4 0.432690 0.000000 0.680678
O O5 0.377273 0.500000 0.062579
O O6 0.312476 0.645884 0.084894
O O7 0.500000 0.617937 0.000000
O O8 0.405914 0.585797 0.855551
O O9 0.076758 0.500000 0.850902
O O10 0.173162 0.374085 0.806635
O O11 0.000000 0.380654 0.000000
O O12 0.131198 0.855381 0.328506
O O13 0.948080 0.887758 0.378372
O O14 0.073634 0.000000 0.347548
O O15 0.799577 0.901513 0.307453
O O16 0.761451 0.858281 0.545102
O O17 0.817983 0.000000 0.471839
O O18 0.757592 0.242608 0.291685
#
# Coordination Sequence:
#
# PCOD8105024 Si02
#       7
#     8   8   8   8   8   8   8
#     4  10  22  42  67  92 120 166 225 272 307 368
#     4  10  20  40  66  94 123 162 215 266 311 368
#     4  10  23  44  65  88 123 174 228 267 305 373
#     4  10  22  40  67  95 122 163 215 263 312 376
#     4  11  22  43  70  95 123 164 217 266 312 374
#     4  12  25  39  64  97 132 164 203 260 331 385
#     4  12  26  40  61  94 137 170 199 254 330 391
#
# _framework density 21.458829999999999
#
# number of rings (size 3 to 8) (size 9 to 14) (size 15 to 20)
#    0.000    1.286    1.429    4.286    2.000    5.714 
#    0.000    0.000    0.000    0.000    0.000    0.000 
#    0.000    0.000    0.000    0.000    0.000    0.000 
#
# Total GULP energy -347189.967300 kJ/mol
# GULP energy per Si atom -12399.641689 kJ/mol
# Density = 2.140999 g / cm^3
# Si number density = 21.458830 Si / 1000 Ang^3
#
#
#
# Elastic Constant Matrix: (Units=GPa)
#
#
# Indices 1 2 3 4 5 6 
#
# 1 82.6018 24.7440 25.7375 0.0000 -7.8035 0.0000
# 2 24.7440 74.8657 46.4222 0.0000 -14.2191 0.0000
# 3 25.7375 46.4222 125.6914 0.0000 -14.3788 0.0000
# 4 0.0000 0.0000 0.0000 41.3850 0.0000 -46.2282
# 5 -7.8035 -14.2191 -14.3788 0.0000 40.8840 0.0000
# 6 0.0000 0.0000 0.0000 -46.2282 0.0000 129.4552
#
#
#
# Elastic Compliance Matrix: (Units=1/GPa)
#
#
# Indices 1 2 3 4 5 6 
#
# 1 0.013672 -0.003470 -0.001415 0.000000 0.000905 0.000000
# 2 -0.003470 0.018835 -0.005806 0.000000 0.003846 0.000000
# 3 -0.001415 -0.005806 0.010553 0.000000 0.001422 0.000000
# 4 0.000000 0.000000 0.000000 0.040198 0.000000 0.014355
# 5 0.000905 0.003846 0.001422 0.000000 0.026470 0.000000
# 6 0.000000 0.000000 0.000000 0.014355 0.000000 0.012851
#
#
# Mechanical properties :
#
#
# Convention : Reuss Voigt Hill
#
# Bulk Modulus (GPa) = 46.12727 52.99624 49.56176
# Shear Modulus (GPa) = 33.07231 54.76187 43.91709
#
# Velocity S-wave (km/s) = 3.93007 5.05716 4.52882
# Velocity P-wave (km/s) = 6.49125 7.67139 7.10586
#
# Compressibility (1/GPa) = 0.02167915
#
# Stress axis : x y z
#
# Youngs Moduli (GPa) = 73.14270 53.09391 94.76343
#
# Poissons Ratio (x) = 0.18422 0.13405
# Poissons Ratio (y) = 0.25378 0.55017
# Poissons Ratio (z) = 0.10346 0.30825
#
# Static dielectric constant tensor:
#      x y z
#    x 3.726740 0.000000 -0.085800 
#    y 0.000000 3.667200 0.000000 
#    z -0.085800 0.000000 4.043750 
# 
# 
# High freq. dielectric constant tensor:
#      x y z
#    x 1.845710 0.000000 -0.001240 
#    y 0.000000 1.820060 0.000000 
#    z -0.001240 0.000000 1.862340 
# 
# From -- ./inp_files/146047.got.cif
#   From: 2010.06.25/outbox.cif.g09.slc.cpg/sg12_74_cif.got.tgz:146047.got - 2010.06.28 00:19:55.
