data_PCOD8105434
_publ_section_title
;
Structure prediction by ZEFSAII (Michael W. Deem and Ramdas Pophale) SiO2 
 PCOD8105434
Probable space group: C 2/M
;
_chemical_formula_sum "Si O2"
_cell_formula_units_Z 52
_cell_length_a 25.598528
_cell_length_b 22.382940
_cell_length_c 13.409678
_cell_angle_alpha 90.000000
_cell_angle_beta 20.709575
_cell_angle_gamma 90.000000
_cell_volume 2717.071115
_symmetry_space_group_name_H-M "C 2/M"
_symmetry_group_IT_number 12
_symmetry_cell_setting 'monoclinic'
loop_
_space_group_symop_operation_xyz
x,y,z
-x,y,-z
-x,-y,-z
x,-y,z
1/2+x,1/2+y,z
1/2-x,1/2+y,-z
1/2-x,1/2-y,-z
1/2+x,1/2-y,z
loop_
_atom_site_type_symbol
_atom_site_label
_atom_site_fract_x
_atom_site_fract_y
_atom_site_fract_z
Si Si1 0.988674 0.673501 0.408397
Si Si2 0.219867 0.500000 0.033467
Si Si3 0.614728 0.000000 0.433930
Si Si4 0.722835 0.618682 0.170274
Si Si5 0.669990 0.565555 0.673083
Si Si6 0.921771 0.071558 0.374852
Si Si7 0.256932 0.387926 0.259184
Si Si8 0.000000 0.212873 0.500000
O O1 0.826280 0.667367 0.646327
O O2 0.018275 0.744574 0.369324
O O3 0.000000 0.643085 0.500000
O O4 0.107578 0.640423 0.125906
O O5 0.224188 0.500000 0.144170
O O6 0.055222 0.500000 0.287849
O O7 0.303384 0.558772 0.846278
O O8 0.646256 0.057694 0.441432
O O9 0.659477 0.606642 0.392465
O O10 0.642704 0.671788 0.254621
O O11 0.746069 0.500000 0.552753
O O12 0.681096 0.585544 0.537933
O O13 0.733133 0.615814 0.637103
O O14 0.500000 0.556050 0.000000
O O15 0.934476 0.000000 0.369968
O O16 0.083524 0.100570 0.074347
#
# Coordination Sequence:
#
# PCOD8105434 Si02
#       8
#     8   4   4   8   8   8   8   4
#     4  10  24  42  58  81 113 161 204 238 281 349
#     4  11  24  34  54  89 129 155 180 252 296 358
#     4  11  20  33  54  88 123 164 195 217 297 358
#     4  12  23  40  59  85 125 151 193 249 303 344
#     4   8  15  31  52  84 121 155 192 233 285 354
#     4  10  21  34  55  92 126 151 190 241 299 350
#     4  11  18  34  62  81 118 165 200 231 281 358
#     4  10  28  41  62  79 112 164 210 244 286 342
#
# _framework density 19.138255000000001
#
# number of rings (size 3 to 8) (size 9 to 14) (size 15 to 20)
#    0.462    1.231    3.846    2.308    4.308    0.308 
#    0.000    0.769    0.000    3.692    0.000    0.000 
#    0.000    0.000    0.000    0.000    0.000    0.000 
#
# Total GULP energy -322149.351437 kJ/mol
# GULP energy per Si atom -12390.359671 kJ/mol
# Density = 1.909470 g / cm^3
# Si number density = 19.138255 Si / 1000 Ang^3
#
#
#
# Elastic Constant Matrix: (Units=GPa)
#
#
# Indices 1 2 3 4 5 6 
#
# 1 125.4814 49.4600 47.9326 -0.0093 -2.7919 0.0256
# 2 49.4600 108.1112 40.9222 -0.0273 4.2935 0.0446
# 3 47.9326 40.9222 87.2853 -0.0148 4.1486 0.0249
# 4 -0.0093 -0.0273 -0.0148 18.5688 0.0338 3.9877
# 5 -2.7919 4.2935 4.1486 0.0338 17.9359 -0.0403
# 6 0.0256 0.0446 0.0249 3.9877 -0.0403 7.1928
#
#
#
# Elastic Compliance Matrix: (Units=1/GPa)
#
#
# Indices 1 2 3 4 5 6 
#
# 1 0.011226 -0.003504 -0.004697 -0.000016 0.003673 0.000027
# 2 -0.003504 0.012379 -0.003754 0.000037 -0.002641 -0.000087
# 3 -0.004697 -0.003754 0.015963 0.000021 -0.003525 -0.000047
# 4 -0.000016 0.000037 0.000021 0.061133 -0.000208 -0.033893
# 5 0.003673 -0.002641 -0.003525 -0.000208 0.057775 0.000454
# 6 0.000027 -0.000087 -0.000047 -0.033893 0.000454 0.157821
#
#
# Mechanical properties :
#
#
# Convention : Reuss Voigt Hill
#
# Bulk Modulus (GPa) = 63.85974 66.38971 65.12472
# Shear Modulus (GPa) = 14.47491 20.91038 17.69265
#
# Velocity S-wave (km/s) = 2.75314 3.30903 3.04380
# Velocity P-wave (km/s) = 6.59897 7.02598 6.81582
#
# Compressibility (1/GPa) = 0.01565932
#
# Stress axis : x y z
#
# Youngs Moduli (GPa) = 89.07703 80.78481 62.64392
#
# Poissons Ratio (x) = 0.28307 0.29422
# Poissons Ratio (y) = 0.31213 0.23515
# Poissons Ratio (z) = 0.41836 0.30324
#
# Static dielectric constant tensor:
#      x y z
#    x 3.839180 0.000000 0.016880 
#    y 0.000000 3.486580 0.000040 
#    z 0.016880 0.000040 3.329690 
# 
# 
# High freq. dielectric constant tensor:
#      x y z
#    x 1.742360 0.000000 -0.004400 
#    y 0.000000 1.720090 0.000000 
#    z -0.004400 0.000000 1.730280 
# 
# From -- ./inp_files/251810.got.cif
#   From: 2010.06.25/outbox.cif.g09.slc.cpg/sg12_126_cif.got.tgz:251810.got - 2010.06.28 00:19:55.
