data_PCOD8105863
_publ_section_title
;
Structure prediction by ZEFSAII (Michael W. Deem and Ramdas Pophale) SiO2 
 PCOD8105863
Probable space group: C 2/M
;
_chemical_formula_sum "Si O2"
_cell_formula_units_Z 56
_cell_length_a 25.488086
_cell_length_b 14.127732
_cell_length_c 9.505184
_cell_angle_alpha 90.000000
_cell_angle_beta 124.720275
_cell_angle_gamma 90.000000
_cell_volume 2813.271579
_symmetry_space_group_name_H-M "C 2/M"
_symmetry_group_IT_number 12
_symmetry_cell_setting 'monoclinic'
loop_
_space_group_symop_operation_xyz
x,y,z
-x,y,-z
-x,-y,-z
x,-y,z
1/2+x,1/2+y,z
1/2-x,1/2+y,-z
1/2-x,1/2-y,-z
1/2+x,1/2-y,z
loop_
_atom_site_type_symbol
_atom_site_label
_atom_site_fract_x
_atom_site_fract_y
_atom_site_fract_z
Si Si1 0.370445 0.894084 0.151268
Si Si2 0.229036 0.110062 0.839539
Si Si3 0.991780 0.722458 0.324427
Si Si4 0.029153 0.106960 0.892381
Si Si5 0.773982 0.269103 0.382742
Si Si6 0.823738 0.108368 0.943058
Si Si7 0.112956 0.394279 0.493645
O O1 0.422557 0.819146 0.176395
O O2 0.368330 0.892636 0.315164
O O3 0.388046 0.000000 0.126054
O O4 0.301724 0.863040 0.989320
O O5 0.208286 0.173017 0.674573
O O6 0.222625 0.000000 0.787772
O O7 0.182993 0.134767 0.901451
O O8 0.004638 0.820769 0.265200
O O9 0.000000 0.745266 0.500000
O O10 0.042184 0.643222 0.356009
O O11 0.012718 0.000000 0.819546
O O12 0.104957 0.123267 0.004136
O O13 0.000000 0.127730 0.000000
O O14 0.750000 0.250000 0.500000
O O15 0.722219 0.327837 0.218564
O O16 0.837522 0.328230 0.510307
O O17 0.801302 0.000000 0.889530
O O18 0.116538 0.500000 0.437792
#
# Coordination Sequence:
#
# PCOD8105863 Si02
#       7
#     8   8   8   8   8   8   8
#     4   9  17  35  62  90 115 148 195 247 290 339
#     4  10  21  38  62  89 115 151 204 252 289 346
#     4  10  21  35  61  89 117 152 192 242 293 351
#     4  10  23  41  60  83 116 156 201 247 296 353
#     4  12  25  36  59  89 125 160 190 241 303 358
#     4  10  21  40  65  85 111 157 206 251 295 349
#     4  10  21  38  59  87 120 154 191 234 293 357
#
# _framework density 19.905650999999999
#
# number of rings (size 3 to 8) (size 9 to 14) (size 15 to 20)
#    0.000    1.857    1.429    2.143    6.000    3.143 
#    0.000    0.714    0.000    0.857    0.000    0.000 
#    0.000    0.000    0.000    0.000    0.000    0.000 
#
# Total GULP energy -347251.375005 kJ/mol
# GULP energy per Si atom -12401.834822 kJ/mol
# Density = 1.986034 g / cm^3
# Si number density = 19.905651 Si / 1000 Ang^3
#
#
#
# Elastic Constant Matrix: (Units=GPa)
#
#
# Indices 1 2 3 4 5 6 
#
# 1 144.2739 68.7519 46.6436 0.0000 -11.8618 0.0000
# 2 68.7519 125.8937 44.5669 0.0000 -11.4938 0.0000
# 3 46.6436 44.5669 39.4075 0.0000 -9.1386 0.0000
# 4 0.0000 0.0000 0.0000 -2.6583 0.0000 3.4711
# 5 -11.8618 -11.4938 -9.1386 0.0000 24.6733 0.0000
# 6 0.0000 0.0000 0.0000 3.4711 0.0000 29.3015
#
#
#
# Elastic Compliance Matrix: (Units=1/GPa)
#
#
# Indices 1 2 3 4 5 6 
#
# 1 0.011676 -0.002469 -0.010932 0.000000 0.000414 0.000000
# 2 -0.002469 0.013779 -0.012523 0.000000 0.000594 0.000000
# 3 -0.010932 -0.012523 0.054596 0.000000 0.009132 0.000000
# 4 0.000000 0.000000 0.000000 -0.325791 0.000000 0.038594
# 5 0.000414 0.000594 0.009132 0.000000 0.044388 0.000000
# 6 0.000000 0.000000 0.000000 0.038594 0.000000 0.029556
#
#
# Mechanical properties :
#
#
# Convention : Reuss Voigt Hill
#
# Bulk Modulus (GPa) = 35.45747 69.94442 52.70094
# Shear Modulus (GPa) = -45.22950 20.23749 -12.49600
#
# Velocity S-wave (km/s) = -4.77192 3.19199 -2.50824
# Velocity P-wave (km/s) = 3.53698 6.98565 4.25964
#
# Compressibility (1/GPa) = 0.02820280
#
# Stress axis : x y z
#
# Youngs Moduli (GPa) = 85.64538 72.57529 18.31630
#
# Poissons Ratio (x) = 0.17915 0.20024
# Poissons Ratio (y) = 0.21142 0.22938
# Poissons Ratio (z) = 0.93630 0.90888
#
# Static dielectric constant tensor:
#      x y z
#    x 3.786840 0.000000 0.064210 
#    y 0.000000 3.934480 0.000000 
#    z 0.064210 0.000000 3.324190 
# 
# 
# High freq. dielectric constant tensor:
#      x y z
#    x 1.782640 0.000000 0.011210 
#    y 0.000000 1.797340 0.000000 
#    z 0.011210 0.000000 1.742310 
# 
# From -- ./inp_files/96942.got.cif
#   From: 2010.06.25/outbox.cif.g09.slc.cpg/sg12_49_cif.got.tgz:96942.got - 2010.06.28 00:19:55.
