data_PCOD8105384
_publ_section_title
;
Structure prediction by ZEFSAII (Michael W. Deem and Ramdas Pophale) SiO2 
 PCOD8105384
Probable space group: C 2/M
;
_chemical_formula_sum "Si O2"
_cell_formula_units_Z 56
_cell_length_a 8.938825
_cell_length_b 26.225792
_cell_length_c 14.723702
_cell_angle_alpha 90.000000
_cell_angle_beta 60.044054
_cell_angle_gamma 90.000000
_cell_volume 2990.537949
_symmetry_space_group_name_H-M "C 2/M"
_symmetry_group_IT_number 12
_symmetry_cell_setting 'monoclinic'
loop_
_space_group_symop_operation_xyz
x,y,z
-x,y,-z
-x,-y,-z
x,-y,z
1/2+x,1/2+y,z
1/2-x,1/2+y,-z
1/2-x,1/2-y,-z
1/2+x,1/2-y,z
loop_
_atom_site_type_symbol
_atom_site_label
_atom_site_fract_x
_atom_site_fract_y
_atom_site_fract_z
Si Si1 0.064194 0.758598 0.222433
Si Si2 0.382165 0.902016 0.270736
Si Si3 0.497862 0.585884 0.397327
Si Si4 0.008797 0.500000 0.661890
Si Si5 0.988217 0.324648 0.378776
Si Si6 0.238214 0.000000 0.586049
Si Si7 0.786730 0.178664 0.405383
Si Si8 0.424699 0.813715 0.121117
O O1 0.885546 0.783248 0.309571
O O2 0.030037 0.733355 0.134102
O O3 0.097441 0.713151 0.282474
O O4 0.222020 0.798546 0.174339
O O5 0.190374 0.917844 0.299699
O O6 0.489989 0.952039 0.268133
O O7 0.376739 0.867143 0.361643
O O8 0.456247 0.866838 0.166387
O O9 0.500000 0.567075 0.500000
O O10 0.379995 0.549691 0.372555
O O11 0.425798 0.642849 0.411296
O O12 0.841631 0.500000 0.648898
O O13 0.162868 0.500000 0.541070
O O14 0.140678 0.351894 0.390823
O O15 0.839614 0.294288 0.481343
O O16 0.500000 0.823917 0.000000
#
# Coordination Sequence:
#
# PCOD8105384 Si02
#       8
#     8   8   8   4   8   4   8   8
#     4  11  21  38  57  82 113 148 198 245 292 348
#     4  11  22  37  59  83 120 152 200 241 288 346
#     4  12  20  33  53  85 120 155 195 233 275 342
#     4  11  21  38  56  89 120 163 187 229 282 352
#     4  10  21  34  51  83 119 161 187 225 284 356
#     4  11  22  33  58  86 126 156 192 216 282 356
#     4  11  20  33  52  80 123 155 186 227 287 354
#     4  11  24  42  62  84 110 152 205 260 303 339
#
# _framework density 18.725726999999999
#
# number of rings (size 3 to 8) (size 9 to 14) (size 15 to 20)
#    0.000    1.000    5.714    2.357    0.000    2.286 
#    2.571    0.357    0.000    0.000    0.000    1.000 
#    0.000    0.000    0.000    0.000    0.000    0.000 
#
# Total GULP energy -346869.051348 kJ/mol
# GULP energy per Si atom -12388.180405 kJ/mol
# Density = 1.868311 g / cm^3
# Si number density = 18.725727 Si / 1000 Ang^3
#
#
#
# Elastic Constant Matrix: (Units=GPa)
#
#
# Indices 1 2 3 4 5 6 
#
# 1 110.6398 33.2126 33.9892 0.0000 6.2226 0.0000
# 2 33.2126 78.6518 32.3144 0.0000 9.5439 0.0000
# 3 33.9892 32.3144 88.8748 0.0000 14.1040 0.0000
# 4 0.0000 0.0000 0.0000 17.9319 0.0000 0.5289
# 5 6.2226 9.5439 14.1040 0.0000 21.8871 0.0000
# 6 0.0000 0.0000 0.0000 0.5289 0.0000 30.3971
#
#
#
# Elastic Compliance Matrix: (Units=1/GPa)
#
#
# Indices 1 2 3 4 5 6 
#
# 1 0.010974 -0.003441 -0.002995 0.000000 0.000311 0.000000
# 2 -0.003441 0.016251 -0.004036 0.000000 -0.003507 0.000000
# 3 -0.002995 -0.004036 0.014982 0.000000 -0.007043 0.000000
# 4 0.000000 0.000000 0.000000 0.055795 0.000000 -0.000971
# 5 0.000311 -0.003507 -0.007043 0.000000 0.051669 0.000000
# 6 0.000000 0.000000 0.000000 -0.000971 0.000000 0.032915
#
#
# Mechanical properties :
#
#
# Convention : Reuss Voigt Hill
#
# Bulk Modulus (GPa) = 47.03041 53.02208 50.02624
# Shear Modulus (GPa) = 23.73957 25.95322 24.84639
#
# Velocity S-wave (km/s) = 3.56441 3.72689 3.64656
# Velocity P-wave (km/s) = 6.48922 6.84808 6.67106
#
# Compressibility (1/GPa) = 0.02126284
#
# Stress axis : x y z
#
# Youngs Moduli (GPa) = 91.12491 61.53371 66.74472
#
# Poissons Ratio (x) = 0.21175 0.19990
# Poissons Ratio (y) = 0.31358 0.26940
# Poissons Ratio (z) = 0.27292 0.24837
#
# Static dielectric constant tensor:
#      x y z
#    x 3.625760 0.000000 0.068420 
#    y 0.000000 3.344930 0.000000 
#    z 0.068420 0.000000 3.089830 
# 
# 
# High freq. dielectric constant tensor:
#      x y z
#    x 1.751920 0.000000 0.000480 
#    y 0.000000 1.715020 0.000000 
#    z 0.000480 0.000000 1.685070 
# 
# From -- ./inp_files/200871.got.cif
#   From: 2010.06.25/outbox.cif.g09.slc.cpg/sg12_101_cif.got.tgz:200871.got - 2010.06.28 00:19:55.
