data_PCOD8105613
_publ_section_title
;
Structure prediction by ZEFSAII (Michael W. Deem and Ramdas Pophale) SiO2 
 PCOD8105613
Probable space group: C 2/M
;
_chemical_formula_sum "Si O2"
_cell_formula_units_Z 56
_cell_length_a 19.078586
_cell_length_b 9.045482
_cell_length_c 25.849980
_cell_angle_alpha 90.000000
_cell_angle_beta 137.781023
_cell_angle_gamma 90.000000
_cell_volume 2997.680575
_symmetry_space_group_name_H-M "C 2/M"
_symmetry_group_IT_number 12
_symmetry_cell_setting 'monoclinic'
loop_
_space_group_symop_operation_xyz
x,y,z
-x,y,-z
-x,-y,-z
x,-y,z
1/2+x,1/2+y,z
1/2-x,1/2+y,-z
1/2-x,1/2-y,-z
1/2+x,1/2-y,z
loop_
_atom_site_type_symbol
_atom_site_label
_atom_site_fract_x
_atom_site_fract_y
_atom_site_fract_z
Si Si1 0.065177 0.174778 0.986634
Si Si2 0.302280 0.174070 0.126948
Si Si3 0.667436 0.168137 0.576224
Si Si4 0.880727 0.328306 0.689334
Si Si5 0.549140 0.674378 0.714921
Si Si6 0.972392 0.668416 0.401517
Si Si7 0.972020 0.330118 0.137452
O O1 0.184256 0.229545 0.055808
O O2 0.059599 0.000000 0.981233
O O3 0.014190 0.234739 0.906406
O O4 0.000000 0.235210 0.000000
O O5 0.350035 0.258060 0.201933
O O6 0.366551 0.214901 0.110347
O O7 0.309802 0.000000 0.142313
O O8 0.761192 0.282245 0.622589
O O9 0.588969 0.197073 0.485990
O O10 0.609826 0.198469 0.598352
O O11 0.709223 0.000000 0.597282
O O12 0.891804 0.500000 0.681229
O O13 0.942436 0.236784 0.680119
O O14 0.928499 0.296806 0.772058
O O15 0.551375 0.500000 0.722549
O O16 0.554163 0.716929 0.657780
O O17 0.962818 0.500000 0.376171
O O18 0.967201 0.500000 0.118180
#
# Coordination Sequence:
#
# PCOD8105613 Si02
#       7
#     8   8   8   8   8   8   8
#     4  10  21  35  53  79 107 136 172 213 259 313
#     4   9  19  37  56  75 104 139 174 215 267 317
#     4   9  19  36  58  81 105 141 184 219 261 321
#     4  10  21  37  56  80 111 142 174 220 274 318
#     4  11  22  35  55  82 107 138 184 225 262 317
#     4   9  19  37  57  78 109 144 177 219 270 317
#     4   9  19  35  54  75 101 137 175 212 260 312
#
# _framework density 18.68111
#
# number of rings (size 3 to 8) (size 9 to 14) (size 15 to 20)
#    0.000    2.429    0.000    3.857    0.000    6.571 
#    0.000    5.714    0.000    0.000    0.000    0.000 
#    0.000    0.000    0.000    0.000    0.000    0.000 
#
# Total GULP energy -347280.405396 kJ/mol
# GULP energy per Si atom -12402.871621 kJ/mol
# Density = 1.863859 g / cm^3
# Si number density = 18.681110 Si / 1000 Ang^3
#
#
#
# Elastic Constant Matrix: (Units=GPa)
#
#
# Indices 1 2 3 4 5 6 
#
# 1 39.5547 14.0792 12.3088 0.0000 -12.9857 0.0000
# 2 14.0792 62.0304 25.0105 0.0000 -10.9158 0.0000
# 3 12.3088 25.0105 52.5306 0.0000 -18.7076 0.0000
# 4 0.0000 0.0000 0.0000 33.5165 0.0000 0.3129
# 5 -12.9857 -10.9158 -18.7076 0.0000 33.1525 0.0000
# 6 0.0000 0.0000 0.0000 0.3129 0.0000 28.5896
#
#
#
# Elastic Compliance Matrix: (Units=1/GPa)
#
#
# Indices 1 2 3 4 5 6 
#
# 1 0.030552 -0.004626 -0.001548 0.000000 0.009570 0.000000
# 2 -0.004626 0.020712 -0.008753 0.000000 0.000068 0.000000
# 3 -0.001548 -0.008753 0.027939 0.000000 0.012277 0.000000
# 4 0.000000 0.000000 0.000000 0.029839 0.000000 -0.000327
# 5 0.009570 0.000068 0.012277 0.000000 0.040863 0.000000
# 6 0.000000 0.000000 0.000000 -0.000327 0.000000 0.034981
#
#
# Mechanical properties :
#
#
# Convention : Reuss Voigt Hill
#
# Bulk Modulus (GPa) = 20.26396 28.54585 24.40491
# Shear Modulus (GPa) = 21.62723 25.89956 23.76339
#
# Velocity S-wave (km/s) = 3.40620 3.72748 3.57046
# Velocity P-wave (km/s) = 5.13229 5.81715 5.48542
#
# Compressibility (1/GPa) = 0.04934870
#
# Stress axis : x y z
#
# Youngs Moduli (GPa) = 32.73141 48.28026 35.79230
#
# Poissons Ratio (x) = 0.22335 0.05541
# Poissons Ratio (y) = 0.15142 0.31329
# Poissons Ratio (z) = 0.05067 0.42260
#
# Static dielectric constant tensor:
#      x y z
#    x 3.404320 0.000000 0.060400 
#    y 0.000000 3.294130 0.000000 
#    z 0.060400 0.000000 3.426600 
# 
# 
# High freq. dielectric constant tensor:
#      x y z
#    x 1.722270 0.000000 -0.000130 
#    y 0.000000 1.719400 0.000000 
#    z -0.000130 0.000000 1.730190 
# 
# From -- ./inp_files/342587.got.cif
#   From: 2010.06.25/outbox.cif.g09.slc.cpg/sg12_172_cif.got.tgz:342587.got - 2010.06.28 00:19:55.
