data_PCOD8105834
_publ_section_title
;
Structure prediction by ZEFSAII (Michael W. Deem and Ramdas Pophale) SiO2 
 PCOD8105834
Probable space group: C 2/M
;
_chemical_formula_sum "Si O2"
_cell_formula_units_Z 64
_cell_length_a 11.471508
_cell_length_b 20.952119
_cell_length_c 14.440001
_cell_angle_alpha 90.000000
_cell_angle_beta 108.306281
_cell_angle_gamma 90.000000
_cell_volume 3295.040988
_symmetry_space_group_name_H-M "C 2/M"
_symmetry_group_IT_number 12
_symmetry_cell_setting 'monoclinic'
loop_
_space_group_symop_operation_xyz
x,y,z
-x,y,-z
-x,-y,-z
x,-y,z
1/2+x,1/2+y,z
1/2-x,1/2+y,-z
1/2-x,1/2-y,-z
1/2+x,1/2-y,z
loop_
_atom_site_type_symbol
_atom_site_label
_atom_site_fract_x
_atom_site_fract_y
_atom_site_fract_z
Si Si1 0.184475 0.929417 0.328729
Si Si2 0.235915 0.332003 0.167138
Si Si3 0.513302 0.308201 0.269840
Si Si4 0.366529 0.928329 0.992167
Si Si5 0.312171 0.889024 0.179060
Si Si6 0.936994 0.328786 0.701459
Si Si7 0.383560 0.072217 0.532535
Si Si8 0.609139 0.290412 0.096152
O O1 0.269396 0.929195 0.257871
O O2 0.264109 0.920015 0.440122
O O3 0.085084 0.873193 0.309975
O O4 0.121713 0.000000 0.315492
O O5 0.369833 0.322617 0.245234
O O6 0.234915 0.389245 0.091851
O O7 0.144733 0.342391 0.229232
O O8 0.192932 0.271033 0.096597
O O9 0.559630 0.244743 0.337997
O O10 0.540754 0.282915 0.175348
O O11 0.357017 0.000000 0.952461
O O12 0.500000 0.899059 0.000000
O O13 0.349892 0.930372 0.099204
O O14 0.422306 0.844273 0.239477
O O15 0.195747 0.850825 0.113749
O O16 0.878515 0.376007 0.611935
O O17 0.500000 0.087950 0.500000
O O18 0.391953 0.000000 0.575557
O O19 0.500000 0.300795 0.000000
#
# Coordination Sequence:
#
# PCOD8105834 Si02
#       8
#     8   8   8   8   8   8   8   8
#     4  10  22  42  65  88 119 158 203 252 299 358
#     4  11  22  38  57  82 121 162 195 238 298 360
#     4  10  23  39  59  89 123 160 203 240 306 363
#     4  11  23  34  50  83 119 153 195 242 295 354
#     4  11  20  37  60  88 117 153 197 254 298 346
#     4  11  22  37  61  92 121 153 201 258 300 358
#     4  10  21  38  65  94 118 153 201 251 304 355
#     4  10  21  35  59  85 115 156 203 248 286 345
#
# _framework density 19.423127999999998
#
# number of rings (size 3 to 8) (size 9 to 14) (size 15 to 20)
#    0.000    1.500    3.750    1.500    1.750    3.000 
#    0.000    0.625    0.000    5.625    0.000    0.000 
#    0.000    0.000    0.000    0.000    0.000    0.000 
#
# Total GULP energy -396626.502248 kJ/mol
# GULP energy per Si atom -12394.578195 kJ/mol
# Density = 1.937892 g / cm^3
# Si number density = 19.423128 Si / 1000 Ang^3
#
#
#
# Elastic Constant Matrix: (Units=GPa)
#
#
# Indices 1 2 3 4 5 6 
#
# 1 73.1553 29.8547 26.2309 0.0000 13.8279 0.0000
# 2 29.8547 129.8764 52.8463 0.0000 5.0585 0.0000
# 3 26.2309 52.8463 89.0724 0.0000 4.9681 0.0000
# 4 0.0000 0.0000 0.0000 35.7413 0.0000 7.2829
# 5 13.8279 5.0585 4.9681 0.0000 17.5665 0.0000
# 6 0.0000 0.0000 0.0000 7.2829 0.0000 31.3246
#
#
#
# Elastic Compliance Matrix: (Units=1/GPa)
#
#
# Indices 1 2 3 4 5 6 
#
# 1 0.018207 -0.002368 -0.003246 0.000000 -0.012732 0.000000
# 2 -0.002368 0.010485 -0.005546 0.000000 0.000414 0.000000
# 3 -0.003246 -0.005546 0.015486 0.000000 -0.000227 0.000000
# 4 0.000000 0.000000 0.000000 0.029370 0.000000 -0.006828
# 5 -0.012732 0.000414 -0.000227 0.000000 0.066894 0.000000
# 6 0.000000 0.000000 0.000000 -0.006828 0.000000 0.033511
#
#
# Mechanical properties :
#
#
# Convention : Reuss Voigt Hill
#
# Bulk Modulus (GPa) = 45.75494 56.66311 51.20903
# Shear Modulus (GPa) = 24.56283 29.13796 26.85040
#
# Velocity S-wave (km/s) = 3.56000 3.87740 3.72209
# Velocity P-wave (km/s) = 6.36445 7.02011 6.70031
#
# Compressibility (1/GPa) = 0.02185556
#
# Stress axis : x y z
#
# Youngs Moduli (GPa) = 54.92497 95.37781 64.57436
#
# Poissons Ratio (x) = 0.22589 0.20964
# Poissons Ratio (y) = 0.13008 0.35814
# Poissons Ratio (z) = 0.17831 0.52898
#
# Static dielectric constant tensor:
#      x y z
#    x 3.514360 0.000000 -0.032440 
#    y 0.000000 3.676660 0.000000 
#    z -0.032440 0.000000 3.463160 
# 
# 
# High freq. dielectric constant tensor:
#      x y z
#    x 1.753310 0.000000 0.002460 
#    y 0.000000 1.767320 0.000000 
#    z 0.002460 0.000000 1.744290 
# 
# From -- ./inp_files/207719.got.cif
#   From: 2010.06.25/outbox.cif.g09.slc.cpg/sg12_104_cif.got.tgz:207719.got - 2010.06.28 00:19:55.
