data_PCOD8105543
_publ_section_title
;
Structure prediction by ZEFSAII (Michael W. Deem and Ramdas Pophale) SiO2 
 PCOD8105543
Probable space group: C 2/M
;
_chemical_formula_sum "Si O2"
_cell_formula_units_Z 56
_cell_length_a 30.037389
_cell_length_b 8.970688
_cell_length_c 18.353031
_cell_angle_alpha 90.000000
_cell_angle_beta 141.516573
_cell_angle_gamma 90.000000
_cell_volume 3077.423898
_symmetry_space_group_name_H-M "C 2/M"
_symmetry_group_IT_number 12
_symmetry_cell_setting 'monoclinic'
loop_
_space_group_symop_operation_xyz
x,y,z
-x,y,-z
-x,-y,-z
x,-y,z
1/2+x,1/2+y,z
1/2-x,1/2+y,-z
1/2-x,1/2-y,-z
1/2+x,1/2-y,z
loop_
_atom_site_type_symbol
_atom_site_label
_atom_site_fract_x
_atom_site_fract_y
_atom_site_fract_z
Si Si1 0.704801 0.670894 0.261531
Si Si2 0.193400 0.829016 0.876859
Si Si3 0.591509 0.171764 0.838340
Si Si4 0.441838 0.826845 0.712769
Si Si5 0.204992 0.823324 0.506787
Si Si6 0.198634 0.328521 0.102466
Si Si7 0.050232 0.829097 0.129647
O O1 0.730443 0.500000 0.293839
O O2 0.764855 0.771920 0.376652
O O3 0.692336 0.723379 0.163674
O O4 0.632537 0.688698 0.214267
O O5 0.115892 0.757254 0.795545
O O6 0.221468 0.809620 0.829860
O O7 0.189766 0.000000 0.894144
O O8 0.250000 0.750000 0.000000
O O9 0.507839 0.201713 0.743044
O O10 0.608277 0.000000 0.846521
O O11 0.637634 0.224698 0.967500
O O12 0.376979 0.726232 0.602178
O O13 0.466642 0.777887 0.824693
O O14 0.419489 0.000000 0.685710
O O15 0.250000 0.750000 0.500000
O O16 0.209893 0.000000 0.505139
O O17 0.185635 0.500000 0.108731
O O18 0.032349 0.000000 0.127287
O O19 0.000000 0.773895 0.000000
#
# Coordination Sequence:
#
# PCOD8105543 Si02
#       7
#     8   8   8   8   8   8   8
#     4  11  22  35  54  79 107 141 181 223 267 318
#     4   9  17  30  51  78 110 146 182 220 265 320
#     4   9  19  34  53  81 114 145 180 220 267 325
#     4  11  22  36  56  80 107 142 181 224 271 321
#     4  12  24  40  59  77 102 139 184 230 271 318
#     4   9  18  33  52  79 113 145 178 217 265 321
#     4  10  21  35  51  76 110 143 176 218 265 318
#
# _framework density 18.197037999999999
#
# number of rings (size 3 to 8) (size 9 to 14) (size 15 to 20)
#    0.000    1.857    1.429    4.286    0.000    4.857 
#    0.000    0.000    0.000    0.857    0.000    6.000 
#    0.000    0.000    0.000    0.000    0.000    0.000 
#
# Total GULP energy -347205.871972 kJ/mol
# GULP energy per Si atom -12400.209713 kJ/mol
# Density = 1.815562 g / cm^3
# Si number density = 18.197038 Si / 1000 Ang^3
#
#
#
# Elastic Constant Matrix: (Units=GPa)
#
#
# Indices 1 2 3 4 5 6 
#
# 1 57.3702 33.9612 -2.9165 0.0000 15.5716 0.0000
# 2 33.9612 102.2700 20.8872 0.0000 10.0851 0.0000
# 3 -2.9165 20.8872 59.6143 0.0000 15.2052 0.0000
# 4 0.0000 0.0000 0.0000 29.2956 0.0000 -1.1494
# 5 15.5716 10.0851 15.2052 0.0000 19.7821 0.0000
# 6 0.0000 0.0000 0.0000 -1.1494 0.0000 32.2798
#
#
#
# Elastic Compliance Matrix: (Units=1/GPa)
#
#
# Indices 1 2 3 4 5 6 
#
# 1 0.032466 -0.010449 0.012948 0.000000 -0.030181 0.000000
# 2 -0.010449 0.014055 -0.007098 0.000000 0.006515 0.000000
# 3 0.012948 -0.007098 0.026832 0.000000 -0.027197 0.000000
# 4 0.000000 0.000000 0.000000 0.034183 0.000000 0.001217
# 5 -0.030181 0.006515 -0.027197 0.000000 0.091891 0.000000
# 6 0.000000 0.000000 0.000000 0.001217 0.000000 0.031022
#
#
# Mechanical properties :
#
#
# Convention : Reuss Voigt Hill
#
# Bulk Modulus (GPa) = 15.58743 35.90204 25.74473
# Shear Modulus (GPa) = 19.15467 27.42632 23.29050
#
# Velocity S-wave (km/s) = 3.24794 3.88646 3.58146
# Velocity P-wave (km/s) = 4.75920 6.31758 5.59294
#
# Compressibility (1/GPa) = 0.06415426
#
# Stress axis : x y z
#
# Youngs Moduli (GPa) = 30.80111 71.14857 37.26939
#
# Poissons Ratio (x) = 0.74346 -0.48255
# Poissons Ratio (y) = 0.32185 0.26452
# Poissons Ratio (z) = -0.39880 0.50498
#
# Static dielectric constant tensor:
#      x y z
#    x 3.553510 0.000000 0.083100 
#    y 0.000000 3.492980 0.000000 
#    z 0.083100 0.000000 3.203600 
# 
# 
# High freq. dielectric constant tensor:
#      x y z
#    x 1.707760 0.000000 0.009920 
#    y 0.000000 1.715210 0.000000 
#    z 0.009920 0.000000 1.678720 
# 
# From -- ./inp_files/281685.got.cif
#   From: 2010.06.25/outbox.cif.g09.slc.cpg/sg12_141_cif.got.tgz:281685.got - 2010.06.28 00:19:55.
