data_PCOD8105836
_publ_section_title
;
Structure prediction by ZEFSAII (Michael W. Deem and Ramdas Pophale) SiO2 
 PCOD8105836
Probable space group: C 2/M
;
_chemical_formula_sum "Si O2"
_cell_formula_units_Z 56
_cell_length_a 23.740305
_cell_length_b 13.788303
_cell_length_c 24.730572
_cell_angle_alpha 90.000000
_cell_angle_beta 159.369469
_cell_angle_gamma 90.000000
_cell_volume 2852.290193
_symmetry_space_group_name_H-M "C 2/M"
_symmetry_group_IT_number 12
_symmetry_cell_setting 'monoclinic'
loop_
_space_group_symop_operation_xyz
x,y,z
-x,y,-z
-x,-y,-z
x,-y,z
1/2+x,1/2+y,z
1/2-x,1/2+y,-z
1/2-x,1/2-y,-z
1/2+x,1/2-y,z
loop_
_atom_site_type_symbol
_atom_site_label
_atom_site_fract_x
_atom_site_fract_y
_atom_site_fract_z
Si Si1 0.672128 0.111663 0.891177
Si Si2 0.270001 0.892688 0.748538
Si Si3 0.235511 0.720234 0.646759
Si Si4 0.358398 0.108499 0.944687
Si Si5 0.952178 0.611465 0.339491
Si Si6 0.327002 0.613452 0.833248
Si Si7 0.930151 0.735310 0.104769
O O1 0.577297 0.120566 0.750276
O O2 0.562965 0.161841 0.838588
O O3 0.704565 0.000000 0.935291
O O4 0.843676 0.164456 0.042389
O O5 0.177526 0.817097 0.626821
O O6 0.259950 0.860308 0.802470
O O7 0.196057 0.000000 0.673759
O O8 0.454138 0.892919 0.897972
O O9 0.271597 0.638606 0.723497
O O10 0.389237 0.741064 0.748505
O O11 0.097846 0.682062 0.484268
O O12 0.304146 0.000000 0.913206
O O13 0.326072 0.184559 0.963585
O O14 0.992023 0.500000 0.391205
O O15 0.797748 0.648940 0.233722
O O16 0.347383 0.500000 0.856048
O O17 0.500000 0.663758 0.000000
#
# Coordination Sequence:
#
# PCOD8105836 Si02
#       7
#     8   8   8   8   8   8   8
#     4  10  22  40  58  80 114 152 195 245 286 337
#     4   8  16  28  47  78 112 147 183 228 282 336
#     4  11  21  32  58  85 117 152 189 238 285 350
#     4   8  14  28  50  78 110 140 184 237 283 335
#     4  10  22  39  57  83 120 156 188 228 288 348
#     4  10  21  36  57  86 117 150 188 231 283 342
#     4  10  21  35  59  87 108 145 198 243 293 340
#
# _framework density 19.633346
#
# number of rings (size 3 to 8) (size 9 to 14) (size 15 to 20)
#    0.000    2.429    0.000    3.000    6.000    4.571 
#    0.000    0.000    0.000    6.000    0.000    0.000 
#    0.000    0.000    0.000    0.000    0.000    0.000 
#
# Total GULP energy -347158.582696 kJ/mol
# GULP energy per Si atom -12398.520811 kJ/mol
# Density = 1.958866 g / cm^3
# Si number density = 19.633346 Si / 1000 Ang^3
#
#
#
# Elastic Constant Matrix: (Units=GPa)
#
#
# Indices 1 2 3 4 5 6 
#
# 1 127.6089 48.1638 45.7637 -0.0013 -3.0114 -0.0001
# 2 48.1638 96.4049 54.2933 0.0213 -2.7431 0.0018
# 3 45.7637 54.2933 78.6548 0.0197 -6.4878 -0.0024
# 4 -0.0013 0.0213 0.0197 28.3407 0.0075 -7.6720
# 5 -3.0114 -2.7431 -6.4878 0.0075 16.1186 -0.0002
# 6 -0.0001 0.0018 -0.0024 -7.6720 -0.0002 30.6521
#
#
#
# Elastic Compliance Matrix: (Units=1/GPa)
#
#
# Indices 1 2 3 4 5 6 
#
# 1 0.010383 -0.002915 -0.004044 0.000006 -0.000184 0.000001
# 2 -0.002915 0.017844 -0.010773 -0.000006 -0.001844 -0.000004
# 3 -0.004044 -0.010773 0.023055 -0.000010 0.006691 0.000000
# 4 0.000006 -0.000006 -0.000010 0.037850 -0.000022 0.009473
# 5 -0.000184 -0.001844 0.006691 -0.000022 0.064385 -0.000004
# 6 0.000001 -0.000004 0.000000 0.009473 -0.000004 0.034995
#
#
# Mechanical properties :
#
#
# Convention : Reuss Voigt Hill
#
# Bulk Modulus (GPa) = 63.22228 66.56782 64.89505
# Shear Modulus (GPa) = 21.81036 25.31878 23.56457
#
# Velocity S-wave (km/s) = 3.33661 3.59497 3.46820
# Velocity P-wave (km/s) = 6.86406 7.15617 7.01164
#
# Compressibility (1/GPa) = 0.01581721
#
# Stress axis : x y z
#
# Youngs Moduli (GPa) = 96.31551 56.04086 43.37407
#
# Poissons Ratio (x) = 0.16335 0.17541
# Poissons Ratio (y) = 0.28074 0.46729
# Poissons Ratio (z) = 0.38950 0.60376
#
# Static dielectric constant tensor:
#      x y z
#    x 3.669880 -0.000020 -0.097550 
#    y -0.000020 3.954770 -0.000040 
#    z -0.097550 -0.000040 3.256590 
# 
# 
# High freq. dielectric constant tensor:
#      x y z
#    x 1.762080 0.000000 -0.009610 
#    y 0.000000 1.783220 0.000000 
#    z -0.009610 0.000000 1.733310 
# 
# From -- ./inp_files/349807.got.cif
#   From: 2010.06.25/outbox.cif.g09.slc.cpg/sg12_175_cif.got.tgz:349807.got - 2010.06.28 00:19:55.
