data_PCOD8105165
_publ_section_title
;
Structure prediction by ZEFSAII (Michael W. Deem and Ramdas Pophale) SiO2 
 PCOD8105165
Probable space group: C 2/M
;
_chemical_formula_sum "Si O2"
_cell_formula_units_Z 64
_cell_length_a 10.940007
_cell_length_b 30.828474
_cell_length_c 13.684420
_cell_angle_alpha 90.000000
_cell_angle_beta 42.894972
_cell_angle_gamma 90.000000
_cell_volume 3141.406017
_symmetry_space_group_name_H-M "C 2/M"
_symmetry_group_IT_number 12
_symmetry_cell_setting 'monoclinic'
loop_
_space_group_symop_operation_xyz
x,y,z
-x,y,-z
-x,-y,-z
x,-y,z
1/2+x,1/2+y,z
1/2-x,1/2+y,-z
1/2-x,1/2-y,-z
1/2+x,1/2-y,z
loop_
_atom_site_type_symbol
_atom_site_label
_atom_site_fract_x
_atom_site_fract_y
_atom_site_fract_z
Si Si1 0.669429 0.346380 0.944014
Si Si2 0.530923 0.115140 0.744260
Si Si3 0.918735 0.726068 0.444313
Si Si4 0.835184 0.626005 0.530156
Si Si5 0.336452 0.835839 0.158392
Si Si6 0.128744 0.451079 0.016678
Si Si7 0.756139 0.745475 0.878803
Si Si8 0.576752 0.616316 0.193032
O O1 0.660193 0.349641 0.066428
O O2 0.500000 0.373287 0.000000
O O3 0.852154 0.366537 0.796245
O O4 0.642995 0.297466 0.921695
O O5 0.660581 0.102621 0.578578
O O6 0.615847 0.155104 0.756822
O O7 0.483780 0.072654 0.832926
O O8 0.750000 0.750000 0.500000
O O9 0.858915 0.677035 0.500238
O O10 0.000000 0.744896 0.500000
O O11 0.049815 0.733773 0.276548
O O12 0.638979 0.613847 0.688767
O O13 0.000000 0.608197 0.500000
O O14 0.326196 0.785259 0.135122
O O15 0.148390 0.861375 0.250653
O O16 0.500000 0.857481 0.000000
O O17 0.168214 0.500000 0.027715
O O18 0.325034 0.429913 0.880778
O O19 0.000000 0.450475 0.000000
O O20 0.750000 0.750000 0.000000
#
# Coordination Sequence:
#
# PCOD8105165 Si02
#       8
#     8   8   8   8   8   8   8   8
#     4  11  22  36  58  83 118 171 222 268 311 370
#     4  11  21  42  65  92 131 168 214 268 328 389
#     4  11  27  44  58  86 129 180 234 286 346 392
#     4  11  25  44  64  86 130 183 223 260 326 398
#     4  12  21  38  59  93 126 162 217 274 331 371
#     4  10  20  41  73 105 135 159 198 267 340 407
#     4  12  24  39  60  87 124 170 227 288 324 378
#     4  11  21  40  65  92 126 167 213 260 326 397
#
# _framework density 20.373042999999999
#
# number of rings (size 3 to 8) (size 9 to 14) (size 15 to 20)
#    0.000    0.875    6.250    1.875    3.500    0.500 
#    0.000    0.625    0.000   15.750    0.000    0.000 
#    0.000    0.000    0.000    0.000    0.000    0.000 
#
# Total GULP energy -396437.598806 kJ/mol
# GULP energy per Si atom -12388.674963 kJ/mol
# Density = 2.032667 g / cm^3
# Si number density = 20.373043 Si / 1000 Ang^3
#
#
#
# Elastic Constant Matrix: (Units=GPa)
#
#
# Indices 1 2 3 4 5 6 
#
# 1 99.9577 33.9294 31.7204 0.0000 -15.3034 0.0000
# 2 33.9294 116.9820 31.4226 0.0000 -0.8328 0.0000
# 3 31.7204 31.4226 111.9480 0.0000 -6.0998 0.0000
# 4 0.0000 0.0000 0.0000 14.4007 0.0000 -6.7148
# 5 -15.3034 -0.8328 -6.0998 0.0000 39.7857 0.0000
# 6 0.0000 0.0000 0.0000 -6.7148 0.0000 20.2428
#
#
#
# Elastic Compliance Matrix: (Units=1/GPa)
#
#
# Indices 1 2 3 4 5 6 
#
# 1 0.012443 -0.002914 -0.002471 0.000000 0.004346 0.000000
# 2 -0.002914 0.009930 -0.002028 0.000000 -0.001224 0.000000
# 3 -0.002471 -0.002028 0.010233 0.000000 0.000576 0.000000
# 4 0.000000 0.000000 0.000000 0.082147 0.000000 0.027249
# 5 0.004346 -0.001224 0.000576 0.000000 0.026869 0.000000
# 6 0.000000 0.000000 0.000000 0.027249 0.000000 0.058439
#
#
# Mechanical properties :
#
#
# Convention : Reuss Voigt Hill
#
# Bulk Modulus (GPa) = 56.24428 58.11475 57.17952
# Shear Modulus (GPa) = 22.64344 30.34019 26.49182
#
# Velocity S-wave (km/s) = 3.33745 3.86324 3.60993
# Velocity P-wave (km/s) = 6.52062 6.96324 6.74557
#
# Compressibility (1/GPa) = 0.01777958
#
# Stress axis : x y z
#
# Youngs Moduli (GPa) = 80.36661 100.70861 97.71837
#
# Poissons Ratio (x) = 0.29350 0.24145
# Poissons Ratio (y) = 0.23421 0.19818
# Poissons Ratio (z) = 0.19858 0.20424
#
# Static dielectric constant tensor:
#      x y z
#    x 3.791870 0.000000 -0.003520 
#    y 0.000000 3.564500 0.000000 
#    z -0.003520 0.000000 3.880640 
# 
# 
# High freq. dielectric constant tensor:
#      x y z
#    x 1.812950 0.000000 -0.006610 
#    y 0.000000 1.755300 0.000000 
#    z -0.006610 0.000000 1.796390 
# 
# From -- ./inp_files/209841.got.cif
#   From: 2010.06.25/outbox.cif.g09.slc.cpg/sg12_105_cif.got.tgz:209841.got - 2010.06.28 00:19:55.
