data_PCOD8105651
_publ_section_title
;
Structure prediction by ZEFSAII (Michael W. Deem and Ramdas Pophale) SiO2 
 PCOD8105651
Probable space group: C 2/M
;
_chemical_formula_sum "Si O2"
_cell_formula_units_Z 48
_cell_length_a 32.951248
_cell_length_b 14.894922
_cell_length_c 16.529594
_cell_angle_alpha 90.000000
_cell_angle_beta 162.859688
_cell_angle_gamma 90.000000
_cell_volume 2390.953764
_symmetry_space_group_name_H-M "C 2/M"
_symmetry_group_IT_number 12
_symmetry_cell_setting 'monoclinic'
loop_
_space_group_symop_operation_xyz
x,y,z
-x,y,-z
-x,-y,-z
x,-y,z
1/2+x,1/2+y,z
1/2-x,1/2+y,-z
1/2-x,1/2-y,-z
1/2+x,1/2-y,z
loop_
_atom_site_type_symbol
_atom_site_label
_atom_site_fract_x
_atom_site_fract_y
_atom_site_fract_z
Si Si1 0.637138 0.739509 0.717415
Si Si2 0.225289 0.394307 0.141752
Si Si3 0.317650 0.396202 0.816726
Si Si4 0.157706 0.165619 0.310735
Si Si5 0.585325 0.893625 0.495376
Si Si6 0.382783 0.601753 0.595388
O O1 0.500000 0.706492 0.500000
O O2 0.680687 0.660304 0.740760
O O3 0.612503 0.835907 0.627543
O O4 0.750000 0.750000 0.000000
O O5 0.250720 0.500000 0.176301
O O6 0.272554 0.359677 0.321176
O O7 0.065051 0.371295 0.826139
O O8 0.326229 0.500000 0.852158
O O9 0.286314 0.384886 0.661835
O O10 0.194140 0.357396 0.635779
O O11 0.465651 0.350746 0.121823
O O12 0.250000 0.250000 0.500000
O O13 0.175292 0.104930 0.424044
O O14 0.000000 0.194959 0.000000
O O15 0.600572 0.000000 0.544238
O O16 0.406168 0.500000 0.615763
#
# Coordination Sequence:
#
# PCOD8105651 Si02
#       6
#     8   8   8   8   8   8
#     4  12  26  44  65  94 122 159 201 251 310 371
#     4  10  23  43  65  92 126 161 201 252 307 362
#     4   9  19  37  61  86 115 158 204 245 294 351
#     4  10  21  35  53  85 121 159 199 243 290 345
#     4  10  23  43  66  91 125 164 201 248 307 368
#     4   9  19  37  61  86 116 157 202 249 294 345
#
# _framework density 20.075672000000001
#
# number of rings (size 3 to 8) (size 9 to 14) (size 15 to 20)
#    0.000    2.000    1.667    0.500    4.667    4.667 
#    0.000    0.000    0.000    5.000    0.000    0.000 
#    0.000    0.000    0.000    0.000    0.000    0.000 
#
# Total GULP energy -297472.524871 kJ/mol
# GULP energy per Si atom -12394.688536 kJ/mol
# Density = 2.002998 g / cm^3
# Si number density = 20.075672 Si / 1000 Ang^3
#
#
#
# Elastic Constant Matrix: (Units=GPa)
#
#
# Indices 1 2 3 4 5 6 
#
# 1 139.6145 33.6016 85.6806 0.0000 -7.3654 0.0000
# 2 33.6016 51.6238 44.5821 0.0000 -2.1846 0.0000
# 3 85.6806 44.5821 150.0103 0.0000 -15.9061 0.0000
# 4 0.0000 0.0000 0.0000 26.0351 0.0000 -1.4629
# 5 -7.3654 -2.1846 -15.9061 0.0000 41.4605 0.0000
# 6 0.0000 0.0000 0.0000 -1.4629 0.0000 36.5874
#
#
#
# Elastic Compliance Matrix: (Units=1/GPa)
#
#
# Indices 1 2 3 4 5 6 
#
# 1 0.011247 -0.002363 -0.005757 0.000000 -0.000335 0.000000
# 2 -0.002363 0.026666 -0.006745 0.000000 -0.001603 0.000000
# 3 -0.005757 -0.006745 0.012314 0.000000 0.003346 0.000000
# 4 0.000000 0.000000 0.000000 0.038496 0.000000 0.001539
# 5 -0.000335 -0.001603 0.003346 0.000000 0.025259 0.000000
# 6 0.000000 0.000000 0.000000 0.001539 0.000000 0.027393
#
#
# Mechanical properties :
#
#
# Convention : Reuss Voigt Hill
#
# Bulk Modulus (GPa) = 48.78913 74.33080 61.55997
# Shear Modulus (GPa) = 28.09969 32.64223 30.37096
#
# Velocity S-wave (km/s) = 3.74530 4.03669 3.89372
# Velocity P-wave (km/s) = 6.56189 7.67022 7.13760
#
# Compressibility (1/GPa) = 0.02049637
#
# Stress axis : x y z
#
# Youngs Moduli (GPa) = 88.91577 37.50045 81.20903
#
# Poissons Ratio (x) = 0.08861 0.46752
# Poissons Ratio (y) = 0.21009 0.54779
# Poissons Ratio (z) = 0.51189 0.25296
#
# Static dielectric constant tensor:
#      x y z
#    x 3.545070 0.000000 0.031700 
#    y 0.000000 3.569400 0.000000 
#    z 0.031700 0.000000 3.985540 
# 
# 
# High freq. dielectric constant tensor:
#      x y z
#    x 1.790790 0.000000 -0.002350 
#    y 0.000000 1.770220 0.000000 
#    z -0.002350 0.000000 1.795740 
# 
# From -- ./inp_files/251387.got.cif
#   From: 2010.06.25/outbox.cif.g09.slc.cpg/sg12_126_cif.got.tgz:251387.got - 2010.06.28 00:19:55.
