data_PCOD8105382
_publ_section_title
;
Structure prediction by ZEFSAII (Michael W. Deem and Ramdas Pophale) SiO2 
 PCOD8105382
Probable space group: C 2/M
;
_chemical_formula_sum "Si O2"
_cell_formula_units_Z 64
_cell_length_a 14.106579
_cell_length_b 26.241166
_cell_length_c 14.716161
_cell_angle_alpha 90.000000
_cell_angle_beta 140.421799
_cell_angle_gamma 90.000000
_cell_volume 3470.786970
_symmetry_space_group_name_H-M "C 2/M"
_symmetry_group_IT_number 12
_symmetry_cell_setting 'monoclinic'
loop_
_space_group_symop_operation_xyz
x,y,z
-x,y,-z
-x,-y,-z
x,-y,z
1/2+x,1/2+y,z
1/2-x,1/2+y,-z
1/2-x,1/2-y,-z
1/2+x,1/2-y,z
loop_
_atom_site_type_symbol
_atom_site_label
_atom_site_fract_x
_atom_site_fract_y
_atom_site_fract_z
Si Si1 0.775842 0.795182 0.159838
Si Si2 0.582683 0.944343 0.153309
Si Si3 0.297936 0.185451 0.411129
Si Si4 0.906061 0.943228 0.341025
Si Si5 0.127452 0.316224 0.729118
Si Si6 0.258004 0.801606 0.657685
Si Si7 0.060932 0.851649 0.368799
Si Si8 0.060042 0.649129 0.862152
O O1 0.787329 0.734261 0.172034
O O2 0.750389 0.815840 0.242646
O O3 0.929697 0.816391 0.233319
O O4 0.644042 0.816853 0.999584
O O5 0.744949 0.920383 0.251236
O O6 0.478657 0.907923 0.136400
O O7 0.600697 0.000000 0.215245
O O8 0.500000 0.953372 0.000000
O O9 0.299290 0.162133 0.309566
O O10 0.456590 0.192867 0.575699
O O11 0.234520 0.242038 0.357177
O O12 0.193242 0.148220 0.392704
O O13 0.000000 0.947497 0.500000
O O14 0.992140 0.908022 0.331913
O O15 0.885673 0.000000 0.282965
O O16 0.145125 0.354687 0.827667
O O17 0.117712 0.828589 0.506129
O O18 0.408475 0.822362 0.726041
#
# Coordination Sequence:
#
# PCOD8105382 Si02
#       8
#     8   8   8   8   8   8   8   8
#     4  11  22  32  50  82 112 133 172 223 267 312
#     4  10  21  38  56  78 111 143 172 211 267 335
#     4  10  21  36  53  74 102 145 191 214 253 312
#     4  10  21  34  51  80 110 132 167 224 278 314
#     4  10  21  37  51  74 108 142 180 227 256 305
#     4  11  20  33  53  76 106 141 177 213 258 324
#     4  12  19  33  56  75  99 144 184 213 257 324
#     4  12  21  34  54  80 107 142 177 217 270 315
#
# _framework density 18.439620999999999
#
# number of rings (size 3 to 8) (size 9 to 14) (size 15 to 20)
#    0.000    1.250    2.500    6.000    0.000    0.000 
#    0.000    1.875    0.000    0.750    0.000    1.750 
#    0.000    5.000    0.000    0.000    0.000    0.000 
#
# Total GULP energy -396603.575973 kJ/mol
# GULP energy per Si atom -12393.861749 kJ/mol
# Density = 1.839765 g / cm^3
# Si number density = 18.439621 Si / 1000 Ang^3
#
#
#
# Elastic Constant Matrix: (Units=GPa)
#
#
# Indices 1 2 3 4 5 6 
#
# 1 105.9561 53.1717 19.7343 0.0000 -17.4980 0.0000
# 2 53.1717 87.3850 25.9011 0.0000 -9.0216 0.0000
# 3 19.7343 25.9011 58.8339 0.0000 0.9755 0.0000
# 4 0.0000 0.0000 0.0000 16.5272 0.0000 5.8881
# 5 -17.4980 -9.0216 0.9755 0.0000 31.6851 0.0000
# 6 0.0000 0.0000 0.0000 5.8881 0.0000 30.3064
#
#
#
# Elastic Compliance Matrix: (Units=1/GPa)
#
#
# Indices 1 2 3 4 5 6 
#
# 1 0.014633 -0.007833 -0.001558 0.000000 0.005899 0.000000
# 2 -0.007833 0.017862 -0.005251 0.000000 0.000921 0.000000
# 3 -0.001558 -0.005251 0.019880 0.000000 -0.002967 0.000000
# 4 0.000000 0.000000 0.000000 0.065006 0.000000 -0.012630
# 5 0.005899 0.000921 -0.002967 0.000000 0.035172 0.000000
# 6 0.000000 0.000000 0.000000 -0.012630 0.000000 0.035450
#
#
# Mechanical properties :
#
#
# Convention : Reuss Voigt Hill
#
# Bulk Modulus (GPa) = 43.30688 49.97659 46.64173
# Shear Modulus (GPa) = 22.22385 25.92829 24.07607
#
# Velocity S-wave (km/s) = 3.47540 3.75389 3.61733
# Velocity P-wave (km/s) = 6.29613 6.77869 6.54186
#
# Compressibility (1/GPa) = 0.02309102
#
# Stress axis : x y z
#
# Youngs Moduli (GPa) = 68.33860 55.98628 50.30071
#
# Poissons Ratio (x) = 0.43855 0.07835
# Poissons Ratio (y) = 0.53531 0.26414
# Poissons Ratio (z) = 0.10644 0.29400
#
# Static dielectric constant tensor:
#      x y z
#    x 3.550470 0.000000 0.027090 
#    y 0.000000 3.373630 0.000000 
#    z 0.027090 0.000000 3.454350 
# 
# 
# High freq. dielectric constant tensor:
#      x y z
#    x 1.706420 0.000000 0.008180 
#    y 0.000000 1.688700 0.000000 
#    z 0.008180 0.000000 1.723190 
# 
# From -- ./inp_files/218961.got.cif
#   From: 2010.06.25/outbox.cif.g09.slc.cpg/sg12_110_cif.got.tgz:218961.got - 2010.06.28 00:19:55.
