data_PCOD8105088
_publ_section_title
;
Structure prediction by ZEFSAII (Michael W. Deem and Ramdas Pophale) SiO2 
 PCOD8105088
Probable space group: C 2/M
;
_chemical_formula_sum "Si O2"
_cell_formula_units_Z 48
_cell_length_a 14.402816
_cell_length_b 18.831187
_cell_length_c 9.593689
_cell_angle_alpha 90.000000
_cell_angle_beta 62.242233
_cell_angle_gamma 90.000000
_cell_volume 2302.591880
_symmetry_space_group_name_H-M "C 2/M"
_symmetry_group_IT_number 12
_symmetry_cell_setting 'monoclinic'
loop_
_space_group_symop_operation_xyz
x,y,z
-x,y,-z
-x,-y,-z
x,-y,z
1/2+x,1/2+y,z
1/2-x,1/2+y,-z
1/2-x,1/2-y,-z
1/2+x,1/2-y,z
loop_
_atom_site_type_symbol
_atom_site_label
_atom_site_fract_x
_atom_site_fract_y
_atom_site_fract_z
Si Si1 0.746035 0.582368 0.509920
Si Si2 0.068927 0.694078 0.128618
Si Si3 0.007040 0.081101 0.645695
Si Si4 0.777693 0.320134 0.734793
Si Si5 0.410866 0.646017 0.964629
Si Si6 0.338058 0.828602 0.214624
O O1 0.780445 0.500000 0.499363
O O2 0.622657 0.591533 0.627999
O O3 0.805752 0.632122 0.580530
O O4 0.770413 0.609754 0.336341
O O5 0.116750 0.692267 0.249969
O O6 0.068482 0.771343 0.063156
O O7 0.948519 0.670562 0.221074
O O8 0.139336 0.651148 0.963876
O O9 0.917373 0.112859 0.807034
O O10 0.000000 0.119365 0.500000
O O11 0.976509 0.000000 0.647507
O O12 0.724276 0.246075 0.725991
O O13 0.701927 0.366615 0.887597
O O14 0.500000 0.611076 0.000000
#
# Coordination Sequence:
#
# PCOD8105088 Si02
#       6
#     8   8   8   8   8   8
#     4  11  24  41  57  85 123 157 196 245 290 348
#     4  10  21  38  62  90 114 149 202 245 291 350
#     4  10  23  38  56  86 122 159 196 232 292 364
#     4  11  22  38  63  91 117 155 195 242 298 349
#     4  11  18  37  60  87 121 149 187 245 296 342
#     4  10  20  41  62  88 120 152 194 246 295 345
#
# _framework density 20.846073000000001
#
# number of rings (size 3 to 8) (size 9 to 14) (size 15 to 20)
#    0.000    1.500    5.000    2.500    4.667    1.667 
#    0.000    4.167    0.000    0.000    0.000    0.000 
#    0.000    0.000    0.000    0.000    0.000    0.000 
#
# Total GULP energy -297497.225851 kJ/mol
# GULP energy per Si atom -12395.717744 kJ/mol
# Density = 2.079863 g / cm^3
# Si number density = 20.846073 Si / 1000 Ang^3
#
#
#
# Elastic Constant Matrix: (Units=GPa)
#
#
# Indices 1 2 3 4 5 6 
#
# 1 66.9936 20.7368 11.8624 0.0000 18.3076 0.0000
# 2 20.7368 67.3611 38.9059 0.0000 4.8251 0.0000
# 3 11.8624 38.9059 103.4586 0.0000 11.6550 0.0000
# 4 0.0000 0.0000 0.0000 -12.3532 0.0000 22.9339
# 5 18.3076 4.8251 11.6550 0.0000 36.3602 0.0000
# 6 0.0000 0.0000 0.0000 22.9339 0.0000 4.0999
#
#
#
# Elastic Compliance Matrix: (Units=1/GPa)
#
#
# Indices 1 2 3 4 5 6 
#
# 1 0.019040 -0.005800 0.001028 0.000000 -0.009147 0.000000
# 2 -0.005800 0.020733 -0.007419 0.000000 0.002547 0.000000
# 3 0.001028 -0.007419 0.012745 0.000000 -0.003619 0.000000
# 4 0.000000 0.000000 0.000000 -0.007110 0.000000 0.039774
# 5 -0.009147 0.002547 -0.003619 0.000000 0.032930 0.000000
# 6 0.000000 0.000000 0.000000 0.039774 0.000000 0.021424
#
#
# Mechanical properties :
#
#
# Convention : Reuss Voigt Hill
#
# Bulk Modulus (GPa) = 35.53983 42.31374 38.92679
# Shear Modulus (GPa) = 37.44724 16.70860 27.07792
#
# Velocity S-wave (km/s) = 4.24296 2.83419 3.60800
# Velocity P-wave (km/s) = 6.41009 5.57247 6.00590
#
# Compressibility (1/GPa) = 0.02813744
#
# Stress axis : x y z
#
# Youngs Moduli (GPa) = 52.52232 48.23159 78.46046
#
# Poissons Ratio (x) = 0.27975 -0.08070
# Poissons Ratio (y) = 0.30463 0.58208
# Poissons Ratio (z) = -0.05402 0.35782
#
# Static dielectric constant tensor:
#      x y z
#    x 3.720240 0.000000 0.121040 
#    y 0.000000 3.458220 0.000000 
#    z 0.121040 0.000000 4.266920 
# 
# 
# High freq. dielectric constant tensor:
#      x y z
#    x 1.810160 0.000000 0.006580 
#    y 0.000000 1.776310 0.000000 
#    z 0.006580 0.000000 1.829010 
# 
# From -- ./inp_files/63373.got.cif
#   From: 2010.06.25/outbox.cif.g09.slc.cpg/sg12_32_cif.got.tgz:63373.got - 2010.06.28 00:19:55.
