data_PCOD8105273
_publ_section_title
;
Structure prediction by ZEFSAII (Michael W. Deem and Ramdas Pophale) SiO2 
 PCOD8105273
Probable space group: C 2/M
;
_chemical_formula_sum "Si O2"
_cell_formula_units_Z 48
_cell_length_a 15.301709
_cell_length_b 9.299218
_cell_length_c 28.171213
_cell_angle_alpha 90.000000
_cell_angle_beta 142.394517
_cell_angle_gamma 90.000000
_cell_volume 2446.127274
_symmetry_space_group_name_H-M "C 2/M"
_symmetry_group_IT_number 12
_symmetry_cell_setting 'monoclinic'
loop_
_space_group_symop_operation_xyz
x,y,z
-x,y,-z
-x,-y,-z
x,-y,z
1/2+x,1/2+y,z
1/2-x,1/2+y,-z
1/2-x,1/2-y,-z
1/2+x,1/2-y,z
loop_
_atom_site_type_symbol
_atom_site_label
_atom_site_fract_x
_atom_site_fract_y
_atom_site_fract_z
Si Si1 0.141142 0.333392 0.420423
Si Si2 0.651236 0.168362 0.315479
Si Si3 0.178697 0.671147 0.691870
Si Si4 0.888446 0.659411 0.993426
Si Si5 0.406446 0.341065 0.170150
Si Si6 0.937610 0.155287 0.860167
O O1 0.151815 0.500000 0.437681
O O2 0.250000 0.250000 0.500000
O O3 0.188261 0.306047 0.386428
O O4 0.980688 0.278901 0.363143
O O5 0.769292 0.246855 0.333430
O O6 0.490900 0.232594 0.240628
O O7 0.648124 0.000000 0.301098
O O8 0.189404 0.500000 0.687286
O O9 0.276646 0.713809 0.780395
O O10 0.848491 0.500000 0.994794
O O11 0.744764 0.731593 0.910431
O O12 0.000000 0.652485 0.000000
O O13 0.957212 0.741293 0.066702
O O14 0.381282 0.500000 0.183038
O O15 0.502251 0.365221 0.165918
O O16 0.932619 0.000000 0.884283
#
# Coordination Sequence:
#
# PCOD8105273 Si02
#       6
#     8   8   8   8   8   8
#     4  10  23  41  61  87 118 150 185 229 282 341
#     4  10  21  37  60  89 115 144 190 241 279 325
#     4   9  20  40  61  83 116 154 188 227 283 344
#     4  10  21  33  47  75 111 143 181 229 274 320
#     4   9  19  36  54  74 107 149 185 223 278 335
#     4   9  18  33  54  75 100 142 188 226 269 325
#
# _framework density 19.622855000000001
#
# number of rings (size 3 to 8) (size 9 to 14) (size 15 to 20)
#    0.000    2.500    0.000    2.000    2.333    6.333 
#    0.000    3.333    0.000    0.000    0.000    0.000 
#    0.000    0.000    0.000    0.000    0.000    0.000 
#
# Total GULP energy -297430.020405 kJ/mol
# GULP energy per Si atom -12392.917517 kJ/mol
# Density = 1.957819 g / cm^3
# Si number density = 19.622855 Si / 1000 Ang^3
#
#
#
# Elastic Constant Matrix: (Units=GPa)
#
#
# Indices 1 2 3 4 5 6 
#
# 1 46.3270 17.5056 13.9354 0.0000 9.3684 0.0000
# 2 17.5056 68.7317 36.1911 0.0000 -5.8148 0.0000
# 3 13.9354 36.1911 99.1758 0.0000 11.0028 0.0000
# 4 0.0000 0.0000 0.0000 29.1702 0.0000 12.3601
# 5 9.3684 -5.8148 11.0028 0.0000 34.2547 0.0000
# 6 0.0000 0.0000 0.0000 12.3601 0.0000 12.3887
#
#
#
# Elastic Compliance Matrix: (Units=1/GPa)
#
#
# Indices 1 2 3 4 5 6 
#
# 1 0.026054 -0.007305 -0.000070 0.000000 -0.008343 0.000000
# 2 -0.007305 0.021060 -0.007546 0.000000 0.007997 0.000000
# 3 -0.000070 -0.007546 0.013466 0.000000 -0.005587 0.000000
# 4 0.000000 0.000000 0.000000 0.059387 0.000000 -0.059250
# 5 -0.008343 0.007997 -0.005587 0.000000 0.034627 0.000000
# 6 0.000000 0.000000 0.000000 -0.059250 0.000000 0.139831
#
#
# Mechanical properties :
#
#
# Convention : Reuss Voigt Hill
#
# Bulk Modulus (GPa) = 32.53153 38.83318 35.68235
# Shear Modulus (GPa) = 14.94710 24.93621 19.94166
#
# Velocity S-wave (km/s) = 2.76292 3.56866 3.19132
# Velocity P-wave (km/s) = 5.17616 6.06739 5.63941
#
# Compressibility (1/GPa) = 0.03073941
#
# Stress axis : x y z
#
# Youngs Moduli (GPa) = 38.38152 47.48409 74.25924
#
# Poissons Ratio (x) = 0.34688 0.00516
# Poissons Ratio (y) = 0.28038 0.56034
# Poissons Ratio (z) = 0.00267 0.35830
#
# Static dielectric constant tensor:
#      x y z
#    x 3.493380 0.000000 0.232040 
#    y 0.000000 3.818090 0.000000 
#    z 0.232040 0.000000 3.195710 
# 
# 
# High freq. dielectric constant tensor:
#      x y z
#    x 1.758500 0.000000 0.013430 
#    y 0.000000 1.756960 0.000000 
#    z 0.013430 0.000000 1.768330 
# 
# From -- ./inp_files/274617.got.cif
#   From: 2010.06.25/outbox.cif.g09.slc.cpg/sg12_138_cif.got.tgz:274617.got - 2010.06.28 00:19:55.
