data_PCOD8105209
_publ_section_title
;
Structure prediction by ZEFSAII (Michael W. Deem and Ramdas Pophale) SiO2 
 PCOD8105209
Probable space group: C 2/M
;
_chemical_formula_sum "Si O2"
_cell_formula_units_Z 40
_cell_length_a 18.147848
_cell_length_b 18.858630
_cell_length_c 11.552395
_cell_angle_alpha 90.000000
_cell_angle_beta 28.601560
_cell_angle_gamma 90.000000
_cell_volume 1892.714158
_symmetry_space_group_name_H-M "C 2/M"
_symmetry_group_IT_number 12
_symmetry_cell_setting 'monoclinic'
loop_
_space_group_symop_operation_xyz
x,y,z
-x,y,-z
-x,-y,-z
x,-y,z
1/2+x,1/2+y,z
1/2-x,1/2+y,-z
1/2-x,1/2-y,-z
1/2+x,1/2-y,z
loop_
_atom_site_type_symbol
_atom_site_label
_atom_site_fract_x
_atom_site_fract_y
_atom_site_fract_z
Si Si1 0.000000 0.884057 0.500000
Si Si2 0.984031 0.500000 0.239736
Si Si3 0.311715 0.500000 0.881502
Si Si4 0.399731 0.851649 0.281192
Si Si5 0.210362 0.298097 0.815801
Si Si6 0.829861 0.152110 0.200452
Si Si7 0.740393 0.000000 0.244578
O O1 0.079668 0.931726 0.290083
O O2 0.129277 0.834633 0.376764
O O3 0.919138 0.436145 0.253131
O O4 0.919867 0.500000 0.462556
O O5 0.169681 0.500000 0.987450
O O6 0.232066 0.500000 0.117436
O O7 0.341085 0.822036 0.241064
O O8 0.272468 0.831959 0.548195
O O9 0.565866 0.821236 0.094896
O O10 0.228010 0.212815 0.809184
O O11 0.829911 0.071993 0.153732
O O12 0.000000 0.173156 0.000000
#
# Coordination Sequence:
#
# PCOD8105209 Si02
#       7
#     4   4   4   8   8   8   4
#     4  11  26  42  64  99 128 170 214 255 324 380
#     4  10  20  43  66  95 124 166 223 255 313 383
#     4  11  23  43  64  88 141 164 211 263 310 384
#     4  10  22  40  68  93 127 168 211 265 315 372
#     4  11  23  42  66  94 131 169 207 270 319 372
#     4  11  23  42  67  97 126 164 221 263 313 380
#     4  10  25  41  65  92 126 174 207 265 321 374
#
# _framework density 21.133673000000002
#
# number of rings (size 3 to 8) (size 9 to 14) (size 15 to 20)
#    0.000    1.400    4.000    1.200    2.800    3.200 
#    7.200    2.000    0.000    0.000    0.000    0.000 
#    0.000    0.000    0.000    0.000    0.000    0.000 
#
# Total GULP energy -247823.384772 kJ/mol
# GULP energy per Si atom -12391.169239 kJ/mol
# Density = 2.108557 g / cm^3
# Si number density = 21.133673 Si / 1000 Ang^3
#
#
#
# Elastic Constant Matrix: (Units=GPa)
#
#
# Indices 1 2 3 4 5 6 
#
# 1 58.2856 39.4525 29.4412 -0.0003 -18.4350 0.0008
# 2 39.4525 182.9980 54.5978 -0.0025 -13.9535 -0.0003
# 3 29.4412 54.5978 123.4642 -0.0047 -22.4806 -0.0007
# 4 -0.0003 -0.0025 -0.0047 37.6076 0.0019 -15.9225
# 5 -18.4350 -13.9535 -22.4806 0.0019 40.6968 -0.0005
# 6 0.0008 -0.0003 -0.0007 -15.9225 -0.0005 19.9760
#
#
#
# Elastic Compliance Matrix: (Units=1/GPa)
#
#
# Indices 1 2 3 4 5 6 
#
# 1 0.023447 -0.003700 -0.002504 -0.000002 0.007969 -0.000002
# 2 -0.003700 0.006897 -0.002270 0.000000 -0.000566 0.000000
# 3 -0.002504 -0.002270 0.010398 0.000002 0.003831 0.000002
# 4 -0.000002 0.000000 0.000002 0.040135 -0.000001 0.031991
# 5 0.007969 -0.000566 0.003831 -0.000001 0.030104 0.000000
# 6 -0.000002 0.000000 0.000002 0.031991 0.000000 0.075559
#
#
# Mechanical properties :
#
#
# Convention : Reuss Voigt Hill
#
# Bulk Modulus (GPa) = 42.02967 67.97010 54.99988
# Shear Modulus (GPa) = 23.64965 35.73984 29.69474
#
# Velocity S-wave (km/s) = 3.34885 4.11680 3.75252
# Velocity P-wave (km/s) = 5.90625 7.40467 6.69750
#
# Compressibility (1/GPa) = 0.02379272
#
# Stress axis : x y z
#
# Youngs Moduli (GPa) = 42.64969 145.00072 96.17085
#
# Poissons Ratio (x) = 0.53654 0.24079
# Poissons Ratio (y) = 0.15781 0.21835
# Poissons Ratio (z) = 0.10678 0.32921
#
# Static dielectric constant tensor:
#      x y z
#    x 3.351750 0.000000 -0.022090 
#    y 0.000000 4.123880 0.000010 
#    z -0.022090 0.000010 4.300850 
# 
# 
# High freq. dielectric constant tensor:
#      x y z
#    x 1.784560 0.000000 -0.006350 
#    y 0.000000 1.852400 0.000000 
#    z -0.006350 0.000000 1.854470 
# 
# From -- ./inp_files/130929.got.cif
#   From: 2010.06.25/outbox.cif.g09.slc.cpg/sg12_66_cif.got.tgz:130929.got - 2010.06.28 00:19:55.
