data_PCOD8105900
_publ_section_title
;
Structure prediction by ZEFSAII (Michael W. Deem and Ramdas Pophale) SiO2 
 PCOD8105900
Probable space group: C 2/M
;
_chemical_formula_sum "Si O2"
_cell_formula_units_Z 48
_cell_length_a 22.453882
_cell_length_b 14.605957
_cell_length_c 12.130768
_cell_angle_alpha 90.000000
_cell_angle_beta 35.885215
_cell_angle_gamma 90.000000
_cell_volume 2331.999111
_symmetry_space_group_name_H-M "C 2/M"
_symmetry_group_IT_number 12
_symmetry_cell_setting 'monoclinic'
loop_
_space_group_symop_operation_xyz
x,y,z
-x,y,-z
-x,-y,-z
x,-y,z
1/2+x,1/2+y,z
1/2-x,1/2+y,-z
1/2-x,1/2-y,-z
1/2+x,1/2-y,z
loop_
_atom_site_type_symbol
_atom_site_label
_atom_site_fract_x
_atom_site_fract_y
_atom_site_fract_z
Si Si1 0.084369 0.727872 0.294481
Si Si2 0.520248 0.102384 0.721076
Si Si3 0.711684 0.713395 0.912746
Si Si4 0.321813 0.103843 0.144250
Si Si5 0.291317 0.892929 0.435171
Si Si6 0.613227 0.392657 0.858031
O O1 0.174881 0.678230 0.229035
O O2 0.000000 0.776471 0.500000
O O3 0.022045 0.651812 0.322410
O O4 0.136850 0.798958 0.130665
O O5 0.623124 0.150515 0.612585
O O6 0.543866 0.000000 0.646061
O O7 0.441954 0.103074 0.940896
O O8 0.727395 0.822442 0.864983
O O9 0.659795 0.659430 0.891876
O O10 0.300019 0.144916 0.298424
O O11 0.277193 0.000000 0.194778
O O12 0.180338 0.870735 0.649491
O O13 0.314361 0.000000 0.393699
O O14 0.613967 0.500000 0.885422
O O15 0.500000 0.358056 0.000000
#
# Coordination Sequence:
#
# PCOD8105900 Si02
#       6
#     8   8   8   8   8   8
#     4  10  21  36  52  75 106 137 178 224 259 305
#     4   9  17  30  52  81 109 136 166 209 267 319
#     4  10  22  37  55  78 104 140 179 216 262 308
#     4   9  18  33  54  81 111 136 164 210 265 319
#     4   9  17  31  53  81 109 136 169 210 261 318
#     4  10  22  38  54  76 107 142 180 217 253 303
#
# _framework density 20.583197999999999
#
# number of rings (size 3 to 8) (size 9 to 14) (size 15 to 20)
#    0.000    2.500    0.000    1.500    0.000    7.667 
#    0.000    2.500    0.000    1.000    0.000    0.000 
#    0.000    0.000    0.000    0.000    0.000    0.000 
#
# Total GULP energy -297436.195881 kJ/mol
# GULP energy per Si atom -12393.174828 kJ/mol
# Density = 2.053635 g / cm^3
# Si number density = 20.583198 Si / 1000 Ang^3
#
#
#
# Elastic Constant Matrix: (Units=GPa)
#
#
# Indices 1 2 3 4 5 6 
#
# 1 110.8539 24.8388 58.8336 0.0000 2.5427 0.0000
# 2 24.8388 42.5909 22.5758 0.0000 4.3560 0.0000
# 3 58.8336 22.5758 141.9561 0.0000 -3.9415 0.0000
# 4 0.0000 0.0000 0.0000 13.7103 0.0000 -1.9340
# 5 2.5427 4.3560 -3.9415 0.0000 25.1908 0.0000
# 6 0.0000 0.0000 0.0000 -1.9340 0.0000 22.7804
#
#
#
# Elastic Compliance Matrix: (Units=1/GPa)
#
#
# Indices 1 2 3 4 5 6 
#
# 1 0.012480 -0.004811 -0.004438 0.000000 -0.001122 0.000000
# 2 -0.004811 0.028163 -0.002618 0.000000 -0.004794 0.000000
# 3 -0.004438 -0.002618 0.009366 0.000000 0.002366 0.000000
# 4 0.000000 0.000000 0.000000 0.073822 0.000000 0.006267
# 5 -0.001122 -0.004794 0.002366 0.000000 0.041010 0.000000
# 6 0.000000 0.000000 0.000000 0.006267 0.000000 0.044429
#
#
# Mechanical properties :
#
#
# Convention : Reuss Voigt Hill
#
# Bulk Modulus (GPa) = 38.06016 56.43305 47.24660
# Shear Modulus (GPa) = 20.68140 24.94648 22.81394
#
# Velocity S-wave (km/s) = 3.17325 3.48513 3.33284
# Velocity P-wave (km/s) = 5.65306 6.60844 6.14933
#
# Compressibility (1/GPa) = 0.02627420
#
# Stress axis : x y z
#
# Youngs Moduli (GPa) = 80.12652 35.50759 106.76889
#
# Poissons Ratio (x) = 0.17083 0.47389
# Poissons Ratio (y) = 0.38549 0.27953
# Poissons Ratio (z) = 0.35564 0.09296
#
# Static dielectric constant tensor:
#      x y z
#    x 3.750290 0.000000 0.034640 
#    y 0.000000 3.476060 0.000000 
#    z 0.034640 0.000000 3.959730 
# 
# 
# High freq. dielectric constant tensor:
#      x y z
#    x 1.805100 0.000000 0.004970 
#    y 0.000000 1.770140 0.000000 
#    z 0.004970 0.000000 1.818960 
# 
# From -- ./inp_files/143196.got.cif
#   From: 2010.06.25/outbox.cif.g09.slc.cpg/sg12_72_cif.got.tgz:143196.got - 2010.06.28 00:19:55.
