data_PCOD8105880
_publ_section_title
;
Structure prediction by ZEFSAII (Michael W. Deem and Ramdas Pophale) SiO2 
 PCOD8105880
Probable space group: C 2/M
;
_chemical_formula_sum "Si O2"
_cell_formula_units_Z 64
_cell_length_a 14.837582
_cell_length_b 26.938283
_cell_length_c 18.340343
_cell_angle_alpha 90.000000
_cell_angle_beta 151.206163
_cell_angle_gamma 90.000000
_cell_volume 3530.860404
_symmetry_space_group_name_H-M "C 2/M"
_symmetry_group_IT_number 12
_symmetry_cell_setting 'monoclinic'
loop_
_space_group_symop_operation_xyz
x,y,z
-x,y,-z
-x,-y,-z
x,-y,z
1/2+x,1/2+y,z
1/2-x,1/2+y,-z
1/2-x,1/2-y,-z
1/2+x,1/2-y,z
loop_
_atom_site_type_symbol
_atom_site_label
_atom_site_fract_x
_atom_site_fract_y
_atom_site_fract_z
Si Si1 0.931778 0.861429 0.659087
Si Si2 0.765322 0.742368 0.660832
Si Si3 0.299284 0.706140 0.836915
Si Si4 0.894247 0.442842 0.812653
Si Si5 0.873845 0.763475 0.157189
Si Si6 0.671027 0.634827 0.578724
Si Si7 0.056283 0.334285 0.463641
Si Si8 0.782533 0.943513 0.158796
O O1 0.877527 0.850772 0.537741
O O2 0.732883 0.864410 0.559088
O O3 0.071876 0.821313 0.794095
O O4 0.037365 0.913461 0.740316
O O5 0.831635 0.771328 0.779737
O O6 0.706833 0.687443 0.643643
O O7 0.602375 0.775118 0.507077
O O8 0.929933 0.735434 0.717482
O O9 0.239852 0.748313 0.851861
O O10 0.132093 0.664968 0.719716
O O11 0.500000 0.681983 0.000000
O O12 0.851066 0.500000 0.760278
O O13 0.838852 0.405126 0.707822
O O14 0.782358 0.427450 0.806429
O O15 0.114106 0.435870 0.982567
O O16 0.750000 0.750000 0.000000
O O17 0.500000 0.609049 0.500000
O O18 0.000000 0.359568 0.500000
O O19 0.847632 0.000000 0.206372
#
# Coordination Sequence:
#
# PCOD8105880 Si02
#       8
#     8   8   8   8   8   8   8   8
#     4  11  22  36  56  81 106 148 190 227 279 334
#     4  10  21  36  50  71 105 148 180 228 272 315
#     4  11  20  33  52  72 100 144 187 222 274 324
#     4   9  20  36  55  80 118 153 180 225 275 327
#     4  11  22  35  49  76 108 141 184 235 269 322
#     4  12  21  32  50  81 113 146 187 221 270 330
#     4   9  20  39  55  70 105 141 186 234 278 323
#     4   9  19  38  58  81 112 149 186 225 275 334
#
# _framework density 18.125893000000001
#
# number of rings (size 3 to 8) (size 9 to 14) (size 15 to 20)
#    0.000    1.750    2.500    4.125    1.750    2.750 
#    0.000    0.000    0.000    0.375    0.000    0.000 
#    0.000    2.500    0.000    0.000    0.000    0.000 
#
# Total GULP energy -396572.523363 kJ/mol
# GULP energy per Si atom -12392.891355 kJ/mol
# Density = 1.808464 g / cm^3
# Si number density = 18.125893 Si / 1000 Ang^3
#
#
#
# Elastic Constant Matrix: (Units=GPa)
#
#
# Indices 1 2 3 4 5 6 
#
# 1 86.0262 23.3210 35.4784 0.0000 15.7706 0.0001
# 2 23.3210 71.3892 42.4847 0.0002 5.1027 0.0000
# 3 35.4784 42.4847 116.3256 -0.0004 9.7011 0.0001
# 4 0.0000 0.0002 -0.0004 25.9901 -0.0001 4.2251
# 5 15.7706 5.1027 9.7011 -0.0001 35.7644 0.0001
# 6 0.0001 0.0000 0.0001 4.2251 0.0001 23.5919
#
#
#
# Elastic Compliance Matrix: (Units=1/GPa)
#
#
# Indices 1 2 3 4 5 6 
#
# 1 0.014537 -0.002551 -0.003067 0.000000 -0.005214 0.000000
# 2 -0.002551 0.018368 -0.005940 0.000000 0.000115 0.000000
# 3 -0.003067 -0.005940 0.011785 0.000000 -0.000997 0.000000
# 4 0.000000 0.000000 0.000000 0.039630 0.000000 -0.007097
# 5 -0.005214 0.000115 -0.000997 0.000000 0.030514 0.000000
# 6 0.000000 0.000000 0.000000 -0.007097 0.000000 0.043659
#
#
# Mechanical properties :
#
#
# Convention : Reuss Voigt Hill
#
# Bulk Modulus (GPa) = 46.35384 52.92326 49.63855
# Shear Modulus (GPa) = 26.48332 28.56639 27.52486
#
# Velocity S-wave (km/s) = 3.82655 3.97419 3.90107
# Velocity P-wave (km/s) = 6.71953 7.09365 6.90913
#
# Compressibility (1/GPa) = 0.02157318
#
# Stress axis : x y z
#
# Youngs Moduli (GPa) = 68.79165 54.44345 84.85710
#
# Poissons Ratio (x) = 0.13887 0.26027
# Poissons Ratio (y) = 0.17547 0.50405
# Poissons Ratio (z) = 0.21099 0.32339
#
# Static dielectric constant tensor:
#      x y z
#    x 3.501230 0.000000 0.112140 
#    y 0.000000 2.978170 0.000000 
#    z 0.112140 0.000000 3.593570 
# 
# 
# High freq. dielectric constant tensor:
#      x y z
#    x 1.696320 0.000000 0.006870 
#    y 0.000000 1.657040 0.000000 
#    z 0.006870 0.000000 1.718820 
# 
# From -- ./inp_files/272883.got.cif
#   From: 2010.06.25/outbox.cif.g09.slc.cpg/sg12_137_cif.got.tgz:272883.got - 2010.06.28 00:19:55.
