data_PCOD8105882
_publ_section_title
;
Structure prediction by ZEFSAII (Michael W. Deem and Ramdas Pophale) SiO2 
 PCOD8105882
Probable space group: C 2/M
;
_chemical_formula_sum "Si O2"
_cell_formula_units_Z 44
_cell_length_a 5.097686
_cell_length_b 25.247468
_cell_length_c 20.601833
_cell_angle_alpha 90.000000
_cell_angle_beta 59.872751
_cell_angle_gamma 90.000000
_cell_volume 2293.343475
_symmetry_space_group_name_H-M "C 2/M"
_symmetry_group_IT_number 12
_symmetry_cell_setting 'monoclinic'
loop_
_space_group_symop_operation_xyz
x,y,z
-x,y,-z
-x,-y,-z
x,-y,z
1/2+x,1/2+y,z
1/2-x,1/2+y,-z
1/2-x,1/2-y,-z
1/2+x,1/2-y,z
loop_
_atom_site_type_symbol
_atom_site_label
_atom_site_fract_x
_atom_site_fract_y
_atom_site_fract_z
Si Si1 0.662785 0.563007 0.543377
Si Si2 0.417696 0.603781 0.210710
Si Si3 0.500000 0.214222 0.000000
Si Si4 0.150866 0.786332 0.162577
Si Si5 0.345427 0.562709 0.952794
Si Si6 0.740939 0.061482 0.711865
O O1 0.500000 0.585816 0.500000
O O2 0.673420 0.500000 0.540181
O O3 0.490597 0.581783 0.629519
O O4 0.000000 0.586861 0.500000
O O5 0.484943 0.665368 0.219176
O O6 0.485678 0.589270 0.128127
O O7 0.627158 0.569093 0.232345
O O8 0.062417 0.594112 0.265377
O O9 0.678899 0.184142 0.920072
O O10 0.250000 0.250000 0.000000
O O11 0.405596 0.758496 0.174847
O O12 0.372270 0.500000 0.941357
O O13 0.500000 0.582466 0.000000
O O14 0.000000 0.581882 0.000000
O O15 0.661357 0.000000 0.711906
#
# Coordination Sequence:
#
# PCOD8105882 Si02
#       6
#     8   8   4   8   8   8
#     4   9  17  31  52  78 111 148 177 208 256 316
#     4  12  23  36  57  79 109 148 186 228 282 332
#     4   8  16  32  52  70  91 122 165 226 288 324
#     4  10  21  38  55  77 104 134 180 240 289 337
#     4  10  21  36  51  70 100 141 188 227 259 309
#     4  11  22  36  55  84 118 149 182 218 263 327
#
# _framework density 19.185963999999998
#
# number of rings (size 3 to 8) (size 9 to 14) (size 15 to 20)
#    0.000    1.818    0.000    4.909    1.273    4.364 
#    6.545    0.000    0.000    0.000    0.000    0.000 
#    0.000   50.909    0.000    0.000    0.000    0.000 
#
# Total GULP energy -272714.796425 kJ/mol
# GULP energy per Si atom -12396.127110 kJ/mol
# Density = 1.914230 g / cm^3
# Si number density = 19.185964 Si / 1000 Ang^3
#
#
#
# Elastic Constant Matrix: (Units=GPa)
#
#
# Indices 1 2 3 4 5 6 
#
# 1 134.9820 16.3683 35.0834 0.0000 -13.6257 0.0000
# 2 16.3683 44.8772 36.1928 0.0000 -11.0785 0.0000
# 3 35.0834 36.1928 88.3453 0.0000 -12.4723 0.0000
# 4 0.0000 0.0000 0.0000 9.7335 0.0000 -8.8323
# 5 -13.6257 -11.0785 -12.4723 0.0000 39.6227 0.0000
# 6 0.0000 0.0000 0.0000 -8.8323 0.0000 19.8097
#
#
#
# Elastic Compliance Matrix: (Units=1/GPa)
#
#
# Indices 1 2 3 4 5 6 
#
# 1 0.008400 -0.000181 -0.002994 0.000000 0.001896 0.000000
# 2 -0.000181 0.034358 -0.013245 0.000000 0.005375 0.000000
# 3 -0.002994 -0.013245 0.018069 0.000000 0.000955 0.000000
# 4 0.000000 0.000000 0.000000 0.172548 0.000000 0.076932
# 5 0.001896 0.005375 0.000955 0.000000 0.027693 0.000000
# 6 0.000000 0.000000 0.000000 0.076932 0.000000 0.084782
#
#
# Mechanical properties :
#
#
# Convention : Reuss Voigt Hill
#
# Bulk Modulus (GPa) = 35.73105 49.27704 42.50405
# Shear Modulus (GPa) = 12.88600 25.87050 19.37825
#
# Velocity S-wave (km/s) = 2.59441 3.67605 3.18153
# Velocity P-wave (km/s) = 5.25724 6.61494 5.97478
#
# Compressibility (1/GPa) = 0.02798686
#
# Stress axis : x y z
#
# Youngs Moduli (GPa) = 119.04963 29.10562 55.34362
#
# Poissons Ratio (x) = 0.00528 0.16569
# Poissons Ratio (y) = 0.02158 0.73301
# Poissons Ratio (z) = 0.35642 0.38549
#
# Static dielectric constant tensor:
#      x y z
#    x 3.758580 0.000000 -0.113910 
#    y 0.000000 3.126050 0.000000 
#    z -0.113910 0.000000 3.663860 
# 
# 
# High freq. dielectric constant tensor:
#      x y z
#    x 1.770850 0.000000 -0.008490 
#    y 0.000000 1.707780 0.000000 
#    z -0.008490 0.000000 1.736840 
# 
# From -- ./inp_files/297966.got.cif
#   From: 2010.06.25/outbox.cif.g09.slc.cpg/sg12_149_cif.got.tgz:297966.got - 2010.06.28 00:19:55.
