data_PCOD8105334
_publ_section_title
;
Structure prediction by ZEFSAII (Michael W. Deem and Ramdas Pophale) SiO2 
 PCOD8105334
Probable space group: C 2/M
;
_chemical_formula_sum "Si O2"
_cell_formula_units_Z 64
_cell_length_a 26.247961
_cell_length_b 15.122036
_cell_length_c 9.184339
_cell_angle_alpha 90.000000
_cell_angle_beta 110.481610
_cell_angle_gamma 90.000000
_cell_volume 3415.021661
_symmetry_space_group_name_H-M "C 2/M"
_symmetry_group_IT_number 12
_symmetry_cell_setting 'monoclinic'
loop_
_space_group_symop_operation_xyz
x,y,z
-x,y,-z
-x,-y,-z
x,-y,z
1/2+x,1/2+y,z
1/2-x,1/2+y,-z
1/2-x,1/2-y,-z
1/2+x,1/2-y,z
loop_
_atom_site_type_symbol
_atom_site_label
_atom_site_fract_x
_atom_site_fract_y
_atom_site_fract_z
Si Si1 0.893114 0.898372 0.223203
Si Si2 0.693012 0.252843 0.864411
Si Si3 0.616098 0.901444 0.790306
Si Si4 0.000000 0.604372 0.657961
Si Si5 0.893114 0.101628 0.563024
Si Si6 1.000000 0.104984 0.164677
Si Si7 0.193012 0.752843 0.521613
Si Si8 0.883902 0.598556 0.558110
O O1 0.840475 0.840924 0.126544
O O2 0.906238 0.888336 0.406238
O O3 0.945769 0.860910 0.191228
O O4 0.880350 0.000000 0.168705
O O5 0.660754 0.167154 0.890351
O O6 0.702952 0.248197 0.702952
O O7 0.750000 0.250000 0.000000
O O8 0.556753 0.871314 0.796129
O O9 0.611501 0.900175 0.611501
O O10 0.632113 0.000000 0.860535
O O11 0.000000 0.500000 0.634422
O O12 0.943247 0.628686 0.682624
O O13 0.000000 0.651633 0.500000
O O14 0.945769 0.139090 0.700311
O O15 0.840475 0.159076 0.554407
O O16 0.880350 0.000000 0.591995
O O17 1.000000 0.000000 0.169885
O O18 0.000000 0.140909 0.000000
O O19 0.250000 0.750000 0.500000
O O20 0.160754 0.667154 0.431158
O O21 0.867887 0.500000 0.596309
#
# Coordination Sequence:
#
# PCOD8105334 Si02
#       8
#     8   8   8   8   8   8   8   8
#     4   9  18  33  51  71  99 133 163 194 239 296
#     4  10  21  34  48  68  94 127 168 205 236 278
#     4   8  14  26  45  69  94 117 145 189 241 283
#     4   7  10  19  38  64  90 110 132 172 227 279
#     4   9  18  33  51  71  99 133 163 194 239 296
#     4   9  17  30  51  79 104 125 156 199 245 291
#     4  10  21  34  48  68  94 127 168 205 236 278
#     4   8  14  26  45  69  94 117 145 189 241 283
#
# _framework density 18.740731
#
# number of rings (size 3 to 8) (size 9 to 14) (size 15 to 20)
#    0.000    3.250    0.000    1.875    0.000    4.500 
#    0.000    3.750    0.000    0.000    0.000    0.000 
#    0.000    4.000    0.000    0.000    0.000    0.000 
#
# Total GULP energy -396511.104396 kJ/mol
# GULP energy per Si atom -12390.972012 kJ/mol
# Density = 1.869808 g / cm^3
# Si number density = 18.740731 Si / 1000 Ang^3
#
#
#
# Elastic Constant Matrix: (Units=GPa)
#
#
# Indices 1 2 3 4 5 6 
#
# 1 184.7471 79.7147 54.7122 0.0000 27.3651 0.0000
# 2 79.7147 105.9522 34.6108 0.0000 18.5618 0.0000
# 3 54.7122 34.6108 60.9974 0.0000 23.5621 0.0000
# 4 0.0000 0.0000 0.0000 13.9833 0.0000 6.9678
# 5 27.3651 18.5618 23.5621 0.0000 33.3348 0.0000
# 6 0.0000 0.0000 0.0000 6.9678 0.0000 30.9146
#
#
#
# Elastic Compliance Matrix: (Units=1/GPa)
#
#
# Indices 1 2 3 4 5 6 
#
# 1 0.009279 -0.005155 -0.004903 0.000000 -0.001281 0.000000
# 2 -0.005155 0.014601 -0.002964 0.000000 -0.001803 0.000000
# 3 -0.004903 -0.002964 0.027899 0.000000 -0.014044 0.000000
# 4 0.000000 0.000000 0.000000 0.080562 0.000000 -0.018158
# 5 -0.001281 -0.001803 -0.014044 0.000000 0.041981 0.000000
# 6 0.000000 0.000000 0.000000 -0.018158 0.000000 0.036440
#
#
# Mechanical properties :
#
#
# Convention : Reuss Voigt Hill
#
# Bulk Modulus (GPa) = 38.85894 76.64135 57.75015
# Shear Modulus (GPa) = 20.37621 27.82381 24.10001
#
# Velocity S-wave (km/s) = 3.30095 3.85732 3.58993
# Velocity P-wave (km/s) = 5.94209 7.79891 6.93294
#
# Compressibility (1/GPa) = 0.02573410
#
# Stress axis : x y z
#
# Youngs Moduli (GPa) = 107.77224 68.48868 35.84368
#
# Poissons Ratio (x) = 0.35306 0.17573
# Poissons Ratio (y) = 0.55557 0.10626
# Poissons Ratio (z) = 0.52838 0.20303
#
# Static dielectric constant tensor:
#      x y z
#    x 3.548180 0.000000 0.201030 
#    y 0.000000 3.536280 0.000000 
#    z 0.201030 0.000000 3.059690 
# 
# 
# High freq. dielectric constant tensor:
#      x y z
#    x 1.728380 0.000000 0.019940 
#    y 0.000000 1.724630 0.000000 
#    z 0.019940 0.000000 1.679940 
# 
# From -- ./inp_files/104671.got.cif
#   From: 2010.06.25/outbox.cif.g09.slc.cpg/sg12_53_cif.got.tgz:104671.got - 2010.06.28 00:19:55.
