data_PCOD8105291
_publ_section_title
;
Structure prediction by ZEFSAII (Michael W. Deem and Ramdas Pophale) SiO2 
 PCOD8105291
Probable space group: C 2/M
;
_chemical_formula_sum "Si O2"
_cell_formula_units_Z 56
_cell_length_a 15.049586
_cell_length_b 19.322417
_cell_length_c 9.189016
_cell_angle_alpha 90.000000
_cell_angle_beta 94.673849
_cell_angle_gamma 90.000000
_cell_volume 2663.228546
_symmetry_space_group_name_H-M "C 2/M"
_symmetry_group_IT_number 12
_symmetry_cell_setting 'monoclinic'
loop_
_space_group_symop_operation_xyz
x,y,z
-x,y,-z
-x,-y,-z
x,-y,z
1/2+x,1/2+y,z
1/2-x,1/2+y,-z
1/2-x,1/2-y,-z
1/2+x,1/2-y,z
loop_
_atom_site_type_symbol
_atom_site_label
_atom_site_fract_x
_atom_site_fract_y
_atom_site_fract_z
Si Si1 0.563045 0.425742 0.120423
Si Si2 0.252412 0.078694 0.616599
Si Si3 0.994579 0.254900 0.664409
Si Si4 0.742424 0.582187 0.278918
Si Si5 0.949800 0.098281 0.354018
Si Si6 0.156934 0.694495 0.853979
Si Si7 0.181812 0.292831 0.198607
O O1 0.591819 0.500000 0.053228
O O2 0.649861 0.387298 0.196413
O O3 0.494934 0.445766 0.236228
O O4 0.500000 0.381000 0.000000
O O5 0.253355 0.104090 0.448637
O O6 0.152523 0.078988 0.658668
O O7 0.306751 0.131748 0.725214
O O8 0.290977 0.000000 0.635725
O O9 0.894544 0.255026 0.716484
O O10 0.000000 0.285161 0.500000
O O11 0.034228 0.178839 0.669065
O O12 0.057672 0.297770 0.780025
O O13 0.745980 0.500000 0.264168
O O14 0.817924 0.616738 0.190840
O O15 0.000000 0.070542 0.500000
O O16 0.226476 0.748462 0.787361
O O17 0.153071 0.699371 0.027290
#
# Coordination Sequence:
#
# PCOD8105291 Si02
#       7
#     8   8   8   8   8   8   8
#     4  10  21  33  51  82 123 165 203 249 310 382
#     4  11  23  40  63  94 134 171 217 269 321 390
#     4  11  24  41  67  94 125 166 216 272 323 381
#     4  10  22  39  61  90 126 170 212 266 325 382
#     4  11  21  36  59  94 123 168 210 260 322 381
#     4  11  24  43  65  94 130 171 216 274 321 388
#     4  11  25  42  65  98 130 172 219 268 329 383
#
# _framework density 21.027111000000001
#
# number of rings (size 3 to 8) (size 9 to 14) (size 15 to 20)
#    0.000    1.286    2.857    2.571    4.000    3.429 
#    0.000    0.714    0.000    4.286    0.000    0.000 
#    0.000    0.000    0.000    0.000    0.000    0.000 
#
# Total GULP energy -346910.149545 kJ/mol
# GULP energy per Si atom -12389.648198 kJ/mol
# Density = 2.097925 g / cm^3
# Si number density = 21.027111 Si / 1000 Ang^3
#
#
#
# Elastic Constant Matrix: (Units=GPa)
#
#
# Indices 1 2 3 4 5 6 
#
# 1 66.9298 9.4490 40.1080 0.0000 -0.6323 0.0000
# 2 9.4490 60.0306 39.2620 0.0000 4.5244 0.0000
# 3 40.1080 39.2620 123.2547 0.0000 14.2137 0.0000
# 4 0.0000 0.0000 0.0000 31.7885 0.0000 3.6990
# 5 -0.6323 4.5244 14.2137 0.0000 37.5809 0.0000
# 6 0.0000 0.0000 0.0000 3.6990 0.0000 41.4732
#
#
#
# Elastic Compliance Matrix: (Units=1/GPa)
#
#
# Indices 1 2 3 4 5 6 
#
# 1 0.018912 0.001324 -0.006895 0.000000 0.002767 0.000000
# 2 0.001324 0.021135 -0.007186 0.000000 0.000196 0.000000
# 3 -0.006895 -0.007186 0.013132 0.000000 -0.004218 0.000000
# 4 0.000000 0.000000 0.000000 0.031788 0.000000 -0.002835
# 5 0.002767 0.000196 -0.004218 0.000000 0.028227 0.000000
# 6 0.000000 0.000000 0.000000 -0.002835 0.000000 0.024365
#
#
# Mechanical properties :
#
#
# Convention : Reuss Voigt Hill
#
# Bulk Modulus (GPa) = 36.14542 47.53923 41.84233
# Shear Modulus (GPa) = 29.02010 32.92828 30.97419
#
# Velocity S-wave (km/s) = 3.71904 3.96155 3.84221
# Velocity P-wave (km/s) = 5.97234 6.60173 6.29491
#
# Compressibility (1/GPa) = 0.02766602
#
# Stress axis : x y z
#
# Youngs Moduli (GPa) = 52.87628 47.31544 76.14786
#
# Poissons Ratio (x) = -0.06266 0.52504
# Poissons Ratio (y) = -0.07002 0.54718
# Poissons Ratio (z) = 0.36458 0.34000
#
# Static dielectric constant tensor:
#      x y z
#    x 3.722420 0.000000 0.102940 
#    y 0.000000 3.809080 0.000000 
#    z 0.102940 0.000000 4.115570 
# 
# 
# High freq. dielectric constant tensor:
#      x y z
#    x 1.806870 0.000000 0.003380 
#    y 0.000000 1.817760 0.000000 
#    z 0.003380 0.000000 1.840750 
# 
# From -- ./inp_files/64069.got.cif
#   From: 2010.06.25/outbox.cif.g09.slc.cpg/sg12_33_cif.got.tgz:64069.got - 2010.06.28 00:19:55.
