data_PCOD8105936
_publ_section_title
;
Structure prediction by ZEFSAII (Michael W. Deem and Ramdas Pophale) SiO2 
 PCOD8105936
Probable space group: C 2/M
;
_chemical_formula_sum "Si O2"
_cell_formula_units_Z 56
_cell_length_a 13.159761
_cell_length_b 13.275839
_cell_length_c 30.577373
_cell_angle_alpha 90.000000
_cell_angle_beta 35.638434
_cell_angle_gamma 90.000000
_cell_volume 3112.658793
_symmetry_space_group_name_H-M "C 2/M"
_symmetry_group_IT_number 12
_symmetry_cell_setting 'monoclinic'
loop_
_space_group_symop_operation_xyz
x,y,z
-x,y,-z
-x,-y,-z
x,-y,z
1/2+x,1/2+y,z
1/2-x,1/2+y,-z
1/2-x,1/2-y,-z
1/2+x,1/2-y,z
loop_
_atom_site_type_symbol
_atom_site_label
_atom_site_fract_x
_atom_site_fract_y
_atom_site_fract_z
Si Si1 0.501484 0.383638 0.928443
Si Si2 0.512326 0.785744 0.546226
Si Si3 0.216618 0.616380 0.098844
Si Si4 0.905180 0.751684 0.183509
Si Si5 0.311846 0.383625 0.295994
Si Si6 0.120477 0.883286 0.570780
Si Si7 0.592555 0.384811 0.268689
O O1 0.496676 0.500000 0.916365
O O2 0.676009 0.360432 0.894781
O O3 0.495054 0.317849 0.887180
O O4 0.332721 0.356350 0.016110
O O5 0.500000 0.757899 0.500000
O O6 0.344009 0.848450 0.618645
O O7 0.676898 0.855681 0.499183
O O8 0.520429 0.680266 0.568971
O O9 0.161777 0.500000 0.116621
O O10 0.043106 0.682275 0.160401
O O11 0.810350 0.822690 0.251510
O O12 0.762380 0.684170 0.209248
O O13 0.284480 0.500000 0.293940
O O14 0.493021 0.366388 0.258024
O O15 0.036474 0.856874 0.646724
O O16 0.099141 0.000000 0.566132
O O17 0.654379 0.500000 0.251071
#
# Coordination Sequence:
#
# PCOD8105936 Si02
#       7
#     8   8   8   8   8   8   8
#     4   9  19  36  56  79 108 141 176 220 258 310
#     4  11  21  37  60  78 102 142 186 219 264 317
#     4   9  19  36  57  80 106 140 182 213 257 318
#     4  12  20  34  55  82 109 141 174 220 269 315
#     4  11  23  36  52  80 109 141 179 222 266 313
#     4  10  21  37  56  80 105 135 178 226 267 312
#     4  10  21  36  53  76 109 141 175 218 267 318
#
# _framework density 17.991049
#
# number of rings (size 3 to 8) (size 9 to 14) (size 15 to 20)
#    0.000    1.714    2.857    3.429    0.000    0.857 
#    0.000    0.000    0.000    0.857    0.000   12.000 
#    0.000    0.000    0.000    0.000    0.000    0.000 
#
# Total GULP energy -347321.129293 kJ/mol
# GULP energy per Si atom -12404.326046 kJ/mol
# Density = 1.795010 g / cm^3
# Si number density = 17.991049 Si / 1000 Ang^3
#
#
#
# Elastic Constant Matrix: (Units=GPa)
#
#
# Indices 1 2 3 4 5 6 
#
# 1 61.3159 32.4487 8.2489 0.0001 0.2131 -0.0002
# 2 32.4487 80.0798 25.3434 0.0003 -3.4634 -0.0001
# 3 8.2489 25.3434 46.4664 0.0018 3.8805 0.0005
# 4 0.0001 0.0003 0.0018 23.8455 -0.0001 -3.1078
# 5 0.2131 -3.4634 3.8805 -0.0001 32.4307 -0.0001
# 6 -0.0002 -0.0001 0.0005 -3.1078 -0.0001 20.1729
#
#
#
# Elastic Compliance Matrix: (Units=1/GPa)
#
#
# Indices 1 2 3 4 5 6 
#
# 1 0.020855 -0.008902 0.001256 0.000000 -0.001238 0.000000
# 2 -0.008902 0.019116 -0.009113 0.000001 0.003190 0.000000
# 3 0.001256 -0.009113 0.026616 -0.000002 -0.004166 -0.000001
# 4 0.000000 0.000001 -0.000002 0.042796 0.000000 0.006593
# 5 -0.001238 0.003190 -0.004166 0.000000 0.031682 0.000000
# 6 0.000000 0.000000 -0.000001 0.006593 0.000000 0.050587
#
#
# Mechanical properties :
#
#
# Convention : Reuss Voigt Hill
#
# Bulk Modulus (GPa) = 30.23760 35.54938 32.89349
# Shear Modulus (GPa) = 21.16916 23.41123 22.29020
#
# Velocity S-wave (km/s) = 3.43395 3.61123 3.52371
# Velocity P-wave (km/s) = 5.70668 6.09839 5.90578
#
# Compressibility (1/GPa) = 0.03307141
#
# Stress axis : x y z
#
# Youngs Moduli (GPa) = 47.94991 52.31105 37.57151
#
# Poissons Ratio (x) = 0.46566 -0.04720
# Poissons Ratio (y) = 0.42683 0.34237
# Poissons Ratio (z) = -0.06023 0.47669
#
# Static dielectric constant tensor:
#      x y z
#    x 3.252080 0.000000 0.000020 
#    y 0.000000 3.295790 0.000000 
#    z 0.000020 0.000000 3.222200 
# 
# 
# High freq. dielectric constant tensor:
#      x y z
#    x 1.696920 0.000000 -0.000540 
#    y 0.000000 1.701790 0.000000 
#    z -0.000540 0.000000 1.697630 
# 
# From -- ./inp_files/205024.got.cif
#   From: 2010.06.25/outbox.cif.g09.slc.cpg/sg12_103_cif.got.tgz:205024.got - 2010.06.28 00:19:55.
