data_PCOD8105012
_publ_section_title
;
Structure prediction by ZEFSAII (Michael W. Deem and Ramdas Pophale) SiO2 
 PCOD8105012
Probable space group: C 2/M
;
_chemical_formula_sum "Si O2"
_cell_formula_units_Z 48
_cell_length_a 16.473717
_cell_length_b 16.513899
_cell_length_c 9.457469
_cell_angle_alpha 90.000000
_cell_angle_beta 52.501019
_cell_angle_gamma 90.000000
_cell_volume 2041.214914
_symmetry_space_group_name_H-M "C 2/M"
_symmetry_group_IT_number 12
_symmetry_cell_setting 'monoclinic'
loop_
_space_group_symop_operation_xyz
x,y,z
-x,y,-z
-x,-y,-z
x,-y,z
1/2+x,1/2+y,z
1/2-x,1/2+y,-z
1/2-x,1/2-y,-z
1/2+x,1/2-y,z
loop_
_atom_site_type_symbol
_atom_site_label
_atom_site_fract_x
_atom_site_fract_y
_atom_site_fract_z
Si Si1 0.237452 0.660750 0.961588
Si Si2 0.712955 0.589449 0.805429
Si Si3 0.970687 0.730711 0.870412
Si Si4 0.974350 0.907234 0.199201
Si Si5 0.676517 0.822377 0.538420
Si Si6 0.699100 0.410067 0.386251
O O1 0.276009 0.596746 0.037573
O O2 0.115900 0.662798 0.062637
O O3 0.250000 0.750000 0.000000
O O4 0.301976 0.647350 0.749735
O O5 0.744870 0.500000 0.723792
O O6 0.594818 0.603519 0.873000
O O7 0.793845 0.651165 0.651533
O O8 0.947569 0.828657 0.869232
O O9 0.060417 0.705597 0.668029
O O10 0.000000 0.718834 0.000000
O O11 0.901416 0.898518 0.412080
O O12 0.024094 0.000000 0.147918
O O13 0.750000 0.750000 0.500000
O O14 0.701250 0.894075 0.622588
O O15 0.707187 0.500000 0.317270
#
# Coordination Sequence:
#
# PCOD8105012 Si02
#       6
#     8   8   8   8   8   8
#     4  12  25  40  60  94 132 168 204 258 321 378
#     4  10  21  40  65  93 127 164 205 264 326 369
#     4  12  23  38  64  97 124 164 217 259 309 379
#     4   9  20  41  71  96 120 163 218 270 321 374
#     4  11  19  39  67  93 122 160 216 258 311 375
#     4  10  20  40  66  91 123 166 210 255 312 375
#
# _framework density 23.515407
#
# number of rings (size 3 to 8) (size 9 to 14) (size 15 to 20)
#    0.000    1.333    5.000    4.000    0.000    1.000 
#    0.000    6.667    0.000    2.000    0.000    0.000 
#    0.000    0.000    0.000    0.000    0.000    0.000 
#
# Total GULP energy -297345.671707 kJ/mol
# GULP energy per Si atom -12389.402988 kJ/mol
# Density = 2.346188 g / cm^3
# Si number density = 23.515407 Si / 1000 Ang^3
#
#
#
# Elastic Constant Matrix: (Units=GPa)
#
#
# Indices 1 2 3 4 5 6 
#
# 1 55.6794 13.0647 26.8604 0.0000 6.2648 0.0000
# 2 13.0647 94.4746 19.2752 0.0000 3.7587 0.0000
# 3 26.8604 19.2752 80.7696 0.0000 18.4553 0.0000
# 4 0.0000 0.0000 0.0000 44.1310 0.0000 3.7367
# 5 6.2648 3.7587 18.4553 0.0000 36.1963 0.0000
# 6 0.0000 0.0000 0.0000 3.7367 0.0000 32.0296
#
#
#
# Elastic Compliance Matrix: (Units=1/GPa)
#
#
# Indices 1 2 3 4 5 6 
#
# 1 0.021620 -0.001602 -0.006781 0.000000 -0.000118 0.000000
# 2 -0.001602 0.011247 -0.002205 0.000000 0.000233 0.000000
# 3 -0.006781 -0.002205 0.016799 0.000000 -0.007163 0.000000
# 4 0.000000 0.000000 0.000000 0.022886 0.000000 -0.002670
# 5 -0.000118 0.000233 -0.007163 0.000000 0.031275 0.000000
# 6 0.000000 0.000000 0.000000 -0.002670 0.000000 0.031533
#
#
# Mechanical properties :
#
#
# Convention : Reuss Voigt Hill
#
# Bulk Modulus (GPa) = 35.09802 38.81378 36.95590
# Shear Modulus (GPa) = 30.11493 33.91960 32.01727
#
# Velocity S-wave (km/s) = 3.58250 3.80207 3.69391
# Velocity P-wave (km/s) = 5.66307 5.98463 5.82607
#
# Compressibility (1/GPa) = 0.02849164
#
# Stress axis : x y z
#
# Youngs Moduli (GPa) = 46.25313 88.91356 59.52895
#
# Poissons Ratio (x) = 0.14241 0.40364
# Poissons Ratio (y) = 0.07408 0.13124
# Poissons Ratio (z) = 0.31362 0.19603
#
# Static dielectric constant tensor:
#      x y z
#    x 3.254780 0.000000 -0.116200 
#    y 0.000000 3.982100 0.000000 
#    z -0.116200 0.000000 4.314620 
# 
# 
# High freq. dielectric constant tensor:
#      x y z
#    x 1.897490 0.000000 0.003250 
#    y 0.000000 1.939090 0.000000 
#    z 0.003250 0.000000 1.957600 
# 
# From -- ./inp_files/75073.got.cif
#   From: 2010.06.25/outbox.cif.g09.slc.cpg/sg12_38_cif.got.tgz:75073.got - 2010.06.28 00:19:55.
