data_PCOD8105057
_publ_section_title
;
Structure prediction by ZEFSAII (Michael W. Deem and Ramdas Pophale) SiO2 
 PCOD8105057
Probable space group: C 2/M
;
_chemical_formula_sum "Si O2"
_cell_formula_units_Z 44
_cell_length_a 18.359442
_cell_length_b 15.168383
_cell_length_c 10.856472
_cell_angle_alpha 90.000000
_cell_angle_beta 47.401502
_cell_angle_gamma 90.000000
_cell_volume 2225.527925
_symmetry_space_group_name_H-M "C 2/M"
_symmetry_group_IT_number 12
_symmetry_cell_setting 'monoclinic'
loop_
_space_group_symop_operation_xyz
x,y,z
-x,y,-z
-x,-y,-z
x,-y,z
1/2+x,1/2+y,z
1/2-x,1/2+y,-z
1/2-x,1/2-y,-z
1/2+x,1/2-y,z
loop_
_atom_site_type_symbol
_atom_site_label
_atom_site_fract_x
_atom_site_fract_y
_atom_site_fract_z
Si Si1 0.461686 0.399728 0.915455
Si Si2 0.154202 0.854258 0.567802
Si Si3 0.680081 0.165738 0.431973
Si Si4 0.427011 0.000000 0.347532
Si Si5 0.339153 0.000000 0.950826
Si Si6 0.746109 0.334887 0.921768
Si Si7 0.775928 0.500000 0.303622
O O1 0.428368 0.500000 0.975515
O O2 0.546880 0.394828 0.715041
O O3 0.500000 0.358008 0.000000
O O4 0.368792 0.346167 0.975022
O O5 0.214991 0.858551 0.626188
O O6 0.138794 0.755053 0.538984
O O7 0.210696 0.912576 0.401592
O O8 0.692627 0.179355 0.272940
O O9 0.602478 0.087048 0.542290
O O10 0.543428 0.000000 0.195205
O O11 0.373031 0.000000 0.277608
O O12 0.292669 0.915415 0.941034
O O13 0.311156 0.000000 0.124879
O O14 0.750000 0.250000 0.000000
#
# Coordination Sequence:
#
# PCOD8105057 Si02
#       7
#     8   8   8   4   4   8   4
#     4  11  22  41  72  99 124 168 223 269 319 382
#     4  10  20  40  68  97 121 156 220 269 312 367
#     4  10  22  41  64  94 125 167 214 262 312 374
#     4  10  24  42  68  88 121 173 223 262 304 374
#     4  12  26  45  60  91 133 170 214 258 330 392
#     4  12  26  43  63  95 137 171 206 264 330 388
#     4  10  21  43  68  92 123 164 209 272 315 376
#
# _framework density 19.770589999999999
#
# number of rings (size 3 to 8) (size 9 to 14) (size 15 to 20)
#    0.000    1.273    3.636    1.909    2.545    1.455 
#    0.000    3.636    0.000    0.000    0.000    0.000 
#    0.000    0.000    0.000    0.000    0.000    0.000 
#
# Total GULP energy -272911.138617 kJ/mol
# GULP energy per Si atom -12405.051755 kJ/mol
# Density = 1.972559 g / cm^3
# Si number density = 19.770590 Si / 1000 Ang^3
#
#
#
# Elastic Constant Matrix: (Units=GPa)
#
#
# Indices 1 2 3 4 5 6 
#
# 1 119.7552 58.7556 77.9859 0.0000 -2.7623 0.0000
# 2 58.7556 144.6615 53.2507 0.0000 1.4100 0.0000
# 3 77.9859 53.2507 140.4808 0.0000 7.7945 0.0000
# 4 0.0000 0.0000 0.0000 29.7737 0.0000 -2.7668
# 5 -2.7623 1.4100 7.7945 0.0000 41.3307 0.0000
# 6 0.0000 0.0000 0.0000 -2.7668 0.0000 33.9429
#
#
#
# Elastic Compliance Matrix: (Units=1/GPa)
#
#
# Indices 1 2 3 4 5 6 
#
# 1 0.014597 -0.003394 -0.006950 0.000000 0.002402 0.000000
# 2 -0.003394 0.008826 -0.001448 0.000000 -0.000255 0.000000
# 3 -0.006950 -0.001448 0.011671 0.000000 -0.002616 0.000000
# 4 0.000000 0.000000 0.000000 0.033843 0.000000 0.002759
# 5 0.002402 -0.000255 -0.002616 0.000000 0.024858 0.000000
# 6 0.000000 0.000000 0.000000 0.002759 0.000000 0.029686
#
#
# Mechanical properties :
#
#
# Convention : Reuss Voigt Hill
#
# Bulk Modulus (GPa) = 86.87370 87.20911 87.04140
# Shear Modulus (GPa) = 33.13446 35.33649 34.23547
#
# Velocity S-wave (km/s) = 4.09827 4.23226 4.16581
# Velocity P-wave (km/s) = 8.15051 8.25161 8.20121
#
# Compressibility (1/GPa) = 0.01151096
#
# Stress axis : x y z
#
# Youngs Moduli (GPa) = 68.50833 113.29600 85.68593
#
# Poissons Ratio (x) = 0.38449 0.59552
# Poissons Ratio (y) = 0.23249 0.12404
# Poissons Ratio (z) = 0.47614 0.16401
#
# Static dielectric constant tensor:
#      x y z
#    x 3.661100 0.000000 0.018300 
#    y 0.000000 3.666850 0.000000 
#    z 0.018300 0.000000 3.534680 
# 
# 
# High freq. dielectric constant tensor:
#      x y z
#    x 1.767790 0.000000 -0.000010 
#    y 0.000000 1.781750 0.000000 
#    z -0.000010 0.000000 1.778540 
# 
# From -- ./inp_files/155859.got.cif
#   From: 2010.06.25/outbox.cif.g09.slc.cpg/sg12_78_cif.got.tgz:155859.got - 2010.06.28 00:19:55.
