data_PCOD8105916
_publ_section_title
;
Structure prediction by ZEFSAII (Michael W. Deem and Ramdas Pophale) SiO2 
 PCOD8105916
Probable space group: C 2/M
;
_chemical_formula_sum "Si O2"
_cell_formula_units_Z 56
_cell_length_a 19.907848
_cell_length_b 9.022879
_cell_length_c 23.058431
_cell_angle_alpha 90.000000
_cell_angle_beta 50.654777
_cell_angle_gamma 90.000000
_cell_volume 3203.094139
_symmetry_space_group_name_H-M "C 2/M"
_symmetry_group_IT_number 12
_symmetry_cell_setting 'monoclinic'
loop_
_space_group_symop_operation_xyz
x,y,z
-x,y,-z
-x,-y,-z
x,-y,z
1/2+x,1/2+y,z
1/2-x,1/2+y,-z
1/2-x,1/2-y,-z
1/2+x,1/2-y,z
loop_
_atom_site_type_symbol
_atom_site_label
_atom_site_fract_x
_atom_site_fract_y
_atom_site_fract_z
Si Si1 0.611055 0.673856 0.785774
Si Si2 0.421792 0.838169 0.498196
Si Si3 0.342133 0.672787 0.949642
Si Si4 0.804984 0.322741 0.659106
Si Si5 0.988157 0.328127 0.938802
Si Si6 0.964672 0.168332 0.776541
Si Si7 0.453154 0.823587 0.662639
O O1 0.609413 0.500000 0.802062
O O2 0.707630 0.735374 0.721606
O O3 0.572630 0.761855 0.861179
O O4 0.554844 0.705478 0.759160
O O5 0.500000 0.857917 0.500000
O O6 0.343329 0.757455 0.576628
O O7 0.461970 0.757834 0.418826
O O8 0.387788 0.000000 0.497567
O O9 0.331895 0.500000 0.969305
O O10 0.401235 0.744085 0.967092
O O11 0.385305 0.698252 0.863442
O O12 0.250000 0.750000 0.000000
O O13 0.806769 0.500000 0.654387
O O14 0.864406 0.268050 0.680354
O O15 0.978933 0.500000 0.927563
O O16 0.000000 0.302939 0.000000
O O17 0.953886 0.274232 0.728128
O O18 0.963970 0.000000 0.754822
O O19 0.457295 0.000000 0.657631
#
# Coordination Sequence:
#
# PCOD8105916 Si02
#       7
#     8   8   8   8   8   8   8
#     4   9  18  33  51  69  92 127 166 198 236 288
#     4   7  11  22  42  68  94 117 149 198 244 276
#     4  10  21  37  56  76  99 130 166 202 244 293
#     4   8  14  27  48  71  92 118 159 205 240 275
#     4  10  21  36  53  74 101 131 162 201 250 296
#     4   9  19  33  46  65  97 130 153 184 236 289
#     4   9  16  27  48  74  93 118 160 202 237 278
#
# _framework density 17.483094000000001
#
# number of rings (size 3 to 8) (size 9 to 14) (size 15 to 20)
#    0.000    3.143    0.000    3.429    0.000    5.143 
#    0.000    4.286    0.000    4.714    0.000    0.000 
#    0.000    0.000    0.000    0.000    0.000    0.000 
#
# Total GULP energy -346962.646701 kJ/mol
# GULP energy per Si atom -12391.523096 kJ/mol
# Density = 1.744330 g / cm^3
# Si number density = 17.483094 Si / 1000 Ang^3
#
#
#
# Elastic Constant Matrix: (Units=GPa)
#
#
# Indices 1 2 3 4 5 6 
#
# 1 96.4584 42.6932 86.4641 0.0000 -11.5321 0.0002
# 2 42.6932 59.4569 51.1099 0.0001 -1.2840 0.0007
# 3 86.4641 51.1099 133.7950 0.0000 -16.4225 -0.0002
# 4 0.0000 0.0001 0.0000 19.7436 0.0000 4.1264
# 5 -11.5321 -1.2840 -16.4225 0.0000 32.2154 0.0000
# 6 0.0002 0.0007 -0.0002 4.1264 0.0000 22.9441
#
#
#
# Elastic Compliance Matrix: (Units=1/GPa)
#
#
# Indices 1 2 3 4 5 6 
#
# 1 0.026254 -0.006589 -0.014217 0.000000 0.001888 0.000000
# 2 -0.006589 0.027224 -0.006718 0.000000 -0.004698 -0.000001
# 3 -0.014217 -0.006718 0.019810 0.000000 0.004742 0.000001
# 4 0.000000 0.000000 0.000000 0.052628 0.000000 -0.009465
# 5 0.001888 -0.004698 0.004742 0.000000 0.033947 0.000000
# 6 0.000000 -0.000001 0.000001 -0.009465 0.000000 0.045286
#
#
# Mechanical properties :
#
#
# Convention : Reuss Voigt Hill
#
# Bulk Modulus (GPa) = 54.82932 72.24941 63.53937
# Shear Modulus (GPa) = 18.77745 22.27681 20.52713
#
# Velocity S-wave (km/s) = 3.28080 3.57345 3.43025
# Velocity P-wave (km/s) = 6.76616 7.64468 7.21880
#
# Compressibility (1/GPa) = 0.01823842
#
# Stress axis : x y z
#
# Youngs Moduli (GPa) = 38.09000 36.73271 50.47883
#
# Poissons Ratio (x) = 0.24204 0.71768
# Poissons Ratio (y) = 0.25098 0.33911
# Poissons Ratio (z) = 0.54154 0.24677
#
# Static dielectric constant tensor:
#      x y z
#    x 3.152850 0.000000 -0.175930 
#    y 0.000000 2.979290 0.000000 
#    z -0.175930 0.000000 3.629640 
# 
# 
# High freq. dielectric constant tensor:
#      x y z
#    x 1.660090 0.000000 -0.003950 
#    y 0.000000 1.645080 0.000000 
#    z -0.003950 0.000000 1.690710 
# 
# From -- ./inp_files/348461.got.cif
#   From: 2010.06.25/outbox.cif.g09.slc.cpg/sg12_175_cif.got.tgz:348461.got - 2010.06.28 00:19:55.
