data_PCOD8105126
_publ_section_title
;
Structure prediction by ZEFSAII (Michael W. Deem and Ramdas Pophale) SiO2 
 PCOD8105126
Probable space group: C 2/M
;
_chemical_formula_sum "Si O2"
_cell_formula_units_Z 56
_cell_length_a 9.051855
_cell_length_b 17.902971
_cell_length_c 19.034956
_cell_angle_alpha 90.000000
_cell_angle_beta 121.021530
_cell_angle_gamma 90.000000
_cell_volume 2643.516772
_symmetry_space_group_name_H-M "C 2/M"
_symmetry_group_IT_number 12
_symmetry_cell_setting 'monoclinic'
loop_
_space_group_symop_operation_xyz
x,y,z
-x,y,-z
-x,-y,-z
x,-y,z
1/2+x,1/2+y,z
1/2-x,1/2+y,-z
1/2-x,1/2-y,-z
1/2+x,1/2-y,z
loop_
_atom_site_type_symbol
_atom_site_label
_atom_site_fract_x
_atom_site_fract_y
_atom_site_fract_z
Si Si1 0.754996 0.797912 0.075139
Si Si2 0.001465 0.318418 0.139228
Si Si3 0.075789 0.315217 0.591280
Si Si4 0.867607 0.915545 0.613447
Si Si5 0.285715 0.084528 0.572056
Si Si6 0.191395 0.835880 0.683233
Si Si7 0.814362 0.087704 0.985898
O O1 0.584401 0.799947 0.082316
O O2 0.915320 0.756415 0.152899
O O3 0.750000 0.750000 0.000000
O O4 0.802308 0.882015 0.063291
O O5 0.147761 0.348141 0.226415
O O6 0.849054 0.380008 0.097539
O O7 0.192674 0.386694 0.604804
O O8 0.177092 0.249779 0.655709
O O9 0.000000 0.281660 0.500000
O O10 0.927110 0.349692 0.602875
O O11 0.849520 0.909252 0.524629
O O12 0.017023 0.861201 0.679782
O O13 0.899322 0.000000 0.646060
O O14 0.193675 0.102660 0.622268
O O15 0.362316 0.000000 0.592478
O O16 0.795974 0.000000 0.982908
O O17 0.000000 0.112437 0.000000
#
# Coordination Sequence:
#
# PCOD8105126 Si02
#       7
#     8   8   8   8   8   8   8
#     4  10  20  41  66  91 117 160 201 245 299 379
#     4  11  25  38  65  93 128 159 198 252 318 371
#     4  10  21  38  62  88 119 165 220 266 305 359
#     4  10  21  39  61  87 121 170 220 261 310 366
#     4  10  21  39  62  85 121 173 220 259 308 369
#     4  12  24  36  59  92 131 164 200 263 311 372
#     4  10  21  42  69  94 120 155 203 250 296 367
#
# _framework density 21.183903000000001
#
# number of rings (size 3 to 8) (size 9 to 14) (size 15 to 20)
#    0.000    1.571    0.000    6.429    4.000    7.429 
#    0.000    0.000    0.000    0.000    0.000    0.000 
#    0.000    0.000    0.000    0.000    0.000    0.000 
#
# Total GULP energy -346978.243555 kJ/mol
# GULP energy per Si atom -12392.080127 kJ/mol
# Density = 2.113569 g / cm^3
# Si number density = 21.183903 Si / 1000 Ang^3
#
#
#
# Elastic Constant Matrix: (Units=GPa)
#
#
# Indices 1 2 3 4 5 6 
#
# 1 105.4156 39.1937 34.5998 0.0000 16.9667 0.0000
# 2 39.1937 120.0566 47.2903 0.0000 9.6521 0.0000
# 3 34.5998 47.2903 73.8742 0.0000 28.2225 0.0000
# 4 0.0000 0.0000 0.0000 18.7811 0.0000 7.9839
# 5 16.9667 9.6521 28.2225 0.0000 27.2388 0.0000
# 6 0.0000 0.0000 0.0000 7.9839 0.0000 21.1064
#
#
#
# Elastic Compliance Matrix: (Units=1/GPa)
#
#
# Indices 1 2 3 4 5 6 
#
# 1 0.011883 -0.002636 -0.002329 0.000000 -0.004054 0.000000
# 2 -0.002636 0.012283 -0.009257 0.000000 0.006881 0.000000
# 3 -0.002329 -0.009257 0.031028 0.000000 -0.027417 0.000000
# 4 0.000000 0.000000 0.000000 0.063448 0.000000 -0.024000
# 5 -0.004054 0.006881 -0.027417 0.000000 0.065207 0.000000
# 6 0.000000 0.000000 0.000000 -0.024000 0.000000 0.056458
#
#
# Mechanical properties :
#
#
# Convention : Reuss Voigt Hill
#
# Bulk Modulus (GPa) = 37.38424 60.16823 48.77623
# Shear Modulus (GPa) = 18.00715 25.30943 21.65829
#
# Velocity S-wave (km/s) = 2.91871 3.46026 3.20096
# Velocity P-wave (km/s) = 5.38927 6.66551 6.06108
#
# Compressibility (1/GPa) = 0.02674924
#
# Stress axis : x y z
#
# Youngs Moduli (GPa) = 84.15075 81.41269 32.22941
#
# Poissons Ratio (x) = 0.21460 0.07508
# Poissons Ratio (y) = 0.22182 0.29835
# Poissons Ratio (z) = 0.19602 0.75364
#
# Static dielectric constant tensor:
#      x y z
#    x 3.979450 0.000000 0.141750 
#    y 0.000000 3.880990 0.000000 
#    z 0.141750 0.000000 3.673060 
# 
# 
# High freq. dielectric constant tensor:
#      x y z
#    x 1.848730 0.000000 0.015990 
#    y 0.000000 1.835340 0.000000 
#    z 0.015990 0.000000 1.800530 
# 
# From -- ./inp_files/301458.got.cif
#   From: 2010.06.25/outbox.cif.g09.slc.cpg/sg12_151_cif.got.tgz:301458.got - 2010.06.28 00:19:55.
