data_PCOD8105499
_publ_section_title
;
Structure prediction by ZEFSAII (Michael W. Deem and Ramdas Pophale) SiO2 
 PCOD8105499
Probable space group: C 2/M
;
_chemical_formula_sum "Si O2"
_cell_formula_units_Z 48
_cell_length_a 31.855516
_cell_length_b 9.098884
_cell_length_c 9.934430
_cell_angle_alpha 90.000000
_cell_angle_beta 107.865197
_cell_angle_gamma 90.000000
_cell_volume 2740.644614
_symmetry_space_group_name_H-M "C 2/M"
_symmetry_group_IT_number 12
_symmetry_cell_setting 'monoclinic'
loop_
_space_group_symop_operation_xyz
x,y,z
-x,y,-z
-x,-y,-z
x,-y,z
1/2+x,1/2+y,z
1/2-x,1/2+y,-z
1/2-x,1/2-y,-z
1/2+x,1/2-y,z
loop_
_atom_site_type_symbol
_atom_site_label
_atom_site_fract_x
_atom_site_fract_y
_atom_site_fract_z
Si Si1 0.033549 0.674268 0.648140
Si Si2 0.293530 0.826992 0.383986
Si Si3 0.867973 0.671651 0.262658
Si Si4 0.126439 0.327512 0.036015
Si Si5 0.795651 0.671869 0.694216
Si Si6 0.536636 0.329240 0.924739
O O1 0.032328 0.500000 0.670889
O O2 0.082672 0.727840 0.654759
O O3 0.019574 0.751480 0.772523
O O4 0.000000 0.724915 0.500000
O O5 0.331884 0.757575 0.327310
O O6 0.247658 0.753980 0.295663
O O7 0.305704 0.787554 0.549466
O O8 0.288226 0.000000 0.357945
O O9 0.866628 0.500000 0.287748
O O10 0.856212 0.709827 0.096849
O O11 0.116241 0.500000 0.040122
O O12 0.163069 0.273900 0.177382
O O13 0.081828 0.240760 0.023577
O O14 0.787449 0.500000 0.705604
O O15 0.544468 0.500000 0.903189
O O16 0.500000 0.301759 0.000000
#
# Coordination Sequence:
#
# PCOD8105499 Si02
#       6
#     8   8   8   8   8   8
#     4   9  18  33  54  77  99 127 166 208 246 289
#     4   9  17  30  47  66  93 126 154 188 238 290
#     4   8  15  29  47  68  93 120 154 195 235 277
#     4   9  18  33  51  69  92 123 160 202 241 281
#     4   9  18  31  47  69  94 120 155 197 236 278
#     4  10  21  35  50  72 103 134 163 199 244 294
#
# _framework density 17.514127999999999
#
# number of rings (size 3 to 8) (size 9 to 14) (size 15 to 20)
#    0.000    3.000    0.000    1.500    0.000    4.333 
#    0.000    6.667    0.000    0.000    0.000    0.000 
#    0.000    0.000    0.000    0.000    0.000    0.000 
#
# Total GULP energy -297573.186247 kJ/mol
# GULP energy per Si atom -12398.882760 kJ/mol
# Density = 1.747427 g / cm^3
# Si number density = 17.514128 Si / 1000 Ang^3
#
#
#
# Elastic Constant Matrix: (Units=GPa)
#
#
# Indices 1 2 3 4 5 6 
#
# 1 140.4923 48.6521 79.1199 0.0000 -2.3037 0.0000
# 2 48.6521 43.0816 44.5195 0.0000 2.7486 0.0000
# 3 79.1199 44.5195 151.8679 0.0000 22.5514 0.0000
# 4 0.0000 0.0000 0.0000 19.6740 0.0000 1.8871
# 5 -2.3037 2.7486 22.5514 0.0000 22.2562 0.0000
# 6 0.0000 0.0000 0.0000 1.8871 0.0000 27.3016
#
#
#
# Elastic Compliance Matrix: (Units=1/GPa)
#
#
# Indices 1 2 3 4 5 6 
#
# 1 0.014009 -0.010822 -0.005344 0.000000 0.008202 0.000000
# 2 -0.010822 0.042557 -0.006934 0.000000 0.000650 0.000000
# 3 -0.005344 -0.006934 0.013368 0.000000 -0.013242 0.000000
# 4 0.000000 0.000000 0.000000 0.051168 0.000000 -0.003537
# 5 0.008202 0.000650 -0.013242 0.000000 0.059118 0.000000
# 6 0.000000 0.000000 0.000000 -0.003537 0.000000 0.036872
#
#
# Mechanical properties :
#
#
# Convention : Reuss Voigt Hill
#
# Bulk Modulus (GPa) = 42.13316 75.55832 58.84574
# Shear Modulus (GPa) = 18.43640 24.72305 21.57973
#
# Velocity S-wave (km/s) = 3.24799 3.76121 3.51398
# Velocity P-wave (km/s) = 6.17858 7.88018 7.08068
#
# Compressibility (1/GPa) = 0.02373428
#
# Stress axis : x y z
#
# Youngs Moduli (GPa) = 71.38055 23.49817 74.80597
#
# Poissons Ratio (x) = 0.25429 0.39978
# Poissons Ratio (y) = 0.77245 0.51871
# Poissons Ratio (z) = 0.38147 0.16294
#
# Static dielectric constant tensor:
#      x y z
#    x 3.429470 0.000000 0.019920 
#    y 0.000000 3.056780 0.000000 
#    z 0.019920 0.000000 3.377070 
# 
# 
# High freq. dielectric constant tensor:
#      x y z
#    x 1.680900 0.000000 0.001780 
#    y 0.000000 1.655090 0.000000 
#    z 0.001780 0.000000 1.679690 
# 
# From -- ./inp_files/180240.got.cif
#   From: 2010.06.25/outbox.cif.g09.slc.cpg/sg12_91_cif.got.tgz:180240.got - 2010.06.28 00:19:55.
