data_PCOD8105898
_publ_section_title
;
Structure prediction by ZEFSAII (Michael W. Deem and Ramdas Pophale) SiO2 
 PCOD8105898
Probable space group: C 2/M
;
_chemical_formula_sum "Si O2"
_cell_formula_units_Z 48
_cell_length_a 14.108601
_cell_length_b 18.004643
_cell_length_c 17.901314
_cell_angle_alpha 90.000000
_cell_angle_beta 146.814449
_cell_angle_gamma 90.000000
_cell_volume 2488.973286
_symmetry_space_group_name_H-M "C 2/M"
_symmetry_group_IT_number 12
_symmetry_cell_setting 'monoclinic'
loop_
_space_group_symop_operation_xyz
x,y,z
-x,y,-z
-x,-y,-z
x,-y,z
1/2+x,1/2+y,z
1/2-x,1/2+y,-z
1/2-x,1/2-y,-z
1/2+x,1/2-y,z
loop_
_atom_site_type_symbol
_atom_site_label
_atom_site_fract_x
_atom_site_fract_y
_atom_site_fract_z
Si Si1 0.953616 0.914652 0.884004
Si Si2 0.073230 0.643640 0.126390
Si Si3 0.918464 0.085503 0.312353
Si Si4 0.266650 0.413700 0.052119
Si Si5 0.266549 0.779947 0.287172
Si Si6 0.120374 0.226086 0.478468
O O1 0.117803 0.891778 0.942524
O O2 0.789426 0.865789 0.749793
O O3 0.900718 0.000000 0.835366
O O4 0.000000 0.899290 0.000000
O O5 0.253699 0.599130 0.258956
O O6 0.112411 0.731594 0.149026
O O7 0.000000 0.614337 0.000000
O O8 0.919134 0.626703 0.083308
O O9 0.866413 0.109838 0.193745
O O10 0.076821 0.138063 0.443186
O O11 0.979352 0.000000 0.357258
O O12 0.225956 0.500000 0.028235
O O13 0.441891 0.772789 0.354485
O O14 0.290509 0.744940 0.384686
O O15 0.250000 0.250000 0.500000
#
# Coordination Sequence:
#
# PCOD8105898 Si02
#       6
#     8   8   8   8   8   8
#     4  10  21  36  53  75 104 135 170 213 255 300
#     4   9  17  30  51  79 106 132 162 202 255 313
#     4   9  17  32  54  78 106 136 167 208 258 308
#     4   9  17  30  51  79 107 135 166 201 249 306
#     4  10  21  36  52  74 101 134 173 212 258 304
#     4  10  21  37  53  73 102 136 177 219 254 297
#
# _framework density 19.285060999999999
#
# number of rings (size 3 to 8) (size 9 to 14) (size 15 to 20)
#    0.000    2.500    0.000    2.000    0.000    4.000 
#    0.000   10.000    0.000    0.000    0.000    0.000 
#    0.000    0.000    0.000    0.000    0.000    0.000 
#
# Total GULP energy -297515.908841 kJ/mol
# GULP energy per Si atom -12396.496202 kJ/mol
# Density = 1.924117 g / cm^3
# Si number density = 19.285061 Si / 1000 Ang^3
#
#
#
# Elastic Constant Matrix: (Units=GPa)
#
#
# Indices 1 2 3 4 5 6 
#
# 1 137.9090 54.2502 52.6571 0.0002 23.8180 0.0001
# 2 54.2502 117.8987 59.0461 0.0007 16.8258 0.0003
# 3 52.6571 59.0461 79.7606 0.0026 14.7013 0.0009
# 4 0.0002 0.0007 0.0026 33.5762 0.0009 3.0115
# 5 23.8180 16.8258 14.7013 0.0009 28.6933 0.0004
# 6 0.0001 0.0003 0.0009 3.0115 0.0004 23.6777
#
#
#
# Elastic Compliance Matrix: (Units=1/GPa)
#
#
# Indices 1 2 3 4 5 6 
#
# 1 0.010696 -0.001768 -0.004756 0.000000 -0.005405 0.000000
# 2 -0.001768 0.014023 -0.008800 0.000000 -0.002247 0.000000
# 3 -0.004756 -0.008800 0.022652 -0.000001 -0.002498 -0.000001
# 4 0.000000 0.000000 -0.000001 0.030127 -0.000001 -0.003832
# 5 -0.005405 -0.002247 -0.002498 -0.000001 0.041935 0.000000
# 6 0.000000 0.000000 -0.000001 -0.003832 0.000000 0.042721
#
#
# Mechanical properties :
#
#
# Convention : Reuss Voigt Hill
#
# Bulk Modulus (GPa) = 59.79725 74.16390 66.98058
# Shear Modulus (GPa) = 25.20438 28.49710 26.85074
#
# Velocity S-wave (km/s) = 3.61908 3.84823 3.73541
# Velocity P-wave (km/s) = 6.96692 7.63448 7.30833
#
# Compressibility (1/GPa) = 0.01672318
#
# Stress axis : x y z
#
# Youngs Moduli (GPa) = 93.48980 71.30979 44.14573
#
# Poissons Ratio (x) = 0.12611 0.20996
# Poissons Ratio (y) = 0.16534 0.38847
# Poissons Ratio (z) = 0.44465 0.62751
#
# Static dielectric constant tensor:
#      x y z
#    x 3.633700 0.000000 0.127940 
#    y 0.000000 3.494840 0.000000 
#    z 0.127940 0.000000 3.421870 
# 
# 
# High freq. dielectric constant tensor:
#      x y z
#    x 1.750170 0.000000 0.009730 
#    y 0.000000 1.746110 0.000000 
#    z 0.009730 0.000000 1.735000 
# 
# From -- ./inp_files/216231.got.cif
#   From: 2010.06.25/outbox.cif.g09.slc.cpg/sg12_109_cif.got.tgz:216231.got - 2010.06.28 00:19:55.
