data_PCOD8105894
_publ_section_title
;
Structure prediction by ZEFSAII (Michael W. Deem and Ramdas Pophale) SiO2 
 PCOD8105894
Probable space group: C 2/M
;
_chemical_formula_sum "Si O2"
_cell_formula_units_Z 48
_cell_length_a 15.273842
_cell_length_b 9.090814
_cell_length_c 29.490729
_cell_angle_alpha 90.000000
_cell_angle_beta 38.980538
_cell_angle_gamma 90.000000
_cell_volume 2575.883062
_symmetry_space_group_name_H-M "C 2/M"
_symmetry_group_IT_number 12
_symmetry_cell_setting 'monoclinic'
loop_
_space_group_symop_operation_xyz
x,y,z
-x,y,-z
-x,-y,-z
x,-y,z
1/2+x,1/2+y,z
1/2-x,1/2+y,-z
1/2-x,1/2-y,-z
1/2+x,1/2-y,z
loop_
_atom_site_type_symbol
_atom_site_label
_atom_site_fract_x
_atom_site_fract_y
_atom_site_fract_z
Si Si1 0.000378 0.824754 0.673379
Si Si2 0.001173 0.173802 0.428483
Si Si3 0.041939 0.171873 0.076482
Si Si4 0.268836 0.172925 0.823014
Si Si5 0.800211 0.672495 0.913232
Si Si6 0.224962 0.174399 0.409650
O O1 0.003052 0.763650 0.620695
O O2 0.129715 0.759194 0.648958
O O3 0.859086 0.767464 0.752171
O O4 0.005361 0.000000 0.673208
O O5 0.865036 0.227481 0.510676
O O6 0.142100 0.223009 0.397598
O O7 0.998787 0.000000 0.428938
O O8 0.073226 0.250752 0.111474
O O9 0.890524 0.217576 0.120498
O O10 0.052592 0.000000 0.081011
O O11 0.152218 0.222692 0.993841
O O12 0.308312 0.220399 0.857889
O O13 0.293937 0.000000 0.804810
O O14 0.819136 0.500000 0.910745
O O15 0.252274 0.000000 0.399486
#
# Coordination Sequence:
#
# PCOD8105894 Si02
#       6
#     8   8   8   8   8   8
#     4  11  22  34  49  76 109 135 164 209 258 296
#     4   8  17  34  56  77  99 131 170 209 250 301
#     4   9  18  34  56  79 101 128 168 215 255 294
#     4  10  21  36  52  72 102 141 175 201 243 306
#     4   9  18  34  56  78 100 130 169 211 254 300
#     4   9  17  35  59  77  96 131 174 208 247 304
#
# _framework density 18.634385999999999
#
# number of rings (size 3 to 8) (size 9 to 14) (size 15 to 20)
#    0.000    2.667    0.000    2.500    0.000    4.667 
#    0.000    9.167    0.000    5.000    0.000    0.000 
#    0.000    0.000    0.000    0.000    0.000    0.000 
#
# Total GULP energy -297606.858285 kJ/mol
# GULP energy per Si atom -12400.285762 kJ/mol
# Density = 1.859197 g / cm^3
# Si number density = 18.634386 Si / 1000 Ang^3
#
#
#
# Elastic Constant Matrix: (Units=GPa)
#
#
# Indices 1 2 3 4 5 6 
#
# 1 88.8302 28.2781 25.1911 0.0001 8.4502 0.0005
# 2 28.2781 37.6645 23.9173 0.0007 -0.3907 0.0013
# 3 25.1911 23.9173 62.6131 0.0000 6.5081 0.0001
# 4 0.0001 0.0007 0.0000 29.9463 -0.0001 -1.4197
# 5 8.4502 -0.3907 6.5081 -0.0001 19.1056 0.0001
# 6 0.0005 0.0013 0.0001 -1.4197 0.0001 29.4496
#
#
#
# Elastic Compliance Matrix: (Units=1/GPa)
#
#
# Indices 1 2 3 4 5 6 
#
# 1 0.015819 -0.011023 -0.001455 0.000000 -0.006726 0.000000
# 2 -0.011023 0.043294 -0.013168 -0.000001 0.010246 -0.000002
# 3 -0.001455 -0.013168 0.022338 0.000000 -0.007235 0.000001
# 4 0.000000 -0.000001 0.000000 0.033470 0.000000 0.001613
# 5 -0.006726 0.010246 -0.007235 0.000000 0.057990 0.000000
# 6 0.000000 -0.000002 0.000001 0.001613 0.000000 0.034034
#
#
# Mechanical properties :
#
#
# Convention : Reuss Voigt Hill
#
# Bulk Modulus (GPa) = 33.15590 38.20899 35.68245
# Shear Modulus (GPa) = 18.63666 23.14839 20.89253
#
# Velocity S-wave (km/s) = 3.16590 3.52837 3.35204
# Velocity P-wave (km/s) = 5.58528 6.09494 5.84567
#
# Compressibility (1/GPa) = 0.03016054
#
# Stress axis : x y z
#
# Youngs Moduli (GPa) = 63.21625 23.09797 44.76596
#
# Poissons Ratio (x) = 0.25460 0.06512
# Poissons Ratio (y) = 0.69680 0.58948
# Poissons Ratio (z) = 0.09196 0.30415
#
# Static dielectric constant tensor:
#      x y z
#    x 3.664530 0.000000 0.173280 
#    y 0.000000 3.143550 0.000000 
#    z 0.173280 0.000000 3.523670 
# 
# 
# High freq. dielectric constant tensor:
#      x y z
#    x 1.735730 0.000000 0.000450 
#    y 0.000000 1.699430 0.000000 
#    z 0.000450 0.000000 1.720370 
# 
# From -- ./inp_files/308580.got.cif
#   From: 2010.06.25/outbox.cif.g09.slc.cpg/sg12_155_cif.got.tgz:308580.got - 2010.06.28 00:19:55.
