data_PCOD8105964
_publ_section_title
;
Structure prediction by ZEFSAII (Michael W. Deem and Ramdas Pophale) SiO2 
 PCOD8105964
Probable space group: C 2/M
;
_chemical_formula_sum "Si O2"
_cell_formula_units_Z 64
_cell_length_a 29.428445
_cell_length_b 8.846457
_cell_length_c 25.962855
_cell_angle_alpha 90.000000
_cell_angle_beta 30.030666
_cell_angle_gamma 90.000000
_cell_volume 3382.684506
_symmetry_space_group_name_H-M "C 2/M"
_symmetry_group_IT_number 12
_symmetry_cell_setting 'monoclinic'
loop_
_space_group_symop_operation_xyz
x,y,z
-x,y,-z
-x,-y,-z
x,-y,z
1/2+x,1/2+y,z
1/2-x,1/2+y,-z
1/2-x,1/2-y,-z
1/2+x,1/2-y,z
loop_
_atom_site_type_symbol
_atom_site_label
_atom_site_fract_x
_atom_site_fract_y
_atom_site_fract_z
Si Si1 0.150537 0.820486 0.097537
Si Si2 0.241109 0.674055 0.563074
Si Si3 0.581026 0.821088 0.267601
Si Si4 0.583754 0.678961 0.052131
Si Si5 0.882866 0.177079 0.235845
Si Si6 0.098920 0.824455 0.515881
Si Si7 0.727698 0.178318 0.310535
Si Si8 0.253358 0.820586 0.823807
O O1 0.089809 0.759524 0.203943
O O2 0.100089 0.769077 0.094815
O O3 0.159484 0.000000 0.092592
O O4 0.250000 0.750000 0.000000
O O5 0.220907 0.500000 0.574790
O O6 0.250000 0.750000 0.500000
O O7 0.155596 0.743828 0.675939
O O8 0.333027 0.703529 0.503961
O O9 0.490130 0.771607 0.385434
O O10 0.663557 0.766911 0.222524
O O11 0.581507 0.000000 0.258704
O O12 0.590004 0.500000 0.043358
O O13 0.486032 0.735092 0.127238
O O14 0.661179 0.747574 0.938828
O O15 0.823135 0.218751 0.244494
O O16 0.881054 0.000000 0.248584
O O17 0.144125 0.764170 0.419096
O O18 0.074309 0.000000 0.533438
O O19 0.734514 0.241153 0.245907
O O20 0.708144 0.000000 0.332231
O O21 0.248448 0.000000 0.826637
#
# Coordination Sequence:
#
# PCOD8105964 Si02
#       8
#     8   8   8   8   8   8   8   8
#     4  11  21  36  56  79 113 151 186 226 276 327
#     4  10  21  36  54  76 106 143 180 224 274 326
#     4  11  22  37  57  82 112 147 187 228 275 330
#     4   9  18  33  54  81 113 144 176 221 273 323
#     4   9  18  33  55  82 109 140 179 224 272 323
#     4  10  22  39  56  78 111 146 181 227 282 329
#     4   9  18  35  59  83 108 141 185 230 272 326
#     4   9  18  34  56  82 111 144 182 227 276 321
#
# _framework density 18.919882999999999
#
# number of rings (size 3 to 8) (size 9 to 14) (size 15 to 20)
#    0.000    2.250    1.250    1.500    1.750    2.500 
#    0.000    6.875    0.000    0.000    0.000    3.500 
#    0.000    0.000    0.000    0.000    0.000    0.000 
#
# Total GULP energy -396840.109100 kJ/mol
# GULP energy per Si atom -12401.253409 kJ/mol
# Density = 1.887682 g / cm^3
# Si number density = 18.919883 Si / 1000 Ang^3
#
#
#
# Elastic Constant Matrix: (Units=GPa)
#
#
# Indices 1 2 3 4 5 6 
#
# 1 83.7640 26.0002 73.1406 0.0279 19.1845 -0.0117
# 2 26.0002 47.3690 38.3804 -0.0279 2.9124 0.0160
# 3 73.1406 38.3804 157.3307 0.0226 5.0365 -0.0075
# 4 0.0279 -0.0279 0.0226 29.7639 -0.0055 1.3338
# 5 19.1845 2.9124 5.0365 -0.0055 40.6973 0.0013
# 6 -0.0117 0.0160 -0.0075 1.3338 0.0013 22.8016
#
#
#
# Elastic Compliance Matrix: (Units=1/GPa)
#
#
# Indices 1 2 3 4 5 6 
#
# 1 0.024215 -0.004761 -0.009780 -0.000022 -0.009864 0.000014
# 2 -0.004761 0.027296 -0.004473 0.000035 0.000844 -0.000025
# 3 -0.009780 -0.004473 0.011883 -0.000004 0.003460 0.000002
# 4 -0.000022 0.000035 -0.000004 0.033686 0.000013 -0.001971
# 5 -0.009864 0.000844 0.003460 0.000013 0.028733 -0.000007
# 6 0.000014 -0.000025 0.000002 -0.001971 -0.000007 0.043972
#
#
# Mechanical properties :
#
#
# Convention : Reuss Voigt Hill
#
# Bulk Modulus (GPa) = 39.42102 62.61178 51.01640
# Shear Modulus (GPa) = 23.11964 28.71540 25.91752
#
# Velocity S-wave (km/s) = 3.49947 3.90004 3.70517
# Velocity P-wave (km/s) = 6.09995 7.31063 6.73256
#
# Compressibility (1/GPa) = 0.02536718
#
# Stress axis : x y z
#
# Youngs Moduli (GPa) = 41.29730 36.63552 84.15436
#
# Poissons Ratio (x) = 0.17440 0.82302
# Poissons Ratio (y) = 0.19660 0.37640
# Poissons Ratio (z) = 0.40389 0.16386
#
# Static dielectric constant tensor:
#      x y z
#    x 3.622010 -0.000040 -0.012120 
#    y -0.000040 3.291290 0.000080 
#    z -0.012120 0.000080 3.766810 
# 
# 
# High freq. dielectric constant tensor:
#      x y z
#    x 1.738640 0.000000 0.000430 
#    y 0.000000 1.714330 0.000010 
#    z 0.000430 0.000010 1.746770 
# 
# From -- ./inp_files/249164.got.cif
#   From: 2010.06.25/outbox.cif.g09.slc.cpg/sg12_125_cif.got.tgz:249164.got - 2010.06.28 00:19:55.
