data_PCOD8105348
_publ_section_title
;
Structure prediction by ZEFSAII (Michael W. Deem and Ramdas Pophale) SiO2 
 PCOD8105348
Probable space group: C 2/M
;
_chemical_formula_sum "Si O2"
_cell_formula_units_Z 64
_cell_length_a 14.156611
_cell_length_b 9.628696
_cell_length_c 29.993194
_cell_angle_alpha 90.000000
_cell_angle_beta 61.199854
_cell_angle_gamma 90.000000
_cell_volume 3582.655128
_symmetry_space_group_name_H-M "C 2/M"
_symmetry_group_IT_number 12
_symmetry_cell_setting 'monoclinic'
loop_
_space_group_symop_operation_xyz
x,y,z
-x,y,-z
-x,-y,-z
x,-y,z
1/2+x,1/2+y,z
1/2-x,1/2+y,-z
1/2-x,1/2-y,-z
1/2+x,1/2-y,z
loop_
_atom_site_type_symbol
_atom_site_label
_atom_site_fract_x
_atom_site_fract_y
_atom_site_fract_z
Si Si1 0.207556 0.662079 0.134913
Si Si2 0.153738 0.156767 0.506533
Si Si3 0.224487 0.837883 0.398925
Si Si4 0.923671 0.158735 0.384674
Si Si5 0.519692 0.661025 0.134140
Si Si6 0.661418 0.337849 0.316374
Si Si7 0.442272 0.334820 0.056970
Si Si8 0.221192 0.842177 0.782485
O O1 0.187059 0.500000 0.129964
O O2 0.109030 0.749084 0.138377
O O3 0.317915 0.714186 0.086230
O O4 0.218266 0.690007 0.185076
O O5 0.250000 0.250000 0.500000
O O6 0.132277 0.189775 0.458674
O O7 0.059134 0.177372 0.564887
O O8 0.196048 0.000000 0.499264
O O9 0.334859 0.760637 0.385599
O O10 0.184022 0.781501 0.360934
O O11 0.251293 0.000000 0.389260
O O12 0.036075 0.192480 0.334901
O O13 0.889125 0.000000 0.382600
O O14 0.554282 0.500000 0.127691
O O15 0.507439 0.714617 0.085940
O O16 0.406231 0.682776 0.184528
O O17 0.687629 0.500000 0.306218
O O18 0.735507 0.258898 0.264915
O O19 0.442720 0.500000 0.056865
O O20 0.500000 0.272672 0.000000
O O21 0.244159 0.000000 0.762862
#
# Coordination Sequence:
#
# PCOD8105348 Si02
#       8
#     8   8   8   8   8   8   8   8
#     4   9  18  33  53  75  98 129 168 203 238 283
#     4   8  14  27  47  67  90 120 150 183 227 281
#     4   9  18  32  49  70  95 122 153 190 234 285
#     4   9  18  32  49  70  95 122 153 190 234 285
#     4   9  18  33  53  75  98 129 168 203 238 283
#     4  10  21  34  49  72  97 121 156 201 244 284
#     4   8  15  30  51  75 106 139 165 193 235 288
#     4   9  20  37  51  66  94 130 164 198 240 290
#
# _framework density 17.863845000000001
#
# number of rings (size 3 to 8) (size 9 to 14) (size 15 to 20)
#    0.000    3.125    0.000    1.500    0.000    4.000 
#    0.000    9.375    0.000    0.750    0.000    9.625 
#    0.000    0.000    0.000    0.000    0.000    0.000 
#
# Total GULP energy -396471.069995 kJ/mol
# GULP energy per Si atom -12389.720937 kJ/mol
# Density = 1.782319 g / cm^3
# Si number density = 17.863845 Si / 1000 Ang^3
#
#
#
# Elastic Constant Matrix: (Units=GPa)
#
#
# Indices 1 2 3 4 5 6 
#
# 1 88.5163 36.9978 32.9657 0.0000 4.1747 0.0000
# 2 36.9978 47.5596 38.0476 0.0000 1.8220 0.0000
# 3 32.9657 38.0476 110.3060 0.0000 0.9372 0.0000
# 4 0.0000 0.0000 0.0000 25.2136 0.0000 0.2962
# 5 4.1747 1.8220 0.9372 0.0000 16.3772 0.0000
# 6 0.0000 0.0000 0.0000 0.2962 0.0000 29.3103
#
#
#
# Elastic Compliance Matrix: (Units=1/GPa)
#
#
# Indices 1 2 3 4 5 6 
#
# 1 0.016915 -0.012463 -0.000732 0.000000 -0.002883 0.000000
# 2 -0.012463 0.038338 -0.009495 0.000000 -0.000545 0.000000
# 3 -0.000732 -0.009495 0.012555 0.000000 0.000524 0.000000
# 4 0.000000 0.000000 0.000000 0.039666 0.000000 -0.000401
# 5 -0.002883 -0.000545 0.000524 0.000000 0.061826 0.000000
# 6 0.000000 0.000000 0.000000 -0.000401 0.000000 0.034122
#
#
# Mechanical properties :
#
#
# Convention : Reuss Voigt Hill
#
# Bulk Modulus (GPa) = 44.58434 51.37823 47.98128
# Shear Modulus (GPa) = 19.51018 23.40491 21.45755
#
# Velocity S-wave (km/s) = 3.30837 3.62357 3.46955
# Velocity P-wave (km/s) = 6.29331 6.80665 6.55501
#
# Compressibility (1/GPa) = 0.02242940
#
# Stress axis : x y z
#
# Youngs Moduli (GPa) = 59.11894 26.08396 79.64994
#
# Poissons Ratio (x) = 0.32507 0.05830
# Poissons Ratio (y) = 0.73678 0.75624
# Poissons Ratio (z) = 0.04327 0.24766
#
# Static dielectric constant tensor:
#      x y z
#    x 3.521460 0.000000 0.039860 
#    y 0.000000 3.106390 0.000000 
#    z 0.039860 0.000000 3.659140 
# 
# 
# High freq. dielectric constant tensor:
#      x y z
#    x 1.679510 0.000000 0.003020 
#    y 0.000000 1.673820 0.000000 
#    z 0.003020 0.000000 1.701380 
# 
# From -- ./inp_files/375061.got.cif
#   From: 2010.06.25/outbox.cif.g09.slc.cpg/sg12_188_cif.got.tgz:375061.got - 2010.06.28 00:19:55.
