data_PCOD8105752
_publ_section_title
;
Structure prediction by ZEFSAII (Michael W. Deem and Ramdas Pophale) SiO2 
 PCOD8105752
Probable space group: C 2/M
;
_chemical_formula_sum "Si O2"
_cell_formula_units_Z 64
_cell_length_a 30.427833
_cell_length_b 13.571829
_cell_length_c 12.291812
_cell_angle_alpha 90.000000
_cell_angle_beta 138.416878
_cell_angle_gamma 90.000000
_cell_volume 3368.999842
_symmetry_space_group_name_H-M "C 2/M"
_symmetry_group_IT_number 12
_symmetry_cell_setting 'monoclinic'
loop_
_space_group_symop_operation_xyz
x,y,z
-x,y,-z
-x,-y,-z
x,-y,z
1/2+x,1/2+y,z
1/2-x,1/2+y,-z
1/2-x,1/2-y,-z
1/2+x,1/2-y,z
loop_
_atom_site_type_symbol
_atom_site_label
_atom_site_fract_x
_atom_site_fract_y
_atom_site_fract_z
Si Si1 0.870166 0.298457 0.839656
Si Si2 0.671409 0.113323 0.455197
Si Si3 0.786172 0.112666 0.124766
Si Si4 0.555094 0.115593 0.837362
Si Si5 0.353860 0.199327 0.176124
Si Si6 0.762514 0.885761 0.327756
Si Si7 0.406640 0.885661 0.487711
Si Si8 0.680600 0.612417 0.341019
O O1 0.870472 0.346936 0.722486
O O2 0.805035 0.325019 0.788941
O O3 0.871917 0.180411 0.820183
O O4 0.934002 0.338164 0.022370
O O5 0.645837 0.158188 0.521975
O O6 0.748847 0.132954 0.584730
O O7 0.653546 0.000000 0.427346
O O8 0.834450 0.185005 0.147147
O O9 0.794848 0.133163 0.270104
O O10 0.805099 0.000000 0.131877
O O11 0.711154 0.131322 0.948145
O O12 0.602069 0.179639 0.847079
O O13 0.479776 0.132837 0.667536
O O14 0.574556 0.000000 0.869210
O O15 0.398145 0.173479 0.361617
O O16 0.812891 0.855923 0.519137
O O17 0.743404 0.000000 0.309360
O O18 0.394683 0.000000 0.439848
O O19 0.657425 0.500000 0.285644
#
# Coordination Sequence:
#
# PCOD8105752 Si02
#       8
#     8   8   8   8   8   8   8   8
#     4  11  19  30  55  78 109 144 178 217 264 320
#     4   9  18  32  50  80 110 136 168 220 274 321
#     4  10  21  35  56  86 113 140 177 221 274 326
#     4  11  22  38  56  77 104 148 191 222 264 322
#     4  11  22  35  58  81 111 141 183 222 272 317
#     4   9  16  30  51  78 111 142 170 208 261 330
#     4  10  22  36  55  79 110 143 181 227 272 318
#     4   9  19  31  50  81 115 145 173 209 270 332
#
# _framework density 18.996737
#
# number of rings (size 3 to 8) (size 9 to 14) (size 15 to 20)
#    0.000    2.000    1.250    4.875    3.500    1.500 
#    0.000    3.750    0.000    2.250    0.000    0.875 
#    0.000    0.000    0.000    0.000    0.000    0.000 
#
# Total GULP energy -396760.215968 kJ/mol
# GULP energy per Si atom -12398.756749 kJ/mol
# Density = 1.895350 g / cm^3
# Si number density = 18.996737 Si / 1000 Ang^3
#
#
#
# Elastic Constant Matrix: (Units=GPa)
#
#
# Indices 1 2 3 4 5 6 
#
# 1 33.0290 26.1447 11.1803 0.0000 -4.7930 0.0000
# 2 26.1447 84.4419 43.6482 0.0000 -5.5819 0.0000
# 3 11.1803 43.6482 79.3933 0.0000 -13.9461 0.0000
# 4 0.0000 0.0000 0.0000 28.2982 0.0000 -4.9647
# 5 -4.7930 -5.5819 -13.9461 0.0000 18.1585 0.0000
# 6 0.0000 0.0000 0.0000 -4.9647 0.0000 23.8616
#
#
#
# Elastic Compliance Matrix: (Units=1/GPa)
#
#
# Indices 1 2 3 4 5 6 
#
# 1 0.041586 -0.014082 0.003529 0.000000 0.009359 0.000000
# 2 -0.014082 0.021388 -0.010720 0.000000 -0.005375 0.000000
# 3 0.003529 -0.010720 0.020318 0.000000 0.013241 0.000000
# 4 0.000000 0.000000 0.000000 0.036677 0.000000 0.007631
# 5 0.009359 -0.005375 0.013241 0.000000 0.066058 0.000000
# 6 0.000000 0.000000 0.000000 0.007631 0.000000 0.043496
#
#
# Mechanical properties :
#
#
# Convention : Reuss Voigt Hill
#
# Bulk Modulus (GPa) = 24.54093 39.86785 32.20439
# Shear Modulus (GPa) = 17.50398 21.78974 19.64686
#
# Velocity S-wave (km/s) = 3.03878 3.39045 3.21942
# Velocity P-wave (km/s) = 5.02582 6.02985 5.55058
#
# Compressibility (1/GPa) = 0.04074825
#
# Stress axis : x y z
#
# Youngs Moduli (GPa) = 24.04639 46.75495 49.21795
#
# Poissons Ratio (x) = 0.65838 -0.17371
# Poissons Ratio (y) = 0.33861 0.52761
# Poissons Ratio (z) = -0.08487 0.50120
#
# Static dielectric constant tensor:
#      x y z
#    x 3.403820 0.000000 -0.273840 
#    y 0.000000 3.530340 0.000000 
#    z -0.273840 0.000000 3.401530 
# 
# 
# High freq. dielectric constant tensor:
#      x y z
#    x 1.719110 0.000000 -0.029690 
#    y 0.000000 1.739070 0.000000 
#    z -0.029690 0.000000 1.726250 
# 
# From -- ./inp_files/189478.got.cif
#   From: 2010.06.25/outbox.cif.g09.slc.cpg/sg12_95_cif.got.tgz:189478.got - 2010.06.28 00:19:55.
