data_PCOD8105996
_publ_section_title
;
Structure prediction by ZEFSAII (Michael W. Deem and Ramdas Pophale) SiO2 
 PCOD8105996
Probable space group: C 2/M
;
_chemical_formula_sum "Si O2"
_cell_formula_units_Z 56
_cell_length_a 16.060248
_cell_length_b 8.870418
_cell_length_c 22.862477
_cell_angle_alpha 90.000000
_cell_angle_beta 58.236925
_cell_angle_gamma 90.000000
_cell_volume 2769.217848
_symmetry_space_group_name_H-M "C 2/M"
_symmetry_group_IT_number 12
_symmetry_cell_setting 'monoclinic'
loop_
_space_group_symop_operation_xyz
x,y,z
-x,y,-z
-x,-y,-z
x,-y,z
1/2+x,1/2+y,z
1/2-x,1/2+y,-z
1/2-x,1/2-y,-z
1/2+x,1/2-y,z
loop_
_atom_site_type_symbol
_atom_site_label
_atom_site_fract_x
_atom_site_fract_y
_atom_site_fract_z
Si Si1 0.055255 0.322222 0.421554
Si Si2 0.280565 0.675441 0.336532
Si Si3 0.333069 0.177387 0.930621
Si Si4 0.625710 0.821801 0.213842
Si Si5 0.463241 0.675386 0.341271
Si Si6 0.021104 0.678768 0.928304
Si Si7 0.297774 0.821593 0.213215
O O1 0.049093 0.500000 0.415436
O O2 0.168415 0.270370 0.387170
O O3 0.000000 0.267661 0.500000
O O4 0.997747 0.251255 0.388405
O O5 0.283846 0.500000 0.317980
O O6 0.347478 0.703290 0.369837
O O7 0.329275 0.773293 0.266529
O O8 0.329130 0.230656 0.864889
O O9 0.436548 0.233906 0.916528
O O10 0.321346 0.000000 0.940516
O O11 0.250000 0.250000 0.000000
O O12 0.521723 0.744487 0.264427
O O13 0.697438 0.766168 0.238190
O O14 0.611532 0.000000 0.221410
O O15 0.487081 0.500000 0.337347
O O16 0.023099 0.500000 0.931963
O O17 0.123101 0.735714 0.863627
O O18 0.000000 0.749656 0.000000
O O19 0.282464 0.000000 0.215240
#
# Coordination Sequence:
#
# PCOD8105996 Si02
#       7
#     8   8   8   8   8   8   8
#     4  10  22  42  66  91 125 169 206 246 309 372
#     4  10  22  40  61  89 127 162 198 252 308 358
#     4  10  21  36  54  78 110 150 195 246 305 364
#     4  11  22  37  57  83 119 159 198 250 311 365
#     4  11  23  39  62  93 124 161 208 255 303 358
#     4   9  18  33  52  76 108 145 189 243 298 353
#     4  11  21  35  60  88 113 152 204 250 301 364
#
# _framework density 20.222317
#
# number of rings (size 3 to 8) (size 9 to 14) (size 15 to 20)
#    0.000    1.714    1.429    3.000    0.000    5.429 
#    0.000    1.429    0.000    3.857    0.000    0.000 
#    0.000    0.000    0.000    0.000    0.000    0.000 
#
# Total GULP energy -347182.221562 kJ/mol
# GULP energy per Si atom -12399.365056 kJ/mol
# Density = 2.017629 g / cm^3
# Si number density = 20.222317 Si / 1000 Ang^3
#
#
#
# Elastic Constant Matrix: (Units=GPa)
#
#
# Indices 1 2 3 4 5 6 
#
# 1 138.2937 33.0590 57.1166 0.0000 0.9391 0.0001
# 2 33.0590 41.5349 36.3411 0.0000 2.5073 0.0002
# 3 57.1166 36.3411 139.1019 0.0000 1.5530 0.0000
# 4 0.0000 0.0000 0.0000 29.1148 0.0000 4.0596
# 5 0.9391 2.5073 1.5530 0.0000 30.2890 0.0000
# 6 0.0001 0.0002 0.0000 4.0596 0.0000 25.5067
#
#
#
# Elastic Compliance Matrix: (Units=1/GPa)
#
#
# Indices 1 2 3 4 5 6 
#
# 1 0.009565 -0.005433 -0.002511 0.000000 0.000282 0.000000
# 2 -0.005433 0.034439 -0.006740 0.000000 -0.002337 0.000000
# 3 -0.002511 -0.006740 0.009980 0.000000 0.000124 0.000000
# 4 0.000000 0.000000 0.000000 0.035126 0.000000 -0.005591
# 5 0.000282 -0.002337 0.000124 0.000000 0.033194 0.000000
# 6 0.000000 0.000000 0.000000 -0.005591 0.000000 0.040095
#
#
# Mechanical properties :
#
#
# Convention : Reuss Voigt Hill
#
# Bulk Modulus (GPa) = 40.62648 63.55152 52.08900
# Shear Modulus (GPa) = 25.00341 29.80970 27.40655
#
# Velocity S-wave (km/s) = 3.52010 3.84356 3.68538
# Velocity P-wave (km/s) = 6.05434 7.15486 6.62748
#
# Compressibility (1/GPa) = 0.02461449
#
# Stress axis : x y z
#
# Youngs Moduli (GPa) = 104.54827 29.03685 100.20325
#
# Poissons Ratio (x) = 0.15775 0.25164
# Poissons Ratio (y) = 0.56800 0.67542
# Poissons Ratio (z) = 0.26255 0.19572
#
# Static dielectric constant tensor:
#      x y z
#    x 3.835780 0.000000 -0.022700 
#    y 0.000000 3.455690 0.000000 
#    z -0.022700 0.000000 3.805460 
# 
# 
# High freq. dielectric constant tensor:
#      x y z
#    x 1.803190 0.000000 -0.000090 
#    y 0.000000 1.771150 0.000000 
#    z -0.000090 0.000000 1.792950 
# 
# From -- ./inp_files/338542.got.cif
#   From: 2010.06.25/outbox.cif.g09.slc.cpg/sg12_170_cif.got.tgz:338542.got - 2010.06.28 00:19:55.
