data_PCOD8105169
_publ_section_title
;
Structure prediction by ZEFSAII (Michael W. Deem and Ramdas Pophale) SiO2 
 PCOD8105169
Probable space group: C 2/M
;
_chemical_formula_sum "Si O2"
_cell_formula_units_Z 64
_cell_length_a 9.627218
_cell_length_b 27.770992
_cell_length_c 14.636150
_cell_angle_alpha 90.000000
_cell_angle_beta 123.596845
_cell_angle_gamma 90.000000
_cell_volume 3259.409120
_symmetry_space_group_name_H-M "C 2/M"
_symmetry_group_IT_number 12
_symmetry_cell_setting 'monoclinic'
loop_
_space_group_symop_operation_xyz
x,y,z
-x,y,-z
-x,-y,-z
x,-y,z
1/2+x,1/2+y,z
1/2-x,1/2+y,-z
1/2-x,1/2-y,-z
1/2+x,1/2-y,z
loop_
_atom_site_type_symbol
_atom_site_label
_atom_site_fract_x
_atom_site_fract_y
_atom_site_fract_z
Si Si1 0.732876 0.372857 0.388249
Si Si2 0.814325 0.270943 0.429283
Si Si3 0.640821 0.117349 0.981357
Si Si4 0.475600 0.883775 0.638627
Si Si5 0.747516 0.778578 0.227010
Si Si6 0.410785 0.805999 0.178855
Si Si7 0.411951 0.055969 0.782297
Si Si8 0.862022 0.883856 0.222077
O O1 0.699475 0.315901 0.358306
O O2 0.807703 0.379073 0.517211
O O3 0.554000 0.398219 0.309921
O O4 0.860833 0.394487 0.361701
O O5 0.750000 0.250000 0.500000
O O6 0.819248 0.229992 0.354598
O O7 0.000000 0.293468 0.500000
O O8 0.689699 0.157078 0.922824
O O9 0.564454 0.070173 0.904709
O O10 0.500000 0.138166 0.000000
O O11 0.806857 0.102810 0.098052
O O12 0.498531 0.834957 0.706057
O O13 0.457277 0.930584 0.695307
O O14 0.548669 0.781482 0.164189
O O15 0.789375 0.734678 0.174114
O O16 0.829758 0.827227 0.221603
O O17 0.246395 0.085860 0.746197
O O18 0.374883 0.000000 0.778153
#
# Coordination Sequence:
#
# PCOD8105169 Si02
#       8
#     8   8   8   8   8   8   8   8
#     4  11  21  38  59  89 128 167 194 250 306 363
#     4  12  22  34  54  87 125 173 224 246 287 355
#     4   9  19  42  61  86 123 155 209 262 299 371
#     4  10  20  42  62  86 127 160 208 252 301 373
#     4  12  21  34  54  87 127 163 208 254 296 357
#     4  11  21  37  56  83 125 169 211 250 295 362
#     4  10  22  44  73  91 113 157 206 264 324 370
#     4  11  23  38  60  93 123 153 207 258 308 361
#
# _framework density 19.635460999999999
#
# number of rings (size 3 to 8) (size 9 to 14) (size 15 to 20)
#    0.000    1.250    6.250    3.000    0.000    3.250 
#    0.000    5.625    0.000    0.750    0.000    0.000 
#    0.000    0.000    0.000    0.000    0.000    0.000 
#
# Total GULP energy -396754.909862 kJ/mol
# GULP energy per Si atom -12398.590933 kJ/mol
# Density = 1.959077 g / cm^3
# Si number density = 19.635461 Si / 1000 Ang^3
#
#
#
# Elastic Constant Matrix: (Units=GPa)
#
#
# Indices 1 2 3 4 5 6 
#
# 1 90.7513 26.6984 51.4347 0.0000 0.6040 0.0000
# 2 26.6984 90.5525 28.4419 0.0000 -6.5144 0.0000
# 3 51.4347 28.4419 120.5676 0.0000 2.1057 0.0000
# 4 0.0000 0.0000 0.0000 17.3463 0.0000 -2.1619
# 5 0.6040 -6.5144 2.1057 0.0000 32.4107 0.0000
# 6 0.0000 0.0000 0.0000 -2.1619 0.0000 15.5615
#
#
#
# Elastic Compliance Matrix: (Units=1/GPa)
#
#
# Indices 1 2 3 4 5 6 
#
# 1 0.015094 -0.002659 -0.005804 0.000000 -0.000439 0.000000
# 2 -0.002659 0.012615 -0.001889 0.000000 0.002708 0.000000
# 3 -0.005804 -0.001889 0.011233 0.000000 -0.001001 0.000000
# 4 0.000000 0.000000 0.000000 0.058665 0.000000 0.008150
# 5 -0.000439 0.002708 -0.001001 0.000000 0.031472 0.000000
# 6 0.000000 0.000000 0.000000 0.008150 0.000000 0.065394
#
#
# Mechanical properties :
#
#
# Convention : Reuss Voigt Hill
#
# Bulk Modulus (GPa) = 54.82902 57.22461 56.02682
# Shear Modulus (GPa) = 22.59821 26.08343 24.34082
#
# Velocity S-wave (km/s) = 3.39615 3.64865 3.52467
# Velocity P-wave (km/s) = 6.58503 6.85252 6.72010
#
# Compressibility (1/GPa) = 0.01823852
#
# Stress axis : x y z
#
# Youngs Moduli (GPa) = 66.25201 79.26843 89.02076
#
# Poissons Ratio (x) = 0.21075 0.51670
# Poissons Ratio (y) = 0.17615 0.16816
# Poissons Ratio (z) = 0.38454 0.14974
#
# Static dielectric constant tensor:
#      x y z
#    x 2.068900 0.000000 0.443320 
#    y 0.000000 3.290460 0.000000 
#    z 0.443320 0.000000 3.609470 
# 
# 
# High freq. dielectric constant tensor:
#      x y z
#    x 1.760570 0.000000 -0.014550 
#    y 0.000000 1.733070 0.000000 
#    z -0.014550 0.000000 1.770060 
# 
# From -- ./inp_files/200934.got.cif
#   From: 2010.06.25/outbox.cif.g09.slc.cpg/sg12_101_cif.got.tgz:200934.got - 2010.06.28 00:19:55.
