data_PCOD8105138
_publ_section_title
;
Structure prediction by ZEFSAII (Michael W. Deem and Ramdas Pophale) SiO2 
 PCOD8105138
Probable space group: C 2/M
;
_chemical_formula_sum "Si O2"
_cell_formula_units_Z 56
_cell_length_a 9.137093
_cell_length_b 17.371740
_cell_length_c 18.223576
_cell_angle_alpha 90.000000
_cell_angle_beta 111.914750
_cell_angle_gamma 90.000000
_cell_volume 2683.560218
_symmetry_space_group_name_H-M "C 2/M"
_symmetry_group_IT_number 12
_symmetry_cell_setting 'monoclinic'
loop_
_space_group_symop_operation_xyz
x,y,z
-x,y,-z
-x,-y,-z
x,-y,z
1/2+x,1/2+y,z
1/2-x,1/2+y,-z
1/2-x,1/2-y,-z
1/2+x,1/2-y,z
loop_
_atom_site_type_symbol
_atom_site_label
_atom_site_fract_x
_atom_site_fract_y
_atom_site_fract_z
Si Si1 0.541336 0.409721 0.310675
Si Si2 0.839052 0.411114 0.270700
Si Si3 0.582938 0.179762 0.857193
Si Si4 0.720634 0.339941 0.833295
Si Si5 0.851576 0.172658 0.521702
Si Si6 0.823351 0.415721 0.993549
Si Si7 0.561547 0.089691 0.435308
O O1 0.535786 0.500000 0.333239
O O2 0.662378 0.396949 0.266377
O O3 0.370679 0.381930 0.250306
O O4 0.596721 0.356232 0.388251
O O5 0.877963 0.500000 0.270399
O O6 0.867626 0.376919 0.197344
O O7 0.962601 0.372105 0.350817
O O8 0.631261 0.263980 0.841991
O O9 0.396619 0.178169 0.838507
O O10 0.685297 0.150439 0.946036
O O11 0.716520 0.394285 0.903841
O O12 0.750000 0.250000 0.500000
O O13 0.746994 0.106499 0.462979
O O14 0.000000 0.187996 0.500000
O O15 0.767757 0.500000 0.012693
O O16 0.000000 0.422816 0.000000
O O17 0.500000 0.126536 0.500000
O O18 0.526091 0.000000 0.428838
#
# Coordination Sequence:
#
# PCOD8105138 Si02
#       7
#     8   8   8   8   8   8   8
#     4  11  25  45  67  95 129 165 211 268 322 378
#     4  10  22  40  66  93 125 165 210 262 318 382
#     4  11  23  40  65  96 131 172 215 260 317 380
#     4  11  24  40  65  94 133 171 211 265 321 377
#     4  12  28  43  65  92 127 168 213 263 318 379
#     4   9  19  39  65  94 128 167 214 263 317 379
#     4  10  20  41  67  91 123 165 208 258 320 379
#
# _framework density 20.867799999999999
#
# number of rings (size 3 to 8) (size 9 to 14) (size 15 to 20)
#    0.000    1.429    1.429    3.000    4.000    2.857 
#    0.000    2.143    0.000    5.143    0.000    0.000 
#    0.000    0.000    0.000    0.000    0.000    0.000 
#
# Total GULP energy -347138.293199 kJ/mol
# GULP energy per Si atom -12397.796186 kJ/mol
# Density = 2.082030 g / cm^3
# Si number density = 20.867800 Si / 1000 Ang^3
#
#
#
# Elastic Constant Matrix: (Units=GPa)
#
#
# Indices 1 2 3 4 5 6 
#
# 1 103.1837 41.9308 34.0332 0.0000 -0.4340 0.0000
# 2 41.9308 100.0950 54.2549 0.0000 -2.0491 0.0000
# 3 34.0332 54.2549 119.7687 0.0000 6.8186 0.0000
# 4 0.0000 0.0000 0.0000 34.6954 0.0000 -2.9798
# 5 -0.4340 -2.0491 6.8186 0.0000 34.2016 0.0000
# 6 0.0000 0.0000 0.0000 -2.9798 0.0000 26.9230
#
#
#
# Elastic Compliance Matrix: (Units=1/GPa)
#
#
# Indices 1 2 3 4 5 6 
#
# 1 0.011877 -0.004156 -0.001504 0.000000 0.000201 0.000000
# 2 -0.004156 0.014835 -0.005651 0.000000 0.001963 0.000000
# 3 -0.001504 -0.005651 0.011487 0.000000 -0.002648 0.000000
# 4 0.000000 0.000000 0.000000 0.029099 0.000000 0.003221
# 5 0.000201 0.001963 -0.002648 0.000000 0.029886 0.000000
# 6 0.000000 0.000000 0.000000 0.003221 0.000000 0.037499
#
#
# Mechanical properties :
#
#
# Convention : Reuss Voigt Hill
#
# Bulk Modulus (GPa) = 64.19451 64.83170 64.51310
# Shear Modulus (GPa) = 30.76960 32.01924 31.39442
#
# Velocity S-wave (km/s) = 3.84409 3.92137 3.88292
# Velocity P-wave (km/s) = 7.10858 7.18597 7.14738
#
# Compressibility (1/GPa) = 0.01557766
#
# Stress axis : x y z
#
# Youngs Moduli (GPa) = 84.19440 67.40939 87.05310
#
# Poissons Ratio (x) = 0.28018 0.13090
# Poissons Ratio (y) = 0.34994 0.49192
# Poissons Ratio (z) = 0.12660 0.38092
#
# Static dielectric constant tensor:
#      x y z
#    x 3.824610 0.000000 0.207630 
#    y 0.000000 3.966040 0.000000 
#    z 0.207630 0.000000 4.395370 
# 
# 
# High freq. dielectric constant tensor:
#      x y z
#    x 1.810350 0.000000 0.006230 
#    y 0.000000 1.823230 0.000000 
#    z 0.006230 0.000000 1.829120 
# 
# From -- ./inp_files/257218.got.cif
#   From: 2010.06.25/outbox.cif.g09.slc.cpg/sg12_129_cif.got.tgz:257218.got - 2010.06.28 00:19:55.
