data_PCOD8105629
_publ_section_title
;
Structure prediction by ZEFSAII (Michael W. Deem and Ramdas Pophale) SiO2 
 PCOD8105629
Probable space group: C 2/M
;
_chemical_formula_sum "Si O2"
_cell_formula_units_Z 64
_cell_length_a 22.156445
_cell_length_b 9.270727
_cell_length_c 19.122284
_cell_angle_alpha 90.000000
_cell_angle_beta 60.477040
_cell_angle_gamma 90.000000
_cell_volume 3417.841366
_symmetry_space_group_name_H-M "C 2/M"
_symmetry_group_IT_number 12
_symmetry_cell_setting 'monoclinic'
loop_
_space_group_symop_operation_xyz
x,y,z
-x,y,-z
-x,-y,-z
x,-y,z
1/2+x,1/2+y,z
1/2-x,1/2+y,-z
1/2-x,1/2-y,-z
1/2+x,1/2-y,z
loop_
_atom_site_type_symbol
_atom_site_label
_atom_site_fract_x
_atom_site_fract_y
_atom_site_fract_z
Si Si1 0.597725 0.830665 0.220017
Si Si2 0.472525 0.333533 0.234678
Si Si3 0.946543 0.167934 0.091290
Si Si4 0.283484 0.663959 0.918918
Si Si5 0.184405 0.333408 0.458893
Si Si6 0.815801 0.666357 0.695708
Si Si7 0.195644 0.336551 0.830748
Si Si8 0.659652 0.333596 0.603332
O O1 0.520977 0.769637 0.253224
O O2 0.645645 0.745025 0.138898
O O3 0.622995 0.798235 0.284617
O O4 0.600117 0.000000 0.201665
O O5 0.491672 0.500000 0.238720
O O6 0.479676 0.298671 0.148266
O O7 0.394513 0.297837 0.304238
O O8 0.877361 0.258385 0.121465
O O9 0.927200 0.000000 0.095982
O O10 0.000000 0.214317 0.000000
O O11 0.301035 0.500000 0.931056
O O12 0.229726 0.667595 0.886913
O O13 0.250000 0.750000 0.000000
O O14 0.176868 0.500000 0.481916
O O15 0.154832 0.299236 0.398396
O O16 0.264947 0.284565 0.412990
O O17 0.140634 0.248132 0.542068
O O18 0.792572 0.500000 0.714679
O O19 0.746643 0.758481 0.747510
O O20 0.184125 0.500000 0.811631
O O21 0.658095 0.500000 0.584859
#
# Coordination Sequence:
#
# PCOD8105629 Si02
#       8
#     8   8   8   8   8   8   8   8
#     4  10  21  36  55  80 106 141 184 224 271 322
#     4  10  21  38  56  76 109 148 183 221 269 328
#     4  10  22  38  56  78 103 141 184 218 265 328
#     4  10  21  36  55  79 106 138 177 222 271 318
#     4   9  17  32  56  82 108 136 176 225 265 315
#     4   9  18  35  57  79 106 142 180 220 266 320
#     4  10  21  35  53  80 109 135 171 222 271 314
#     4   9  18  32  52  80 110 141 175 217 271 323
#
# _framework density 18.725269000000001
#
# number of rings (size 3 to 8) (size 9 to 14) (size 15 to 20)
#    0.000    2.375    0.000    1.875    1.750    5.750 
#    0.000    3.125    0.000    3.750    0.000    0.000 
#    0.000    0.000    0.000    0.000    0.000    0.000 
#
# Total GULP energy -396828.494665 kJ/mol
# GULP energy per Si atom -12400.890458 kJ/mol
# Density = 1.868265 g / cm^3
# Si number density = 18.725269 Si / 1000 Ang^3
#
#
#
# Elastic Constant Matrix: (Units=GPa)
#
#
# Indices 1 2 3 4 5 6 
#
# 1 63.1018 35.1893 33.2992 0.0000 -6.2513 0.0000
# 2 35.1893 82.9591 41.6728 -0.0001 -0.6710 0.0002
# 3 33.2992 41.6728 114.1386 -0.0001 17.5971 0.0000
# 4 0.0000 -0.0001 -0.0001 31.7416 0.0000 -2.9446
# 5 -6.2513 -0.6710 17.5971 0.0000 19.9661 0.0000
# 6 0.0000 0.0002 0.0000 -2.9446 0.0000 32.8611
#
#
#
# Elastic Compliance Matrix: (Units=1/GPa)
#
#
# Indices 1 2 3 4 5 6 
#
# 1 0.024582 -0.006958 -0.006691 0.000000 0.013360 0.000000
# 2 -0.006958 0.017395 -0.004716 0.000000 0.002563 0.000000
# 3 -0.006691 -0.004716 0.014793 0.000000 -0.015291 0.000000
# 4 0.000000 0.000000 0.000000 0.031768 0.000000 0.002847
# 5 0.013360 0.002563 -0.015291 0.000000 0.067830 0.000000
# 6 0.000000 0.000000 0.000000 0.002847 0.000000 0.030686
#
#
# Mechanical properties :
#
#
# Convention : Reuss Voigt Hill
#
# Bulk Modulus (GPa) = 49.90124 53.39135 51.64630
# Shear Modulus (GPa) = 21.69521 26.91632 24.30576
#
# Velocity S-wave (km/s) = 3.40752 3.79546 3.60671
# Velocity P-wave (km/s) = 6.49528 6.91247 6.70712
#
# Compressibility (1/GPa) = 0.02003958
#
# Stress axis : x y z
#
# Youngs Moduli (GPa) = 40.68029 57.48634 67.60066
#
# Poissons Ratio (x) = 0.39999 0.45231
# Poissons Ratio (y) = 0.28305 0.31883
# Poissons Ratio (z) = 0.27219 0.27113
#
# Static dielectric constant tensor:
#      x y z
#    x 5.307900 0.000000 -0.546370 
#    y 0.000000 3.529550 0.000000 
#    z -0.546370 0.000000 4.040380 
# 
# 
# High freq. dielectric constant tensor:
#      x y z
#    x 1.716770 0.000000 0.010320 
#    y 0.000000 1.729900 0.000000 
#    z 0.010320 0.000000 1.727200 
# 
# From -- ./inp_files/319933.got.cif
#   From: 2010.06.25/outbox.cif.g09.slc.cpg/sg12_160_cif.got.tgz:319933.got - 2010.06.28 00:19:55.
