data_PCOD8105518
_publ_section_title
;
Structure prediction by ZEFSAII (Michael W. Deem and Ramdas Pophale) SiO2 
 PCOD8105518
Probable space group: C 2/M
;
_chemical_formula_sum "Si O2"
_cell_formula_units_Z 56
_cell_length_a 15.165806
_cell_length_b 9.384870
_cell_length_c 21.466607
_cell_angle_alpha 90.000000
_cell_angle_beta 90.522549
_cell_angle_gamma 90.000000
_cell_volume 3055.196168
_symmetry_space_group_name_H-M "C 2/M"
_symmetry_group_IT_number 12
_symmetry_cell_setting 'monoclinic'
loop_
_space_group_symop_operation_xyz
x,y,z
-x,y,-z
-x,-y,-z
x,-y,z
1/2+x,1/2+y,z
1/2-x,1/2+y,-z
1/2-x,1/2-y,-z
1/2+x,1/2-y,z
loop_
_atom_site_type_symbol
_atom_site_label
_atom_site_fract_x
_atom_site_fract_y
_atom_site_fract_z
Si Si1 0.663969 0.165880 0.427463
Si Si2 0.981129 0.332736 0.209098
Si Si3 0.998944 0.669253 0.349600
Si Si4 0.163023 0.334230 0.570669
Si Si5 0.161555 0.838233 0.864259
Si Si6 0.135272 0.666303 0.116483
Si Si7 0.160461 0.164469 0.002781
O O1 0.586586 0.227203 0.383517
O O2 0.750657 0.249948 0.408479
O O3 0.637707 0.194539 0.498839
O O4 0.681566 0.000000 0.415660
O O5 0.963371 0.500000 0.208168
O O6 0.995718 0.274975 0.278921
O O7 0.893484 0.261385 0.181549
O O8 0.069291 0.293871 0.171671
O O9 0.000090 0.500000 0.352427
O O10 0.915008 0.726532 0.386987
O O11 0.180585 0.500000 0.582824
O O12 0.264702 0.791919 0.863670
O O13 0.153750 0.000000 0.840353
O O14 0.118918 0.825411 0.933405
O O15 0.130699 0.500000 0.098576
O O16 0.103085 0.758344 0.056124
O O17 0.176623 0.000000 0.021234
O O18 0.250000 0.250000 0.000000
#
# Coordination Sequence:
#
# PCOD8105518 Si02
#       7
#     8   8   8   8   8   8   8
#     4   9  17  31  53  77  99 128 165 203 246 294
#     4  10  21  35  51  72  98 133 174 205 235 288
#     4   9  18  33  51  71  99 135 170 201 239 292
#     4   9  17  31  52  77 102 127 161 206 250 290
#     4   9  19  35  52  72 100 129 159 202 253 297
#     4   9  19  35  52  72 100 131 163 203 249 295
#     4   9  17  31  53  77  99 126 161 203 252 299
#
# _framework density 18.329429000000001
#
# number of rings (size 3 to 8) (size 9 to 14) (size 15 to 20)
#    0.000    2.857    0.000    1.714    0.000    6.857 
#    0.000    6.429    0.000    3.429    0.000    0.000 
#    0.000    0.000    0.000    0.000    0.000    0.000 
#
# Total GULP energy -347121.691211 kJ/mol
# GULP energy per Si atom -12397.203258 kJ/mol
# Density = 1.828771 g / cm^3
# Si number density = 18.329429 Si / 1000 Ang^3
#
#
#
# Elastic Constant Matrix: (Units=GPa)
#
#
# Indices 1 2 3 4 5 6 
#
# 1 102.4523 30.1782 56.5423 0.0000 5.8142 0.0000
# 2 30.1782 46.2258 32.0409 0.0000 3.7365 0.0000
# 3 56.5423 32.0409 105.3894 0.0000 5.0346 0.0000
# 4 0.0000 0.0000 0.0000 22.2601 0.0000 4.3345
# 5 5.8142 3.7365 5.0346 0.0000 21.3150 0.0000
# 6 0.0000 0.0000 0.0000 4.3345 0.0000 28.8642
#
#
#
# Elastic Compliance Matrix: (Units=1/GPa)
#
#
# Indices 1 2 3 4 5 6 
#
# 1 0.014873 -0.005195 -0.006321 0.000000 -0.001653 0.000000
# 2 -0.005195 0.029398 -0.006040 0.000000 -0.002310 0.000000
# 3 -0.006321 -0.006040 0.014750 0.000000 -0.000701 0.000000
# 4 0.000000 0.000000 0.000000 0.046277 0.000000 -0.006949
# 5 -0.001653 -0.002310 -0.000701 0.000000 0.047937 0.000000
# 6 0.000000 0.000000 0.000000 -0.006949 0.000000 0.035689
#
#
# Mechanical properties :
#
#
# Convention : Reuss Voigt Hill
#
# Bulk Modulus (GPa) = 41.82650 54.62115 48.22383
# Shear Modulus (GPa) = 21.55126 23.50826 22.52976
#
# Velocity S-wave (km/s) = 3.43268 3.58514 3.50974
# Velocity P-wave (km/s) = 6.21127 6.85581 6.54148
#
# Compressibility (1/GPa) = 0.02390829
#
# Stress axis : x y z
#
# Youngs Moduli (GPa) = 67.23456 34.01630 67.79691
#
# Poissons Ratio (x) = 0.17670 0.42857
# Poissons Ratio (y) = 0.34926 0.40951
# Poissons Ratio (z) = 0.42501 0.20547
#
# Static dielectric constant tensor:
#      x y z
#    x 3.332010 0.000000 -0.113120 
#    y 0.000000 3.272950 0.000000 
#    z -0.113120 0.000000 3.712640 
# 
# 
# High freq. dielectric constant tensor:
#      x y z
#    x 1.706630 0.000000 -0.004500 
#    y 0.000000 1.692290 0.000000 
#    z -0.004500 0.000000 1.711450 
# 
# From -- ./inp_files/309016.got.cif
#   From: 2010.06.25/outbox.cif.g09.slc.cpg/sg12_155_cif.got.tgz:309016.got - 2010.06.28 00:19:55.
