data_PCOD8105032
_publ_section_title
;
Structure prediction by ZEFSAII (Michael W. Deem and Ramdas Pophale) SiO2 
 PCOD8105032
Probable space group: C 2/M
;
_chemical_formula_sum "Si O2"
_cell_formula_units_Z 40
_cell_length_a 24.792775
_cell_length_b 8.930715
_cell_length_c 19.008769
_cell_angle_alpha 90.000000
_cell_angle_beta 29.062411
_cell_angle_gamma 90.000000
_cell_volume 2044.508557
_symmetry_space_group_name_H-M "C 2/M"
_symmetry_group_IT_number 12
_symmetry_cell_setting 'monoclinic'
loop_
_space_group_symop_operation_xyz
x,y,z
-x,y,-z
-x,-y,-z
x,-y,z
1/2+x,1/2+y,z
1/2-x,1/2+y,-z
1/2-x,1/2-y,-z
1/2+x,1/2-y,z
loop_
_atom_site_type_symbol
_atom_site_label
_atom_site_fract_x
_atom_site_fract_y
_atom_site_fract_z
Si Si1 0.051267 0.328215 0.633159
Si Si2 0.490274 0.673695 0.175385
Si Si3 0.187857 0.676551 0.868337
Si Si4 0.409852 0.828134 0.658439
Si Si5 0.711410 0.673383 0.694828
O O1 0.061334 0.500000 0.647471
O O2 0.019928 0.220986 0.732424
O O3 0.167340 0.273772 0.467856
O O4 0.955044 0.310775 0.685484
O O5 0.522821 0.500000 0.133926
O O6 0.373365 0.706257 0.271332
O O7 0.584720 0.769482 0.031269
O O8 0.188431 0.500000 0.866392
O O9 0.299653 0.731696 0.777836
O O10 0.174217 0.734477 0.804868
O O11 0.500000 0.767604 0.500000
O O12 0.381260 0.000000 0.672811
O O13 0.712781 0.500000 0.715032
#
# Coordination Sequence:
#
# PCOD8105032 Si02
#       5
#     8   8   8   8   8
#     4  10  21  39  65  92 121 156 197 248 304 359
#     4  11  24  40  61  89 125 163 201 246 300 360
#     4  12  25  39  61  91 124 159 202 254 299 350
#     4  10  20  40  67  89 117 158 200 245 301 363
#     4  10  21  41  65  89 120 162 204 244 298 363
#
# _framework density 19.564605
#
# number of rings (size 3 to 8) (size 9 to 14) (size 15 to 20)
#    0.000    1.400    2.000    3.600    0.000    6.800 
#    0.000    0.000    0.000    0.000    0.000    0.000 
#    0.000    0.000    0.000    0.000    0.000    0.000 
#
# Total GULP energy -248139.056314 kJ/mol
# GULP energy per Si atom -12406.952816 kJ/mol
# Density = 1.952007 g / cm^3
# Si number density = 19.564605 Si / 1000 Ang^3
#
#
#
# Elastic Constant Matrix: (Units=GPa)
#
#
# Indices 1 2 3 4 5 6 
#
# 1 104.2324 43.1334 30.0446 -0.0008 5.8714 0.0004
# 2 43.1334 94.6645 42.9568 0.0017 1.7360 -0.0004
# 3 30.0446 42.9568 84.7153 -0.0022 6.2297 0.0016
# 4 -0.0008 0.0017 -0.0022 18.8908 0.0012 23.8177
# 5 5.8714 1.7360 6.2297 0.0012 34.5522 -0.0008
# 6 0.0004 -0.0004 0.0016 23.8177 -0.0008 11.8835
#
#
#
# Elastic Compliance Matrix: (Units=1/GPa)
#
#
# Indices 1 2 3 4 5 6 
#
# 1 0.012139 -0.004676 -0.001824 -0.000001 -0.001499 0.000001
# 2 -0.004676 0.015533 -0.006303 0.000003 0.001151 -0.000004
# 3 -0.001824 -0.006303 0.015811 -0.000004 -0.002224 0.000005
# 4 -0.000001 0.000003 -0.000004 -0.034667 0.000003 0.069481
# 5 -0.001499 0.001151 -0.002224 0.000003 0.029540 -0.000005
# 6 0.000001 -0.000004 0.000005 0.069481 -0.000005 -0.055108
#
#
# Mechanical properties :
#
#
# Convention : Reuss Voigt Hill
#
# Bulk Modulus (GPa) = 55.93557 57.32019 56.62788
# Shear Modulus (GPa) = 337.56262 24.23045 180.89653
#
# Velocity S-wave (km/s) = 13.14960 3.52303 9.62610
# Velocity P-wave (km/s) = 16.09974 6.77573 12.35136
#
# Compressibility (1/GPa) = 0.01787771
#
# Stress axis : x y z
#
# Youngs Moduli (GPa) = 82.37817 64.37839 63.24888
#
# Poissons Ratio (x) = 0.30103 0.11536
# Poissons Ratio (y) = 0.38520 0.39864
# Poissons Ratio (z) = 0.15025 0.40576
#
# Static dielectric constant tensor:
#      x y z
#    x 3.689130 0.000000 -0.063380 
#    y 0.000000 3.514610 0.000000 
#    z -0.063380 0.000000 3.673960 
# 
# 
# High freq. dielectric constant tensor:
#      x y z
#    x 1.776500 0.000000 -0.003420 
#    y 0.000000 1.756350 0.000000 
#    z -0.003420 0.000000 1.770170 
# 
# From -- ./inp_files/151944.got.cif
#   From: 2010.06.25/outbox.cif.g09.slc.cpg/sg12_76_cif.got.tgz:151944.got - 2010.06.28 00:19:55.
