data_PCOD8105506
_publ_section_title
;
Structure prediction by ZEFSAII (Michael W. Deem and Ramdas Pophale) SiO2 
 PCOD8105506
Probable space group: C 2/M
;
_chemical_formula_sum "Si O2"
_cell_formula_units_Z 48
_cell_length_a 15.102105
_cell_length_b 8.811499
_cell_length_c 19.553448
_cell_angle_alpha 90.000000
_cell_angle_beta 109.926468
_cell_angle_gamma 90.000000
_cell_volume 2446.239122
_symmetry_space_group_name_H-M "C 2/M"
_symmetry_group_IT_number 12
_symmetry_cell_setting 'monoclinic'
loop_
_space_group_symop_operation_xyz
x,y,z
-x,y,-z
-x,-y,-z
x,-y,z
1/2+x,1/2+y,z
1/2-x,1/2+y,-z
1/2-x,1/2-y,-z
1/2+x,1/2-y,z
loop_
_atom_site_type_symbol
_atom_site_label
_atom_site_fract_x
_atom_site_fract_y
_atom_site_fract_z
Si Si1 0.628714 0.820519 0.090913
Si Si2 0.181912 0.679315 0.823639
Si Si3 0.577052 0.819915 0.928629
Si Si4 0.870061 0.176404 0.595363
Si Si5 0.564480 0.178970 0.661144
Si Si6 0.680065 0.323325 0.573074
O O1 0.712948 0.742702 0.154085
O O2 0.531504 0.765405 0.100208
O O3 0.640180 0.000000 0.098964
O O4 0.628974 0.766159 0.011698
O O5 0.185865 0.500000 0.830224
O O6 0.130305 0.749054 0.877007
O O7 0.125708 0.731083 0.742004
O O8 0.577252 0.000000 0.926527
O O9 0.777051 0.232727 0.610408
O O10 0.860398 0.209373 0.512508
O O11 0.957620 0.271312 0.647156
O O12 0.885312 0.000000 0.615020
O O13 0.601861 0.265485 0.604650
O O14 0.569583 0.000000 0.650119
O O15 0.699963 0.500000 0.589691
#
# Coordination Sequence:
#
# PCOD8105506 Si02
#       6
#     8   8   8   8   8   8
#     4   9  17  32  56  79  98 132 179 220 260 311
#     4  10  21  35  50  74 109 142 171 212 265 314
#     4   8  16  33  54  75 102 135 173 216 263 315
#     4  10  21  38  60  84 108 137 178 226 273 324
#     4  11  23  36  52  78 113 151 185 220 266 319
#     4  10  21  38  60  83 107 139 179 225 275 322
#
# _framework density 19.621956999999998
#
# number of rings (size 3 to 8) (size 9 to 14) (size 15 to 20)
#    0.000    2.333    0.000    3.500    0.000    6.667 
#    0.000    4.167    0.000    0.000    0.000    0.000 
#    0.000    0.000    0.000    0.000    0.000    0.000 
#
# Total GULP energy -297660.486082 kJ/mol
# GULP energy per Si atom -12402.520253 kJ/mol
# Density = 1.957730 g / cm^3
# Si number density = 19.621957 Si / 1000 Ang^3
#
#
#
# Elastic Constant Matrix: (Units=GPa)
#
#
# Indices 1 2 3 4 5 6 
#
# 1 84.0892 14.9523 26.8872 0.0000 24.3565 0.0000
# 2 14.9523 34.7652 31.3861 0.0000 7.9563 0.0000
# 3 26.8872 31.3861 59.6604 0.0000 27.0759 0.0000
# 4 0.0000 0.0000 0.0000 22.0772 0.0000 5.6312
# 5 24.3565 7.9563 27.0759 0.0000 33.9596 0.0000
# 6 0.0000 0.0000 0.0000 5.6312 0.0000 35.6226
#
#
#
# Elastic Compliance Matrix: (Units=1/GPa)
#
#
# Indices 1 2 3 4 5 6 
#
# 1 0.015622 -0.004121 -0.000354 0.000000 -0.009957 0.000000
# 2 -0.004121 0.061954 -0.039942 0.000000 0.020287 0.000000
# 3 -0.000354 -0.039942 0.052607 0.000000 -0.032332 0.000000
# 4 0.000000 0.000000 0.000000 0.047199 0.000000 -0.007461
# 5 -0.009957 0.020287 -0.032332 0.000000 0.057613 0.000000
# 6 0.000000 0.000000 0.000000 -0.007461 0.000000 0.029252
#
#
# Mechanical properties :
#
#
# Convention : Reuss Voigt Hill
#
# Bulk Modulus (GPa) = 24.18418 36.10734 30.14576
# Shear Modulus (GPa) = 13.62903 25.35116 19.49009
#
# Velocity S-wave (km/s) = 2.63835 3.59831 3.15505
# Velocity P-wave (km/s) = 4.65113 5.97539 5.35435
#
# Compressibility (1/GPa) = 0.04134935
#
# Stress axis : x y z
#
# Youngs Moduli (GPa) = 64.01224 16.14096 19.00883
#
# Poissons Ratio (x) = 0.06652 0.00672
# Poissons Ratio (y) = 0.26379 0.75926
# Poissons Ratio (z) = 0.02263 0.64471
#
# Static dielectric constant tensor:
#      x y z
#    x 3.750680 0.000000 -0.041330 
#    y 0.000000 3.322030 0.000000 
#    z -0.041330 0.000000 3.609080 
# 
# 
# High freq. dielectric constant tensor:
#      x y z
#    x 1.777600 0.000000 0.005960 
#    y 0.000000 1.747510 0.000000 
#    z 0.005960 0.000000 1.757320 
# 
# From -- ./inp_files/308311.got.cif
#   From: 2010.06.25/outbox.cif.g09.slc.cpg/sg12_155_cif.got.tgz:308311.got - 2010.06.28 00:19:55.
