data_PCOD8105790
_publ_section_title
;
Structure prediction by ZEFSAII (Michael W. Deem and Ramdas Pophale) SiO2 
 PCOD8105790
Probable space group: C 2/M
;
_chemical_formula_sum "Si O2"
_cell_formula_units_Z 40
_cell_length_a 19.894119
_cell_length_b 16.773983
_cell_length_c 9.136550
_cell_angle_alpha 90.000000
_cell_angle_beta 43.170859
_cell_angle_gamma 90.000000
_cell_volume 2085.984828
_symmetry_space_group_name_H-M "C 2/M"
_symmetry_group_IT_number 12
_symmetry_cell_setting 'monoclinic'
loop_
_space_group_symop_operation_xyz
x,y,z
-x,y,-z
-x,-y,-z
x,-y,z
1/2+x,1/2+y,z
1/2-x,1/2+y,-z
1/2-x,1/2-y,-z
1/2+x,1/2-y,z
loop_
_atom_site_type_symbol
_atom_site_label
_atom_site_fract_x
_atom_site_fract_y
_atom_site_fract_z
Si Si1 0.723050 0.688306 0.879140
Si Si2 0.584123 0.090525 0.984282
Si Si3 0.387996 0.406047 0.194749
Si Si4 0.734004 0.316179 0.404630
Si Si5 0.092825 0.695859 0.247144
O O1 0.680210 0.628294 0.826803
O O2 0.776770 0.768064 0.728998
O O3 0.814388 0.649531 0.823014
O O4 0.633260 0.718475 0.124145
O O5 0.677722 0.122225 0.749127
O O6 0.601237 0.000000 0.007996
O O7 0.500000 0.097988 0.000000
O O8 0.556154 0.142186 0.170626
O O9 0.373895 0.500000 0.217249
O O10 0.358927 0.369210 0.398519
O O11 0.500000 0.380223 0.000000
O O12 0.750000 0.250000 0.500000
O O13 0.000000 0.709917 0.500000
#
# Coordination Sequence:
#
# PCOD8105790 Si02
#       5
#     8   8   8   8   8
#     4   9  21  38  56  85 113 154 193 237 288 333
#     4  10  22  38  57  85 119 152 187 232 289 346
#     4  10  21  35  57  87 116 151 193 235 286 341
#     4   9  19  34  58  82 110 147 189 234 281 329
#     4  10  22  37  59  86 115 152 196 235 286 341
#
# _framework density 19.175595000000001
#
# number of rings (size 3 to 8) (size 9 to 14) (size 15 to 20)
#    0.000    2.400    0.000    0.600    8.400    6.800 
#    0.000    0.000    0.000    0.600    0.000    0.000 
#    0.000    0.000    0.000    0.000    0.000    0.000 
#
# Total GULP energy -247829.501677 kJ/mol
# GULP energy per Si atom -12391.475084 kJ/mol
# Density = 1.913195 g / cm^3
# Si number density = 19.175595 Si / 1000 Ang^3
#
#
#
# Elastic Constant Matrix: (Units=GPa)
#
#
# Indices 1 2 3 4 5 6 
#
# 1 66.1487 31.9686 24.7509 0.0000 -0.4253 0.0000
# 2 31.9686 71.5804 54.2023 0.0000 -7.5747 0.0000
# 3 24.7509 54.2023 163.2065 0.0000 -6.6722 0.0000
# 4 0.0000 0.0000 0.0000 24.8005 0.0000 -2.3987
# 5 -0.4253 -7.5747 -6.6722 0.0000 23.7009 0.0000
# 6 0.0000 0.0000 0.0000 -2.3987 0.0000 29.1548
#
#
#
# Elastic Compliance Matrix: (Units=1/GPa)
#
#
# Indices 1 2 3 4 5 6 
#
# 1 0.019423 -0.008860 -0.000106 0.000000 -0.002513 0.000000
# 2 -0.008860 0.023143 -0.006117 0.000000 0.005515 0.000000
# 3 -0.000106 -0.006117 0.008189 0.000000 0.000349 0.000000
# 4 0.000000 0.000000 0.000000 0.040645 0.000000 0.003344
# 5 -0.002513 0.005515 0.000349 0.000000 0.044008 0.000000
# 6 0.000000 0.000000 0.000000 0.003344 0.000000 0.034575
#
#
# Mechanical properties :
#
#
# Convention : Reuss Voigt Hill
#
# Bulk Modulus (GPa) = 48.56959 58.08661 53.32810
# Shear Modulus (GPa) = 24.15323 28.19882 26.17603
#
# Velocity S-wave (km/s) = 3.55291 3.83895 3.69869
# Velocity P-wave (km/s) = 6.49729 7.07161 6.79052
#
# Compressibility (1/GPa) = 0.02058901
#
# Stress axis : x y z
#
# Youngs Moduli (GPa) = 51.48553 43.20988 122.11638
#
# Poissons Ratio (x) = 0.38286 0.01291
# Poissons Ratio (y) = 0.45618 0.74696
# Poissons Ratio (z) = 0.00544 0.26430
#
# Static dielectric constant tensor:
#      x y z
#    x 3.492130 0.000000 0.165180 
#    y 0.000000 3.548120 0.000000 
#    z 0.165180 0.000000 3.962920 
# 
# 
# High freq. dielectric constant tensor:
#      x y z
#    x 1.741970 0.000000 0.004910 
#    y 0.000000 1.732140 0.000000 
#    z 0.004910 0.000000 1.763710 
# 
# From -- ./inp_files/87625.got.cif
#   From: 2010.06.25/outbox.cif.g09.slc.cpg/sg12_44_cif.got.tgz:87625.got - 2010.06.28 00:19:55.
