data_PCOD8105961
_publ_section_title
;
Structure prediction by ZEFSAII (Michael W. Deem and Ramdas Pophale) SiO2 
 PCOD8105961
Probable space group: C 2/M
;
_chemical_formula_sum "Si O2"
_cell_formula_units_Z 48
_cell_length_a 13.802712
_cell_length_b 13.475810
_cell_length_c 25.150878
_cell_angle_alpha 90.000000
_cell_angle_beta 34.525800
_cell_angle_gamma 90.000000
_cell_volume 2651.458830
_symmetry_space_group_name_H-M "C 2/M"
_symmetry_group_IT_number 12
_symmetry_cell_setting 'monoclinic'
loop_
_space_group_symop_operation_xyz
x,y,z
-x,y,-z
-x,-y,-z
x,-y,z
1/2+x,1/2+y,z
1/2-x,1/2+y,-z
1/2-x,1/2-y,-z
1/2+x,1/2-y,z
loop_
_atom_site_type_symbol
_atom_site_label
_atom_site_fract_x
_atom_site_fract_y
_atom_site_fract_z
Si Si1 0.813173 0.613958 0.095679
Si Si2 0.031337 0.885653 0.399597
Si Si3 0.265926 0.888304 0.395546
Si Si4 0.132567 0.740586 0.105040
Si Si5 0.230466 0.723578 0.782866
Si Si6 0.636857 0.882483 0.202288
O O1 0.808273 0.500000 0.082623
O O2 0.666343 0.663723 0.126340
O O3 0.783531 0.630227 0.171347
O O4 0.000000 0.660427 0.000000
O O5 0.162687 0.885304 0.388223
O O6 0.099634 0.804287 0.327082
O O7 0.847575 0.844943 0.504264
O O8 0.018710 0.000000 0.383482
O O9 0.449778 0.838449 0.302691
O O10 0.306624 0.000000 0.393491
O O11 0.178670 0.645807 0.121840
O O12 0.934263 0.733325 0.179922
O O13 0.250000 0.750000 0.000000
O O14 0.240369 0.826093 0.811692
O O15 0.660133 0.000000 0.198112
#
# Coordination Sequence:
#
# PCOD8105961 Si02
#       6
#     8   8   8   8   8   8
#     4  10  21  36  54  76 101 132 176 223 265 313
#     4   9  16  29  54  84 109 136 174 222 270 310
#     4   8  15  30  52  81 110 135 174 221 263 316
#     4  11  22  37  54  76 107 137 178 224 265 313
#     4  11  21  34  56  80 108 140 178 222 262 322
#     4  10  22  37  55  80 110 144 179 218 265 321
#
# _framework density 18.103242000000002
#
# number of rings (size 3 to 8) (size 9 to 14) (size 15 to 20)
#    0.000    2.167    3.333    1.500    0.000    2.667 
#    0.000    0.833    0.000    0.000    0.000    2.333 
#    0.000    0.000    0.000    0.000    0.000    0.000 
#
# Total GULP energy -297338.498124 kJ/mol
# GULP energy per Si atom -12389.104088 kJ/mol
# Density = 1.806204 g / cm^3
# Si number density = 18.103242 Si / 1000 Ang^3
#
#
#
# Elastic Constant Matrix: (Units=GPa)
#
#
# Indices 1 2 3 4 5 6 
#
# 1 77.8225 32.6652 16.0386 0.0001 12.6153 -0.0001
# 2 32.6652 78.5340 26.3154 -0.0001 8.8626 0.0000
# 3 16.0386 26.3154 103.1800 -0.0005 18.3254 -0.0001
# 4 0.0001 -0.0001 -0.0005 25.4174 0.0000 -2.3529
# 5 12.6153 8.8626 18.3254 0.0000 20.0639 0.0000
# 6 -0.0001 0.0000 -0.0001 -2.3529 0.0000 13.0268
#
#
#
# Elastic Compliance Matrix: (Units=1/GPa)
#
#
# Indices 1 2 3 4 5 6 
#
# 1 0.016667 -0.006156 0.000427 0.000000 -0.008150 0.000000
# 2 -0.006156 0.016402 -0.003136 0.000000 -0.000511 0.000000
# 3 0.000427 -0.003136 0.012207 0.000000 -0.010033 0.000000
# 4 0.000000 0.000000 0.000000 0.040012 0.000000 0.007227
# 5 -0.008150 -0.000511 -0.010033 0.000000 0.064354 0.000000
# 6 0.000000 0.000000 0.000000 0.007227 0.000000 0.078070
#
#
# Mechanical properties :
#
#
# Convention : Reuss Voigt Hill
#
# Bulk Modulus (GPa) = 36.30198 45.50833 40.90515
# Shear Modulus (GPa) = 19.63686 24.00277 21.81981
#
# Velocity S-wave (km/s) = 3.29707 3.64522 3.47551
# Velocity P-wave (km/s) = 5.88137 6.55054 6.22496
#
# Compressibility (1/GPa) = 0.02754671
#
# Stress axis : x y z
#
# Youngs Moduli (GPa) = 59.99993 60.96819 81.91986
#
# Poissons Ratio (x) = 0.37529 -0.03496
# Poissons Ratio (y) = 0.36933 0.25687
# Poissons Ratio (z) = -0.02560 0.19118
#
# Static dielectric constant tensor:
#      x y z
#    x 3.230840 0.000000 -0.027920 
#    y 0.000000 3.107880 0.000000 
#    z -0.027920 0.000000 3.810290 
# 
# 
# High freq. dielectric constant tensor:
#      x y z
#    x 1.691020 0.000000 0.003090 
#    y 0.000000 1.675860 0.000000 
#    z 0.003090 0.000000 1.716540 
# 
# From -- ./inp_files/204278.got.cif
#   From: 2010.06.25/outbox.cif.g09.slc.cpg/sg12_103_cif.got.tgz:204278.got - 2010.06.28 00:19:55.
