data_PCOD8105491
_publ_section_title
;
Structure prediction by ZEFSAII (Michael W. Deem and Ramdas Pophale) SiO2 
 PCOD8105491
Probable space group: C 2/M
;
_chemical_formula_sum "Si O2"
_cell_formula_units_Z 56
_cell_length_a 18.778584
_cell_length_b 9.342706
_cell_length_c 23.062038
_cell_angle_alpha 90.000000
_cell_angle_beta 128.768975
_cell_angle_gamma 90.000000
_cell_volume 3154.626980
_symmetry_space_group_name_H-M "C 2/M"
_symmetry_group_IT_number 12
_symmetry_cell_setting 'monoclinic'
loop_
_space_group_symop_operation_xyz
x,y,z
-x,y,-z
-x,-y,-z
x,-y,z
1/2+x,1/2+y,z
1/2-x,1/2+y,-z
1/2-x,1/2-y,-z
1/2+x,1/2-y,z
loop_
_atom_site_type_symbol
_atom_site_label
_atom_site_fract_x
_atom_site_fract_y
_atom_site_fract_z
Si Si1 0.085208 0.331350 0.005514
Si Si2 0.661107 0.336978 0.440106
Si Si3 0.102911 0.335151 0.708701
Si Si4 0.487502 0.332854 0.427301
Si Si5 0.262202 0.161748 0.126551
Si Si6 0.935892 0.332484 0.137736
Si Si7 0.531129 0.666710 0.276494
O O1 0.096489 0.500000 0.016280
O O2 0.070742 0.283669 0.931969
O O3 0.176921 0.264583 0.077170
O O4 0.000000 0.276404 0.000000
O O5 0.685719 0.500000 0.465138
O O6 0.750000 0.250000 0.500000
O O7 0.579716 0.288774 0.441085
O O8 0.631039 0.315574 0.357190
O O9 0.070176 0.500000 0.688581
O O10 0.096717 0.260693 0.642127
O O11 0.203167 0.327342 0.788959
O O12 0.038757 0.243148 0.716870
O O13 0.500000 0.289742 0.500000
O O14 0.464469 0.500000 0.407741
O O15 0.341592 0.207856 0.121945
O O16 0.231788 0.000000 0.096843
O O17 0.957390 0.500000 0.155467
O O18 0.021103 0.244584 0.209123
O O19 0.505751 0.500000 0.257455
#
# Coordination Sequence:
#
# PCOD8105491 Si02
#       7
#     8   8   8   8   8   8   8
#     4  10  21  35  50  71 100 131 161 195 239 291
#     4   9  18  31  48  71  97 126 160 198 240 286
#     4   9  17  30  49  74 100 125 159 202 245 287
#     4   9  18  33  51  72  99 130 166 204 240 284
#     4   9  18  32  51  74  96 122 160 203 243 285
#     4   9  18  33  52  74  97 122 160 205 242 283
#     4   9  17  30  49  73  97 124 162 202 241 285
#
# _framework density 17.751701000000001
#
# number of rings (size 3 to 8) (size 9 to 14) (size 15 to 20)
#    0.000    2.857    0.000    3.000    0.000    6.857 
#    0.000    1.429    0.000    8.571    0.000    0.000 
#    0.000    0.000    0.000    0.000    0.000    0.000 
#
# Total GULP energy -347028.162323 kJ/mol
# GULP energy per Si atom -12393.862940 kJ/mol
# Density = 1.771130 g / cm^3
# Si number density = 17.751701 Si / 1000 Ang^3
#
#
#
# Elastic Constant Matrix: (Units=GPa)
#
#
# Indices 1 2 3 4 5 6 
#
# 1 64.6208 28.5635 59.0917 0.0000 -5.4552 0.0000
# 2 28.5635 74.7623 70.0040 0.0000 0.5988 0.0000
# 3 59.0917 70.0040 155.0351 0.0000 -9.3017 0.0000
# 4 0.0000 0.0000 0.0000 42.6003 0.0000 2.6620
# 5 -5.4552 0.5988 -9.3017 0.0000 23.1132 0.0000
# 6 0.0000 0.0000 0.0000 2.6620 0.0000 20.9244
#
#
#
# Elastic Compliance Matrix: (Units=1/GPa)
#
#
# Indices 1 2 3 4 5 6 
#
# 1 0.023917 -0.001299 -0.008391 0.000000 0.002301 0.000000
# 2 -0.001299 0.023806 -0.010565 0.000000 -0.005175 0.000000
# 3 -0.008391 -0.010565 0.014671 0.000000 0.004197 0.000000
# 4 0.000000 0.000000 0.000000 0.023662 0.000000 -0.003010
# 5 0.002301 -0.005175 0.004197 0.000000 0.045632 0.000000
# 6 0.000000 0.000000 0.000000 -0.003010 0.000000 0.048174
#
#
# Mechanical properties :
#
#
# Convention : Reuss Voigt Hill
#
# Bulk Modulus (GPa) = 45.69633 67.74849 56.72241
# Shear Modulus (GPa) = 21.96218 26.44486 24.20352
#
# Velocity S-wave (km/s) = 3.52118 3.86386 3.69650
# Velocity P-wave (km/s) = 6.50611 7.62583 7.08811
#
# Compressibility (1/GPa) = 0.02188359
#
# Stress axis : x y z
#
# Youngs Moduli (GPa) = 41.81200 42.00710 68.16354
#
# Poissons Ratio (x) = 0.05455 0.57198
# Poissons Ratio (y) = 0.05430 0.72012
# Poissons Ratio (z) = 0.35086 0.44379
#
# Static dielectric constant tensor:
#      x y z
#    x 3.025000 0.000000 -0.281740 
#    y 0.000000 3.392000 0.000000 
#    z -0.281740 0.000000 3.900380 
# 
# 
# High freq. dielectric constant tensor:
#      x y z
#    x 1.640680 0.000000 -0.011040 
#    y 0.000000 1.691090 0.000000 
#    z -0.011040 0.000000 1.704790 
# 
# From -- ./inp_files/342498.got.cif
#   From: 2010.06.25/outbox.cif.g09.slc.cpg/sg12_172_cif.got.tgz:342498.got - 2010.06.28 00:19:55.
