data_PCOD8105591
_publ_section_title
;
Structure prediction by ZEFSAII (Michael W. Deem and Ramdas Pophale) SiO2 
 PCOD8105591
Probable space group: C 2/M
;
_chemical_formula_sum "Si O2"
_cell_formula_units_Z 48
_cell_length_a 24.817011
_cell_length_b 8.977957
_cell_length_c 11.683806
_cell_angle_alpha 90.000000
_cell_angle_beta 89.978571
_cell_angle_gamma 90.000000
_cell_volume 2603.222571
_symmetry_space_group_name_H-M "C 2/M"
_symmetry_group_IT_number 12
_symmetry_cell_setting 'monoclinic'
loop_
_space_group_symop_operation_xyz
x,y,z
-x,y,-z
-x,-y,-z
x,-y,z
1/2+x,1/2+y,z
1/2-x,1/2+y,-z
1/2-x,1/2-y,-z
1/2+x,1/2-y,z
loop_
_atom_site_type_symbol
_atom_site_label
_atom_site_fract_x
_atom_site_fract_y
_atom_site_fract_z
Si Si1 0.496200 0.171857 0.366734
Si Si2 0.187844 0.326409 0.616099
Si Si3 0.938396 0.172499 0.991062
Si Si4 0.812515 0.173920 0.618516
Si Si5 0.602783 0.174348 0.229289
Si Si6 0.899343 0.827647 0.243429
O O1 0.500000 0.206634 0.500000
O O2 0.552513 0.215536 0.309323
O O3 0.450683 0.275003 0.314315
O O4 0.481384 0.000000 0.343402
O O5 0.176218 0.500000 0.602263
O O6 0.168349 0.249391 0.499195
O O7 0.249969 0.291878 0.641757
O O8 0.153766 0.262577 0.721324
O O9 0.907622 0.271310 0.898841
O O10 0.936643 0.000000 0.953941
O O11 0.908482 0.201122 0.109938
O O12 0.000000 0.227135 0.000000
O O13 0.844761 0.242193 0.724147
O O14 0.824294 0.000000 0.608962
O O15 0.614624 0.000000 0.228274
O O16 0.889981 0.000000 0.270085
#
# Coordination Sequence:
#
# PCOD8105591 Si02
#       6
#     8   8   8   8   8   8
#     4  10  21  35  52  79 115 148 179 227 287 342
#     4  10  21  38  60  86 117 150 186 234 286 337
#     4  10  21  39  58  79 113 154 194 237 284 337
#     4  10  21  38  61  86 115 152 189 229 283 343
#     4  11  22  35  57  86 115 150 191 236 285 337
#     4  11  22  36  58  84 110 149 193 234 283 338
#
# _framework density 18.438683999999999
#
# number of rings (size 3 to 8) (size 9 to 14) (size 15 to 20)
#    0.000    1.667    1.667    3.000    0.000    6.000 
#    0.000    0.833    0.000    0.000    0.000    0.000 
#    0.000    0.000    0.000    0.000    0.000    0.000 
#
# Total GULP energy -297764.604706 kJ/mol
# GULP energy per Si atom -12406.858529 kJ/mol
# Density = 1.839672 g / cm^3
# Si number density = 18.438684 Si / 1000 Ang^3
#
#
#
# Elastic Constant Matrix: (Units=GPa)
#
#
# Indices 1 2 3 4 5 6 
#
# 1 95.5109 63.0229 56.9523 0.0000 9.2495 0.0000
# 2 63.0229 96.7651 60.1712 0.0000 -3.1834 0.0000
# 3 56.9523 60.1712 109.8039 0.0000 10.8578 0.0000
# 4 0.0000 0.0000 0.0000 34.2200 0.0000 1.0775
# 5 9.2495 -3.1834 10.8578 0.0000 16.6343 0.0000
# 6 0.0000 0.0000 0.0000 1.0775 0.0000 33.7222
#
#
#
# Elastic Compliance Matrix: (Units=1/GPa)
#
#
# Indices 1 2 3 4 5 6 
#
# 1 0.022017 -0.012788 -0.003164 0.000000 -0.012625 0.000000
# 2 -0.012788 0.024541 -0.008534 0.000000 0.017378 0.000000
# 3 -0.003164 -0.008534 0.016476 0.000000 -0.010628 0.000000
# 4 0.000000 0.000000 0.000000 0.029252 0.000000 -0.000935
# 5 -0.012625 0.017378 -0.010628 0.000000 0.077400 0.000000
# 6 0.000000 0.000000 0.000000 -0.000935 0.000000 0.029684
#
#
# Mechanical properties :
#
#
# Convention : Reuss Voigt Hill
#
# Bulk Modulus (GPa) = 71.10888 73.59695 72.35291
# Shear Modulus (GPa) = 19.76059 25.04420 22.40240
#
# Velocity S-wave (km/s) = 3.27722 3.68943 3.48942
# Velocity P-wave (km/s) = 7.27798 7.62563 7.45383
#
# Compressibility (1/GPa) = 0.01406294
#
# Stress axis : x y z
#
# Youngs Moduli (GPa) = 45.41915 40.74757 60.69561
#
# Poissons Ratio (x) = 0.52107 0.19203
# Poissons Ratio (y) = 0.58081 0.51798
# Poissons Ratio (z) = 0.14370 0.34774
#
# Static dielectric constant tensor:
#      x y z
#    x 3.856860 0.000000 -0.278480 
#    y 0.000000 3.465750 0.000000 
#    z -0.278480 0.000000 3.448870 
# 
# 
# High freq. dielectric constant tensor:
#      x y z
#    x 1.715760 0.000000 -0.002080 
#    y 0.000000 1.726380 0.000000 
#    z -0.002080 0.000000 1.716170 
# 
# From -- ./inp_files/172262.got.cif
#   From: 2010.06.25/outbox.cif.g09.slc.cpg/sg12_87_cif.got.tgz:172262.got - 2010.06.28 00:19:55.
