data_PCOD8105648
_publ_section_title
;
Structure prediction by ZEFSAII (Michael W. Deem and Ramdas Pophale) SiO2 
 PCOD8105648
Probable space group: C 2/M
;
_chemical_formula_sum "Si O2"
_cell_formula_units_Z 64
_cell_length_a 28.479859
_cell_length_b 8.613369
_cell_length_c 18.840559
_cell_angle_alpha 90.000000
_cell_angle_beta 138.292311
_cell_angle_gamma 90.000000
_cell_volume 3074.978864
_symmetry_space_group_name_H-M "C 2/M"
_symmetry_group_IT_number 12
_symmetry_cell_setting 'monoclinic'
loop_
_space_group_symop_operation_xyz
x,y,z
-x,y,-z
-x,-y,-z
x,-y,z
1/2+x,1/2+y,z
1/2-x,1/2+y,-z
1/2-x,1/2-y,-z
1/2+x,1/2-y,z
loop_
_atom_site_type_symbol
_atom_site_label
_atom_site_fract_x
_atom_site_fract_y
_atom_site_fract_z
Si Si1 0.078818 0.685679 0.164440
Si Si2 0.443723 0.183346 0.101769
Si Si3 0.182785 0.669856 0.394571
Si Si4 0.150505 0.817526 0.115315
Si Si5 0.928566 0.317327 0.378380
Si Si6 0.801277 0.816401 0.325161
Si Si7 0.383685 0.825825 0.534691
Si Si8 0.470469 0.318767 0.285557
O O1 0.078737 0.500000 0.156327
O O2 0.146332 0.748598 0.285562
O O3 0.087406 0.763486 0.097354
O O4 0.009725 0.740673 0.128623
O O5 0.451716 0.228428 0.192659
O O6 0.434059 0.000000 0.085564
O O7 0.374599 0.267896 0.991650
O O8 0.206834 0.500000 0.398205
O O9 0.250000 0.750000 0.500000
O O10 0.124575 0.663093 0.390415
O O11 0.223062 0.730999 0.214340
O O12 0.162681 0.000000 0.133761
O O13 0.928308 0.500000 0.364427
O O14 0.860110 0.268449 0.344943
O O15 0.919473 0.231964 0.292117
O O16 0.000000 0.265893 0.500000
O O17 0.816046 0.758486 0.422516
O O18 0.809087 0.000000 0.327936
O O19 0.452545 0.724791 0.597741
O O20 0.393468 0.000000 0.513917
O O21 0.464510 0.500000 0.263288
#
# Coordination Sequence:
#
# PCOD8105648 Si02
#       8
#     8   8   8   8   8   8   8   8
#     4  10  21  40  63  89 123 168 218 264 314 374
#     4  11  23  44  69  92 125 171 218 267 318 374
#     4  10  21  35  53  82 121 164 208 254 308 372
#     4  12  26  43  63  93 129 168 215 267 321 379
#     4  11  23  41  68  97 130 169 208 257 317 380
#     4  12  25  42  65  95 129 168 213 263 319 382
#     4  11  21  38  60  88 125 168 208 256 316 375
#     4  12  24  39  64  98 130 163 207 259 312 375
#
# _framework density 20.813153
#
# number of rings (size 3 to 8) (size 9 to 14) (size 15 to 20)
#    0.000    0.875    2.500    5.625    0.000    6.500 
#    0.000    0.625    0.000    0.000    0.000    0.000 
#    0.000    0.000    0.000    0.000    0.000    0.000 
#
# Total GULP energy -396817.254151 kJ/mol
# GULP energy per Si atom -12400.539192 kJ/mol
# Density = 2.076578 g / cm^3
# Si number density = 20.813153 Si / 1000 Ang^3
#
#
#
# Elastic Constant Matrix: (Units=GPa)
#
#
# Indices 1 2 3 4 5 6 
#
# 1 61.2482 11.7680 16.9345 0.0000 -12.2248 0.0000
# 2 11.7680 79.8913 21.6280 0.0000 -1.5937 0.0000
# 3 16.9345 21.6280 119.1621 0.0000 -12.3431 0.0000
# 4 0.0000 0.0000 0.0000 35.5605 0.0000 -3.7874
# 5 -12.2248 -1.5937 -12.3431 0.0000 23.7102 0.0000
# 6 0.0000 0.0000 0.0000 -3.7874 0.0000 29.9747
#
#
#
# Elastic Compliance Matrix: (Units=1/GPa)
#
#
# Indices 1 2 3 4 5 6 
#
# 1 0.018908 -0.002240 -0.001360 0.000000 0.008890 0.000000
# 2 -0.002240 0.013432 -0.002268 0.000000 -0.001433 0.000000
# 3 -0.001360 -0.002268 0.009416 0.000000 0.004048 0.000000
# 4 0.000000 0.000000 0.000000 0.028505 0.000000 0.003602
# 5 0.008890 -0.001433 0.004048 0.000000 0.048771 0.000000
# 6 0.000000 0.000000 0.000000 0.003602 0.000000 0.033817
#
#
# Mechanical properties :
#
#
# Convention : Reuss Voigt Hill
#
# Bulk Modulus (GPa) = 33.30958 40.10696 36.70827
# Shear Modulus (GPa) = 28.63846 31.84716 30.24281
#
# Velocity S-wave (km/s) = 3.71344 3.91595 3.81604
# Velocity P-wave (km/s) = 5.86729 6.30540 6.09028
#
# Compressibility (1/GPa) = 0.03002139
#
# Stress axis : x y z
#
# Youngs Moduli (GPa) = 52.88843 74.44721 106.20045
#
# Poissons Ratio (x) = 0.16674 0.14440
# Poissons Ratio (y) = 0.11845 0.24087
# Poissons Ratio (z) = 0.07191 0.16885
#
# Static dielectric constant tensor:
#      x y z
#    x 3.926330 0.000000 -0.164770 
#    y 0.000000 3.753820 0.000000 
#    z -0.164770 0.000000 3.605040 
# 
# 
# High freq. dielectric constant tensor:
#      x y z
#    x 1.811120 0.000000 -0.010800 
#    y 0.000000 1.815840 0.000000 
#    z -0.010800 0.000000 1.822810 
# 
# From -- ./inp_files/295767.got.cif
#   From: 2010.06.25/outbox.cif.g09.slc.cpg/sg12_148_cif.got.tgz:295767.got - 2010.06.28 00:19:55.
