data_PCOD8105186
_publ_section_title
;
Structure prediction by ZEFSAII (Michael W. Deem and Ramdas Pophale) SiO2 
 PCOD8105186
Probable space group: C 2/M
;
_chemical_formula_sum "Si O2"
_cell_formula_units_Z 40
_cell_length_a 17.292904
_cell_length_b 25.003153
_cell_length_c 8.624810
_cell_angle_alpha 90.000000
_cell_angle_beta 147.554758
_cell_angle_gamma 90.000000
_cell_volume 2000.675116
_symmetry_space_group_name_H-M "C 2/M"
_symmetry_group_IT_number 12
_symmetry_cell_setting 'monoclinic'
loop_
_space_group_symop_operation_xyz
x,y,z
-x,y,-z
-x,-y,-z
x,-y,z
1/2+x,1/2+y,z
1/2-x,1/2+y,-z
1/2-x,1/2-y,-z
1/2+x,1/2-y,z
loop_
_atom_site_type_symbol
_atom_site_label
_atom_site_fract_x
_atom_site_fract_y
_atom_site_fract_z
Si Si1 0.124464 0.000000 0.336839
Si Si2 0.379142 0.594558 0.422650
Si Si3 0.447227 0.897420 0.237758
Si Si4 0.928258 0.500000 0.715940
Si Si5 0.888409 0.814747 0.672497
Si Si6 0.093151 0.695414 0.305773
O O1 0.124129 0.949206 0.448249
O O2 0.258563 0.000000 0.448318
O O3 0.000000 0.000000 0.000000
O O4 0.500000 0.580077 0.500000
O O5 0.423999 0.649251 0.583694
O O6 0.225260 0.599279 0.075324
O O7 0.500000 0.901772 0.500000
O O8 0.522560 0.946603 0.283670
O O9 0.505645 0.840726 0.276787
O O10 0.000000 0.500000 0.000000
O O11 0.875711 0.755093 0.576912
O O12 0.739150 0.833609 0.498971
O O13 0.000000 0.821642 0.000000
O O14 0.000000 0.706180 0.000000
#
# Coordination Sequence:
#
# PCOD8105186 Si02
#       6
#     4   8   8   4   8   8
#     4  12  27  44  72  96 125 168 212 263 318 378
#     4  12  26  44  62  96 136 167 207 264 323 382
#     4  12  26  42  66  95 131 170 211 263 319 378
#     4  12  23  46  72  92 119 168 222 260 308 378
#     4  10  22  39  67  94 123 168 216 263 314 372
#     4  10  20  42  66  91 125 167 219 266 307 367
#
# _framework density 19.99325
#
# number of rings (size 3 to 8) (size 9 to 14) (size 15 to 20)
#    0.000    0.800    4.000    3.000    5.600    0.800 
#    0.000    2.000    0.000    0.000    0.000    0.000 
#    0.000    0.000    0.000    0.000    0.000    0.000 
#
# Total GULP energy -247952.698780 kJ/mol
# GULP energy per Si atom -12397.634939 kJ/mol
# Density = 1.994774 g / cm^3
# Si number density = 19.993250 Si / 1000 Ang^3
#
#
#
# Elastic Constant Matrix: (Units=GPa)
#
#
# Indices 1 2 3 4 5 6 
#
# 1 118.1011 58.2328 57.8228 0.0000 8.4004 0.0000
# 2 58.2328 114.9840 37.6883 0.0000 -7.3300 0.0000
# 3 57.8228 37.6883 144.0738 0.0000 7.8073 0.0000
# 4 0.0000 0.0000 0.0000 22.9317 0.0000 12.6252
# 5 8.4004 -7.3300 7.8073 0.0000 47.4623 0.0000
# 6 0.0000 0.0000 0.0000 12.6252 0.0000 -0.3317
#
#
#
# Elastic Compliance Matrix: (Units=1/GPa)
#
#
# Indices 1 2 3 4 5 6 
#
# 1 0.013259 -0.005670 -0.003696 0.000000 -0.002614 0.000000
# 2 -0.005670 0.012109 -0.001057 0.000000 0.003048 0.000000
# 3 -0.003696 -0.001057 0.008752 0.000000 -0.000949 0.000000
# 4 0.000000 0.000000 0.000000 0.001986 0.000000 0.075599
# 5 -0.002614 0.003048 -0.000949 0.000000 0.022159 0.000000
# 6 0.000000 0.000000 0.000000 0.075599 0.000000 -0.137315
#
#
# Mechanical properties :
#
#
# Convention : Reuss Voigt Hill
#
# Bulk Modulus (GPa) = 75.33973 76.07187 75.70580
# Shear Modulus (GPa) = -92.97455 28.90677 -32.03389
#
# Velocity S-wave (km/s) = -6.82671 3.80653 -4.00714
# Velocity P-wave (km/s) = 4.93702 7.57964 4.06674
#
# Compressibility (1/GPa) = 0.01327321
#
# Stress axis : x y z
#
# Youngs Moduli (GPa) = 75.42196 82.58231 114.25452
#
# Poissons Ratio (x) = 0.46823 0.42233
# Poissons Ratio (y) = 0.42763 0.12079
# Poissons Ratio (z) = 0.27879 0.08731
#
# Static dielectric constant tensor:
#      x y z
#    x 3.490300 0.000000 0.100680 
#    y 0.000000 3.912610 0.000000 
#    z 0.100680 0.000000 3.986430 
# 
# 
# High freq. dielectric constant tensor:
#      x y z
#    x 1.773800 0.000000 0.007150 
#    y 0.000000 1.798290 0.000000 
#    z 0.007150 0.000000 1.799840 
# 
# From -- ./inp_files/79339.got.cif
#   From: 2010.06.25/outbox.cif.g09.slc.cpg/sg12_40_cif.got.tgz:79339.got - 2010.06.28 00:19:55.
