data_PCOD8105109
_publ_section_title
;
Structure prediction by ZEFSAII (Michael W. Deem and Ramdas Pophale) SiO2 
 PCOD8105109
Probable space group: C 2/M
;
_chemical_formula_sum "Si O2"
_cell_formula_units_Z 64
_cell_length_a 32.637013
_cell_length_b 8.511777
_cell_length_c 15.274131
_cell_angle_alpha 90.000000
_cell_angle_beta 131.900265
_cell_angle_gamma 90.000000
_cell_volume 3158.203470
_symmetry_space_group_name_H-M "C 2/M"
_symmetry_group_IT_number 12
_symmetry_cell_setting 'monoclinic'
loop_
_space_group_symop_operation_xyz
x,y,z
-x,y,-z
-x,-y,-z
x,-y,z
1/2+x,1/2+y,z
1/2-x,1/2+y,-z
1/2-x,1/2-y,-z
1/2+x,1/2-y,z
loop_
_atom_site_type_symbol
_atom_site_label
_atom_site_fract_x
_atom_site_fract_y
_atom_site_fract_z
Si Si1 0.944861 0.315723 0.711445
Si Si2 0.637103 0.317282 0.067424
Si Si3 0.564213 0.177734 0.108835
Si Si4 0.292878 0.821163 0.124177
Si Si5 0.903033 0.819943 0.310578
Si Si6 0.872054 0.819188 0.459497
Si Si7 0.252985 0.680518 0.233498
Si Si8 0.561232 0.814829 0.811503
O O1 0.952798 0.500000 0.729948
O O2 0.925511 0.253393 0.778792
O O3 0.898084 0.278194 0.574719
O O4 0.004348 0.245320 0.769540
O O5 0.650385 0.500000 0.076983
O O6 0.592904 0.290785 0.080415
O O7 0.692074 0.225352 0.179780
O O8 0.612841 0.257465 0.939265
O O9 0.587255 0.000000 0.131331
O O10 0.500000 0.178416 0.000000
O O11 0.343057 0.702287 0.184654
O O12 0.265214 0.810966 0.178691
O O13 0.310274 0.000000 0.127305
O O14 0.250000 0.750000 0.000000
O O15 0.898296 0.755996 0.404242
O O16 0.941551 0.726668 0.296905
O O17 0.921602 0.000000 0.336765
O O18 0.805439 0.801079 0.373759
O O19 0.888927 0.000000 0.492882
O O20 0.252623 0.500000 0.198635
O O21 0.565545 0.000000 0.828302
#
# Coordination Sequence:
#
# PCOD8105109 Si02
#       8
#     8   8   8   8   8   8   8   8
#     4  10  22  39  63  88 114 153 197 241 291 350
#     4  12  24  37  59  93 123 151 191 246 298 348
#     4  10  20  41  65  87 119 155 191 234 293 358
#     4  11  20  32  51  77 110 150 193 242 291 343
#     4  10  21  37  54  80 115 156 199 241 289 342
#     4   9  21  40  61  83 116 157 198 242 290 342
#     4  10  21  39  59  81 113 157 196 235 290 349
#     4  11  22  38  58  86 120 158 198 242 295 352
#
# _framework density 20.264685
#
# number of rings (size 3 to 8) (size 9 to 14) (size 15 to 20)
#    0.000    1.625    1.250    4.875    0.000    5.250 
#    0.000    3.125    0.000    0.000    0.000    0.000 
#    0.000    0.000    0.000    0.000    0.000    0.000 
#
# Total GULP energy -396505.418879 kJ/mol
# GULP energy per Si atom -12390.794340 kJ/mol
# Density = 2.021856 g / cm^3
# Si number density = 20.264685 Si / 1000 Ang^3
#
#
#
# Elastic Constant Matrix: (Units=GPa)
#
#
# Indices 1 2 3 4 5 6 
#
# 1 71.8672 16.9906 23.4696 0.0000 -0.7856 0.0000
# 2 16.9906 63.6362 23.6064 0.0000 -1.4891 0.0000
# 3 23.4696 23.6064 100.4130 0.0000 -5.6432 0.0000
# 4 0.0000 0.0000 0.0000 29.2614 0.0000 -0.9020
# 5 -0.7856 -1.4891 -5.6432 0.0000 30.7022 0.0000
# 6 0.0000 0.0000 0.0000 -0.9020 0.0000 29.1460
#
#
#
# Elastic Compliance Matrix: (Units=1/GPa)
#
#
# Indices 1 2 3 4 5 6 
#
# 1 0.015599 -0.003082 -0.002938 0.000000 -0.000290 0.000000
# 2 -0.003082 0.017825 -0.003462 0.000000 0.000149 0.000000
# 3 -0.002938 -0.003462 0.011565 0.000000 0.001883 0.000000
# 4 0.000000 0.000000 0.000000 0.034207 0.000000 0.001059
# 5 -0.000290 0.000149 0.001883 0.000000 0.032917 0.000000
# 6 0.000000 0.000000 0.000000 0.001059 0.000000 0.034343
#
#
# Mechanical properties :
#
#
# Convention : Reuss Voigt Hill
#
# Bulk Modulus (GPa) = 38.42259 40.44995 39.43627
# Shear Modulus (GPa) = 28.71995 29.27856 28.99926
#
# Velocity S-wave (km/s) = 3.76871 3.80519 3.78699
# Velocity P-wave (km/s) = 6.15947 6.26977 6.21487
#
# Compressibility (1/GPa) = 0.02602636
#
# Stress axis : x y z
#
# Youngs Moduli (GPa) = 64.10497 56.10146 86.46648
#
# Poissons Ratio (x) = 0.17290 0.25402
# Poissons Ratio (y) = 0.19757 0.29933
# Poissons Ratio (z) = 0.18833 0.19421
#
# Static dielectric constant tensor:
#      x y z
#    x 3.860330 0.000000 -0.044340 
#    y 0.000000 3.676180 0.000000 
#    z -0.044340 0.000000 3.637010 
# 
# 
# High freq. dielectric constant tensor:
#      x y z
#    x 1.788750 0.000000 0.004140 
#    y 0.000000 1.784620 0.000000 
#    z 0.004140 0.000000 1.784990 
# 
# From -- ./inp_files/249921.got.cif
#   From: 2010.06.25/outbox.cif.g09.slc.cpg/sg12_125_cif.got.tgz:249921.got - 2010.06.28 00:19:55.
