data_PCOD8105260
_publ_section_title
;
Structure prediction by ZEFSAII (Michael W. Deem and Ramdas Pophale) SiO2 
 PCOD8105260
Probable space group: C 2/M
;
_chemical_formula_sum "Si O2"
_cell_formula_units_Z 36
_cell_length_a 15.896166
_cell_length_b 25.650870
_cell_length_c 5.261055
_cell_angle_alpha 90.000000
_cell_angle_beta 52.121956
_cell_angle_gamma 90.000000
_cell_volume 1693.246245
_symmetry_space_group_name_H-M "C 2/M"
_symmetry_group_IT_number 12
_symmetry_cell_setting 'monoclinic'
loop_
_space_group_symop_operation_xyz
x,y,z
-x,y,-z
-x,-y,-z
x,-y,z
1/2+x,1/2+y,z
1/2-x,1/2+y,-z
1/2-x,1/2-y,-z
1/2+x,1/2-y,z
loop_
_atom_site_type_symbol
_atom_site_label
_atom_site_fract_x
_atom_site_fract_y
_atom_site_fract_z
Si Si1 0.617049 0.751863 0.747788
Si Si2 0.116184 0.442262 0.664449
Si Si3 0.000000 0.379363 0.500000
Si Si4 0.618159 0.311770 0.246607
Si Si5 0.189756 0.351213 0.842563
O O1 0.630165 0.734828 0.429990
O O2 0.500000 0.774948 0.000000
O O3 0.633691 0.706483 0.928172
O O4 0.700915 0.799482 0.640645
O O5 0.167206 0.500000 0.542766
O O6 0.094734 0.415823 0.433650
O O7 0.195490 0.405358 0.677025
O O8 0.000000 0.446074 0.000000
O O9 0.069981 0.343859 0.181589
O O10 0.500000 0.337276 0.500000
O O11 0.712621 0.352850 0.137827
#
# Coordination Sequence:
#
# PCOD8105260 Si02
#       5
#     8   8   4   8   8
#     4  10  21  36  56  82 115 149 189 229 277 324
#     4   9  19  35  53  79 111 143 181 229 285 340
#     4  10  21  32  56  84 112 142 180 228 291 338
#     4  10  23  38  57  81 115 154 190 230 269 324
#     4  11  22  34  57  81 113 146 189 229 279 334
#
# _framework density 21.260936999999998
#
# number of rings (size 3 to 8) (size 9 to 14) (size 15 to 20)
#    0.000    2.000    0.000    3.667   10.889    0.889 
#    0.000    0.000    0.000    0.667    0.000    1.556 
#    0.000    0.000    0.000    0.000    0.000    0.000 
#
# Total GULP energy -223002.730963 kJ/mol
# GULP energy per Si atom -12389.040609 kJ/mol
# Density = 2.121255 g / cm^3
# Si number density = 21.260937 Si / 1000 Ang^3
#
#
#
# Elastic Constant Matrix: (Units=GPa)
#
#
# Indices 1 2 3 4 5 6 
#
# 1 134.9285 41.3650 7.0664 0.0000 2.4493 0.0000
# 2 41.3650 80.8439 0.8951 0.0000 11.8953 0.0000
# 3 7.0664 0.8951 56.0551 0.0000 10.7691 0.0000
# 4 0.0000 0.0000 0.0000 8.2144 0.0000 4.3072
# 5 2.4493 11.8953 10.7691 0.0000 37.1578 0.0000
# 6 0.0000 0.0000 0.0000 4.3072 0.0000 38.8671
#
#
#
# Elastic Compliance Matrix: (Units=1/GPa)
#
#
# Indices 1 2 3 4 5 6 
#
# 1 0.008907 -0.004735 -0.001298 0.000000 0.001305 0.000000
# 2 -0.004735 0.015519 0.001317 0.000000 -0.005038 0.000000
# 3 -0.001298 0.001317 0.019111 0.000000 -0.005875 0.000000
# 4 0.000000 0.000000 0.000000 0.129248 0.000000 -0.014323
# 5 0.001305 -0.005038 -0.005875 0.000000 0.030142 0.000000
# 6 0.000000 0.000000 0.000000 -0.014323 0.000000 0.027316
#
#
# Mechanical properties :
#
#
# Convention : Reuss Voigt Hill
#
# Bulk Modulus (GPa) = 29.32147 41.16449 35.24298
# Shear Modulus (GPa) = 19.91689 31.68127 25.79908
#
# Velocity S-wave (km/s) = 3.06401 3.86439 3.48724
# Velocity P-wave (km/s) = 5.13213 6.27016 5.72947
#
# Compressibility (1/GPa) = 0.03410471
#
# Stress axis : x y z
#
# Youngs Moduli (GPa) = 112.26774 64.43717 52.32639
#
# Poissons Ratio (x) = 0.30512 0.06792
# Poissons Ratio (y) = 0.53161 -0.06891
# Poissons Ratio (z) = 0.14572 -0.08486
#
# Static dielectric constant tensor:
#      x y z
#    x 4.276830 0.000000 0.094400 
#    y 0.000000 3.740330 0.000000 
#    z 0.094400 0.000000 3.941280 
# 
# 
# High freq. dielectric constant tensor:
#      x y z
#    x 1.845110 0.000000 0.015610 
#    y 0.000000 1.786940 0.000000 
#    z 0.015610 0.000000 1.834900 
# 
# From -- ./inp_files/11131.got.cif
#   From: 2010.06.25/outbox.cif.g09.slc.cpg/sg12_6_cif.got.tgz:11131.got - 2010.06.28 00:19:55.
