data_PCOD8105939
_publ_section_title
;
Structure prediction by ZEFSAII (Michael W. Deem and Ramdas Pophale) SiO2 
 PCOD8105939
Probable space group: C 2/M
;
_chemical_formula_sum "Si O2"
_cell_formula_units_Z 64
_cell_length_a 32.928402
_cell_length_b 9.118813
_cell_length_c 15.819434
_cell_angle_alpha 90.000000
_cell_angle_beta 135.146561
_cell_angle_gamma 90.000000
_cell_volume 3350.203193
_symmetry_space_group_name_H-M "C 2/M"
_symmetry_group_IT_number 12
_symmetry_cell_setting 'monoclinic'
loop_
_space_group_symop_operation_xyz
x,y,z
-x,y,-z
-x,-y,-z
x,-y,z
1/2+x,1/2+y,z
1/2-x,1/2+y,-z
1/2-x,1/2-y,-z
1/2+x,1/2-y,z
loop_
_atom_site_type_symbol
_atom_site_label
_atom_site_fract_x
_atom_site_fract_y
_atom_site_fract_z
Si Si1 0.281990 0.325606 0.624557
Si Si2 0.589053 0.673533 0.165068
Si Si3 0.412915 0.333642 0.315057
Si Si4 0.522072 0.673449 0.904176
Si Si5 0.276934 0.332096 0.119090
Si Si6 0.523269 0.168163 0.736559
Si Si7 0.911371 0.666740 0.477128
Si Si8 0.719775 0.829037 0.704738
O O1 0.278146 0.500000 0.607371
O O2 0.250000 0.250000 0.500000
O O3 0.347614 0.265746 0.720632
O O4 0.254301 0.276969 0.672895
O O5 0.591135 0.500000 0.165241
O O6 0.542812 0.724158 0.167166
O O7 0.567119 0.728469 0.041376
O O8 0.434496 0.500000 0.336386
O O9 0.344775 0.321448 0.208082
O O10 0.439755 0.231728 0.284397
O O11 0.433056 0.274559 0.435679
O O12 0.524781 0.500000 0.896984
O O13 0.541492 0.747774 0.847070
O O14 0.255644 0.500000 0.088876
O O15 0.258043 0.257610 0.179849
O O16 0.250000 0.250000 0.000000
O O17 0.454958 0.188029 0.619354
O O18 0.540196 0.000000 0.772413
O O19 0.913633 0.500000 0.446020
O O20 0.847198 0.706071 0.413007
O O21 0.730248 0.000000 0.738154
#
# Coordination Sequence:
#
# PCOD8105939 Si02
#       8
#     8   8   8   8   8   8   8   8
#     4  10  21  36  57  84 112 145 186 232 281 333
#     4   8  17  36  57  77 105 141 182 227 276 323
#     4  10  21  36  53  77 106 138 181 224 263 313
#     4   9  18  35  57  77 103 143 185 227 272 322
#     4  10  21  37  58  82 109 143 182 226 274 328
#     4  11  22  33  51  80 111 141 176 219 271 326
#     4   9  19  35  52  72 107 147 177 214 271 328
#     4   9  19  36  55  77 109 148 186 226 276 330
#
# _framework density 19.103318000000002
#
# number of rings (size 3 to 8) (size 9 to 14) (size 15 to 20)
#    0.000    2.500    0.000    2.250    1.750    5.500 
#    0.000    4.375    0.000    0.000    0.000    0.000 
#    0.000    0.000    0.000    0.000    0.000    0.000 
#
# Total GULP energy -396793.445929 kJ/mol
# GULP energy per Si atom -12399.795185 kJ/mol
# Density = 1.905984 g / cm^3
# Si number density = 19.103318 Si / 1000 Ang^3
#
#
#
# Elastic Constant Matrix: (Units=GPa)
#
#
# Indices 1 2 3 4 5 6 
#
# 1 91.1248 29.0622 48.1593 0.0000 -3.4695 0.0000
# 2 29.0622 70.9951 42.4716 0.0000 -6.3064 0.0000
# 3 48.1593 42.4716 107.6859 0.0000 -8.9057 0.0000
# 4 0.0000 0.0000 0.0000 31.8309 0.0000 -4.4262
# 5 -3.4695 -6.3064 -8.9057 0.0000 22.8755 0.0000
# 6 0.0000 0.0000 0.0000 -4.4262 0.0000 24.0869
#
#
#
# Elastic Compliance Matrix: (Units=1/GPa)
#
#
# Indices 1 2 3 4 5 6 
#
# 1 0.014778 -0.002779 -0.005570 0.000000 -0.000693 0.000000
# 2 -0.002779 0.019078 -0.006077 0.000000 0.002472 0.000000
# 3 -0.005570 -0.006077 0.014431 0.000000 0.003098 0.000000
# 4 0.000000 0.000000 0.000000 0.032240 0.000000 0.005924
# 5 -0.000693 0.002472 0.003098 0.000000 0.045497 0.000000
# 6 0.000000 0.000000 0.000000 0.005924 0.000000 0.042605
#
#
# Mechanical properties :
#
#
# Convention : Reuss Voigt Hill
#
# Bulk Modulus (GPa) = 51.45672 56.57690 54.01681
# Shear Modulus (GPa) = 24.51472 25.76616 25.14044
#
# Velocity S-wave (km/s) = 3.58616 3.67656 3.63164
# Velocity P-wave (km/s) = 6.64394 6.90676 6.77662
#
# Compressibility (1/GPa) = 0.01943381
#
# Stress axis : x y z
#
# Youngs Moduli (GPa) = 67.66989 52.41586 69.29738
#
# Poissons Ratio (x) = 0.14564 0.38601
# Poissons Ratio (y) = 0.18802 0.42115
# Poissons Ratio (z) = 0.37694 0.31855
#
# Static dielectric constant tensor:
#      x y z
#    x 3.586940 0.000000 0.145350 
#    y 0.000000 3.417420 0.000000 
#    z 0.145350 0.000000 3.600060 
# 
# 
# High freq. dielectric constant tensor:
#      x y z
#    x 1.743780 0.000000 0.000930 
#    y 0.000000 1.729990 0.000000 
#    z 0.000930 0.000000 1.746590 
# 
# From -- ./inp_files/249948.got.cif
#   From: 2010.06.25/outbox.cif.g09.slc.cpg/sg12_125_cif.got.tgz:249948.got - 2010.06.28 00:19:55.
