data_PCOD8105673
_publ_section_title
;
Structure prediction by ZEFSAII (Michael W. Deem and Ramdas Pophale) SiO2 
 PCOD8105673
Probable space group: C 2/M
;
_chemical_formula_sum "Si O2"
_cell_formula_units_Z 64
_cell_length_a 15.394978
_cell_length_b 8.924614
_cell_length_c 30.942530
_cell_angle_alpha 90.000000
_cell_angle_beta 50.942342
_cell_angle_gamma 90.000000
_cell_volume 3301.206236
_symmetry_space_group_name_H-M "C 2/M"
_symmetry_group_IT_number 12
_symmetry_cell_setting 'monoclinic'
loop_
_space_group_symop_operation_xyz
x,y,z
-x,y,-z
-x,-y,-z
x,-y,z
1/2+x,1/2+y,z
1/2-x,1/2+y,-z
1/2-x,1/2-y,-z
1/2+x,1/2-y,z
loop_
_atom_site_type_symbol
_atom_site_label
_atom_site_fract_x
_atom_site_fract_y
_atom_site_fract_z
Si Si1 0.501034 0.822717 0.568760
Si Si2 0.990261 0.321309 0.176292
Si Si3 0.480019 0.334756 0.056384
Si Si4 0.649051 0.831066 0.054085
Si Si5 0.200086 0.171989 0.821738
Si Si6 0.426592 0.325319 0.368949
Si Si7 0.435708 0.324701 0.759765
Si Si8 0.176175 0.677772 0.443859
O O1 0.502400 0.750255 0.615372
O O2 0.389708 0.767008 0.578388
O O3 0.609882 0.769758 0.507469
O O4 0.500101 0.000000 0.574303
O O5 0.970507 0.500000 0.181363
O O6 0.884673 0.240236 0.187166
O O7 0.005536 0.264022 0.219863
O O8 0.106901 0.278975 0.114783
O O9 0.525281 0.500000 0.056966
O O10 0.543010 0.194744 0.057018
O O11 0.352325 0.321257 0.113169
O O12 0.500000 0.318319 0.000000
O O13 0.687022 0.000000 0.043970
O O14 0.750000 0.750000 0.000000
O O15 0.312688 0.266420 0.787360
O O16 0.225928 0.000000 0.800808
O O17 0.420643 0.500000 0.380958
O O18 0.487238 0.291549 0.305286
O O19 0.301398 0.255617 0.405617
O O20 0.429723 0.500000 0.772960
O O21 0.179703 0.500000 0.441214
#
# Coordination Sequence:
#
# PCOD8105673 Si02
#       8
#     8   8   8   8   8   8   8   8
#     4   9  17  32  57  84 110 146 189 231 276 331
#     4  10  22  41  61  82 112 148 189 237 286 341
#     4   9  19  35  55  80 108 136 171 219 277 339
#     4  10  21  35  54  81 110 140 175 219 275 336
#     4  10  21  39  61  83 111 147 186 234 290 344
#     4  10  21  36  53  79 114 148 185 232 282 330
#     4  11  24  39  57  82 114 156 200 240 284 337
#     4   8  16  33  55  80 113 150 185 225 279 335
#
# _framework density 19.386852000000001
#
# number of rings (size 3 to 8) (size 9 to 14) (size 15 to 20)
#    0.000    2.375    0.000    2.625    1.750    4.250 
#    0.000    3.125    0.000    0.000    0.000    0.000 
#    0.000    0.000    0.000    0.000    0.000    0.000 
#
# Total GULP energy -396579.233996 kJ/mol
# GULP energy per Si atom -12393.101062 kJ/mol
# Density = 1.934273 g / cm^3
# Si number density = 19.386852 Si / 1000 Ang^3
#
#
#
# Elastic Constant Matrix: (Units=GPa)
#
#
# Indices 1 2 3 4 5 6 
#
# 1 90.1507 27.3460 44.8517 0.0002 10.7870 0.0003
# 2 27.3460 47.3943 42.1660 0.0004 10.0645 0.0006
# 3 44.8517 42.1660 89.5907 0.0001 9.8689 0.0002
# 4 0.0002 0.0004 0.0001 22.1012 0.0001 -0.7272
# 5 10.7870 10.0645 9.8689 0.0001 31.4111 0.0001
# 6 0.0003 0.0006 0.0002 -0.7272 0.0001 32.0237
#
#
#
# Elastic Compliance Matrix: (Units=1/GPa)
#
#
# Indices 1 2 3 4 5 6 
#
# 1 0.015254 -0.002979 -0.005969 0.000000 -0.002408 0.000000
# 2 -0.002979 0.038204 -0.015800 -0.000001 -0.006254 -0.000001
# 3 -0.005969 -0.015800 0.021549 0.000000 0.000342 0.000000
# 4 0.000000 -0.000001 0.000000 0.045280 0.000000 0.001028
# 5 -0.002408 -0.006254 0.000342 0.000000 0.034559 0.000000
# 6 0.000000 -0.000001 0.000000 0.001028 0.000000 0.031250
#
#
# Mechanical properties :
#
#
# Convention : Reuss Voigt Hill
#
# Bulk Modulus (GPa) = 39.20120 50.65145 44.92632
# Shear Modulus (GPa) = 20.48360 24.62533 22.55447
#
# Velocity S-wave (km/s) = 3.25402 3.56786 3.41455
# Velocity P-wave (km/s) = 5.86367 6.56934 6.22651
#
# Compressibility (1/GPa) = 0.02550943
#
# Stress axis : x y z
#
# Youngs Moduli (GPa) = 65.55553 26.17531 46.40604
#
# Poissons Ratio (x) = 0.07799 0.27700
# Poissons Ratio (y) = 0.19532 0.73323
# Poissons Ratio (z) = 0.39131 0.41358
#
# Static dielectric constant tensor:
#      x y z
#    x 3.547190 0.000000 -0.137500 
#    y 0.000000 3.485050 0.000000 
#    z -0.137500 0.000000 3.990170 
# 
# 
# High freq. dielectric constant tensor:
#      x y z
#    x 1.751730 0.000000 -0.000500 
#    y 0.000000 1.745000 0.000000 
#    z -0.000500 0.000000 1.761800 
# 
# From -- ./inp_files/375417.got.cif
#   From: 2010.06.25/outbox.cif.g09.slc.cpg/sg12_188_cif.got.tgz:375417.got - 2010.06.28 00:19:55.
