data_PCOD8105909
_publ_section_title
;
Structure prediction by ZEFSAII (Michael W. Deem and Ramdas Pophale) SiO2 
 PCOD8105909
Probable space group: C 2/M
;
_chemical_formula_sum "Si O2"
_cell_formula_units_Z 64
_cell_length_a 14.551076
_cell_length_b 18.037307
_cell_length_c 14.996262
_cell_angle_alpha 90.000000
_cell_angle_beta 101.638637
_cell_angle_gamma 90.000000
_cell_volume 3855.026874
_symmetry_space_group_name_H-M "C 2/M"
_symmetry_group_IT_number 12
_symmetry_cell_setting 'monoclinic'
loop_
_space_group_symop_operation_xyz
x,y,z
-x,y,-z
-x,-y,-z
x,-y,z
1/2+x,1/2+y,z
1/2-x,1/2+y,-z
1/2-x,1/2-y,-z
1/2+x,1/2-y,z
loop_
_atom_site_type_symbol
_atom_site_label
_atom_site_fract_x
_atom_site_fract_y
_atom_site_fract_z
Si Si1 0.371923 0.412559 0.411875
Si Si2 0.379324 0.194709 0.066936
Si Si3 0.572469 0.587763 0.387587
Si Si4 0.406262 0.193354 0.868228
Si Si5 0.717223 0.584741 0.078726
Si Si6 0.908265 0.144446 0.798243
Si Si7 0.879320 0.139044 0.112788
Si Si8 0.740122 0.085998 0.234364
O O1 0.380212 0.500000 0.406071
O O2 0.362544 0.390519 0.514262
O O3 0.468005 0.381802 0.387702
O O4 0.283051 0.384894 0.336850
O O5 0.485578 0.169690 0.105571
O O6 0.311168 0.133556 0.094267
O O7 0.359249 0.273022 0.110378
O O8 0.361318 0.202117 0.957590
O O9 0.573918 0.500000 0.369976
O O10 0.611536 0.630451 0.309605
O O11 0.391270 0.269656 0.814027
O O12 0.354912 0.129602 0.803076
O O13 0.748519 0.500000 0.072950
O O14 0.666051 0.595055 0.162828
O O15 0.643096 0.607512 0.988764
O O16 0.012910 0.120261 0.846004
O O17 0.816247 0.098210 0.172569
O O18 0.713584 0.000000 0.233575
#
# Coordination Sequence:
#
# PCOD8105909 Si02
#       8
#     8   8   8   8   8   8   8   8
#     4   8  16  30  50  75 104 132 157 197 253 302
#     4  10  21  38  51  64  98 143 178 202 241 293
#     4   9  16  30  50  75 106 134 160 194 245 308
#     4  10  21  36  53  69  94 137 178 210 244 289
#     4  12  23  32  48  75 104 133 169 210 246 290
#     4  11  21  33  50  75 105 136 164 196 248 308
#     4  11  20  33  50  71 103 135 163 199 244 303
#     4  11  20  32  53  79  99 125 168 214 253 289
#
# _framework density 16.601700000000001
#
# number of rings (size 3 to 8) (size 9 to 14) (size 15 to 20)
#    0.000    1.750    3.750    3.000    0.000    2.500 
#    0.000    1.875    0.000    0.000    0.000    0.000 
#    0.000    4.000    0.000    0.000    0.000    0.000 
#
# Total GULP energy -396831.627290 kJ/mol
# GULP energy per Si atom -12400.988353 kJ/mol
# Density = 1.656391 g / cm^3
# Si number density = 16.601700 Si / 1000 Ang^3
#
#
#
# Elastic Constant Matrix: (Units=GPa)
#
#
# Indices 1 2 3 4 5 6 
#
# 1 58.8042 28.2076 35.6016 0.0000 -0.6688 0.0000
# 2 28.2076 67.0005 31.3820 0.0000 2.6538 0.0000
# 3 35.6016 31.3820 123.3992 0.0000 1.1060 0.0000
# 4 0.0000 0.0000 0.0000 19.4751 0.0000 4.0687
# 5 -0.6688 2.6538 1.1060 0.0000 24.7699 0.0000
# 6 0.0000 0.0000 0.0000 4.0687 0.0000 15.2849
#
#
#
# Elastic Compliance Matrix: (Units=1/GPa)
#
#
# Indices 1 2 3 4 5 6 
#
# 1 0.023701 -0.007760 -0.004880 0.000000 0.001689 0.000000
# 2 -0.007760 0.019550 -0.002713 0.000000 -0.002183 0.000000
# 3 -0.004880 -0.002713 0.010204 0.000000 -0.000297 0.000000
# 4 0.000000 0.000000 0.000000 0.054371 0.000000 -0.014473
# 5 0.001689 -0.002183 -0.000297 0.000000 0.040664 0.000000
# 6 0.000000 0.000000 0.000000 -0.014473 0.000000 0.069276
#
#
# Mechanical properties :
#
#
# Convention : Reuss Voigt Hill
#
# Bulk Modulus (GPa) = 43.95707 48.84294 46.40000
# Shear Modulus (GPa) = 19.52697 22.17351 20.85024
#
# Velocity S-wave (km/s) = 3.43330 3.65857 3.54773
# Velocity P-wave (km/s) = 6.50013 6.87977 6.69264
#
# Compressibility (1/GPa) = 0.02274947
#
# Stress axis : x y z
#
# Youngs Moduli (GPa) = 42.19157 51.15212 97.99751
#
# Poissons Ratio (x) = 0.39693 0.47821
# Poissons Ratio (y) = 0.32740 0.26590
# Poissons Ratio (z) = 0.20589 0.13880
#
# Static dielectric constant tensor:
#      x y z
#    x 3.072300 0.000000 0.135620 
#    y 0.000000 2.969860 0.000000 
#    z 0.135620 0.000000 3.345700 
# 
# 
# High freq. dielectric constant tensor:
#      x y z
#    x 1.629220 0.000000 0.003680 
#    y 0.000000 1.625200 0.000000 
#    z 0.003680 0.000000 1.637010 
# 
# From -- ./inp_files/215966.got.cif
#   From: 2010.06.25/outbox.cif.g09.slc.cpg/sg12_108_cif.got.tgz:215966.got - 2010.06.28 00:19:55.
