data_PCOD8105275
_publ_section_title
;
Structure prediction by ZEFSAII (Michael W. Deem and Ramdas Pophale) SiO2 
 PCOD8105275
Probable space group: C 2/M
;
_chemical_formula_sum "Si O2"
_cell_formula_units_Z 64
_cell_length_a 14.573897
_cell_length_b 9.176335
_cell_length_c 28.160273
_cell_angle_alpha 90.000000
_cell_angle_beta 121.105642
_cell_angle_gamma 90.000000
_cell_volume 3224.521416
_symmetry_space_group_name_H-M "C 2/M"
_symmetry_group_IT_number 12
_symmetry_cell_setting 'monoclinic'
loop_
_space_group_symop_operation_xyz
x,y,z
-x,y,-z
-x,-y,-z
x,-y,z
1/2+x,1/2+y,z
1/2-x,1/2+y,-z
1/2-x,1/2-y,-z
1/2+x,1/2-y,z
loop_
_atom_site_type_symbol
_atom_site_label
_atom_site_fract_x
_atom_site_fract_y
_atom_site_fract_z
Si Si1 0.477939 0.326618 0.697728
Si Si2 0.727650 0.839561 0.127138
Si Si3 0.503378 0.158020 0.109947
Si Si4 0.919137 0.168313 0.787511
Si Si5 0.672119 0.168908 0.415746
Si Si6 0.311471 0.829511 0.231516
Si Si7 0.335554 0.827598 0.991691
Si Si8 0.386180 0.167863 0.492634
O O1 0.486028 0.500000 0.694720
O O2 0.440175 0.277210 0.739994
O O3 0.391842 0.265392 0.638488
O O4 0.592590 0.254539 0.716410
O O5 0.627746 0.860341 0.134595
O O6 0.806881 0.730341 0.175853
O O7 0.781893 0.000000 0.134410
O O8 0.683492 0.768586 0.066553
O O9 0.492708 0.260983 0.153066
O O10 0.448427 0.216976 0.046426
O O11 0.452287 0.000000 0.108648
O O12 0.796397 0.204075 0.768058
O O13 0.942354 0.000000 0.798782
O O14 0.612308 0.187461 0.450156
O O15 0.793611 0.228090 0.447679
O O16 0.674448 0.000000 0.401062
O O17 0.336866 0.000000 0.236446
O O18 0.321928 0.000000 0.986602
O O19 0.250000 0.750000 0.000000
O O20 0.500000 0.214942 0.500000
O O21 0.360562 0.000000 0.472420
#
# Coordination Sequence:
#
# PCOD8105275 Si02
#       8
#     8   8   8   8   8   8   8   8
#     4  11  23  39  59  82 115 156 191 228 280 335
#     4   9  18  35  55  73  99 135 173 217 274 339
#     4   9  18  34  55  75  97 131 175 222 272 328
#     4   9  21  39  57  78 107 145 185 228 281 338
#     4  10  21  37  58  89 122 152 194 239 276 319
#     4  10  21  38  58  81 108 140 186 237 281 330
#     4  10  21  33  48  74 103 132 168 214 270 334
#     4   9  19  38  63  88 120 161 195 228 277 331
#
# _framework density 19.847905999999998
#
# number of rings (size 3 to 8) (size 9 to 14) (size 15 to 20)
#    0.000    2.375    0.000    1.500    1.750    5.750 
#    0.000    5.000    0.000    3.750    0.000    0.000 
#    0.000    0.000    0.000    0.000    0.000    0.000 
#
# Total GULP energy -396599.242103 kJ/mol
# GULP energy per Si atom -12393.726316 kJ/mol
# Density = 1.980273 g / cm^3
# Si number density = 19.847906 Si / 1000 Ang^3
#
#
#
# Elastic Constant Matrix: (Units=GPa)
#
#
# Indices 1 2 3 4 5 6 
#
# 1 67.1996 26.1179 20.3999 0.0000 2.5786 0.0000
# 2 26.1179 67.0948 37.8287 0.0000 5.6558 0.0000
# 3 20.3999 37.8287 102.3669 0.0000 6.9623 0.0000
# 4 0.0000 0.0000 0.0000 31.9718 0.0000 2.6935
# 5 2.5786 5.6558 6.9623 0.0000 25.3277 0.0000
# 6 0.0000 0.0000 0.0000 2.6935 0.0000 27.3075
#
#
#
# Elastic Compliance Matrix: (Units=1/GPa)
#
#
# Indices 1 2 3 4 5 6 
#
# 1 0.017657 -0.006172 -0.001233 0.000000 -0.000081 0.000000
# 2 -0.006172 0.021121 -0.006417 0.000000 -0.002324 0.000000
# 3 -0.001233 -0.006417 0.012514 0.000000 -0.001881 0.000000
# 4 0.000000 0.000000 0.000000 0.031540 0.000000 -0.003111
# 5 -0.000081 -0.002324 -0.001881 0.000000 0.040527 0.000000
# 6 0.000000 0.000000 0.000000 -0.003111 0.000000 0.036927
#
#
# Mechanical properties :
#
#
# Convention : Reuss Voigt Hill
#
# Bulk Modulus (GPa) = 42.28506 45.03936 43.66221
# Shear Modulus (GPa) = 25.53501 27.07573 26.30537
#
# Velocity S-wave (km/s) = 3.59072 3.69746 3.64448
# Velocity P-wave (km/s) = 6.20821 6.40077 6.30522
#
# Compressibility (1/GPa) = 0.02364902
#
# Stress axis : x y z
#
# Youngs Moduli (GPa) = 56.63487 47.34733 79.91244
#
# Poissons Ratio (x) = 0.29221 0.09850
# Poissons Ratio (y) = 0.34952 0.51279
# Poissons Ratio (z) = 0.06981 0.30382
#
# Static dielectric constant tensor:
#      x y z
#    x 3.560950 0.000000 -0.053770 
#    y 0.000000 3.670480 0.000000 
#    z -0.053770 0.000000 3.475470 
# 
# 
# High freq. dielectric constant tensor:
#      x y z
#    x 1.768340 0.000000 0.004130 
#    y 0.000000 1.770720 0.000000 
#    z 0.004130 0.000000 1.777080 
# 
# From -- ./inp_files/375115.got.cif
#   From: 2010.06.25/outbox.cif.g09.slc.cpg/sg12_188_cif.got.tgz:375115.got - 2010.06.28 00:19:55.
