data_PCOD8105730
_publ_section_title
;
Structure prediction by ZEFSAII (Michael W. Deem and Ramdas Pophale) SiO2 
 PCOD8105730
Probable space group: C 2/M
;
_chemical_formula_sum "Si O2"
_cell_formula_units_Z 56
_cell_length_a 13.531343
_cell_length_b 17.143805
_cell_length_c 18.006214
_cell_angle_alpha 90.000000
_cell_angle_beta 44.000556
_cell_angle_gamma 90.000000
_cell_volume 2901.657614
_symmetry_space_group_name_H-M "C 2/M"
_symmetry_group_IT_number 12
_symmetry_cell_setting 'monoclinic'
loop_
_space_group_symop_operation_xyz
x,y,z
-x,y,-z
-x,-y,-z
x,-y,z
1/2+x,1/2+y,z
1/2-x,1/2+y,-z
1/2-x,1/2-y,-z
1/2+x,1/2-y,z
loop_
_atom_site_type_symbol
_atom_site_label
_atom_site_fract_x
_atom_site_fract_y
_atom_site_fract_z
Si Si1 0.361573 0.909498 0.526683
Si Si2 0.343210 0.586640 0.611692
Si Si3 0.716887 0.195255 0.789709
Si Si4 0.830202 0.313729 0.408838
Si Si5 0.112763 0.190825 0.732658
Si Si6 0.534363 0.915965 0.066712
Si Si7 0.708112 0.316096 0.081091
O O1 0.500000 0.894954 0.500000
O O2 0.410462 0.870275 0.422679
O O3 0.216722 0.872296 0.638445
O O4 0.327790 0.000000 0.533421
O O5 0.500000 0.574445 0.500000
O O6 0.277929 0.500000 0.663115
O O7 0.340589 0.640995 0.687157
O O8 0.269024 0.630417 0.584673
O O9 0.698343 0.278618 0.759064
O O10 0.571913 0.149520 0.845610
O O11 0.747800 0.210654 0.859229
O O12 0.750000 0.250000 0.500000
O O13 0.927426 0.263691 0.300087
O O14 0.956872 0.157124 0.837007
O O15 0.513835 0.000000 0.118035
O O16 0.500000 0.926875 0.000000
O O17 0.697903 0.891131 0.990412
O O18 0.750000 0.250000 0.000000
#
# Coordination Sequence:
#
# PCOD8105730 Si02
#       7
#     8   8   8   8   8   8   8
#     4  10  22  39  58  84 120 160 197 237 287 348
#     4  10  21  35  55  85 120 153 186 235 295 353
#     4  10  21  36  58  83 119 153 191 244 293 358
#     4   9  20  35  55  83 116 152 194 236 282 348
#     4  10  22  36  60  88 112 154 199 242 294 347
#     4   9  18  35  56  81 113 148 188 239 297 349
#     4  11  22  37  60  88 114 151 200 248 303 349
#
# _framework density 19.299313999999999
#
# number of rings (size 3 to 8) (size 9 to 14) (size 15 to 20)
#    0.000    2.143    1.429    0.857    6.000    5.143 
#    0.000    0.000    0.000    0.857    0.000    2.000 
#    0.000    0.000    0.000    0.000    0.000    0.000 
#
# Total GULP energy -346887.072338 kJ/mol
# GULP energy per Si atom -12388.824012 kJ/mol
# Density = 1.925539 g / cm^3
# Si number density = 19.299314 Si / 1000 Ang^3
#
#
#
# Elastic Constant Matrix: (Units=GPa)
#
#
# Indices 1 2 3 4 5 6 
#
# 1 69.7263 50.7443 32.4267 0.0000 8.7619 -0.0001
# 2 50.7443 97.8384 28.0084 0.0001 1.8037 -0.0001
# 3 32.4267 28.0084 80.4747 0.0001 -5.3565 -0.0002
# 4 0.0000 0.0001 0.0001 27.9201 -0.0001 7.4714
# 5 8.7619 1.8037 -5.3565 -0.0001 43.0799 0.0001
# 6 -0.0001 -0.0001 -0.0002 7.4714 0.0001 12.4936
#
#
#
# Elastic Compliance Matrix: (Units=1/GPa)
#
#
# Indices 1 2 3 4 5 6 
#
# 1 0.027054 -0.011873 -0.007161 0.000000 -0.005896 0.000000
# 2 -0.011873 0.016603 -0.000887 0.000000 0.001609 0.000000
# 3 -0.007161 -0.000887 0.015851 0.000000 0.003465 0.000000
# 4 0.000000 0.000000 0.000000 0.042640 0.000000 -0.025499
# 5 -0.005896 0.001609 0.003465 0.000000 0.024775 0.000000
# 6 0.000000 0.000000 0.000000 -0.025499 0.000000 0.095290
#
#
# Mechanical properties :
#
#
# Convention : Reuss Voigt Hill
#
# Bulk Modulus (GPa) = 50.85120 52.26647 51.55884
# Shear Modulus (GPa) = 18.61426 25.82272 22.21849
#
# Velocity S-wave (km/s) = 3.10902 3.66185 3.39670
# Velocity P-wave (km/s) = 6.26848 6.70967 6.49283
#
# Compressibility (1/GPa) = 0.01966522
#
# Stress axis : x y z
#
# Youngs Moduli (GPa) = 36.96373 60.22958 63.08625
#
# Poissons Ratio (x) = 0.71509 0.45178
# Poissons Ratio (y) = 0.43886 0.05599
# Poissons Ratio (z) = 0.26471 0.05345
#
# Static dielectric constant tensor:
#      x y z
#    x 3.513130 0.000000 0.141130 
#    y 0.000000 3.758040 0.000000 
#    z 0.141130 0.000000 3.745280 
# 
# 
# High freq. dielectric constant tensor:
#      x y z
#    x 1.738250 0.000000 0.004560 
#    y 0.000000 1.750160 0.000000 
#    z 0.004560 0.000000 1.755410 
# 
# From -- ./inp_files/264199.got.cif
#   From: 2010.06.25/outbox.cif.g09.slc.cpg/sg12_133_cif.got.tgz:264199.got - 2010.06.28 00:19:55.
