data_PCOD8105156
_publ_section_title
;
Structure prediction by ZEFSAII (Michael W. Deem and Ramdas Pophale) SiO2 
 PCOD8105156
Probable space group: C 2/M
;
_chemical_formula_sum "Si O2"
_cell_formula_units_Z 40
_cell_length_a 18.847101
_cell_length_b 8.759503
_cell_length_c 11.931558
_cell_angle_alpha 90.000000
_cell_angle_beta 103.624165
_cell_angle_gamma 90.000000
_cell_volume 1914.369057
_symmetry_space_group_name_H-M "C 2/M"
_symmetry_group_IT_number 12
_symmetry_cell_setting 'monoclinic'
loop_
_space_group_symop_operation_xyz
x,y,z
-x,y,-z
-x,-y,-z
x,-y,z
1/2+x,1/2+y,z
1/2-x,1/2+y,-z
1/2-x,1/2-y,-z
1/2+x,1/2-y,z
loop_
_atom_site_type_symbol
_atom_site_label
_atom_site_fract_x
_atom_site_fract_y
_atom_site_fract_z
Si Si1 0.114390 0.821667 0.217989
Si Si2 0.321390 0.179357 0.970629
Si Si3 0.828448 0.321834 0.538445
Si Si4 0.426152 0.673197 0.405309
Si Si5 0.552339 0.323828 0.843648
O O1 0.169673 0.743718 0.151496
O O2 0.125699 0.753707 0.344904
O O3 0.030800 0.792702 0.149138
O O4 0.131872 0.000000 0.229505
O O5 0.310252 0.000000 0.959509
O O6 0.250000 0.250000 0.000000
O O7 0.393828 0.217374 0.067037
O O8 0.822374 0.500000 0.558003
O O9 0.750000 0.250000 0.500000
O O10 0.867583 0.288732 0.435040
O O11 0.500000 0.692037 0.500000
O O12 0.396774 0.500000 0.403634
O O13 0.439421 0.719805 0.282715
O O14 0.573156 0.500000 0.873880
#
# Coordination Sequence:
#
# PCOD8105156 Si02
#       5
#     8   8   8   8   8
#     4  11  23  45  71  96 128 169 217 265 323 388
#     4  12  27  45  66  95 131 170 216 270 325 382
#     4  12  26  42  64  96 135 175 216 265 321 381
#     4  10  20  41  68  97 131 170 214 260 316 383
#     4  10  22  42  70  97 129 171 214 263 322 386
#
# _framework density 20.894611999999999
#
# number of rings (size 3 to 8) (size 9 to 14) (size 15 to 20)
#    0.000    1.000    2.000    4.800    2.800    5.200 
#    0.000    0.000    0.000    0.000    0.000    0.000 
#    0.000    0.000    0.000    0.000    0.000    0.000 
#
# Total GULP energy -248120.954572 kJ/mol
# GULP energy per Si atom -12406.047729 kJ/mol
# Density = 2.084706 g / cm^3
# Si number density = 20.894612 Si / 1000 Ang^3
#
#
#
# Elastic Constant Matrix: (Units=GPa)
#
#
# Indices 1 2 3 4 5 6 
#
# 1 105.5159 59.6240 18.7236 0.0000 -19.6016 0.0000
# 2 59.6240 149.3722 30.8770 0.0000 -7.5111 0.0000
# 3 18.7236 30.8770 54.9241 0.0000 -14.0796 0.0000
# 4 0.0000 0.0000 0.0000 39.0641 0.0000 -2.1848
# 5 -19.6016 -7.5111 -14.0796 0.0000 40.8855 0.0000
# 6 0.0000 0.0000 0.0000 -2.1848 0.0000 37.6331
#
#
#
# Elastic Compliance Matrix: (Units=1/GPa)
#
#
# Indices 1 2 3 4 5 6 
#
# 1 0.013356 -0.004984 -0.000378 0.000000 0.005357 0.000000
# 2 -0.004984 0.009435 -0.004139 0.000000 -0.002081 0.000000
# 3 -0.000378 -0.004139 0.022398 0.000000 0.006772 0.000000
# 4 0.000000 0.000000 0.000000 0.025682 0.000000 0.001491
# 5 0.005357 -0.002081 0.006772 0.000000 0.028977 0.000000
# 6 0.000000 0.000000 0.000000 0.001491 0.000000 0.026659
#
#
# Mechanical properties :
#
#
# Convention : Reuss Voigt Hill
#
# Bulk Modulus (GPa) = 38.18478 58.69572 48.44025
# Shear Modulus (GPa) = 32.41780 36.88906 34.65343
#
# Velocity S-wave (km/s) = 3.94317 4.20632 4.07687
# Velocity P-wave (km/s) = 6.24868 7.19327 6.73755
#
# Compressibility (1/GPa) = 0.02618845
#
# Stress axis : x y z
#
# Youngs Moduli (GPa) = 74.87494 105.99069 44.64623
#
# Poissons Ratio (x) = 0.52821 0.01687
# Poissons Ratio (y) = 0.37314 0.18477
# Poissons Ratio (z) = 0.02830 0.43866
#
# Static dielectric constant tensor:
#      x y z
#    x 3.648260 0.000000 0.120080 
#    y 0.000000 3.849380 0.000000 
#    z 0.120080 0.000000 3.614050 
# 
# 
# High freq. dielectric constant tensor:
#      x y z
#    x 1.829550 0.000000 -0.007950 
#    y 0.000000 1.816240 0.000000 
#    z -0.007950 0.000000 1.831230 
# 
# From -- ./inp_files/151663.got.cif
#   From: 2010.06.25/outbox.cif.g09.slc.cpg/sg12_76_cif.got.tgz:151663.got - 2010.06.28 00:19:55.
