data_PCOD8105722
_publ_section_title
;
Structure prediction by ZEFSAII (Michael W. Deem and Ramdas Pophale) SiO2 
 PCOD8105722
Probable space group: C 2/M
;
_chemical_formula_sum "Si O2"
_cell_formula_units_Z 48
_cell_length_a 27.405100
_cell_length_b 9.100478
_cell_length_c 14.477143
_cell_angle_alpha 90.000000
_cell_angle_beta 139.467370
_cell_angle_gamma 90.000000
_cell_volume 2346.455358
_symmetry_space_group_name_H-M "C 2/M"
_symmetry_group_IT_number 12
_symmetry_cell_setting 'monoclinic'
loop_
_space_group_symop_operation_xyz
x,y,z
-x,y,-z
-x,-y,-z
x,-y,z
1/2+x,1/2+y,z
1/2-x,1/2+y,-z
1/2-x,1/2-y,-z
1/2+x,1/2-y,z
loop_
_atom_site_type_symbol
_atom_site_label
_atom_site_fract_x
_atom_site_fract_y
_atom_site_fract_z
Si Si1 0.362215 0.665872 0.173019
Si Si2 0.927046 0.672924 0.843136
Si Si3 0.002990 0.330589 0.396897
Si Si4 0.230649 0.674470 0.304339
Si Si5 0.759913 0.333206 0.158661
Si Si6 0.873754 0.329825 0.570125
O O1 0.368845 0.500000 0.219864
O O2 0.442556 0.729062 0.257925
O O3 0.332696 0.769628 0.212490
O O4 0.310650 0.672416 0.009758
O O5 0.929990 0.500000 0.862533
O O6 0.849556 0.733377 0.775078
O O7 0.926692 0.713102 0.733478
O O8 0.000000 0.743337 0.000000
O O9 0.981281 0.500000 0.350619
O O10 0.083119 0.297429 0.464313
O O11 0.000000 0.286889 0.500000
O O12 0.235088 0.500000 0.312534
O O13 0.240375 0.731540 0.215483
O O14 0.297318 0.737084 0.464155
O O15 0.778326 0.500000 0.216634
O O16 0.850993 0.500000 0.545082
#
# Coordination Sequence:
#
# PCOD8105722 Si02
#       6
#     8   8   8   8   8   8
#     4  10  21  36  56  84 117 153 195 246 295 343
#     4   9  20  38  60  88 117 152 203 250 294 352
#     4  10  21  35  55  84 117 157 200 238 288 354
#     4  11  22  36  61  89 117 152 197 251 297 347
#     4  10  21  37  57  83 118 156 195 238 294 361
#     4  10  21  38  61  85 119 164 200 242 297 354
#
# _framework density 20.456386999999999
#
# number of rings (size 3 to 8) (size 9 to 14) (size 15 to 20)
#    0.000    2.000    0.000    3.000    2.333    4.333 
#    0.000    0.833    0.000    2.500    0.000    0.000 
#    0.000    0.000    0.000    0.000    0.000    0.000 
#
# Total GULP energy -297615.153980 kJ/mol
# GULP energy per Si atom -12400.631416 kJ/mol
# Density = 2.040983 g / cm^3
# Si number density = 20.456387 Si / 1000 Ang^3
#
#
#
# Elastic Constant Matrix: (Units=GPa)
#
#
# Indices 1 2 3 4 5 6 
#
# 1 86.6180 25.6225 74.5265 0.0000 3.1751 0.0000
# 2 25.6225 74.6803 50.0120 0.0000 12.8445 0.0000
# 3 74.5265 50.0120 109.2500 0.0000 14.1250 0.0000
# 4 0.0000 0.0000 0.0000 2.4699 0.0000 39.7555
# 5 3.1751 12.8445 14.1250 0.0000 35.9213 0.0000
# 6 0.0000 0.0000 0.0000 39.7555 0.0000 -17.0911
#
#
#
# Elastic Compliance Matrix: (Units=1/GPa)
#
#
# Indices 1 2 3 4 5 6 
#
# 1 0.029846 0.004298 -0.022954 0.000000 0.004851 0.000000
# 2 0.004298 0.020385 -0.011876 0.000000 -0.002999 0.000000
# 3 -0.022954 -0.011876 0.031014 0.000000 -0.005920 0.000000
# 4 0.000000 0.000000 0.000000 0.010532 0.000000 0.024499
# 5 0.004851 -0.002999 -0.005920 0.000000 0.030810 0.000000
# 6 0.000000 0.000000 0.000000 0.024499 0.000000 -0.001522
#
#
# Mechanical properties :
#
#
# Convention : Reuss Voigt Hill
#
# Bulk Modulus (GPa) = 49.55480 63.43004 56.49242
# Shear Modulus (GPa) = 26.47521 12.28584 19.38053
#
# Velocity S-wave (km/s) = 3.60144 2.45335 3.08134
# Velocity P-wave (km/s) = 6.44756 6.25300 6.35102
#
# Compressibility (1/GPa) = 0.02017968
#
# Stress axis : x y z
#
# Youngs Moduli (GPa) = 33.50542 49.05679 32.24368
#
# Poissons Ratio (x) = -0.21084 0.74014
# Poissons Ratio (y) = -0.14400 0.38291
# Poissons Ratio (z) = 0.76910 0.58258
#
# Static dielectric constant tensor:
#      x y z
#    x 3.752020 0.000000 0.094250 
#    y 0.000000 3.562900 0.000000 
#    z 0.094250 0.000000 3.851820 
# 
# 
# High freq. dielectric constant tensor:
#      x y z
#    x 1.801240 0.000000 0.002190 
#    y 0.000000 1.780850 0.000000 
#    z 0.002190 0.000000 1.811420 
# 
# From -- ./inp_files/244853.got.cif
#   From: 2010.06.25/outbox.cif.g09.slc.cpg/sg12_123_cif.got.tgz:244853.got - 2010.06.28 00:19:55.
