data_PCOD8105677
_publ_section_title
;
Structure prediction by ZEFSAII (Michael W. Deem and Ramdas Pophale) SiO2 
 PCOD8105677
Probable space group: C 2/M
;
_chemical_formula_sum "Si O2"
_cell_formula_units_Z 48
_cell_length_a 8.899144
_cell_length_b 24.375830
_cell_length_c 11.730730
_cell_angle_alpha 90.000000
_cell_angle_beta 103.055726
_cell_angle_gamma 90.000000
_cell_volume 2478.899297
_symmetry_space_group_name_H-M "C 2/M"
_symmetry_group_IT_number 12
_symmetry_cell_setting 'monoclinic'
loop_
_space_group_symop_operation_xyz
x,y,z
-x,y,-z
-x,-y,-z
x,-y,z
1/2+x,1/2+y,z
1/2-x,1/2+y,-z
1/2-x,1/2-y,-z
1/2+x,1/2-y,z
loop_
_atom_site_type_symbol
_atom_site_label
_atom_site_fract_x
_atom_site_fract_y
_atom_site_fract_z
Si Si1 0.058904 0.639886 0.390689
Si Si2 0.336239 0.564018 0.411809
Si Si3 0.743684 0.155429 0.763881
Si Si4 0.074919 0.146831 0.739701
Si Si5 0.267329 0.267739 0.371259
Si Si6 0.329526 0.692433 0.010474
O O1 0.185180 0.592828 0.442298
O O2 0.125814 0.689876 0.326667
O O3 0.000000 0.665086 0.500000
O O4 0.905106 0.619202 0.298153
O O5 0.500000 0.577380 0.500000
O O6 0.302668 0.500000 0.400478
O O7 0.348175 0.590036 0.288398
O O8 0.735728 0.217674 0.715837
O O9 0.899114 0.130806 0.737374
O O10 0.747439 0.154173 0.901807
O O11 0.083994 0.194538 0.641780
O O12 0.172917 0.164047 0.866978
O O13 0.250000 0.250000 0.500000
O O14 0.500000 0.704821 0.000000
O O15 0.250000 0.750000 0.000000
#
# Coordination Sequence:
#
# PCOD8105677 Si02
#       6
#     8   8   8   8   8   8
#     4  11  22  35  55  86 116 152 195 241 288 351
#     4  10  23  43  64  84 110 149 197 253 311 356
#     4  11  21  34  54  84 122 157 194 232 283 346
#     4  10  22  37  57  83 118 158 197 238 286 350
#     4  11  21  32  50  82 125 162 187 225 283 355
#     4  10  21  35  54  81 120 163 197 229 275 338
#
# _framework density 19.363432
#
# number of rings (size 3 to 8) (size 9 to 14) (size 15 to 20)
#    0.000    1.500    3.333    2.000    4.667    0.333 
#    0.000    0.833    0.000    6.500    0.000    0.000 
#    0.000    0.000    0.000    0.000    0.000    0.000 
#
# Total GULP energy -297327.916702 kJ/mol
# GULP energy per Si atom -12388.663196 kJ/mol
# Density = 1.931936 g / cm^3
# Si number density = 19.363432 Si / 1000 Ang^3
#
#
#
# Elastic Constant Matrix: (Units=GPa)
#
#
# Indices 1 2 3 4 5 6 
#
# 1 96.4510 27.6483 46.1914 0.0000 9.7207 0.0000
# 2 27.6483 70.6881 23.6219 0.0000 -2.0727 0.0000
# 3 46.1914 23.6219 111.6289 0.0000 1.6037 0.0000
# 4 0.0000 0.0000 0.0000 17.2901 0.0000 3.4035
# 5 9.7207 -2.0727 1.6037 0.0000 32.2586 0.0000
# 6 0.0000 0.0000 0.0000 3.4035 0.0000 21.4287
#
#
#
# Elastic Compliance Matrix: (Units=1/GPa)
#
#
# Indices 1 2 3 4 5 6 
#
# 1 0.014380 -0.004072 -0.005026 0.000000 -0.004345 0.000000
# 2 -0.004072 0.016418 -0.001823 0.000000 0.002373 0.000000
# 3 -0.005026 -0.001823 0.011412 0.000000 0.000830 0.000000
# 4 0.000000 0.000000 0.000000 0.059703 0.000000 -0.009483
# 5 -0.004345 0.002373 0.000830 0.000000 0.032420 0.000000
# 6 0.000000 0.000000 0.000000 -0.009483 0.000000 0.048172
#
#
# Mechanical properties :
#
#
# Convention : Reuss Voigt Hill
#
# Bulk Modulus (GPa) = 49.09952 52.63237 50.86594
# Shear Modulus (GPa) = 23.68102 26.28255 24.98179
#
# Velocity S-wave (km/s) = 3.50090 3.68819 3.59577
# Velocity P-wave (km/s) = 6.46170 6.73627 6.60042
#
# Compressibility (1/GPa) = 0.02036680
#
# Stress axis : x y z
#
# Youngs Moduli (GPa) = 69.53891 60.90752 87.62678
#
# Poissons Ratio (x) = 0.24804 0.44044
# Poissons Ratio (y) = 0.28319 0.15977
# Poissons Ratio (z) = 0.34953 0.11105
#
# Static dielectric constant tensor:
#      x y z
#    x 4.076860 0.000000 -0.099970 
#    y 0.000000 3.115050 0.000000 
#    z -0.099970 0.000000 3.868160 
# 
# 
# High freq. dielectric constant tensor:
#      x y z
#    x 1.777160 0.000000 -0.008520 
#    y 0.000000 1.702570 0.000000 
#    z -0.008520 0.000000 1.750100 
# 
# From -- ./inp_files/121844.got.cif
#   From: 2010.06.25/outbox.cif.g09.slc.cpg/sg12_61_cif.got.tgz:121844.got - 2010.06.28 00:19:55.
