data_PCOD8105932
_publ_section_title
;
Structure prediction by ZEFSAII (Michael W. Deem and Ramdas Pophale) SiO2 
 PCOD8105932
Probable space group: C 2/M
;
_chemical_formula_sum "Si O2"
_cell_formula_units_Z 48
_cell_length_a 23.596990
_cell_length_b 9.156200
_cell_length_c 24.084734
_cell_angle_alpha 90.000000
_cell_angle_beta 28.529248
_cell_angle_gamma 90.000000
_cell_volume 2485.333648
_symmetry_space_group_name_H-M "C 2/M"
_symmetry_group_IT_number 12
_symmetry_cell_setting 'monoclinic'
loop_
_space_group_symop_operation_xyz
x,y,z
-x,y,-z
-x,-y,-z
x,-y,z
1/2+x,1/2+y,z
1/2-x,1/2+y,-z
1/2-x,1/2-y,-z
1/2+x,1/2-y,z
loop_
_atom_site_type_symbol
_atom_site_label
_atom_site_fract_x
_atom_site_fract_y
_atom_site_fract_z
Si Si1 0.205380 0.327091 0.185854
Si Si2 0.667396 0.664819 0.499762
Si Si3 0.544495 0.335123 0.403311
Si Si4 0.452797 0.173546 0.980192
Si Si5 0.409972 0.830152 0.244039
Si Si6 0.499599 0.168653 0.718780
O O1 0.222496 0.500000 0.173555
O O2 0.147953 0.270625 0.292551
O O3 0.330386 0.250335 0.070588
O O4 0.120975 0.276254 0.207095
O O5 0.695751 0.500000 0.495276
O O6 0.566338 0.666383 0.541254
O O7 0.784387 0.738849 0.371561
O O8 0.619834 0.754449 0.593506
O O9 0.500000 0.272671 0.500000
O O10 0.595773 0.500000 0.365532
O O11 0.434429 0.000000 0.992888
O O12 0.500000 0.221812 0.000000
O O13 0.544197 0.232121 0.854309
O O14 0.507632 0.802575 0.208729
O O15 0.387260 0.000000 0.254372
O O16 0.516239 0.000000 0.690173
#
# Coordination Sequence:
#
# PCOD8105932 Si02
#       6
#     8   8   8   8   8   8
#     4  10  21  36  53  75 108 142 173 214 264 315
#     4   9  17  30  51  80 109 134 169 217 263 308
#     4   9  18  31  53  80 105 137 178 220 259 305
#     4  10  22  38  58  78 101 137 182 224 262 306
#     4   9  18  33  54  79 105 137 176 218 262 308
#     4   9  18  34  54  77 108 140 170 210 264 317
#
# _framework density 19.313302
#
# number of rings (size 3 to 8) (size 9 to 14) (size 15 to 20)
#    0.000    2.667    0.000    1.000    2.333    2.000 
#    0.000    1.667    0.000    0.000    0.000    0.000 
#    0.000    0.000    0.000    0.000    0.000    0.000 
#
# Total GULP energy -297506.558997 kJ/mol
# GULP energy per Si atom -12396.106625 kJ/mol
# Density = 1.926934 g / cm^3
# Si number density = 19.313302 Si / 1000 Ang^3
#
#
#
# Elastic Constant Matrix: (Units=GPa)
#
#
# Indices 1 2 3 4 5 6 
#
# 1 75.9435 24.9358 67.9906 0.0003 17.6433 -0.0002
# 2 24.9358 39.5206 34.6298 -0.0016 0.1302 0.0018
# 3 67.9906 34.6298 137.5329 0.0003 5.3387 0.0004
# 4 0.0003 -0.0016 0.0003 23.2157 -0.0001 0.3139
# 5 17.6433 0.1302 5.3387 -0.0001 36.4747 0.0001
# 6 -0.0002 0.0018 0.0004 0.3139 0.0001 19.8695
#
#
#
# Elastic Compliance Matrix: (Units=1/GPa)
#
#
# Indices 1 2 3 4 5 6 
#
# 1 0.029520 -0.007983 -0.012099 -0.000001 -0.012480 0.000001
# 2 -0.007983 0.034668 -0.004956 0.000003 0.004463 -0.000003
# 3 -0.012099 -0.004956 0.014354 0.000000 0.003769 0.000000
# 4 -0.000001 0.000003 0.000000 0.043083 0.000001 -0.000681
# 5 -0.012480 0.004463 0.003769 0.000001 0.032885 -0.000001
# 6 0.000001 -0.000003 0.000000 -0.000681 -0.000001 0.050339
#
#
# Mechanical properties :
#
#
# Convention : Reuss Voigt Hill
#
# Bulk Modulus (GPa) = 35.12954 56.45661 45.79307
# Shear Modulus (GPa) = 18.90965 24.27471 21.59218
#
# Velocity S-wave (km/s) = 3.13245 3.54911 3.34727
# Velocity P-wave (km/s) = 5.59569 6.78899 6.22102
#
# Compressibility (1/GPa) = 0.02846607
#
# Stress axis : x y z
#
# Youngs Moduli (GPa) = 33.87495 28.84488 69.66775
#
# Poissons Ratio (x) = 0.23027 0.84292
# Poissons Ratio (y) = 0.27043 0.34527
# Poissons Ratio (z) = 0.40986 0.14295
#
# Static dielectric constant tensor:
#      x y z
#    x 3.657360 0.000000 0.098760 
#    y 0.000000 3.407040 0.000000 
#    z 0.098760 0.000000 3.691190 
# 
# 
# High freq. dielectric constant tensor:
#      x y z
#    x 1.760630 0.000000 0.000770 
#    y 0.000000 1.720990 0.000000 
#    z 0.000770 0.000000 1.751220 
# 
# From -- ./inp_files/179197.got.cif
#   From: 2010.06.25/outbox.cif.g09.slc.cpg/sg12_90_cif.got.tgz:179197.got - 2010.06.28 00:19:55.
