data_PCOD8105417
_publ_section_title
;
Structure prediction by ZEFSAII (Michael W. Deem and Ramdas Pophale) SiO2 
 PCOD8105417
Probable space group: C 2/M
;
_chemical_formula_sum "Si O2"
_cell_formula_units_Z 56
_cell_length_a 19.134360
_cell_length_b 15.557698
_cell_length_c 11.506402
_cell_angle_alpha 90.000000
_cell_angle_beta 53.725612
_cell_angle_gamma 90.000000
_cell_volume 2761.453643
_symmetry_space_group_name_H-M "C 2/M"
_symmetry_group_IT_number 12
_symmetry_cell_setting 'monoclinic'
loop_
_space_group_symop_operation_xyz
x,y,z
-x,y,-z
-x,-y,-z
x,-y,z
1/2+x,1/2+y,z
1/2-x,1/2+y,-z
1/2-x,1/2-y,-z
1/2+x,1/2-y,z
loop_
_atom_site_type_symbol
_atom_site_label
_atom_site_fract_x
_atom_site_fract_y
_atom_site_fract_z
Si Si1 0.776397 0.278274 0.646045
Si Si2 0.948351 0.000000 0.231574
Si Si3 0.593054 0.095170 0.403602
Si Si4 0.469426 0.228345 0.896743
Si Si5 0.130818 0.000000 0.945003
Si Si6 0.650631 0.096632 0.082823
Si Si7 0.202461 0.175600 0.945754
Si Si8 0.622026 0.680092 0.631499
O O1 0.842370 0.357207 0.573990
O O2 0.748243 0.260268 0.806917
O O3 0.690933 0.307151 0.664575
O O4 0.827685 0.197152 0.539703
O O5 0.907360 0.000000 0.145448
O O6 0.917360 0.084394 0.332097
O O7 0.052601 0.000000 0.116392
O O8 0.500000 0.142021 0.500000
O O9 0.623898 0.094847 0.241834
O O10 0.584149 0.000000 0.464295
O O11 0.428354 0.133459 0.918010
O O12 0.547710 0.249101 0.732191
O O13 0.500000 0.240773 0.000000
O O14 0.394304 0.294286 0.931666
O O15 0.194133 0.080782 0.897784
O O16 0.735175 0.162331 0.000365
O O17 0.672423 0.000000 0.016118
#
# Coordination Sequence:
#
# PCOD8105417 Si02
#       8
#     8   4   8   8   4   8   8   8
#     4  10  21  34  54  82 119 150 192 248 297 359
#     4  11  20  32  58  88 120 159 197 251 312 354
#     4   9  18  34  55  81 109 144 194 246 296 344
#     4  12  22  38  59  87 124 160 198 243 300 363
#     4  11  18  32  60  92 116 145 203 267 309 340
#     4  10  22  36  58  86 116 156 201 245 298 356
#     4  11  20  38  61  91 118 150 200 259 304 347
#     4  11  22  35  54  85 120 157 198 241 301 365
#
# _framework density 20.279174000000001
#
# number of rings (size 3 to 8) (size 9 to 14) (size 15 to 20)
#    0.000    1.429    5.000    1.286    2.000    0.286 
#    0.000    0.000    3.143    0.000    0.000    4.500 
#    0.000    0.000    0.000    0.000    0.000    0.000 
#
# Total GULP energy -347000.897401 kJ/mol
# GULP energy per Si atom -12392.889193 kJ/mol
# Density = 2.023302 g / cm^3
# Si number density = 20.279174 Si / 1000 Ang^3
#
#
#
# Elastic Constant Matrix: (Units=GPa)
#
#
# Indices 1 2 3 4 5 6 
#
# 1 120.8526 33.8842 26.2983 0.0000 -23.0875 0.0000
# 2 33.8842 69.0965 30.7600 0.0000 -2.5410 0.0000
# 3 26.2983 30.7600 74.6526 0.0000 -16.6534 0.0000
# 4 0.0000 0.0000 0.0000 15.9914 0.0000 -7.9801
# 5 -23.0875 -2.5410 -16.6534 0.0000 27.3009 0.0000
# 6 0.0000 0.0000 0.0000 -7.9801 0.0000 33.3459
#
#
#
# Elastic Compliance Matrix: (Units=1/GPa)
#
#
# Indices 1 2 3 4 5 6 
#
# 1 0.011538 -0.005434 0.000276 0.000000 0.009420 0.000000
# 2 -0.005434 0.020536 -0.008271 0.000000 -0.007730 0.000000
# 3 0.000276 -0.008271 0.019199 0.000000 0.011175 0.000000
# 4 0.000000 0.000000 0.000000 0.071014 0.000000 0.016995
# 5 0.009420 -0.007730 0.011175 0.000000 0.050692 0.000000
# 6 0.000000 0.000000 0.000000 0.016995 0.000000 0.034056
#
#
# Mechanical properties :
#
#
# Convention : Reuss Voigt Hill
#
# Bulk Modulus (GPa) = 40.96214 49.60962 45.28588
# Shear Modulus (GPa) = 20.65844 26.90492 23.78168
#
# Velocity S-wave (km/s) = 3.19517 3.64638 3.42821
# Velocity P-wave (km/s) = 5.81852 6.49958 6.16846
#
# Compressibility (1/GPa) = 0.02441279
#
# Stress axis : x y z
#
# Youngs Moduli (GPa) = 86.67255 48.69614 52.08538
#
# Poissons Ratio (x) = 0.26464 -0.01438
# Poissons Ratio (y) = 0.47102 0.43082
# Poissons Ratio (z) = -0.02393 0.40279
#
# Static dielectric constant tensor:
#      x y z
#    x 3.963390 0.000000 -0.319840 
#    y 0.000000 3.850830 0.000000 
#    z -0.319840 0.000000 3.569690 
# 
# 
# High freq. dielectric constant tensor:
#      x y z
#    x 1.804060 0.000000 -0.030710 
#    y 0.000000 1.784910 0.000000 
#    z -0.030710 0.000000 1.773250 
# 
# From -- ./inp_files/156557.got.cif
#   From: 2010.06.25/outbox.cif.g09.slc.cpg/sg12_79_cif.got.tgz:156557.got - 2010.06.28 00:19:55.
