data_PCOD8105289
_publ_section_title
;
Structure prediction by ZEFSAII (Michael W. Deem and Ramdas Pophale) SiO2 
 PCOD8105289
Probable space group: C 2/M
;
_chemical_formula_sum "Si O2"
_cell_formula_units_Z 56
_cell_length_a 18.757352
_cell_length_b 28.605817
_cell_length_c 8.817743
_cell_angle_alpha 90.000000
_cell_angle_beta 138.213659
_cell_angle_gamma 90.000000
_cell_volume 3152.744732
_symmetry_space_group_name_H-M "C 2/M"
_symmetry_group_IT_number 12
_symmetry_cell_setting 'monoclinic'
loop_
_space_group_symop_operation_xyz
x,y,z
-x,y,-z
-x,-y,-z
x,-y,z
1/2+x,1/2+y,z
1/2-x,1/2+y,-z
1/2-x,1/2-y,-z
1/2+x,1/2-y,z
loop_
_atom_site_type_symbol
_atom_site_label
_atom_site_fract_x
_atom_site_fract_y
_atom_site_fract_z
Si Si1 0.374772 0.595585 0.616282
Si Si2 0.282081 0.686093 0.947879
Si Si3 0.218000 0.815045 0.690541
Si Si4 0.421542 0.232723 0.503612
Si Si5 0.576285 0.236023 0.988720
Si Si6 0.127302 0.000000 0.536728
Si Si7 0.873576 0.000000 0.122713
Si Si8 0.874198 0.905360 0.968728
O O1 0.313376 0.634407 0.420390
O O2 0.332353 0.545983 0.487141
O O3 0.346747 0.599218 0.748281
O O4 0.501225 0.601390 0.795216
O O5 0.281828 0.691890 0.127672
O O6 0.368051 0.719933 0.005376
O O7 0.163965 0.696335 0.697275
O O8 0.307981 0.632888 0.953706
O O9 0.133128 0.776876 0.497566
O O10 0.335280 0.801138 0.812970
O O11 0.500000 0.252736 0.500000
O O12 0.497791 0.208274 0.748911
O O13 0.500000 0.255484 0.000000
O O14 0.173480 0.000000 0.781245
O O15 0.000333 0.000000 0.334644
O O16 0.833552 0.955128 0.965891
#
# Coordination Sequence:
#
# PCOD8105289 Si02
#       8
#     8   8   8   8   8   4   4   8
#     4  10  21  33  52  78 113 137 176 218 268 313
#     4  11  22  35  55  79 105 143 187 214 266 320
#     4  11  22  36  54  80 103 145 185 217 263 323
#     4  11  20  38  55  73 108 145 179 226 263 306
#     4  11  24  36  54  77 109 141 181 227 268 306
#     4   9  17  33  53  75 103 143 169 215 263 322
#     4   9  17  33  53  75 105 139 177 207 268 322
#     4  10  21  33  51  80 109 141 172 221 264 318
#
# _framework density 17.762301999999998
#
# number of rings (size 3 to 8) (size 9 to 14) (size 15 to 20)
#    0.000    1.571    2.857    3.000    6.000    4.000 
#    0.000    0.000    0.000    0.000    0.000    2.000 
#    0.000    0.000    0.000    0.000    0.000    0.000 
#
# Total GULP energy -347122.243826 kJ/mol
# GULP energy per Si atom -12397.222994 kJ/mol
# Density = 1.772187 g / cm^3
# Si number density = 17.762302 Si / 1000 Ang^3
#
#
#
# Elastic Constant Matrix: (Units=GPa)
#
#
# Indices 1 2 3 4 5 6 
#
# 1 76.0635 19.9092 26.2039 0.0000 5.9570 0.0000
# 2 19.9092 109.4700 30.1067 0.0000 10.8976 0.0000
# 3 26.2039 30.1067 84.8067 0.0000 6.4866 0.0000
# 4 0.0000 0.0000 0.0000 27.3491 0.0000 -8.9119
# 5 5.9570 10.8976 6.4866 0.0000 20.2738 0.0000
# 6 0.0000 0.0000 0.0000 -8.9119 0.0000 20.9712
#
#
#
# Elastic Compliance Matrix: (Units=1/GPa)
#
#
# Indices 1 2 3 4 5 6 
#
# 1 0.015073 -0.001410 -0.003973 0.000000 -0.002400 0.000000
# 2 -0.001410 0.010653 -0.003014 0.000000 -0.004348 0.000000
# 3 -0.003973 -0.003014 0.014224 0.000000 -0.001764 0.000000
# 4 0.000000 0.000000 0.000000 0.042441 0.000000 0.018036
# 5 -0.002400 -0.004348 -0.001764 0.000000 0.052931 0.000000
# 6 0.000000 0.000000 0.000000 0.018036 0.000000 0.055349
#
#
# Mechanical properties :
#
#
# Convention : Reuss Voigt Hill
#
# Bulk Modulus (GPa) = 43.18468 46.97554 45.08011
# Shear Modulus (GPa) = 23.23605 26.66017 24.94811
#
# Velocity S-wave (km/s) = 3.62078 3.87840 3.75180
# Velocity P-wave (km/s) = 6.46880 6.82350 6.64852
#
# Compressibility (1/GPa) = 0.02315636
#
# Stress axis : x y z
#
# Youngs Moduli (GPa) = 66.34559 93.87072 70.30391
#
# Poissons Ratio (x) = 0.13232 0.27933
# Poissons Ratio (y) = 0.09352 0.21188
# Poissons Ratio (z) = 0.26361 0.28290
#
# Static dielectric constant tensor:
#      x y z
#    x 3.323610 0.000000 -0.133640 
#    y 0.000000 3.242980 0.000000 
#    z -0.133640 0.000000 3.408950 
# 
# 
# High freq. dielectric constant tensor:
#      x y z
#    x 1.682310 0.000000 -0.022000 
#    y 0.000000 1.672630 0.000000 
#    z -0.022000 0.000000 1.684760 
# 
# From -- ./inp_files/80046.got.cif
#   From: 2010.06.25/outbox.cif.g09.slc.cpg/sg12_41_cif.got.tgz:80046.got - 2010.06.28 00:19:55.
