data_PCOD8105471
_publ_section_title
;
Structure prediction by ZEFSAII (Michael W. Deem and Ramdas Pophale) SiO2 
 PCOD8105471
Probable space group: C 2/M
;
_chemical_formula_sum "Si O2"
_cell_formula_units_Z 64
_cell_length_a 26.605656
_cell_length_b 8.941414
_cell_length_c 23.822143
_cell_angle_alpha 90.000000
_cell_angle_beta 134.348289
_cell_angle_gamma 90.000000
_cell_volume 4052.566230
_symmetry_space_group_name_H-M "C 2/M"
_symmetry_group_IT_number 12
_symmetry_cell_setting 'monoclinic'
loop_
_space_group_symop_operation_xyz
x,y,z
-x,y,-z
-x,-y,-z
x,-y,z
1/2+x,1/2+y,z
1/2-x,1/2+y,-z
1/2-x,1/2-y,-z
1/2+x,1/2-y,z
loop_
_atom_site_type_symbol
_atom_site_label
_atom_site_fract_x
_atom_site_fract_y
_atom_site_fract_z
Si Si1 0.803268 0.673954 0.000415
Si Si2 0.856197 0.327347 0.441730
Si Si3 0.800529 0.824273 0.168558
Si Si4 0.818334 0.176871 0.527504
Si Si5 0.010984 0.333602 0.592386
Si Si6 0.547831 0.170029 0.329981
Si Si7 0.649356 0.325266 0.673849
Si Si8 0.409266 0.824089 0.169242
O O1 0.792797 0.500000 0.000503
O O2 0.778203 0.716967 0.917402
O O3 0.750000 0.750000 0.000000
O O4 0.881742 0.717582 0.084053
O O5 0.835691 0.500000 0.434975
O O6 0.827160 0.234173 0.471164
O O7 0.940380 0.307552 0.501011
O O8 0.821930 0.264291 0.357829
O O9 0.805003 0.771249 0.236655
O O10 0.861401 0.750397 0.179318
O O11 0.814828 0.000000 0.177158
O O12 0.750000 0.250000 0.500000
O O13 0.884603 0.223160 0.618012
O O14 0.810922 0.000000 0.521586
O O15 0.041361 0.500000 0.603601
O O16 0.991811 0.318931 0.642209
O O17 0.067636 0.209050 0.621297
O O18 0.490974 0.225024 0.238872
O O19 0.573305 0.000000 0.338892
O O20 0.657999 0.500000 0.668747
O O21 0.404733 0.000000 0.177156
#
# Coordination Sequence:
#
# PCOD8105471 Si02
#       8
#     8   8   8   8   8   8   8   8
#     4   8  14  24  37  54  79 115 154 188 220 253
#     4  10  21  35  48  63  84 112 148 185 221 260
#     4   9  17  26  36  56  88 121 153 189 224 255
#     4  11  22  37  55  71  89 112 139 175 222 270
#     4   9  17  29  42  57  83 117 149 184 223 256
#     4   9  17  29  45  67  91 116 150 187 222 261
#     4  11  20  27  39  61  89 120 153 187 221 259
#     4   9  15  25  42  60  82 116 156 189 218 257
#
# _framework density 15.792464000000001
#
# number of rings (size 3 to 8) (size 9 to 14) (size 15 to 20)
#    0.000    2.500    1.250    3.000    0.000    5.000 
#    0.000    0.000    0.000    0.000    0.000    0.000 
#    0.000    1.000    0.000   11.750    0.000    2.250 
#
# Total GULP energy -396464.251306 kJ/mol
# GULP energy per Si atom -12389.507853 kJ/mol
# Density = 1.575652 g / cm^3
# Si number density = 15.792464 Si / 1000 Ang^3
#
#
#
# Elastic Constant Matrix: (Units=GPa)
#
#
# Indices 1 2 3 4 5 6 
#
# 1 45.8282 28.0539 46.1355 0.0000 7.6651 0.0000
# 2 28.0539 68.9794 46.3118 0.0000 2.9503 0.0000
# 3 46.1355 46.3118 157.1156 0.0000 5.7541 0.0000
# 4 0.0000 0.0000 0.0000 19.7816 0.0000 -0.3340
# 5 7.6651 2.9503 5.7541 0.0000 10.5185 0.0000
# 6 0.0000 0.0000 0.0000 -0.3340 0.0000 20.8101
#
#
#
# Elastic Compliance Matrix: (Units=1/GPa)
#
#
# Indices 1 2 3 4 5 6 
#
# 1 0.039368 -0.009795 -0.007881 0.000000 -0.021630 0.000000
# 2 -0.009795 0.020561 -0.003301 0.000000 0.003176 0.000000
# 3 -0.007881 -0.003301 0.009600 0.000000 0.001417 0.000000
# 4 0.000000 0.000000 0.000000 0.050566 0.000000 0.000812
# 5 -0.021630 0.003176 0.001417 0.000000 0.109166 0.000000
# 6 0.000000 0.000000 0.000000 0.000812 0.000000 0.048067
#
#
# Mechanical properties :
#
#
# Convention : Reuss Voigt Hill
#
# Bulk Modulus (GPa) = 36.26328 56.99173 46.62750
# Shear Modulus (GPa) = 15.22201 20.31685 17.76943
#
# Velocity S-wave (km/s) = 3.10801 3.59066 3.35802
# Velocity P-wave (km/s) = 5.99098 7.30457 6.68014
#
# Compressibility (1/GPa) = 0.02757611
#
# Stress axis : x y z
#
# Youngs Moduli (GPa) = 25.40144 48.63610 104.16807
#
# Poissons Ratio (x) = 0.47638 0.82091
# Poissons Ratio (y) = 0.24880 0.34383
# Poissons Ratio (z) = 0.20018 0.16054
#
# Static dielectric constant tensor:
#      x y z
#    x 2.560850 0.000000 0.089150 
#    y 0.000000 3.000380 0.000000 
#    z 0.089150 0.000000 3.819720 
# 
# 
# High freq. dielectric constant tensor:
#      x y z
#    x 1.540800 0.000000 0.001080 
#    y 0.000000 1.611400 0.000000 
#    z 0.001080 0.000000 1.624980 
# 
# From -- ./inp_files/323788.got.cif
#   From: 2010.06.25/outbox.cif.g09.slc.cpg/sg12_162_cif.got.tgz:323788.got - 2010.06.28 00:19:55.
