data_PCOD8105016
_publ_section_title
;
Structure prediction by ZEFSAII (Michael W. Deem and Ramdas Pophale) SiO2 
 PCOD8105016
Probable space group: C 2/M
;
_chemical_formula_sum "Si O2"
_cell_formula_units_Z 56
_cell_length_a 18.569166
_cell_length_b 18.446724
_cell_length_c 9.166139
_cell_angle_alpha 90.000000
_cell_angle_beta 65.931665
_cell_angle_gamma 90.000000
_cell_volume 2866.799133
_symmetry_space_group_name_H-M "C 2/M"
_symmetry_group_IT_number 12
_symmetry_cell_setting 'monoclinic'
loop_
_space_group_symop_operation_xyz
x,y,z
-x,y,-z
-x,-y,-z
x,-y,z
1/2+x,1/2+y,z
1/2-x,1/2+y,-z
1/2-x,1/2-y,-z
1/2+x,1/2-y,z
loop_
_atom_site_type_symbol
_atom_site_label
_atom_site_fract_x
_atom_site_fract_y
_atom_site_fract_z
Si Si1 0.549785 0.582348 0.104129
Si Si2 0.805318 0.825704 0.105941
Si Si3 0.008537 0.314425 0.825399
Si Si4 0.335493 0.835323 0.985440
Si Si5 0.544639 0.323996 0.610626
Si Si6 0.716713 0.330361 0.540225
Si Si7 0.847460 0.584980 0.266525
O O1 0.576994 0.500000 0.106747
O O2 0.496524 0.606128 0.284580
O O3 0.500000 0.591074 0.000000
O O4 0.625737 0.633145 0.035461
O O5 0.818797 0.740093 0.082006
O O6 0.802530 0.849269 0.276239
O O7 0.724116 0.849312 0.096805
O O8 0.041487 0.244665 0.718307
O O9 0.069218 0.380201 0.755076
O O10 0.922093 0.337373 0.839644
O O11 0.000000 0.291314 0.000000
O O12 0.327083 0.896860 0.115454
O O13 0.500000 0.304032 0.500000
O O14 0.637341 0.339622 0.509015
O O15 0.750000 0.250000 0.500000
O O16 0.779102 0.387831 0.429782
O O17 0.856248 0.500000 0.278085
#
# Coordination Sequence:
#
# PCOD8105016 Si02
#       7
#     8   8   8   8   8   8   8
#     4  11  24  43  64  90 125 165 206 257 316 374
#     4  11  22  40  67  94 125 161 218 256 313 371
#     4  10  20  40  66  92 123 164 214 257 305 373
#     4  10  22  37  68  97 120 163 212 267 303 375
#     4  12  25  38  66  98 127 164 215 260 312 376
#     4  12  23  40  64  94 127 169 206 255 316 384
#     4  11  25  42  63  94 132 168 207 265 321 369
#
# _framework density 19.533981000000001
#
# number of rings (size 3 to 8) (size 9 to 14) (size 15 to 20)
#    0.000    1.000    5.714    1.286    4.000    4.571 
#    0.000    0.000    0.000    3.000    0.000    0.000 
#    0.000    0.000    0.000    0.000    0.000    0.000 
#
# Total GULP energy -347352.626651 kJ/mol
# GULP energy per Si atom -12405.450952 kJ/mol
# Density = 1.948952 g / cm^3
# Si number density = 19.533981 Si / 1000 Ang^3
#
#
#
# Elastic Constant Matrix: (Units=GPa)
#
#
# Indices 1 2 3 4 5 6 
#
# 1 147.9961 25.4745 33.7705 0.0000 -9.3212 0.0000
# 2 25.4745 94.9358 24.6182 0.0000 -0.9284 0.0000
# 3 33.7705 24.6182 65.2572 0.0000 -13.0276 0.0000
# 4 0.0000 0.0000 0.0000 22.8403 0.0000 -6.2195
# 5 -9.3212 -0.9284 -13.0276 0.0000 28.6859 0.0000
# 6 0.0000 0.0000 0.0000 -6.2195 0.0000 16.9292
#
#
#
# Elastic Compliance Matrix: (Units=1/GPa)
#
#
# Indices 1 2 3 4 5 6 
#
# 1 0.007798 -0.001204 -0.003391 0.000000 0.000955 0.000000
# 2 -0.001204 0.011945 -0.004271 0.000000 -0.001944 0.000000
# 3 -0.003391 -0.004271 0.020281 0.000000 0.007971 0.000000
# 4 0.000000 0.000000 0.000000 0.048649 0.000000 0.017873
# 5 0.000955 -0.001944 0.007971 0.000000 0.038728 0.000000
# 6 0.000000 0.000000 0.000000 0.017873 0.000000 0.065636
#
#
# Mechanical properties :
#
#
# Convention : Reuss Voigt Hill
#
# Bulk Modulus (GPa) = 44.85829 52.87951 48.86890
# Shear Modulus (GPa) = 22.91482 28.64612 25.78047
#
# Velocity S-wave (km/s) = 3.42873 3.83361 3.63681
# Velocity P-wave (km/s) = 6.22005 6.83555 6.53505
#
# Compressibility (1/GPa) = 0.02229242
#
# Stress axis : x y z
#
# Youngs Moduli (GPa) = 128.23788 83.71626 49.30664
#
# Poissons Ratio (x) = 0.10079 0.16718
# Poissons Ratio (y) = 0.15438 0.21061
# Poissons Ratio (z) = 0.43481 0.35759
#
# Static dielectric constant tensor:
#      x y z
#    x 3.923670 0.000000 -0.154170 
#    y 0.000000 3.393270 0.000000 
#    z -0.154170 0.000000 3.689710 
# 
# 
# High freq. dielectric constant tensor:
#      x y z
#    x 1.779160 0.000000 -0.012420 
#    y 0.000000 1.745790 0.000000 
#    z -0.012420 0.000000 1.757530 
# 
# From -- ./inp_files/75874.got.cif
#   From: 2010.06.25/outbox.cif.g09.slc.cpg/sg12_38_cif.got.tgz:75874.got - 2010.06.28 00:19:55.
