data_PCOD8105127
_publ_section_title
;
Structure prediction by ZEFSAII (Michael W. Deem and Ramdas Pophale) SiO2 
 PCOD8105127
Probable space group: C 2/M
;
_chemical_formula_sum "Si O2"
_cell_formula_units_Z 40
_cell_length_a 23.982086
_cell_length_b 8.602961
_cell_length_c 17.036082
_cell_angle_alpha 90.000000
_cell_angle_beta 146.777732
_cell_angle_gamma 90.000000
_cell_volume 1925.735915
_symmetry_space_group_name_H-M "C 2/M"
_symmetry_group_IT_number 12
_symmetry_cell_setting 'monoclinic'
loop_
_space_group_symop_operation_xyz
x,y,z
-x,y,-z
-x,-y,-z
x,-y,z
1/2+x,1/2+y,z
1/2-x,1/2+y,-z
1/2-x,1/2-y,-z
1/2+x,1/2-y,z
loop_
_atom_site_type_symbol
_atom_site_label
_atom_site_fract_x
_atom_site_fract_y
_atom_site_fract_z
Si Si1 0.619629 0.174219 0.133069
Si Si2 0.072551 0.817536 0.657255
Si Si3 0.205035 0.819886 0.082280
Si Si4 0.652869 0.816168 0.344061
Si Si5 0.038036 0.683330 0.780268
O O1 0.653254 0.290137 0.105000
O O2 0.660840 0.241048 0.263814
O O3 0.661625 0.000000 0.164379
O O4 0.500000 0.165769 0.000000
O O5 0.178256 0.727937 0.775056
O O6 0.019176 0.769779 0.675778
O O7 0.000000 0.766719 0.500000
O O8 0.093626 0.000000 0.679841
O O9 0.196981 0.000000 0.051536
O O10 0.147564 0.725303 0.946149
O O11 0.750000 0.750000 0.500000
O O12 0.549855 0.756424 0.264382
O O13 0.652777 0.000000 0.346667
O O14 0.033203 0.500000 0.760424
#
# Coordination Sequence:
#
# PCOD8105127 Si02
#       5
#     8   8   8   8   8
#     4  10  20  41  66  91 126 168 210 253 310 371
#     4  11  26  46  67  93 125 165 210 261 319 377
#     4  12  25  41  66  97 128 166 211 262 313 371
#     4  10  23  40  63  93 129 169 205 254 314 371
#     4  11  23  44  68  93 127 168 213 260 313 374
#
# _framework density 20.771279
#
# number of rings (size 3 to 8) (size 9 to 14) (size 15 to 20)
#    0.000    1.200    2.000    3.600    2.800    4.400 
#    0.000    0.000    0.000    0.000    0.000    0.000 
#    0.000    0.000    0.000    0.000    0.000    0.000 
#
# Total GULP energy -248086.565788 kJ/mol
# GULP energy per Si atom -12404.328289 kJ/mol
# Density = 2.072400 g / cm^3
# Si number density = 20.771279 Si / 1000 Ang^3
#
#
#
# Elastic Constant Matrix: (Units=GPa)
#
#
# Indices 1 2 3 4 5 6 
#
# 1 94.4040 24.3375 32.3567 0.0000 -19.9006 0.0000
# 2 24.3375 44.5392 15.4704 0.0000 -3.4996 0.0000
# 3 32.3567 15.4704 123.3470 0.0000 -21.0045 0.0000
# 4 0.0000 0.0000 0.0000 41.3831 0.0000 -12.3105
# 5 -19.9006 -3.4996 -21.0045 0.0000 43.7785 0.0000
# 6 0.0000 0.0000 0.0000 -12.3105 0.0000 54.8139
#
#
#
# Elastic Compliance Matrix: (Units=1/GPa)
#
#
# Indices 1 2 3 4 5 6 
#
# 1 0.014006 -0.006568 -0.002021 0.000000 0.004872 0.000000
# 2 -0.006568 0.026566 -0.001912 0.000000 -0.001780 0.000000
# 3 -0.002021 -0.001912 0.009468 0.000000 0.003471 0.000000
# 4 0.000000 0.000000 0.000000 0.025894 0.000000 0.005816
# 5 0.004872 -0.001780 0.003471 0.000000 0.026580 0.000000
# 6 0.000000 0.000000 0.000000 0.005816 0.000000 0.019550
#
#
# Mechanical properties :
#
#
# Convention : Reuss Voigt Hill
#
# Bulk Modulus (GPa) = 34.43797 45.17992 39.80894
# Shear Modulus (GPa) = 32.73431 40.67013 36.70222
#
# Velocity S-wave (km/s) = 3.97412 4.42973 4.20809
# Velocity P-wave (km/s) = 6.13790 6.92544 6.54353
#
# Compressibility (1/GPa) = 0.02903772
#
# Stress axis : x y z
#
# Youngs Moduli (GPa) = 71.39933 37.64268 105.61706
#
# Poissons Ratio (x) = 0.24726 0.21340
# Poissons Ratio (y) = 0.46899 0.20193
# Poissons Ratio (z) = 0.14426 0.07197
#
# Static dielectric constant tensor:
#      x y z
#    x 5.221910 0.000000 -0.420810 
#    y 0.000000 3.738400 0.000000 
#    z -0.420810 0.000000 3.898680 
# 
# 
# High freq. dielectric constant tensor:
#      x y z
#    x 1.828250 0.000000 -0.007760 
#    y 0.000000 1.806510 0.000000 
#    z -0.007760 0.000000 1.821840 
# 
# From -- ./inp_files/221242.got.cif
#   From: 2010.06.25/outbox.cif.g09.slc.cpg/sg12_111_cif.got.tgz:221242.got - 2010.06.28 00:19:55.
