data_PCOD8105337
_publ_section_title
;
Structure prediction by ZEFSAII (Michael W. Deem and Ramdas Pophale) SiO2 
 PCOD8105337
Probable space group: C 2/M
;
_chemical_formula_sum "Si O2"
_cell_formula_units_Z 56
_cell_length_a 18.976313
_cell_length_b 8.866389
_cell_length_c 20.026234
_cell_angle_alpha 90.000000
_cell_angle_beta 122.897336
_cell_angle_gamma 90.000000
_cell_volume 2829.134994
_symmetry_space_group_name_H-M "C 2/M"
_symmetry_group_IT_number 12
_symmetry_cell_setting 'monoclinic'
loop_
_space_group_symop_operation_xyz
x,y,z
-x,y,-z
-x,-y,-z
x,-y,z
1/2+x,1/2+y,z
1/2-x,1/2+y,-z
1/2-x,1/2-y,-z
1/2+x,1/2-y,z
loop_
_atom_site_type_symbol
_atom_site_label
_atom_site_fract_x
_atom_site_fract_y
_atom_site_fract_z
Si Si1 0.811313 0.320329 0.585245
Si Si2 0.434904 0.172562 0.017624
Si Si3 0.011893 0.828391 0.323357
Si Si4 0.979511 0.832677 0.827845
Si Si5 0.294607 0.321576 0.717417
Si Si6 0.252544 0.324709 0.073735
Si Si7 0.658134 0.821782 0.757772
O O1 0.810136 0.500000 0.581240
O O2 0.750000 0.250000 0.500000
O O3 0.904440 0.262369 0.615118
O O4 0.778308 0.266391 0.640362
O O5 0.448745 0.238766 0.098354
O O6 0.458967 0.000000 0.036901
O O7 0.500000 0.252089 0.000000
O O8 0.340515 0.195517 0.943598
O O9 0.998472 0.826812 0.237839
O O10 0.930407 0.746690 0.312538
O O11 0.018764 0.000000 0.353788
O O12 0.885373 0.770145 0.792425
O O13 0.985266 0.000000 0.859599
O O14 0.295633 0.500000 0.701902
O O15 0.225026 0.276404 0.735572
O O16 0.277806 0.500000 0.079706
O O17 0.315971 0.244919 0.157078
O O18 0.250000 0.250000 0.000000
O O19 0.650116 0.000000 0.761281
#
# Coordination Sequence:
#
# PCOD8105337 Si02
#       7
#     8   8   8   8   8   8   8
#     4  11  22  39  65  93 120 150 186 227 275 334
#     4  10  21  34  48  70 100 135 180 234 284 329
#     4  10  21  38  59  84 115 148 185 229 278 335
#     4   9  18  33  53  75 101 139 183 228 279 333
#     4   9  20  38  58  84 118 152 188 234 287 341
#     4  11  23  37  53  75 108 150 194 243 297 347
#     4  11  22  37  58  84 115 151 193 240 290 343
#
# _framework density 19.794035999999998
#
# number of rings (size 3 to 8) (size 9 to 14) (size 15 to 20)
#    0.000    1.857    0.000    5.143    0.000    7.714 
#    0.000    0.714    0.000    4.286    0.000    0.000 
#    0.000    0.000    0.000    0.000    0.000    0.000 
#
# Total GULP energy -347198.088093 kJ/mol
# GULP energy per Si atom -12399.931718 kJ/mol
# Density = 1.974898 g / cm^3
# Si number density = 19.794036 Si / 1000 Ang^3
#
#
#
# Elastic Constant Matrix: (Units=GPa)
#
#
# Indices 1 2 3 4 5 6 
#
# 1 98.0669 39.3806 23.5280 0.0000 10.7581 0.0000
# 2 39.3806 110.0686 44.9439 0.0000 6.9238 0.0000
# 3 23.5280 44.9439 95.0604 0.0000 15.6959 0.0000
# 4 0.0000 0.0000 0.0000 35.7365 0.0000 3.3323
# 5 10.7581 6.9238 15.6959 0.0000 20.6966 0.0000
# 6 0.0000 0.0000 0.0000 3.3323 0.0000 31.2923
#
#
#
# Elastic Compliance Matrix: (Units=1/GPa)
#
#
# Indices 1 2 3 4 5 6 
#
# 1 0.012419 -0.003978 -0.000397 0.000000 -0.004824 0.000000
# 2 -0.003978 0.012535 -0.005248 0.000000 0.001854 0.000000
# 3 -0.000397 -0.005248 0.014604 0.000000 -0.009113 0.000000
# 4 0.000000 0.000000 0.000000 0.028263 0.000000 -0.003010
# 5 -0.004824 0.001854 -0.009113 0.000000 0.057116 0.000000
# 6 0.000000 0.000000 0.000000 -0.003010 0.000000 0.032277
#
#
# Mechanical properties :
#
#
# Convention : Reuss Voigt Hill
#
# Bulk Modulus (GPa) = 49.23066 57.65564 53.44315
# Shear Modulus (GPa) = 27.28824 30.56795 28.92809
#
# Velocity S-wave (km/s) = 3.71699 3.93402 3.82705
# Velocity P-wave (km/s) = 6.58383 7.05878 6.82544
#
# Compressibility (1/GPa) = 0.02031255
#
# Stress axis : x y z
#
# Youngs Moduli (GPa) = 80.52282 79.77857 68.47564
#
# Poissons Ratio (x) = 0.31735 0.02715
# Poissons Ratio (y) = 0.32031 0.35936
# Poissons Ratio (z) = 0.03193 0.41867
#
# Static dielectric constant tensor:
#      x y z
#    x 3.923560 0.000000 0.119580 
#    y 0.000000 3.666470 0.000000 
#    z 0.119580 0.000000 3.467310 
# 
# 
# High freq. dielectric constant tensor:
#      x y z
#    x 1.782690 0.000000 0.013780 
#    y 0.000000 1.775390 0.000000 
#    z 0.013780 0.000000 1.756220 
# 
# From -- ./inp_files/314398.got.cif
#   From: 2010.06.25/outbox.cif.g09.slc.cpg/sg12_158_cif.got.tgz:314398.got - 2010.06.28 00:19:55.
