data_PCOD8105230
_publ_section_title
;
Structure prediction by ZEFSAII (Michael W. Deem and Ramdas Pophale) SiO2 
 PCOD8105230
Probable space group: C 2/M
;
_chemical_formula_sum "Si O2"
_cell_formula_units_Z 44
_cell_length_a 11.556412
_cell_length_b 20.954609
_cell_length_c 15.541461
_cell_angle_alpha 90.000000
_cell_angle_beta 137.523382
_cell_angle_gamma 90.000000
_cell_volume 2541.465816
_symmetry_space_group_name_H-M "C 2/M"
_symmetry_group_IT_number 12
_symmetry_cell_setting 'monoclinic'
loop_
_space_group_symop_operation_xyz
x,y,z
-x,y,-z
-x,-y,-z
x,-y,z
1/2+x,1/2+y,z
1/2-x,1/2+y,-z
1/2-x,1/2-y,-z
1/2+x,1/2-y,z
loop_
_atom_site_type_symbol
_atom_site_label
_atom_site_fract_x
_atom_site_fract_y
_atom_site_fract_z
Si Si1 0.764219 0.892728 0.425140
Si Si2 0.486403 0.165093 0.396300
Si Si3 0.518458 0.500000 0.371813
Si Si4 0.821792 0.896453 0.862339
Si Si5 0.500000 0.286801 0.500000
Si Si6 0.560604 0.500000 0.201813
Si Si7 0.157840 0.500000 0.245243
Si Si8 0.210181 0.500000 0.933999
O O1 0.643419 0.867007 0.433776
O O2 0.658587 0.936709 0.303361
O O3 0.920913 0.935609 0.547529
O O4 0.833313 0.831461 0.411667
O O5 0.500000 0.134357 0.500000
O O6 0.308832 0.156001 0.246266
O O7 0.499355 0.242182 0.413909
O O8 0.605060 0.500000 0.326239
O O9 0.310092 0.500000 0.258549
O O10 0.864804 0.938068 0.802586
O O11 0.726944 0.937996 0.882558
O O12 0.000000 0.867645 0.000000
O O13 0.355952 0.500000 0.085070
O O14 0.963348 0.500000 0.103575
#
# Coordination Sequence:
#
# PCOD8105230 Si02
#       8
#     8   8   4   8   4   4   4   4
#     4  11  19  37  50  79 107 135 179 208 274 315
#     4  10  21  31  56  81 100 140 174 226 250 305
#     4  11  21  31  55  77 108 139 161 238 259 309
#     4   9  17  34  54  78 109 137 171 216 273 317
#     4  10  22  35  52  75 108 144 180 204 264 306
#     4   9  19  31  51  79 109 133 172 224 264 308
#     4  11  19  32  58  72 108 139 172 215 265 323
#     4   9  17  32  54  76 102 144 170 210 270 325
#
# _framework density 17.312843999999998
#
# number of rings (size 3 to 8) (size 9 to 14) (size 15 to 20)
#    0.545    1.455    3.636    3.273    0.000    0.364 
#    0.000    2.727    0.000    3.273    0.000    0.000 
#    0.000    0.000    0.000    0.000    0.000    0.000 
#
# Total GULP energy -272541.784193 kJ/mol
# GULP energy per Si atom -12388.262918 kJ/mol
# Density = 1.727344 g / cm^3
# Si number density = 17.312844 Si / 1000 Ang^3
#
#
#
# Elastic Constant Matrix: (Units=GPa)
#
#
# Indices 1 2 3 4 5 6 
#
# 1 83.6331 23.4667 2.8367 -0.0004 16.3243 -0.0002
# 2 23.4667 97.9883 20.6749 -0.0002 8.0344 -0.0001
# 3 2.8367 20.6749 54.5957 -0.0009 15.7241 -0.0002
# 4 -0.0004 -0.0002 -0.0009 -15.9312 -0.0005 -16.7330
# 5 16.3243 8.0344 15.7241 -0.0005 34.0955 -0.0002
# 6 -0.0002 -0.0001 -0.0002 -16.7330 -0.0002 10.2851
#
#
#
# Elastic Compliance Matrix: (Units=1/GPa)
#
#
# Indices 1 2 3 4 5 6 
#
# 1 0.014222 -0.003366 0.002616 0.000000 -0.007223 0.000000
# 2 -0.003366 0.011906 -0.004601 0.000000 0.000928 0.000000
# 3 0.002616 -0.004601 0.023030 0.000000 -0.010789 0.000000
# 4 0.000000 0.000000 0.000000 -0.023173 0.000000 -0.037700
# 5 -0.007223 0.000928 -0.010789 0.000000 0.037545 0.000000
# 6 0.000000 0.000000 0.000000 -0.037700 0.000000 0.035894
#
#
# Mechanical properties :
#
#
# Convention : Reuss Voigt Hill
#
# Bulk Modulus (GPa) = 26.00320 36.68596 31.34458
# Shear Modulus (GPa) = 40.66854 18.30580 29.48717
#
# Velocity S-wave (km/s) = 4.85195 3.25523 4.13146
# Velocity P-wave (km/s) = 6.81474 5.94682 6.39552
#
# Compressibility (1/GPa) = 0.03845681
#
# Stress axis : x y z
#
# Youngs Moduli (GPa) = 70.31141 83.99082 43.42104
#
# Poissons Ratio (x) = 0.28269 -0.11358
# Poissons Ratio (y) = 0.23665 0.19978
# Poissons Ratio (z) = -0.18392 0.38644
#
# Static dielectric constant tensor:
#      x y z
#    x 3.202620 0.000000 0.119120 
#    y 0.000000 3.061660 0.000000 
#    z 0.119120 0.000000 3.067580 
# 
# 
# High freq. dielectric constant tensor:
#      x y z
#    x 1.678930 0.000000 0.014660 
#    y 0.000000 1.648450 0.000000 
#    z 0.014660 0.000000 1.651890 
# 
# From -- ./inp_files/207849.got.cif
#   From: 2010.06.25/outbox.cif.g09.slc.cpg/sg12_104_cif.got.tgz:207849.got - 2010.06.28 00:19:55.
