data_PCOD8105235
_publ_section_title
;
Structure prediction by ZEFSAII (Michael W. Deem and Ramdas Pophale) SiO2 
 PCOD8105235
Probable space group: C 2/M
;
_chemical_formula_sum "Si O2"
_cell_formula_units_Z 56
_cell_length_a 14.666196
_cell_length_b 13.147578
_cell_length_c 19.327658
_cell_angle_alpha 90.000000
_cell_angle_beta 58.709570
_cell_angle_gamma 90.000000
_cell_volume 3184.767344
_symmetry_space_group_name_H-M "C 2/M"
_symmetry_group_IT_number 12
_symmetry_cell_setting 'monoclinic'
loop_
_space_group_symop_operation_xyz
x,y,z
-x,y,-z
-x,-y,-z
x,-y,z
1/2+x,1/2+y,z
1/2-x,1/2+y,-z
1/2-x,1/2-y,-z
1/2+x,1/2-y,z
loop_
_atom_site_type_symbol
_atom_site_label
_atom_site_fract_x
_atom_site_fract_y
_atom_site_fract_z
Si Si1 0.326785 0.884185 0.084888
Si Si2 0.940394 0.283534 0.451542
Si Si3 0.465176 0.385107 0.337964
Si Si4 0.616010 0.116842 0.308082
Si Si5 0.774356 0.615533 0.597945
Si Si6 0.479954 0.883009 0.894968
Si Si7 0.880839 0.755114 0.815834
O O1 0.402387 0.856372 0.120886
O O2 0.225482 0.810529 0.115666
O O3 0.286287 0.000000 0.109251
O O4 0.393893 0.872848 0.989010
O O5 0.954190 0.170033 0.416615
O O6 0.818617 0.317424 0.515772
O O7 0.000000 0.295700 0.500000
O O8 0.991525 0.358848 0.373635
O O9 0.500834 0.500000 0.339593
O O10 0.351458 0.378735 0.346515
O O11 0.547656 0.337222 0.252080
O O12 0.684208 0.159334 0.345566
O O13 0.657625 0.170715 0.223014
O O14 0.635012 0.000000 0.287512
O O15 0.815389 0.500000 0.571310
O O16 0.448898 0.800815 0.848805
O O17 0.479714 0.000000 0.866614
#
# Coordination Sequence:
#
# PCOD8105235 Si02
#       7
#     8   8   8   8   8   8   8
#     4   9  19  36  56  77 104 137 172 209 253 305
#     4   9  17  31  50  68  88 128 173 211 243 290
#     4  10  21  32  45  71 101 133 163 198 253 309
#     4   9  18  30  47  74 100 125 163 211 257 292
#     4   9  17  31  49  67  95 128 164 207 252 298
#     4   9  19  36  57  79 101 133 176 215 250 297
#     4  11  20  31  54  77 105 134 167 208 253 309
#
# _framework density 17.583701999999999
#
# number of rings (size 3 to 8) (size 9 to 14) (size 15 to 20)
#    0.000    2.571    0.000    3.000    2.000    2.000 
#    0.000    0.000    0.000    0.857    0.000    6.000 
#    0.000    0.000    0.000    0.000    0.000    0.000 
#
# Total GULP energy -347019.743187 kJ/mol
# GULP energy per Si atom -12393.562257 kJ/mol
# Density = 1.754368 g / cm^3
# Si number density = 17.583702 Si / 1000 Ang^3
#
#
#
# Elastic Constant Matrix: (Units=GPa)
#
#
# Indices 1 2 3 4 5 6 
#
# 1 44.7980 21.8593 13.6193 0.0000 -3.7496 0.0000
# 2 21.8593 80.9218 30.8084 0.0000 -1.0298 0.0000
# 3 13.6193 30.8084 56.3156 0.0000 2.1579 0.0000
# 4 0.0000 0.0000 0.0000 28.8060 0.0000 1.4326
# 5 -3.7496 -1.0298 2.1579 0.0000 22.7531 0.0000
# 6 0.0000 0.0000 0.0000 1.4326 0.0000 30.1903
#
#
#
# Elastic Compliance Matrix: (Units=1/GPa)
#
#
# Indices 1 2 3 4 5 6 
#
# 1 0.026572 -0.005823 -0.003411 0.000000 0.004439 0.000000
# 2 -0.005823 0.016937 -0.007879 0.000000 0.000554 0.000000
# 3 -0.003411 -0.007879 0.023011 0.000000 -0.003101 0.000000
# 4 0.000000 0.000000 0.000000 0.034797 0.000000 -0.001651
# 5 0.004439 0.000554 -0.003101 0.000000 0.045001 0.000000
# 6 0.000000 0.000000 0.000000 -0.001651 0.000000 0.033202
#
#
# Mechanical properties :
#
#
# Convention : Reuss Voigt Hill
#
# Bulk Modulus (GPa) = 30.96414 34.95661 32.96038
# Shear Modulus (GPa) = 22.27074 24.06644 23.16859
#
# Velocity S-wave (km/s) = 3.56273 3.70358 3.63384
# Velocity P-wave (km/s) = 5.87978 6.18158 6.03257
#
# Compressibility (1/GPa) = 0.03229542
#
# Stress axis : x y z
#
# Youngs Moduli (GPa) = 37.63334 59.04165 43.45746
#
# Poissons Ratio (x) = 0.34379 0.14822
# Poissons Ratio (y) = 0.21913 0.34239
# Poissons Ratio (z) = 0.12836 0.46518
#
# Static dielectric constant tensor:
#      x y z
#    x 3.240830 0.000000 0.005970 
#    y 0.000000 3.343490 0.000000 
#    z 0.005970 0.000000 3.236530 
# 
# 
# High freq. dielectric constant tensor:
#      x y z
#    x 1.673230 0.000000 -0.002930 
#    y 0.000000 1.678750 0.000000 
#    z -0.002930 0.000000 1.677260 
# 
# From -- ./inp_files/223341.got.cif
#   From: 2010.06.25/outbox.cif.g09.slc.cpg/sg12_112_cif.got.tgz:223341.got - 2010.06.28 00:19:55.
