data_PCOD8105025
_publ_section_title
;
Structure prediction by ZEFSAII (Michael W. Deem and Ramdas Pophale) SiO2 
 PCOD8105025
Probable space group: C 2/M
;
_chemical_formula_sum "Si O2"
_cell_formula_units_Z 56
_cell_length_a 19.343396
_cell_length_b 8.583153
_cell_length_c 24.961250
_cell_angle_alpha 90.000000
_cell_angle_beta 139.296257
_cell_angle_gamma 90.000000
_cell_volume 2702.663813
_symmetry_space_group_name_H-M "C 2/M"
_symmetry_group_IT_number 12
_symmetry_cell_setting 'monoclinic'
loop_
_space_group_symop_operation_xyz
x,y,z
-x,y,-z
-x,-y,-z
x,-y,z
1/2+x,1/2+y,z
1/2-x,1/2+y,-z
1/2-x,1/2-y,-z
1/2+x,1/2-y,z
loop_
_atom_site_type_symbol
_atom_site_label
_atom_site_fract_x
_atom_site_fract_y
_atom_site_fract_z
Si Si1 0.225750 0.176817 0.739464
Si Si2 0.024521 0.323410 0.576440
Si Si3 0.068706 0.180225 0.181321
Si Si4 0.520569 0.180277 0.263213
Si Si5 0.195430 0.178080 0.844816
Si Si6 0.867646 0.816330 0.568493
Si Si7 0.568666 0.815491 0.989459
O O1 0.323852 0.290979 0.788137
O O2 0.184714 0.196707 0.775237
O O3 0.128998 0.220190 0.644555
O O4 0.262970 0.000000 0.750448
O O5 0.046312 0.500000 0.608376
O O6 0.926774 0.256477 0.552441
O O7 0.000000 0.317026 0.500000
O O8 0.077293 0.276666 0.241162
O O9 0.970110 0.234423 0.087449
O O10 0.055670 0.000000 0.187677
O O11 0.395882 0.217301 0.182592
O O12 0.571202 0.279190 0.340777
O O13 0.538025 0.000000 0.286286
O O14 0.177797 0.000000 0.852172
O O15 0.310090 0.236855 0.931487
O O16 0.750000 0.750000 0.500000
O O17 0.863454 0.000000 0.558504
O O18 0.556943 0.000000 0.976600
O O19 0.500000 0.757967 0.000000
#
# Coordination Sequence:
#
# PCOD8105025 Si02
#       7
#     8   8   8   8   8   8   8
#     4  11  22  41  68  96 130 172 219 266 322 385
#     4  11  25  44  67  99 136 171 216 269 320 379
#     4  12  26  42  64  96 134 171 220 273 323 386
#     4  12  26  45  68  94 130 173 220 268 326 391
#     4  10  21  40  68  96 128 170 213 265 325 389
#     4  12  26  46  70  97 133 173 217 267 326 388
#     4  10  20  40  66  94 130 170 215 267 327 387
#
# _framework density 20.720299000000001
#
# number of rings (size 3 to 8) (size 9 to 14) (size 15 to 20)
#    0.000    0.857    2.857    4.714    2.000    3.143 
#    0.000    0.000    0.000    0.000    0.000    0.000 
#    0.000    0.000    0.000    0.000    0.000    0.000 
#
# Total GULP energy -347396.884824 kJ/mol
# GULP energy per Si atom -12407.031601 kJ/mol
# Density = 2.067314 g / cm^3
# Si number density = 20.720299 Si / 1000 Ang^3
#
#
#
# Elastic Constant Matrix: (Units=GPa)
#
#
# Indices 1 2 3 4 5 6 
#
# 1 61.6897 39.3655 27.7501 0.0000 -5.9813 0.0000
# 2 39.3655 69.6904 24.0360 0.0000 -4.6017 0.0002
# 3 27.7501 24.0360 107.5961 0.0000 8.8833 0.0000
# 4 0.0000 0.0000 0.0000 36.5006 0.0000 2.4609
# 5 -5.9813 -4.6017 8.8833 0.0000 34.5652 0.0000
# 6 0.0000 0.0002 0.0000 2.4609 0.0000 34.6328
#
#
#
# Elastic Compliance Matrix: (Units=1/GPa)
#
#
# Indices 1 2 3 4 5 6 
#
# 1 0.027238 -0.013635 -0.004310 0.000000 0.004006 0.000000
# 2 -0.013635 0.022688 -0.001641 0.000000 0.001083 0.000000
# 3 -0.004310 -0.001641 0.011087 0.000000 -0.003814 0.000000
# 4 0.000000 0.000000 0.000000 0.027529 0.000000 -0.001956
# 5 0.004006 0.001083 -0.003814 0.000000 0.030748 0.000000
# 6 0.000000 0.000000 0.000000 -0.001956 0.000000 0.029013
#
#
# Mechanical properties :
#
#
# Convention : Reuss Voigt Hill
#
# Bulk Modulus (GPa) = 45.78361 46.80882 46.29622
# Shear Modulus (GPa) = 25.67317 30.99469 28.33393
#
# Velocity S-wave (km/s) = 3.52381 3.87183 3.70191
# Velocity P-wave (km/s) = 6.22096 6.52901 6.37684
#
# Compressibility (1/GPa) = 0.02184188
#
# Stress axis : x y z
#
# Youngs Moduli (GPa) = 36.71367 44.07523 90.19527
#
# Poissons Ratio (x) = 0.60095 0.38872
# Poissons Ratio (y) = 0.50058 0.14804
# Poissons Ratio (z) = 0.15823 0.07234
#
# Static dielectric constant tensor:
#      x y z
#    x 3.713080 0.000000 0.048930 
#    y 0.000000 3.784250 0.000000 
#    z 0.048930 0.000000 3.800480 
# 
# 
# High freq. dielectric constant tensor:
#      x y z
#    x 1.815620 0.000000 0.003650 
#    y 0.000000 1.814390 0.000000 
#    z 0.003650 0.000000 1.822020 
# 
# From -- ./inp_files/363243.got.cif
#   From: 2010.06.25/outbox.cif.g09.slc.cpg/sg12_182_cif.got.tgz:363243.got - 2010.06.28 00:19:55.
