data_PCOD8105718
_publ_section_title
;
Structure prediction by ZEFSAII (Michael W. Deem and Ramdas Pophale) SiO2 
 PCOD8105718
Probable space group: C 2/M
;
_chemical_formula_sum "Si O2"
_cell_formula_units_Z 48
_cell_length_a 17.489940
_cell_length_b 10.904186
_cell_length_c 21.211964
_cell_angle_alpha 90.000000
_cell_angle_beta 143.062385
_cell_angle_gamma 90.000000
_cell_volume 2431.068777
_symmetry_space_group_name_H-M "C 2/M"
_symmetry_group_IT_number 12
_symmetry_cell_setting 'monoclinic'
loop_
_space_group_symop_operation_xyz
x,y,z
-x,y,-z
-x,-y,-z
x,-y,z
1/2+x,1/2+y,z
1/2-x,1/2+y,-z
1/2-x,1/2-y,-z
1/2+x,1/2-y,z
loop_
_atom_site_type_symbol
_atom_site_label
_atom_site_fract_x
_atom_site_fract_y
_atom_site_fract_z
Si Si1 0.795934 0.000000 0.366757
Si Si2 0.985811 0.000000 0.386787
Si Si3 0.713682 0.141331 0.792552
Si Si4 0.304856 0.351478 0.988706
Si Si5 0.904748 0.858767 0.817791
Si Si6 0.292534 0.764822 0.630991
Si Si7 0.554415 0.242962 0.392436
O O1 0.846464 0.000000 0.327845
O O2 0.710981 0.881206 0.324675
O O3 0.912379 0.000000 0.491138
O O4 0.006924 0.883293 0.356007
O O5 0.736137 0.185632 0.878430
O O6 0.810579 0.206515 0.806815
O O7 0.568579 0.161446 0.675177
O O8 0.744336 0.000000 0.810416
O O9 0.286827 0.500000 0.993853
O O10 0.250000 0.250000 0.000000
O O11 0.451839 0.313138 0.079466
O O12 0.855086 0.841395 0.713618
O O13 0.903722 0.000000 0.832046
O O14 0.379924 0.798171 0.629006
O O15 0.152654 0.724052 0.514973
#
# Coordination Sequence:
#
# PCOD8105718 Si02
#       7
#     4   4   8   8   8   8   8
#     4   9  18  34  54  75 108 156 197 231 287 353
#     4   9  18  34  54  75 108 156 197 231 287 353
#     4  10  21  37  59  85 114 150 190 234 290 351
#     4  10  21  41  65  87 115 150 192 240 291 351
#     4  10  21  37  59  85 114 150 190 234 290 351
#     4  10  21  35  55  83 117 153 195 242 286 340
#     4  10  21  35  55  83 117 153 195 242 286 340
#
# _framework density 19.744402999999998
#
# number of rings (size 3 to 8) (size 9 to 14) (size 15 to 20)
#    0.000    2.167    0.000    2.500    2.333    4.667 
#    3.000    1.667    0.000    1.000    0.000    0.000 
#    0.000    0.000    0.000    0.000    0.000    0.000 
#
# Total GULP energy -297440.370483 kJ/mol
# GULP energy per Si atom -12393.348770 kJ/mol
# Density = 1.969946 g / cm^3
# Si number density = 19.744403 Si / 1000 Ang^3
#
#
#
# Elastic Constant Matrix: (Units=GPa)
#
#
# Indices 1 2 3 4 5 6 
#
# 1 79.9858 27.3611 36.9613 0.0000 20.4828 0.0000
# 2 27.3611 43.2461 18.5944 0.0001 2.6710 0.0000
# 3 36.9613 18.5944 104.6348 0.0001 11.5381 0.0001
# 4 0.0000 0.0001 0.0001 27.1279 0.0001 3.2453
# 5 20.4828 2.6710 11.5381 0.0001 28.0541 0.0000
# 6 0.0000 0.0000 0.0001 3.2453 0.0000 31.2093
#
#
#
# Elastic Compliance Matrix: (Units=1/GPa)
#
#
# Indices 1 2 3 4 5 6 
#
# 1 0.021532 -0.011008 -0.004223 0.000000 -0.012936 0.000000
# 2 -0.011008 0.030673 -0.002228 0.000000 0.006033 0.000000
# 3 -0.004223 -0.002228 0.011608 0.000000 -0.001478 0.000000
# 4 0.000000 0.000000 0.000000 0.037327 0.000000 -0.003881
# 5 -0.012936 0.006033 -0.001478 0.000000 0.045124 0.000000
# 6 0.000000 0.000000 0.000000 -0.003881 0.000000 0.032445
#
#
# Mechanical properties :
#
#
# Convention : Reuss Voigt Hill
#
# Bulk Modulus (GPa) = 34.60806 43.74449 39.17628
# Shear Modulus (GPa) = 22.39553 26.94158 24.66855
#
# Velocity S-wave (km/s) = 3.37155 3.69795 3.53851
# Velocity P-wave (km/s) = 5.72036 6.35897 6.04810
#
# Compressibility (1/GPa) = 0.02889500
#
# Stress axis : x y z
#
# Youngs Moduli (GPa) = 46.44245 32.60160 86.14901
#
# Poissons Ratio (x) = 0.35888 0.36384
# Poissons Ratio (y) = 0.51124 0.19191
# Poissons Ratio (z) = 0.19614 0.07262
#
# Static dielectric constant tensor:
#      x y z
#    x 4.093320 0.000000 0.139060 
#    y 0.000000 3.559790 0.000000 
#    z 0.139060 0.000000 3.613370 
# 
# 
# High freq. dielectric constant tensor:
#      x y z
#    x 1.781460 0.000000 0.008780 
#    y 0.000000 1.750920 0.000000 
#    z 0.008780 0.000000 1.763690 
# 
# From -- ./inp_files/310213.got.cif
#   From: 2010.06.25/outbox.cif.g09.slc.cpg/sg12_156_cif.got.tgz:310213.got - 2010.06.28 00:19:55.
