data_PCOD8105528
_publ_section_title
;
Structure prediction by ZEFSAII (Michael W. Deem and Ramdas Pophale) SiO2 
 PCOD8105528
Probable space group: C 2/M
;
_chemical_formula_sum "Si O2"
_cell_formula_units_Z 40
_cell_length_a 18.339668
_cell_length_b 9.370245
_cell_length_c 26.519006
_cell_angle_alpha 90.000000
_cell_angle_beta 28.818577
_cell_angle_gamma 90.000000
_cell_volume 2196.750476
_symmetry_space_group_name_H-M "C 2/M"
_symmetry_group_IT_number 12
_symmetry_cell_setting 'monoclinic'
loop_
_space_group_symop_operation_xyz
x,y,z
-x,y,-z
-x,-y,-z
x,-y,z
1/2+x,1/2+y,z
1/2-x,1/2+y,-z
1/2-x,1/2-y,-z
1/2+x,1/2-y,z
loop_
_atom_site_type_symbol
_atom_site_label
_atom_site_fract_x
_atom_site_fract_y
_atom_site_fract_z
Si Si1 0.915539 0.334125 0.798898
Si Si2 0.404932 0.833103 0.409618
Si Si3 0.187858 0.664641 0.990537
Si Si4 0.413346 0.168207 0.602060
Si Si5 0.388928 0.161565 0.222213
O O1 0.870626 0.500000 0.828756
O O2 0.761083 0.240545 0.897089
O O3 0.990796 0.292248 0.700704
O O4 0.030907 0.294363 0.773931
O O5 0.250000 0.750000 0.500000
O O6 0.490275 0.783545 0.408197
O O7 0.367651 0.000000 0.432992
O O8 0.239724 0.500000 0.961405
O O9 0.250000 0.750000 0.000000
O O10 0.005479 0.675130 0.104310
O O11 0.500000 0.223661 0.500000
O O12 0.248712 0.235219 0.705282
O O13 0.390290 0.000000 0.614483
O O14 0.328790 0.000000 0.262988
#
# Coordination Sequence:
#
# PCOD8105528 Si02
#       5
#     8   8   8   8   8
#     4   9  18  33  52  75 103 134 171 211 249 296
#     4  10  21  36  53  75 102 132 169 212 256 303
#     4   9  17  30  50  77 105 133 169 208 247 296
#     4  10  21  35  51  74 102 131 166 207 252 304
#     4   9  18  32  51  75 100 129 166 205 246 295
#
# _framework density 18.208714000000001
#
# number of rings (size 3 to 8) (size 9 to 14) (size 15 to 20)
#    0.000    2.600    0.000    3.000    0.000    6.000 
#    0.000    1.000    0.000    6.000    0.000    0.000 
#    0.000    0.000    0.000    0.000    0.000    0.000 
#
# Total GULP energy -247959.116934 kJ/mol
# GULP energy per Si atom -12397.955847 kJ/mol
# Density = 1.816727 g / cm^3
# Si number density = 18.208714 Si / 1000 Ang^3
#
#
#
# Elastic Constant Matrix: (Units=GPa)
#
#
# Indices 1 2 3 4 5 6 
#
# 1 103.0697 39.3091 76.1469 0.0000 9.7732 0.0000
# 2 39.3091 72.8670 70.6390 -0.0007 0.0823 0.0001
# 3 76.1469 70.6390 154.0293 0.0005 9.5928 0.0001
# 4 0.0000 -0.0007 0.0005 42.4968 0.0002 -5.2324
# 5 9.7732 0.0823 9.5928 0.0002 28.7859 0.0000
# 6 0.0000 0.0001 0.0001 -5.2324 0.0000 21.0123
#
#
#
# Elastic Compliance Matrix: (Units=1/GPa)
#
#
# Indices 1 2 3 4 5 6 
#
# 1 0.015659 -0.002029 -0.006618 0.000000 -0.003105 0.000000
# 2 -0.002029 0.025382 -0.010902 0.000001 0.004249 0.000000
# 3 -0.006618 -0.010902 0.014932 0.000000 -0.002698 0.000000
# 4 0.000000 0.000001 0.000000 0.024275 0.000000 0.006045
# 5 -0.003105 0.004249 -0.002698 0.000000 0.036680 0.000000
# 6 0.000000 0.000000 0.000000 0.006045 0.000000 0.049096
#
#
# Mechanical properties :
#
#
# Convention : Reuss Voigt Hill
#
# Bulk Modulus (GPa) = 59.25588 78.01733 68.63661
# Shear Modulus (GPa) = 23.72505 28.05042 25.88774
#
# Velocity S-wave (km/s) = 3.61356 3.92917 3.77466
# Velocity P-wave (km/s) = 7.07274 7.97017 7.53483
#
# Compressibility (1/GPa) = 0.01687596
#
# Stress axis : x y z
#
# Youngs Moduli (GPa) = 63.85906 39.39805 66.97220
#
# Poissons Ratio (x) = 0.07993 0.44320
# Poissons Ratio (y) = 0.12956 0.73013
# Poissons Ratio (z) = 0.42260 0.42952
#
# Static dielectric constant tensor:
#      x y z
#    x 3.261860 0.000000 0.283430 
#    y 0.000000 3.424100 0.000000 
#    z 0.283430 0.000000 3.791020 
# 
# 
# High freq. dielectric constant tensor:
#      x y z
#    x 1.678200 0.000000 0.010160 
#    y 0.000000 1.706410 0.000000 
#    z 0.010160 0.000000 1.721390 
# 
# From -- ./inp_files/220185.got.cif
#   From: 2010.06.25/outbox.cif.g09.slc.cpg/sg12_111_cif.got.tgz:220185.got - 2010.06.28 00:19:55.
