data_PCOD8105661
_publ_section_title
;
Structure prediction by ZEFSAII (Michael W. Deem and Ramdas Pophale) SiO2 
 PCOD8105661
Probable space group: C 2/M
;
_chemical_formula_sum "Si O2"
_cell_formula_units_Z 56
_cell_length_a 14.719590
_cell_length_b 8.721512
_cell_length_c 24.419729
_cell_angle_alpha 90.000000
_cell_angle_beta 117.308308
_cell_angle_gamma 90.000000
_cell_volume 2785.547434
_symmetry_space_group_name_H-M "C 2/M"
_symmetry_group_IT_number 12
_symmetry_cell_setting 'monoclinic'
loop_
_space_group_symop_operation_xyz
x,y,z
-x,y,-z
-x,-y,-z
x,-y,z
1/2+x,1/2+y,z
1/2-x,1/2+y,-z
1/2-x,1/2-y,-z
1/2+x,1/2-y,z
loop_
_atom_site_type_symbol
_atom_site_label
_atom_site_fract_x
_atom_site_fract_y
_atom_site_fract_z
Si Si1 0.272327 0.329178 0.062789
Si Si2 0.675110 0.677121 0.405042
Si Si3 0.427733 0.177974 0.725208
Si Si4 0.096754 0.829251 0.064242
Si Si5 0.665561 0.674348 0.197269
Si Si6 0.900675 0.322033 0.507459
Si Si7 0.860227 0.181434 0.195405
O O1 0.297601 0.500000 0.053068
O O2 0.170156 0.310651 0.069831
O O3 0.359263 0.270609 0.129790
O O4 0.250000 0.250000 0.000000
O O5 0.652186 0.500000 0.386454
O O6 0.642635 0.781175 0.345477
O O7 0.796403 0.705706 0.445036
O O8 0.608388 0.725009 0.439428
O O9 0.365620 0.213716 0.762921
O O10 0.530202 0.278016 0.749888
O O11 0.456353 0.000000 0.731928
O O12 0.079422 0.816466 0.124947
O O13 0.142764 0.000000 0.064648
O O14 0.000000 0.803354 0.000000
O O15 0.672766 0.500000 0.221315
O O16 0.775926 0.723758 0.205283
O O17 0.913040 0.500000 0.526672
O O18 0.000000 0.267066 0.500000
O O19 0.838857 0.000000 0.195060
#
# Coordination Sequence:
#
# PCOD8105661 Si02
#       7
#     8   8   8   8   8   8   8
#     4  10  21  35  54  79 108 141 182 236 295 360
#     4  10  21  38  60  90 125 159 202 250 294 348
#     4  12  25  40  61  87 121 164 207 252 303 358
#     4   9  19  35  55  79 107 141 183 234 294 357
#     4  10  21  39  60  84 117 153 195 247 304 367
#     4   9  19  38  64  92 125 162 199 241 291 348
#     4  10  22  41  60  82 114 152 198 250 304 363
#
# _framework density 20.103767999999999
#
# number of rings (size 3 to 8) (size 9 to 14) (size 15 to 20)
#    0.000    2.000    0.000    3.000    2.000    4.571 
#    0.000    4.286    0.000    0.000    0.000    0.000 
#    0.000    0.000    0.000    0.000    0.000    0.000 
#
# Total GULP energy -346984.781616 kJ/mol
# GULP energy per Si atom -12392.313629 kJ/mol
# Density = 2.005801 g / cm^3
# Si number density = 20.103768 Si / 1000 Ang^3
#
#
#
# Elastic Constant Matrix: (Units=GPa)
#
#
# Indices 1 2 3 4 5 6 
#
# 1 93.5104 17.5450 40.4259 0.0000 -3.5408 0.0000
# 2 17.5450 66.5864 33.4097 0.0000 -0.6789 0.0000
# 3 40.4259 33.4097 117.3454 0.0000 -2.6847 0.0000
# 4 0.0000 0.0000 0.0000 31.9840 0.0000 -3.8436
# 5 -3.5408 -0.6789 -2.6847 0.0000 24.5069 0.0000
# 6 0.0000 0.0000 0.0000 -3.8436 0.0000 32.2562
#
#
#
# Elastic Compliance Matrix: (Units=1/GPa)
#
#
# Indices 1 2 3 4 5 6 
#
# 1 0.012712 -0.001346 -0.003965 0.000000 0.001365 0.000000
# 2 -0.001346 0.017664 -0.004570 0.000000 -0.000206 0.000000
# 3 -0.003965 -0.004570 0.011201 0.000000 0.000528 0.000000
# 4 0.000000 0.000000 0.000000 0.031720 0.000000 0.003780
# 5 0.001365 -0.000206 0.000528 0.000000 0.041054 0.000000
# 6 0.000000 0.000000 0.000000 0.003780 0.000000 0.031452
#
#
# Mechanical properties :
#
#
# Convention : Reuss Voigt Hill
#
# Bulk Modulus (GPa) = 45.84073 51.13372 48.48722
# Shear Modulus (GPa) = 28.92898 30.15354 29.54126
#
# Velocity S-wave (km/s) = 3.79751 3.87705 3.83748
# Velocity P-wave (km/s) = 6.48688 6.74775 6.61860
#
# Compressibility (1/GPa) = 0.02181466
#
# Stress axis : x y z
#
# Youngs Moduli (GPa) = 78.66348 56.61324 89.27784
#
# Poissons Ratio (x) = 0.07622 0.35398
# Poissons Ratio (y) = 0.10590 0.40800
# Poissons Ratio (z) = 0.31189 0.25872
#
# Static dielectric constant tensor:
#      x y z
#    x 3.517900 0.000000 -0.026170 
#    y 0.000000 3.635030 0.000000 
#    z -0.026170 0.000000 3.908010 
# 
# 
# High freq. dielectric constant tensor:
#      x y z
#    x 1.771850 0.000000 -0.001500 
#    y 0.000000 1.787840 0.000000 
#    z -0.001500 0.000000 1.795210 
# 
# From -- ./inp_files/339086.got.cif
#   From: 2010.06.25/outbox.cif.g09.slc.cpg/sg12_170_cif.got.tgz:339086.got - 2010.06.28 00:19:55.
