data_PCOD8105255
_publ_section_title
;
Structure prediction by ZEFSAII (Michael W. Deem and Ramdas Pophale) SiO2 
 PCOD8105255
Probable space group: C 2/M
;
_chemical_formula_sum "Si O2"
_cell_formula_units_Z 56
_cell_length_a 13.542078
_cell_length_b 25.175250
_cell_length_c 13.669690
_cell_angle_alpha 90.000000
_cell_angle_beta 42.587736
_cell_angle_gamma 90.000000
_cell_volume 3153.739012
_symmetry_space_group_name_H-M "C 2/M"
_symmetry_group_IT_number 12
_symmetry_cell_setting 'monoclinic'
loop_
_space_group_symop_operation_xyz
x,y,z
-x,y,-z
-x,-y,-z
x,-y,z
1/2+x,1/2+y,z
1/2-x,1/2+y,-z
1/2-x,1/2-y,-z
1/2+x,1/2-y,z
loop_
_atom_site_type_symbol
_atom_site_label
_atom_site_fract_x
_atom_site_fract_y
_atom_site_fract_z
Si Si1 0.429702 0.844141 0.758340
Si Si2 0.906295 0.939642 0.215395
Si Si3 0.643060 0.675733 0.436723
Si Si4 0.263020 0.222595 0.722028
Si Si5 0.714713 0.561388 0.910188
Si Si6 0.249278 0.354967 0.440927
Si Si7 0.432955 0.816413 0.145163
O O1 0.333806 0.801500 0.768400
O O2 0.347415 0.899457 0.839126
O O3 0.578460 0.858135 0.591913
O O4 0.457815 0.816291 0.842541
O O5 0.815577 0.932613 0.182387
O O6 0.823027 0.911703 0.366311
O O7 0.912125 0.000000 0.243876
O O8 0.072829 0.920222 0.075849
O O9 0.500000 0.645350 0.500000
O O10 0.627825 0.737438 0.414620
O O11 0.656333 0.673628 0.543758
O O12 0.788556 0.649987 0.282278
O O13 0.223113 0.175027 0.679946
O O14 0.114981 0.256272 0.851376
O O15 0.756086 0.500000 0.904057
O O16 0.500000 0.844039 0.000000
#
# Coordination Sequence:
#
# PCOD8105255 Si02
#       7
#     8   8   8   8   8   8   8
#     4  11  21  35  58  81 107 151 187 228 271 329
#     4   9  19  35  54  81 115 142 175 227 282 337
#     4   9  20  34  53  73 106 147 185 222 271 314
#     4  10  21  32  53  74 111 144 184 216 272 315
#     4   9  19  36  55  82 115 145 178 224 284 336
#     4  11  20  33  55  81 108 144 188 225 266 330
#     4   9  23  37  50  76 111 144 188 235 265 321
#
# _framework density 17.756701
#
# number of rings (size 3 to 8) (size 9 to 14) (size 15 to 20)
#    0.857    1.429    1.429    2.571    2.000    3.429 
#    0.000    1.429    0.000    0.857    0.000    0.000 
#    0.000    0.000    0.000    0.000    0.000    0.000 
#
# Total GULP energy -346888.956413 kJ/mol
# GULP energy per Si atom -12388.891300 kJ/mol
# Density = 1.771629 g / cm^3
# Si number density = 17.756701 Si / 1000 Ang^3
#
#
#
# Elastic Constant Matrix: (Units=GPa)
#
#
# Indices 1 2 3 4 5 6 
#
# 1 135.2880 39.9761 48.4611 -0.0001 2.7471 0.0001
# 2 39.9761 66.1702 35.3742 0.0000 -4.0475 0.0000
# 3 48.4611 35.3742 73.0836 0.0000 8.3696 0.0000
# 4 -0.0001 0.0000 0.0000 27.0613 0.0000 -6.7789
# 5 2.7471 -4.0475 8.3696 0.0000 27.4510 0.0000
# 6 0.0001 0.0000 0.0000 -6.7789 0.0000 10.7706
#
#
#
# Elastic Compliance Matrix: (Units=1/GPa)
#
#
# Indices 1 2 3 4 5 6 
#
# 1 0.010247 -0.003446 -0.005130 0.000000 0.000031 0.000000
# 2 -0.003446 0.022631 -0.009419 0.000000 0.006554 0.000000
# 3 -0.005130 -0.009419 0.022531 0.000000 -0.007745 0.000000
# 4 0.000000 0.000000 0.000000 0.043870 0.000000 0.027611
# 5 0.000031 0.006554 -0.007745 0.000000 0.039753 0.000000
# 6 0.000000 0.000000 0.000000 0.027611 0.000000 0.110223
#
#
# Mechanical properties :
#
#
# Convention : Reuss Voigt Hill
#
# Bulk Modulus (GPa) = 51.50000 58.01828 54.75914
# Shear Modulus (GPa) = 17.13983 23.10529 20.12256
#
# Velocity S-wave (km/s) = 3.11023 3.61115 3.37001
# Velocity P-wave (km/s) = 6.47798 7.08041 6.78588
#
# Compressibility (1/GPa) = 0.01941747
#
# Stress axis : x y z
#
# Youngs Moduli (GPa) = 97.58976 44.18746 44.38367
#
# Poissons Ratio (x) = 0.15228 0.22769
# Poissons Ratio (y) = 0.33631 0.41806
# Poissons Ratio (z) = 0.50065 0.41621
#
# Static dielectric constant tensor:
#      x y z
#    x 3.236060 0.000000 -0.133760 
#    y 0.000000 3.056750 0.000000 
#    z -0.133760 0.000000 3.257920 
# 
# 
# High freq. dielectric constant tensor:
#      x y z
#    x 1.681060 0.000000 -0.007560 
#    y 0.000000 1.656050 0.000000 
#    z -0.007560 0.000000 1.688960 
# 
# From -- ./inp_files/218799.got.cif
#   From: 2010.06.25/outbox.cif.g09.slc.cpg/sg12_110_cif.got.tgz:218799.got - 2010.06.28 00:19:55.
