data_PCOD8105660
_publ_section_title
;
Structure prediction by ZEFSAII (Michael W. Deem and Ramdas Pophale) SiO2 
 PCOD8105660
Probable space group: C 2/M
;
_chemical_formula_sum "Si O2"
_cell_formula_units_Z 56
_cell_length_a 28.359492
_cell_length_b 9.097082
_cell_length_c 19.365038
_cell_angle_alpha 90.000000
_cell_angle_beta 144.441645
_cell_angle_gamma 90.000000
_cell_volume 2905.309429
_symmetry_space_group_name_H-M "C 2/M"
_symmetry_group_IT_number 12
_symmetry_cell_setting 'monoclinic'
loop_
_space_group_symop_operation_xyz
x,y,z
-x,y,-z
-x,-y,-z
x,-y,z
1/2+x,1/2+y,z
1/2-x,1/2+y,-z
1/2-x,1/2-y,-z
1/2+x,1/2-y,z
loop_
_atom_site_type_symbol
_atom_site_label
_atom_site_fract_x
_atom_site_fract_y
_atom_site_fract_z
Si Si1 0.772497 0.668380 0.223862
Si Si2 0.511836 0.672535 0.796339
Si Si3 0.307369 0.671820 0.013665
Si Si4 0.957797 0.826254 0.881308
Si Si5 0.107361 0.324618 0.446264
Si Si6 0.717715 0.669012 0.309358
Si Si7 0.579072 0.333911 0.548968
O O1 0.802343 0.500000 0.254220
O O2 0.719288 0.714234 0.095060
O O3 0.718746 0.691033 0.228045
O O4 0.849873 0.773190 0.317925
O O5 0.496955 0.500000 0.766933
O O6 0.510120 0.711049 0.875797
O O7 0.439325 0.761869 0.675002
O O8 0.598496 0.720783 0.867564
O O9 0.299348 0.500000 0.017644
O O10 0.250000 0.750000 0.000000
O O11 0.866391 0.759008 0.764097
O O12 0.949425 0.000000 0.882064
O O13 0.000000 0.758124 0.000000
O O14 0.103305 0.500000 0.441553
O O15 0.200811 0.264464 0.558241
O O16 0.064809 0.266423 0.464936
O O17 0.718339 0.500000 0.330594
O O18 0.500000 0.328489 0.500000
O O19 0.599221 0.500000 0.549601
#
# Coordination Sequence:
#
# PCOD8105660 Si02
#       7
#     8   8   8   8   8   8   8
#     4   9  18  34  54  77 105 138 178 221 267 326
#     4  10  21  36  55  82 114 143 182 234 276 320
#     4  10  22  37  53  76 107 144 182 224 273 323
#     4   9  16  29  55  85 109 140 181 225 276 328
#     4  10  21  36  54  77 111 150 185 222 269 329
#     4   8  15  30  52  78 106 137 177 222 267 321
#     4  10  21  35  54  79 106 137 177 230 278 319
#
# _framework density 19.275055999999999
#
# number of rings (size 3 to 8) (size 9 to 14) (size 15 to 20)
#    0.000    2.571    0.000    2.571    2.000    6.286 
#    0.000    0.000    0.000    3.857    0.000    0.000 
#    0.000    0.000    0.000    0.000    0.000    0.000 
#
# Total GULP energy -347088.785732 kJ/mol
# GULP energy per Si atom -12396.028062 kJ/mol
# Density = 1.923118 g / cm^3
# Si number density = 19.275056 Si / 1000 Ang^3
#
#
#
# Elastic Constant Matrix: (Units=GPa)
#
#
# Indices 1 2 3 4 5 6 
#
# 1 105.1129 34.2298 57.9345 0.0000 14.5928 0.0000
# 2 34.2298 51.6383 36.7509 0.0000 3.2950 0.0000
# 3 57.9345 36.7509 129.5201 0.0000 -0.3645 0.0000
# 4 0.0000 0.0000 0.0000 28.0965 0.0000 -3.4490
# 5 14.5928 3.2950 -0.3645 0.0000 29.1467 0.0000
# 6 0.0000 0.0000 0.0000 -3.4490 0.0000 19.6478
#
#
#
# Elastic Compliance Matrix: (Units=1/GPa)
#
#
# Indices 1 2 3 4 5 6 
#
# 1 0.015290 -0.006021 -0.005151 0.000000 -0.007039 0.000000
# 2 -0.006021 0.026872 -0.004932 0.000000 -0.000085 0.000000
# 3 -0.005151 -0.004932 0.011433 0.000000 0.003279 0.000000
# 4 0.000000 0.000000 0.000000 0.036375 0.000000 0.006385
# 5 -0.007039 -0.000085 0.003279 0.000000 0.037884 0.000000
# 6 0.000000 0.000000 0.000000 0.006385 0.000000 0.052017
#
#
# Mechanical properties :
#
#
# Convention : Reuss Voigt Hill
#
# Bulk Modulus (GPa) = 46.75356 60.45573 53.60464
# Shear Modulus (GPa) = 22.80924 25.86861 24.33893
#
# Velocity S-wave (km/s) = 3.44373 3.66741 3.55733
# Velocity P-wave (km/s) = 6.33411 7.02610 6.68906
#
# Compressibility (1/GPa) = 0.02138875
#
# Stress axis : x y z
#
# Youngs Moduli (GPa) = 65.40043 37.21357 87.46233
#
# Poissons Ratio (x) = 0.22405 0.45051
# Poissons Ratio (y) = 0.39375 0.43137
# Poissons Ratio (z) = 0.33687 0.18354
#
# Static dielectric constant tensor:
#      x y z
#    x 3.579740 0.000000 0.220500 
#    y 0.000000 3.310860 0.000000 
#    z 0.220500 0.000000 3.870280 
# 
# 
# High freq. dielectric constant tensor:
#      x y z
#    x 1.751080 0.000000 0.006270 
#    y 0.000000 1.713100 0.000000 
#    z 0.006270 0.000000 1.760950 
# 
# From -- ./inp_files/281691.got.cif
#   From: 2010.06.25/outbox.cif.g09.slc.cpg/sg12_141_cif.got.tgz:281691.got - 2010.06.28 00:19:55.
