data_PCOD8105269
_publ_section_title
;
Structure prediction by ZEFSAII (Michael W. Deem and Ramdas Pophale) SiO2 
 PCOD8105269
Probable space group: C 2/M
;
_chemical_formula_sum "Si O2"
_cell_formula_units_Z 64
_cell_length_a 14.544101
_cell_length_b 17.029336
_cell_length_c 17.682861
_cell_angle_alpha 90.000000
_cell_angle_beta 127.620635
_cell_angle_gamma 90.000000
_cell_volume 3468.970535
_symmetry_space_group_name_H-M "C 2/M"
_symmetry_group_IT_number 12
_symmetry_cell_setting 'monoclinic'
loop_
_space_group_symop_operation_xyz
x,y,z
-x,y,-z
-x,-y,-z
x,-y,z
1/2+x,1/2+y,z
1/2-x,1/2+y,-z
1/2-x,1/2-y,-z
1/2+x,1/2-y,z
loop_
_atom_site_type_symbol
_atom_site_label
_atom_site_fract_x
_atom_site_fract_y
_atom_site_fract_z
Si Si1 0.000153 0.592696 0.728621
Si Si2 0.015951 0.309940 0.886081
Si Si3 0.644910 0.773079 0.394221
Si Si4 0.901671 0.909734 0.247601
Si Si5 0.415069 0.666425 0.761975
Si Si6 0.943660 0.792821 0.390000
Si Si7 0.309206 0.191886 0.894960
Si Si8 0.290500 0.171811 0.245381
O O1 0.976827 0.500000 0.719363
O O2 0.027160 0.625942 0.825396
O O3 0.112649 0.609368 0.732056
O O4 0.881616 0.634344 0.636240
O O5 0.008351 0.220742 0.851925
O O6 0.902264 0.331334 0.877573
O O7 0.132088 0.309585 0.993790
O O8 0.750000 0.750000 0.500000
O O9 0.663173 0.726064 0.326597
O O10 0.528026 0.743845 0.371743
O O11 0.911188 0.877166 0.338466
O O12 0.791792 0.872091 0.151254
O O13 0.017643 0.897362 0.254790
O O14 0.877734 0.000000 0.244538
O O15 0.321161 0.627394 0.772836
O O16 0.836743 0.732095 0.334166
O O17 0.000000 0.803448 0.500000
O O18 0.252635 0.277002 0.848286
#
# Coordination Sequence:
#
# PCOD8105269 Si02
#       8
#     8   8   8   8   8   8   8   8
#     4  10  21  34  50  79 112 135 163 210 265 312
#     4   9  18  34  56  77  98 130 175 218 253 298
#     4   9  17  32  53  72  95 130 170 209 247 294
#     4  10  21  33  46  73 109 136 162 203 257 311
#     4   9  18  33  53  74  96 132 177 210 241 293
#     4   9  17  31  52  73  93 126 172 213 249 294
#     4   9  18  34  55  76  98 132 176 215 252 299
#     4   9  18  33  54  76  99 133 175 215 251 295
#
# _framework density 18.449276999999999
#
# number of rings (size 3 to 8) (size 9 to 14) (size 15 to 20)
#    0.000    2.750    0.000    3.000    0.000    4.750 
#    0.000    3.750    0.000   12.750    0.000    5.250 
#    0.000    0.000    0.000    0.000    0.000    0.000 
#
# Total GULP energy -396470.036399 kJ/mol
# GULP energy per Si atom -12389.688637 kJ/mol
# Density = 1.840729 g / cm^3
# Si number density = 18.449277 Si / 1000 Ang^3
#
#
#
# Elastic Constant Matrix: (Units=GPa)
#
#
# Indices 1 2 3 4 5 6 
#
# 1 52.0962 8.8516 15.8182 0.0000 -1.0459 0.0000
# 2 8.8516 55.2748 25.7689 0.0000 0.9772 0.0000
# 3 15.8182 25.7689 133.8595 0.0000 1.0064 0.0000
# 4 0.0000 0.0000 0.0000 13.5282 0.0000 1.2403
# 5 -1.0459 0.9772 1.0064 0.0000 24.6553 0.0000
# 6 0.0000 0.0000 0.0000 1.2403 0.0000 17.6057
#
#
#
# Elastic Compliance Matrix: (Units=1/GPa)
#
#
# Indices 1 2 3 4 5 6 
#
# 1 0.020205 -0.002348 -0.001943 0.000000 0.001030 0.000000
# 2 -0.002348 0.020158 -0.003597 0.000000 -0.000752 0.000000
# 3 -0.001943 -0.003597 0.008395 0.000000 -0.000283 0.000000
# 4 0.000000 0.000000 0.000000 0.074400 0.000000 -0.005242
# 5 0.001030 -0.000752 -0.000283 0.000000 0.040644 0.000000
# 6 0.000000 0.000000 0.000000 -0.005242 0.000000 0.057169
#
#
# Mechanical properties :
#
#
# Convention : Reuss Voigt Hill
#
# Bulk Modulus (GPa) = 30.32108 38.01197 34.16653
# Shear Modulus (GPa) = 20.18232 23.87730 22.02981
#
# Velocity S-wave (km/s) = 3.31106 3.60142 3.45929
# Velocity P-wave (km/s) = 5.57566 6.15970 5.87494
#
# Compressibility (1/GPa) = 0.03298035
#
# Stress axis : x y z
#
# Youngs Moduli (GPa) = 49.49292 49.60866 119.12100
#
# Poissons Ratio (x) = 0.11647 0.23150
# Poissons Ratio (y) = 0.11620 0.42853
# Poissons Ratio (z) = 0.09618 0.17846
#
# Static dielectric constant tensor:
#      x y z
#    x 3.888220 0.000000 -0.146820 
#    y 0.000000 3.023030 0.000000 
#    z -0.146820 0.000000 3.317860 
# 
# 
# High freq. dielectric constant tensor:
#      x y z
#    x 1.734030 0.000000 0.002300 
#    y 0.000000 1.674590 0.000000 
#    z 0.002300 0.000000 1.715260 
# 
# From -- ./inp_files/270705.got.cif
#   From: 2010.06.25/outbox.cif.g09.slc.cpg/sg12_136_cif.got.tgz:270705.got - 2010.06.28 00:19:55.
