data_PCOD8105881
_publ_section_title
;
Structure prediction by ZEFSAII (Michael W. Deem and Ramdas Pophale) SiO2 
 PCOD8105881
Probable space group: C 2/M
;
_chemical_formula_sum "Si O2"
_cell_formula_units_Z 40
_cell_length_a 24.357315
_cell_length_b 20.717959
_cell_length_c 7.910883
_cell_angle_alpha 90.000000
_cell_angle_beta 30.364455
_cell_angle_gamma 90.000000
_cell_volume 2018.000576
_symmetry_space_group_name_H-M "C 2/M"
_symmetry_group_IT_number 12
_symmetry_cell_setting 'monoclinic'
loop_
_space_group_symop_operation_xyz
x,y,z
-x,y,-z
-x,-y,-z
x,-y,z
1/2+x,1/2+y,z
1/2-x,1/2+y,-z
1/2-x,1/2-y,-z
1/2+x,1/2-y,z
loop_
_atom_site_type_symbol
_atom_site_label
_atom_site_fract_x
_atom_site_fract_y
_atom_site_fract_z
Si Si1 0.683994 0.849499 0.170322
Si Si2 0.751942 0.424799 0.311900
Si Si3 0.305766 0.735203 0.091950
Si Si4 0.883555 0.190353 0.225174
Si Si5 0.508916 0.929480 0.275538
O O1 0.775119 0.826222 0.058909
O O2 0.580337 0.877716 0.550346
O O3 0.739771 0.904783 0.907415
O O4 0.641073 0.790854 0.165186
O O5 0.721294 0.500000 0.404649
O O6 0.660448 0.383115 0.649614
O O7 0.867449 0.409673 0.098250
O O8 0.194752 0.761889 0.466166
O O9 0.390087 0.712538 0.011881
O O10 0.000000 0.194684 0.000000
O O11 0.500000 0.933454 0.500000
O O12 0.482994 0.000000 0.265836
#
# Coordination Sequence:
#
# PCOD8105881 Si02
#       5
#     8   8   8   8   8
#     4   9  16  31  54  77 102 127 156 204 256 293
#     4   9  18  33  51  73 100 131 168 203 241 292
#     4   9  20  34  50  77 102 127 164 203 245 295
#     4  10  21  36  51  69  99 136 168 198 240 296
#     4   8  14  26  49  77  99 123 156 197 247 293
#
# _framework density 19.8216
#
# number of rings (size 3 to 8) (size 9 to 14) (size 15 to 20)
#    0.000    3.000    0.000    1.800    0.000    8.400 
#    0.000   10.000    0.000    3.600    0.000    0.000 
#    0.000    0.800    0.000    0.000    0.000    0.000 
#
# Total GULP energy -247895.404662 kJ/mol
# GULP energy per Si atom -12394.770233 kJ/mol
# Density = 1.977649 g / cm^3
# Si number density = 19.821600 Si / 1000 Ang^3
#
#
#
# Elastic Constant Matrix: (Units=GPa)
#
#
# Indices 1 2 3 4 5 6 
#
# 1 104.8899 51.3790 38.8977 0.0000 -18.1736 0.0000
# 2 51.3790 104.1567 34.9130 0.0000 -16.4611 0.0000
# 3 38.8977 34.9130 57.9344 0.0000 -23.2955 0.0000
# 4 0.0000 0.0000 0.0000 24.1553 0.0000 -8.1061
# 5 -18.1736 -16.4611 -23.2955 0.0000 22.6427 0.0000
# 6 0.0000 0.0000 0.0000 -8.1061 0.0000 22.8584
#
#
#
# Elastic Compliance Matrix: (Units=1/GPa)
#
#
# Indices 1 2 3 4 5 6 
#
# 1 0.014459 -0.004805 -0.006056 0.000000 0.001882 0.000000
# 2 -0.004805 0.013693 -0.004389 0.000000 0.001582 0.000000
# 3 -0.006056 -0.004389 0.035364 0.000000 0.028333 0.000000
# 4 0.000000 0.000000 0.000000 0.046991 0.000000 0.016664
# 5 0.001882 0.001582 0.028333 0.000000 0.075974 0.000000
# 6 0.000000 0.000000 0.000000 0.016664 0.000000 0.049657
#
#
# Mechanical properties :
#
#
# Convention : Reuss Voigt Hill
#
# Bulk Modulus (GPa) = 30.28835 57.48447 43.88641
# Shear Modulus (GPa) = 18.00866 23.38402 20.69634
#
# Velocity S-wave (km/s) = 3.01746 3.43844 3.23481
# Velocity P-wave (km/s) = 5.23963 6.69535 6.01172
#
# Compressibility (1/GPa) = 0.03301600
#
# Stress axis : x y z
#
# Youngs Moduli (GPa) = 69.15915 73.03239 28.27711
#
# Poissons Ratio (x) = 0.35095 0.17124
# Poissons Ratio (y) = 0.33234 0.12411
# Poissons Ratio (z) = 0.41880 0.32055
#
# Static dielectric constant tensor:
#      x y z
#    x 3.423750 0.000000 -0.019830 
#    y 0.000000 3.807640 0.000000 
#    z -0.019830 0.000000 3.479920 
# 
# 
# High freq. dielectric constant tensor:
#      x y z
#    x 1.746110 0.000000 -0.003620 
#    y 0.000000 1.778650 0.000000 
#    z -0.003620 0.000000 1.746060 
# 
# From -- ./inp_files/62574.got.cif
#   From: 2010.06.25/outbox.cif.g09.slc.cpg/sg12_32_cif.got.tgz:62574.got - 2010.06.28 00:19:55.
