data_PCOD8105450
_publ_section_title
;
Structure prediction by ZEFSAII (Michael W. Deem and Ramdas Pophale) SiO2 
 PCOD8105450
Probable space group: C 2/M
;
_chemical_formula_sum "Si O2"
_cell_formula_units_Z 64
_cell_length_a 17.633419
_cell_length_b 20.313797
_cell_length_c 9.174725
_cell_angle_alpha 90.000000
_cell_angle_beta 94.334764
_cell_angle_gamma 90.000000
_cell_volume 3277.001142
_symmetry_space_group_name_H-M "C 2/M"
_symmetry_group_IT_number 12
_symmetry_cell_setting 'monoclinic'
loop_
_space_group_symop_operation_xyz
x,y,z
-x,y,-z
-x,-y,-z
x,-y,z
1/2+x,1/2+y,z
1/2-x,1/2+y,-z
1/2-x,1/2-y,-z
1/2+x,1/2-y,z
loop_
_atom_site_type_symbol
_atom_site_label
_atom_site_fract_x
_atom_site_fract_y
_atom_site_fract_z
Si Si1 0.311009 0.271277 0.187180
Si Si2 0.941886 0.179647 0.732844
Si Si3 0.046350 0.071016 0.654553
Si Si4 0.530825 0.198950 0.841685
Si Si5 0.546861 0.074828 0.652372
Si Si6 0.168179 0.852601 0.535981
Si Si7 0.274771 0.075356 0.332049
Si Si8 0.698183 0.661949 0.098519
O O1 0.383066 0.225777 0.155546
O O2 0.307821 0.293881 0.353736
O O3 0.234934 0.229147 0.162039
O O4 0.304813 0.334776 0.078041
O O5 0.897847 0.176766 0.574554
O O6 0.888257 0.160449 0.859226
O O7 0.010594 0.127021 0.752015
O O8 0.976061 0.252287 0.745831
O O9 0.133324 0.088995 0.629131
O O10 0.000000 0.065326 0.500000
O O11 0.045380 0.000000 0.734813
O O12 0.522911 0.126124 0.773228
O O13 0.500000 0.194509 0.000000
O O14 0.500000 0.090635 0.500000
O O15 0.635934 0.083191 0.633906
O O16 0.529772 0.000000 0.703215
O O17 0.237884 0.879810 0.452233
O O18 0.246143 0.100013 0.168345
O O19 0.248359 0.000000 0.344995
#
# Coordination Sequence:
#
# PCOD8105450 Si02
#       8
#     8   8   8   8   8   8   8   8
#     4  11  22  38  57  88 124 154 201 254 309 351
#     4  10  21  34  57  90 118 156 202 248 299 355
#     4   9  17  31  52  81 116 152 190 233 285 344
#     4  12  23  39  64  89 122 167 197 253 305 367
#     4  10  24  44  66  93 122 153 204 260 309 366
#     4  10  21  35  60  90 121 154 200 258 295 361
#     4  10  21  41  63  86 119 166 205 246 308 367
#     4  10  22  39  58  84 121 159 197 249 304 370
#
# _framework density 19.530049999999999
#
# number of rings (size 3 to 8) (size 9 to 14) (size 15 to 20)
#    0.000    1.750    3.750    0.375    1.750    6.250 
#    0.000    1.250    0.000    1.125    0.000    0.000 
#    0.000    0.000    0.000    0.000    0.000    0.000 
#
# Total GULP energy -396729.156494 kJ/mol
# GULP energy per Si atom -12397.786140 kJ/mol
# Density = 1.948560 g / cm^3
# Si number density = 19.530050 Si / 1000 Ang^3
#
#
#
# Elastic Constant Matrix: (Units=GPa)
#
#
# Indices 1 2 3 4 5 6 
#
# 1 67.1281 36.9143 22.0431 0.0000 -2.3622 0.0000
# 2 36.9143 127.4978 61.4323 0.0000 -6.0654 0.0000
# 3 22.0431 61.4323 91.8918 0.0000 -5.4618 0.0000
# 4 0.0000 0.0000 0.0000 23.4430 0.0000 -0.4334
# 5 -2.3622 -6.0654 -5.4618 0.0000 22.0136 0.0000
# 6 0.0000 0.0000 0.0000 -0.4334 0.0000 26.5161
#
#
#
# Elastic Compliance Matrix: (Units=1/GPa)
#
#
# Indices 1 2 3 4 5 6 
#
# 1 0.017812 -0.004561 -0.001203 0.000000 0.000356 0.000000
# 2 -0.004561 0.012774 -0.007374 0.000000 0.001201 0.000000
# 3 -0.001203 -0.007374 0.016212 0.000000 0.001861 0.000000
# 4 0.000000 0.000000 0.000000 0.042670 0.000000 0.000697
# 5 0.000356 0.001201 0.001861 0.000000 0.046257 0.000000
# 6 0.000000 0.000000 0.000000 0.000697 0.000000 0.037724
#
#
# Mechanical properties :
#
#
# Convention : Reuss Voigt Hill
#
# Bulk Modulus (GPa) = 48.72767 58.58856 53.65811
# Shear Modulus (GPa) = 24.20539 25.46975 24.83757
#
# Velocity S-wave (km/s) = 3.52432 3.61519 3.57005
# Velocity P-wave (km/s) = 6.44712 6.89133 6.67292
#
# Compressibility (1/GPa) = 0.02052222
#
# Stress axis : x y z
#
# Youngs Moduli (GPa) = 56.14088 78.28350 61.68451
#
# Poissons Ratio (x) = 0.35703 0.07419
# Poissons Ratio (y) = 0.25604 0.45489
# Poissons Ratio (z) = 0.06752 0.57730
#
# Static dielectric constant tensor:
#      x y z
#    x 3.648950 0.000000 0.007970 
#    y 0.000000 3.783940 0.000000 
#    z 0.007970 0.000000 3.501210 
# 
# 
# High freq. dielectric constant tensor:
#      x y z
#    x 1.768450 0.000000 -0.001280 
#    y 0.000000 1.759710 0.000000 
#    z -0.001280 0.000000 1.746540 
# 
# From -- ./inp_files/77490.got.cif
#   From: 2010.06.25/outbox.cif.g09.slc.cpg/sg12_39_cif.got.tgz:77490.got - 2010.06.28 00:19:55.
