data_PCOD8105867
_publ_section_title
;
Structure prediction by ZEFSAII (Michael W. Deem and Ramdas Pophale) SiO2 
 PCOD8105867
Probable space group: C 2/M
;
_chemical_formula_sum "Si O2"
_cell_formula_units_Z 56
_cell_length_a 12.134892
_cell_length_b 19.861909
_cell_length_c 13.168866
_cell_angle_alpha 90.000000
_cell_angle_beta 66.968761
_cell_angle_gamma 90.000000
_cell_volume 2920.994760
_symmetry_space_group_name_H-M "C 2/M"
_symmetry_group_IT_number 12
_symmetry_cell_setting 'monoclinic'
loop_
_space_group_symop_operation_xyz
x,y,z
-x,y,-z
-x,-y,-z
x,-y,z
1/2+x,1/2+y,z
1/2-x,1/2+y,-z
1/2-x,1/2-y,-z
1/2+x,1/2-y,z
loop_
_atom_site_type_symbol
_atom_site_label
_atom_site_fract_x
_atom_site_fract_y
_atom_site_fract_z
Si Si1 0.485249 0.826999 0.726419
Si Si2 0.599278 0.206115 0.884920
Si Si3 0.704382 0.921734 0.279104
Si Si4 0.549760 0.638571 0.874859
Si Si5 0.638207 0.308962 0.429854
Si Si6 0.672863 0.162785 0.482487
Si Si7 0.639320 0.683415 0.207347
O O1 0.577815 0.833699 0.786693
O O2 0.383541 0.884219 0.768503
O O3 0.553551 0.833246 0.594099
O O4 0.423784 0.755080 0.758589
O O5 0.596006 0.285722 0.868924
O O6 0.727862 0.188942 0.888271
O O7 0.500000 0.182055 0.000000
O O8 0.842565 0.907592 0.202885
O O9 0.671349 0.898802 0.405139
O O10 0.678356 0.000000 0.279374
O O11 0.441215 0.634505 0.832438
O O12 0.500000 0.611078 0.000000
O O13 0.500000 0.313373 0.500000
O O14 0.685740 0.231568 0.412629
O O15 0.710533 0.348935 0.489862
O O16 0.660140 0.344272 0.313564
#
# Coordination Sequence:
#
# PCOD8105867 Si02
#       7
#     8   8   8   8   8   8   8
#     4  11  21  35  57  89 123 153 196 234 305 361
#     4  10  21  35  61  95 123 150 185 251 313 355
#     4  12  25  41  58  82 124 164 204 241 280 348
#     4  10  23  38  60  89 121 157 200 244 295 356
#     4  11  18  30  56  86 120 146 181 242 300 358
#     4  11  21  33  54  87 116 153 197 237 292 354
#     4  11  19  35  60  92 124 148 184 252 307 353
#
# _framework density 19.17155
#
# number of rings (size 3 to 8) (size 9 to 14) (size 15 to 20)
#    0.000    1.143    5.714    1.286    6.000    3.143 
#    0.000    0.000    0.000    5.143    0.000    0.000 
#    0.000    0.000    0.000    0.000    0.000    0.000 
#
# Total GULP energy -347200.591409 kJ/mol
# GULP energy per Si atom -12400.021122 kJ/mol
# Density = 1.912791 g / cm^3
# Si number density = 19.171550 Si / 1000 Ang^3
#
#
#
# Elastic Constant Matrix: (Units=GPa)
#
#
# Indices 1 2 3 4 5 6 
#
# 1 114.1656 11.9054 26.7987 0.0000 -7.9482 0.0000
# 2 11.9054 47.4145 15.8127 0.0000 1.5606 0.0000
# 3 26.7987 15.8127 106.1417 0.0000 -3.1044 0.0000
# 4 0.0000 0.0000 0.0000 14.5162 0.0000 -0.7254
# 5 -7.9482 1.5606 -3.1044 0.0000 36.9614 0.0000
# 6 0.0000 0.0000 0.0000 -0.7254 0.0000 12.7374
#
#
#
# Elastic Compliance Matrix: (Units=1/GPa)
#
#
# Indices 1 2 3 4 5 6 
#
# 1 0.009572 -0.001769 -0.002096 0.000000 0.001957 0.000000
# 2 -0.001769 0.022575 -0.002963 0.000000 -0.001582 0.000000
# 3 -0.002096 -0.002963 0.010408 0.000000 0.000549 0.000000
# 4 0.000000 0.000000 0.000000 0.069085 0.000000 0.003935
# 5 0.001957 -0.001582 0.000549 0.000000 0.027589 0.000000
# 6 0.000000 0.000000 0.000000 0.003935 0.000000 0.078733
#
#
# Mechanical properties :
#
#
# Convention : Reuss Voigt Hill
#
# Bulk Modulus (GPa) = 34.60263 41.86171 38.23217
# Shear Modulus (GPa) = 20.72538 27.05669 23.89104
#
# Velocity S-wave (km/s) = 3.29150 3.76079 3.53394
# Velocity P-wave (km/s) = 5.70381 6.38285 6.05286
#
# Compressibility (1/GPa) = 0.02889954
#
# Stress axis : x y z
#
# Youngs Moduli (GPa) = 104.47244 44.29694 96.07996
#
# Poissons Ratio (x) = 0.07835 0.20138
# Poissons Ratio (y) = 0.18480 0.28467
# Poissons Ratio (z) = 0.21897 0.13124
#
# Static dielectric constant tensor:
#      x y z
#    x 3.972190 0.000000 0.139360 
#    y 0.000000 2.884480 0.000000 
#    z 0.139360 0.000000 3.816350 
# 
# 
# High freq. dielectric constant tensor:
#      x y z
#    x 1.775520 0.000000 -0.003590 
#    y 0.000000 1.665740 0.000000 
#    z -0.003590 0.000000 1.757650 
# 
# From -- ./inp_files/206593.got.cif
#   From: 2010.06.25/outbox.cif.g09.slc.cpg/sg12_104_cif.got.tgz:206593.got - 2010.06.28 00:19:55.
