data_PCOD8105315
_publ_section_title
;
Structure prediction by ZEFSAII (Michael W. Deem and Ramdas Pophale) SiO2 
 PCOD8105315
Probable space group: C 2/M
;
_chemical_formula_sum "Si O2"
_cell_formula_units_Z 52
_cell_length_a 13.756027
_cell_length_b 19.269203
_cell_length_c 17.791496
_cell_angle_alpha 90.000000
_cell_angle_beta 35.078786
_cell_angle_gamma 90.000000
_cell_volume 2710.267555
_symmetry_space_group_name_H-M "C 2/M"
_symmetry_group_IT_number 12
_symmetry_cell_setting 'monoclinic'
loop_
_space_group_symop_operation_xyz
x,y,z
-x,y,-z
-x,-y,-z
x,-y,z
1/2+x,1/2+y,z
1/2-x,1/2+y,-z
1/2-x,1/2-y,-z
1/2+x,1/2-y,z
loop_
_atom_site_type_symbol
_atom_site_label
_atom_site_fract_x
_atom_site_fract_y
_atom_site_fract_z
Si Si1 0.574836 0.137094 0.526443
Si Si2 0.008249 0.000000 0.165048
Si Si3 0.960081 0.648070 0.764467
Si Si4 0.964796 0.144448 0.248998
Si Si5 0.810798 0.500000 0.863121
Si Si6 0.643482 0.000000 0.331721
Si Si7 0.243981 0.229517 0.141263
Si Si8 0.448068 0.230274 0.155890
O O1 0.500000 0.179784 0.500000
O O2 0.540203 0.165242 0.631921
O O3 0.775403 0.132309 0.396369
O O4 0.479141 0.064227 0.579271
O O5 0.053036 0.930068 0.181429
O O6 0.805709 0.000000 0.282530
O O7 0.129363 0.000000 0.016509
O O8 0.924970 0.568143 0.807709
O O9 0.786984 0.692299 0.870279
O O10 0.079769 0.679585 0.754759
O O11 0.967794 0.190209 0.170875
O O12 0.075755 0.183058 0.241686
O O13 0.764198 0.500000 0.806086
O O14 0.288850 0.228261 0.200852
O O15 0.391420 0.202382 0.993085
#
# Coordination Sequence:
#
# PCOD8105315 Si02
#       8
#     8   4   8   8   4   4   8   8
#     4  11  20  35  53  80 118 152 183 222 279 339
#     4  12  20  34  57  87 115 142 188 236 285 341
#     4  10  21  38  56  83 114 150 188 233 285 330
#     4  11  22  35  57  83 112 151 191 230 278 339
#     4  10  21  33  57  87 112 141 189 240 282 337
#     4  10  21  34  51  83 121 151 173 226 301 342
#     4  10  21  38  58  82 112 149 188 235 288 336
#     4  10  21  39  58  80 115 150 186 235 291 332
#
# _framework density 19.186297
#
# number of rings (size 3 to 8) (size 9 to 14) (size 15 to 20)
#    0.000    1.538    1.538    5.538    2.154    2.462 
#    0.000    3.077    0.000    2.769    0.000    4.308 
#    0.000    0.000    0.000    0.000    0.000    0.000 
#
# Total GULP energy -322104.119033 kJ/mol
# GULP energy per Si atom -12388.619963 kJ/mol
# Density = 1.914263 g / cm^3
# Si number density = 19.186297 Si / 1000 Ang^3
#
#
#
# Elastic Constant Matrix: (Units=GPa)
#
#
# Indices 1 2 3 4 5 6 
#
# 1 152.4817 56.6957 34.6732 0.0071 5.6257 -0.0021
# 2 56.6957 121.1456 28.1280 0.0081 -0.1965 -0.0017
# 3 34.6732 28.1280 94.6721 0.0063 2.9839 -0.0033
# 4 0.0071 0.0081 0.0063 26.2719 -0.0089 0.0476
# 5 5.6257 -0.1965 2.9839 -0.0089 30.8894 0.0021
# 6 -0.0021 -0.0017 -0.0033 0.0476 0.0021 21.8526
#
#
#
# Elastic Compliance Matrix: (Units=1/GPa)
#
#
# Indices 1 2 3 4 5 6 
#
# 1 0.008341 -0.003444 -0.001989 -0.000001 -0.001349 0.000000
# 2 -0.003444 0.010291 -0.001824 -0.000002 0.000869 0.000000
# 3 -0.001989 -0.001824 0.011858 -0.000002 -0.000795 0.000002
# 4 -0.000001 -0.000002 -0.000002 0.038064 0.000011 -0.000083
# 5 -0.001349 0.000869 -0.000795 0.000011 0.032702 -0.000003
# 6 0.000000 0.000000 0.000002 -0.000083 -0.000003 0.045761
#
#
# Mechanical properties :
#
#
# Convention : Reuss Voigt Hill
#
# Bulk Modulus (GPa) = 62.59054 67.47702 65.03378
# Shear Modulus (GPa) = 29.96612 32.38960 31.17786
#
# Velocity S-wave (km/s) = 3.95631 4.11318 4.03551
# Velocity P-wave (km/s) = 7.31869 7.60286 7.46213
#
# Compressibility (1/GPa) = 0.01597686
#
# Stress axis : x y z
#
# Youngs Moduli (GPa) = 119.89423 97.17191 84.33023
#
# Poissons Ratio (x) = 0.33464 0.16774
# Poissons Ratio (y) = 0.41289 0.15379
# Poissons Ratio (z) = 0.23848 0.17721
#
# Static dielectric constant tensor:
#      x y z
#    x 3.687690 0.000000 0.264650 
#    y 0.000000 3.744180 0.000000 
#    z 0.264650 0.000000 3.604360 
# 
# 
# High freq. dielectric constant tensor:
#      x y z
#    x 1.739120 0.000000 0.012940 
#    y 0.000000 1.734480 0.000000 
#    z 0.012940 0.000000 1.751560 
# 
# From -- ./inp_files/311501.got.cif
#   From: 2010.06.25/outbox.cif.g09.slc.cpg/sg12_156_cif.got.tgz:311501.got - 2010.06.28 00:19:55.
