data_PCOD8105801
_publ_section_title
;
Structure prediction by ZEFSAII (Michael W. Deem and Ramdas Pophale) SiO2 
 PCOD8105801
Probable space group: C 2/M
;
_chemical_formula_sum "Si O2"
_cell_formula_units_Z 64
_cell_length_a 14.292832
_cell_length_b 14.002460
_cell_length_c 17.968402
_cell_angle_alpha 90.000000
_cell_angle_beta 124.056604
_cell_angle_gamma 90.000000
_cell_volume 2979.316155
_symmetry_space_group_name_H-M "C 2/M"
_symmetry_group_IT_number 12
_symmetry_cell_setting 'monoclinic'
loop_
_space_group_symop_operation_xyz
x,y,z
-x,y,-z
-x,-y,-z
x,-y,z
1/2+x,1/2+y,z
1/2-x,1/2+y,-z
1/2-x,1/2-y,-z
1/2+x,1/2-y,z
loop_
_atom_site_type_symbol
_atom_site_label
_atom_site_fract_x
_atom_site_fract_y
_atom_site_fract_z
Si Si1 0.731981 0.611098 0.789032
Si Si2 0.187126 0.603462 0.784867
Si Si3 0.578557 0.791311 0.218275
Si Si4 0.559312 0.890155 0.355012
Si Si5 0.685212 0.603493 0.304159
Si Si6 0.675920 0.747351 0.894107
Si Si7 0.127274 0.299220 0.527273
Si Si8 0.126707 0.103726 0.586356
O O1 0.766431 0.500000 0.816459
O O2 0.840041 0.677427 0.813593
O O3 0.682537 0.651036 0.845715
O O4 0.637890 0.619656 0.680919
O O5 0.160050 0.500000 0.807438
O O6 0.285559 0.597562 0.769417
O O7 0.231007 0.669918 0.869535
O O8 0.071475 0.643532 0.696962
O O9 0.598381 0.875615 0.287249
O O10 0.601479 0.692135 0.272848
O O11 0.449634 0.777915 0.135365
O O12 0.629460 0.820453 0.440483
O O13 0.575453 0.000000 0.386090
O O14 0.632513 0.500000 0.304930
O O15 0.798811 0.619278 0.401385
O O16 0.750000 0.750000 0.000000
O O17 0.182817 0.194426 0.569474
O O18 0.000000 0.306332 0.500000
O O19 0.000000 0.100648 0.500000
O O20 0.183053 0.000000 0.590839
#
# Coordination Sequence:
#
# PCOD8105801 Si02
#       8
#     8   8   8   8   8   8   8   8
#     4  11  23  46  72  98 138 184 225 276 337 400
#     4   9  18  37  63  87 120 162 206 257 322 384
#     4  11  24  43  66  92 131 173 222 273 340 404
#     4  10  21  35  57  91 125 167 219 271 315 378
#     4  11  21  37  60  90 126 169 214 259 321 388
#     4  11  25  44  70 101 129 164 217 279 344 414
#     4  11  19  32  59  90 128 170 223 268 321 374
#     4   9  19  34  60  95 132 180 226 259 317 396
#
# _framework density 21.481438000000001
#
# number of rings (size 3 to 8) (size 9 to 14) (size 15 to 20)
#    0.000    1.625    3.750    0.750    5.250    3.000 
#    0.000    1.250    0.000    1.500    0.000    0.000 
#    0.000    0.000    0.000    0.000    0.000    0.000 
#
# Total GULP energy -396458.306542 kJ/mol
# GULP energy per Si atom -12389.322079 kJ/mol
# Density = 2.143255 g / cm^3
# Si number density = 21.481438 Si / 1000 Ang^3
#
#
#
# Elastic Constant Matrix: (Units=GPa)
#
#
# Indices 1 2 3 4 5 6 
#
# 1 53.1857 3.1678 28.1476 0.0000 -1.1169 0.0000
# 2 3.1678 136.1159 58.2567 0.0000 -4.8141 0.0000
# 3 28.1476 58.2567 144.5150 0.0000 -8.5740 0.0000
# 4 0.0000 0.0000 0.0000 17.1482 0.0000 -4.4409
# 5 -1.1169 -4.8141 -8.5740 0.0000 20.6308 0.0000
# 6 0.0000 0.0000 0.0000 -4.4409 0.0000 24.5478
#
#
#
# Elastic Compliance Matrix: (Units=1/GPa)
#
#
# Indices 1 2 3 4 5 6 
#
# 1 0.021232 0.001536 -0.004783 0.000000 -0.000480 0.000000
# 2 0.001536 0.008997 -0.003892 0.000000 0.000565 0.000000
# 3 -0.004783 -0.003892 0.009588 0.000000 0.002817 0.000000
# 4 0.000000 0.000000 0.000000 0.061182 0.000000 0.011068
# 5 -0.000480 0.000565 0.002817 0.000000 0.049748 0.000000
# 6 0.000000 0.000000 0.000000 0.011068 0.000000 0.042739
#
#
# Mechanical properties :
#
#
# Convention : Reuss Voigt Hill
#
# Bulk Modulus (GPa) = 39.15850 56.99565 48.07707
# Shear Modulus (GPa) = 23.11857 28.74831 25.93344
#
# Velocity S-wave (km/s) = 3.28412 3.66223 3.47832
# Velocity P-wave (km/s) = 5.71395 6.66878 6.20974
#
# Compressibility (1/GPa) = 0.02553724
#
# Stress axis : x y z
#
# Youngs Moduli (GPa) = 47.09915 111.14992 104.30160
#
# Poissons Ratio (x) = -0.17073 0.49888
# Poissons Ratio (y) = -0.07234 0.40599
# Poissons Ratio (z) = 0.22528 0.43265
#
# Static dielectric constant tensor:
#      x y z
#    x 3.643400 0.000000 -0.017430 
#    y 0.000000 4.576670 0.000000 
#    z -0.017430 0.000000 3.607480 
# 
# 
# High freq. dielectric constant tensor:
#      x y z
#    x 1.820350 0.000000 0.001920 
#    y 0.000000 1.863930 0.000000 
#    z 0.001920 0.000000 1.816590 
# 
# From -- ./inp_files/270690.got.cif
#   From: 2010.06.25/outbox.cif.g09.slc.cpg/sg12_136_cif.got.tgz:270690.got - 2010.06.28 00:19:55.
