data_PCOD8105210
_publ_section_title
;
Structure prediction by ZEFSAII (Michael W. Deem and Ramdas Pophale) SiO2 
 PCOD8105210
Probable space group: C 2/M
;
_chemical_formula_sum "Si O2"
_cell_formula_units_Z 40
_cell_length_a 12.303294
_cell_length_b 22.014505
_cell_length_c 6.389072
_cell_angle_alpha 90.000000
_cell_angle_beta 103.078065
_cell_angle_gamma 90.000000
_cell_volume 1685.601881
_symmetry_space_group_name_H-M "C 2/M"
_symmetry_group_IT_number 12
_symmetry_cell_setting 'monoclinic'
loop_
_space_group_symop_operation_xyz
x,y,z
-x,y,-z
-x,-y,-z
x,-y,z
1/2+x,1/2+y,z
1/2-x,1/2+y,-z
1/2-x,1/2-y,-z
1/2+x,1/2-y,z
loop_
_atom_site_type_symbol
_atom_site_label
_atom_site_fract_x
_atom_site_fract_y
_atom_site_fract_z
Si Si1 0.586989 0.500000 0.234987
Si Si2 0.500000 0.714816 0.000000
Si Si3 0.654755 0.500000 0.739570
Si Si4 0.831800 0.867461 0.747540
Si Si5 0.690932 0.898420 0.309432
Si Si6 0.500000 0.104857 0.500000
Si Si7 0.868868 0.675924 0.095465
O O1 0.598518 0.500000 0.489710
O O2 0.647231 0.438528 0.181126
O O3 0.551402 0.500000 0.866194
O O4 0.446677 0.670448 0.799910
O O5 0.593544 0.754745 0.921617
O O6 0.736869 0.443115 0.803536
O O7 0.775847 0.861078 0.494724
O O8 0.758497 0.833029 0.890315
O O9 0.599381 0.932458 0.424371
O O10 0.619429 0.855133 0.127764
O O11 0.445943 0.146934 0.303086
#
# Coordination Sequence:
#
# PCOD8105210 Si02
#       7
#     4   4   4   8   8   4   8
#     4   9  20  46  67  98 138 168 220 277 338 395
#     4  12  24  45  64  99 138 180 222 272 332 394
#     4   9  20  38  71 101 131 172 220 275 335 400
#     4  10  25  42  69 100 132 177 218 277 336 393
#     4  10  21  42  67  98 132 176 223 275 329 394
#     4  10  20  43  68  88 138 181 220 276 328 388
#     4  11  23  45  65  97 133 176 228 272 328 397
#
# _framework density 23.730394
#
# number of rings (size 3 to 8) (size 9 to 14) (size 15 to 20)
#    0.000    1.800    2.000    0.600    2.800    2.400 
#    3.600    4.000    0.000    0.000    0.000    0.000 
#    0.000    0.000    0.000    0.000    0.000    0.000 
#
# Total GULP energy -247803.088540 kJ/mol
# GULP energy per Si atom -12390.154427 kJ/mol
# Density = 2.367638 g / cm^3
# Si number density = 23.730394 Si / 1000 Ang^3
#
#
#
# Elastic Constant Matrix: (Units=GPa)
#
#
# Indices 1 2 3 4 5 6 
#
# 1 149.5630 67.0442 49.6283 0.0000 -11.1550 0.0000
# 2 67.0442 133.2037 41.6438 0.0000 2.9490 0.0000
# 3 49.6283 41.6438 123.9820 0.0000 18.0340 0.0000
# 4 0.0000 0.0000 0.0000 -5.4721 0.0000 -4.5282
# 5 -11.1550 2.9490 18.0340 0.0000 45.4563 0.0000
# 6 0.0000 0.0000 0.0000 -4.5282 0.0000 36.1146
#
#
#
# Elastic Compliance Matrix: (Units=1/GPa)
#
#
# Indices 1 2 3 4 5 6 
#
# 1 0.009842 -0.004056 -0.003148 0.000000 0.003928 0.000000
# 2 -0.004056 0.010076 -0.001614 0.000000 -0.001009 0.000000
# 3 -0.003148 -0.001614 0.010575 0.000000 -0.004864 0.000000
# 4 0.000000 0.000000 0.000000 -0.165567 0.000000 -0.020759
# 5 0.003928 -0.001009 -0.004864 0.000000 0.024958 0.000000
# 6 0.000000 0.000000 0.000000 -0.020759 0.000000 0.025087
#
#
# Mechanical properties :
#
#
# Convention : Reuss Voigt Hill
#
# Bulk Modulus (GPa) = 77.78466 80.37570 79.08018
# Shear Modulus (GPa) = -79.23212 31.78193 -23.72510
#
# Velocity S-wave (km/s) = -5.78454 3.66360 -3.16536
# Velocity P-wave (km/s) = 3.43000 7.19999 4.47632
#
# Compressibility (1/GPa) = 0.01285600
#
# Stress axis : x y z
#
# Youngs Moduli (GPa) = 101.60369 99.24718 94.55821
#
# Poissons Ratio (x) = 0.40259 0.29772
# Poissons Ratio (y) = 0.41215 0.15260
# Poissons Ratio (z) = 0.31990 0.16017
#
# Static dielectric constant tensor:
#      x y z
#    x 4.792620 0.000000 0.034240 
#    y 0.000000 3.886570 0.000000 
#    z 0.034240 0.000000 4.331600 
# 
# 
# High freq. dielectric constant tensor:
#      x y z
#    x 1.965250 0.000000 0.010370 
#    y 0.000000 1.906770 0.000000 
#    z 0.010370 0.000000 1.957750 
# 
# From -- ./inp_files/11569.got.cif
#   From: 2010.06.25/outbox.cif.g09.slc.cpg/sg12_6_cif.got.tgz:11569.got - 2010.06.28 00:19:55.
