data_PCOD8105999
_publ_section_title
;
Structure prediction by ZEFSAII (Michael W. Deem and Ramdas Pophale) SiO2 
 PCOD8105999
Probable space group: C 2/M
;
_chemical_formula_sum "Si O2"
_cell_formula_units_Z 56
_cell_length_a 27.827853
_cell_length_b 8.900040
_cell_length_c 14.389756
_cell_angle_alpha 90.000000
_cell_angle_beta 119.981241
_cell_angle_gamma 90.000000
_cell_volume 3087.008203
_symmetry_space_group_name_H-M "C 2/M"
_symmetry_group_IT_number 12
_symmetry_cell_setting 'monoclinic'
loop_
_space_group_symop_operation_xyz
x,y,z
-x,y,-z
-x,-y,-z
x,-y,z
1/2+x,1/2+y,z
1/2-x,1/2+y,-z
1/2-x,1/2-y,-z
1/2+x,1/2-y,z
loop_
_atom_site_type_symbol
_atom_site_label
_atom_site_fract_x
_atom_site_fract_y
_atom_site_fract_z
Si Si1 0.074972 0.322050 0.157339
Si Si2 0.291619 0.175796 0.413319
Si Si3 0.870947 0.823827 0.361769
Si Si4 0.171818 0.823805 0.366901
Si Si5 0.570919 0.822728 0.752631
Si Si6 0.951218 0.676934 0.069279
Si Si7 0.963114 0.336744 0.553864
O O1 0.082981 0.500000 0.180563
O O2 0.119307 0.231763 0.259289
O O3 0.014314 0.262433 0.128818
O O4 0.082764 0.277181 0.055812
O O5 0.312639 0.252530 0.337975
O O6 0.226931 0.215418 0.361504
O O7 0.326692 0.239690 0.533521
O O8 0.302193 0.000000 0.417175
O O9 0.887705 0.762322 0.276674
O O10 0.915422 0.782932 0.485395
O O11 0.864948 0.000000 0.348249
O O12 0.167428 0.000000 0.382535
O O13 0.582113 0.771363 0.870063
O O14 0.505872 0.779220 0.673766
O O15 0.579682 0.000000 0.745094
O O16 0.958153 0.500000 0.077551
O O17 0.936795 0.500000 0.555730
O O18 0.000000 0.361878 0.500000
#
# Coordination Sequence:
#
# PCOD8105999 Si02
#       7
#     8   8   8   8   8   8   8
#     4   9  17  32  55  79 104 136 172 209 249 295
#     4  10  21  37  55  73  99 136 173 205 249 311
#     4  11  21  31  46  72 104 131 165 213 258 301
#     4  10  21  36  54  79 104 128 165 213 260 302
#     4   9  17  31  49  69  99 138 176 207 241 296
#     4   8  16  31  52  79 104 135 179 209 235 296
#     4   8  15  27  43  64  92 131 172 198 233 294
#
# _framework density 18.140542
#
# number of rings (size 3 to 8) (size 9 to 14) (size 15 to 20)
#    0.000    2.714    0.000    3.857    2.000    4.286 
#    0.000    2.857    0.000    0.857    0.000    0.000 
#    0.000    0.000    0.000    0.000    0.000    0.000 
#
# Total GULP energy -347005.903742 kJ/mol
# GULP energy per Si atom -12393.067991 kJ/mol
# Density = 1.809925 g / cm^3
# Si number density = 18.140542 Si / 1000 Ang^3
#
#
#
# Elastic Constant Matrix: (Units=GPa)
#
#
# Indices 1 2 3 4 5 6 
#
# 1 91.3828 38.2610 27.8341 0.0000 -17.5456 0.0000
# 2 38.2610 76.7820 22.2177 0.0000 -9.1445 0.0000
# 3 27.8341 22.2177 67.3535 0.0000 -7.1617 0.0000
# 4 0.0000 0.0000 0.0000 16.9844 0.0000 2.0563
# 5 -17.5456 -9.1445 -7.1617 0.0000 26.9018 0.0000
# 6 0.0000 0.0000 0.0000 2.0563 0.0000 27.6126
#
#
#
# Elastic Compliance Matrix: (Units=1/GPa)
#
#
# Indices 1 2 3 4 5 6 
#
# 1 0.016054 -0.005999 -0.003869 0.000000 0.007402 0.000000
# 2 -0.005999 0.017014 -0.003020 0.000000 0.001067 0.000000
# 3 -0.003869 -0.003020 0.017562 0.000000 0.001126 0.000000
# 4 0.000000 0.000000 0.000000 0.059413 0.000000 -0.004424
# 5 0.007402 0.001067 0.001126 0.000000 0.042662 0.000000
# 6 0.000000 0.000000 0.000000 -0.004424 0.000000 0.036545
#
#
# Mechanical properties :
#
#
# Convention : Reuss Voigt Hill
#
# Bulk Modulus (GPa) = 40.23326 45.79376 43.01351
# Shear Modulus (GPa) = 22.39047 24.11348 23.25197
#
# Velocity S-wave (km/s) = 3.51704 3.64986 3.58406
# Velocity P-wave (km/s) = 6.22250 6.56206 6.39454
#
# Compressibility (1/GPa) = 0.02485506
#
# Stress axis : x y z
#
# Youngs Moduli (GPa) = 62.28931 58.77475 56.94250
#
# Poissons Ratio (x) = 0.35259 0.22029
# Poissons Ratio (y) = 0.37367 0.17196
# Poissons Ratio (z) = 0.24097 0.17749
#
# Static dielectric constant tensor:
#      x y z
#    x 3.522000 0.000000 -0.222760 
#    y 0.000000 3.119470 0.000000 
#    z -0.222760 0.000000 3.726340 
# 
# 
# High freq. dielectric constant tensor:
#      x y z
#    x 1.701450 0.000000 -0.017720 
#    y 0.000000 1.685450 0.000000 
#    z -0.017720 0.000000 1.681110 
# 
# From -- ./inp_files/249292.got.cif
#   From: 2010.06.25/outbox.cif.g09.slc.cpg/sg12_125_cif.got.tgz:249292.got - 2010.06.28 00:19:55.
