data_PCOD8105970
_publ_section_title
;
Structure prediction by ZEFSAII (Michael W. Deem and Ramdas Pophale) SiO2 
 PCOD8105970
Probable space group: C 2/M
;
_chemical_formula_sum "Si O2"
_cell_formula_units_Z 56
_cell_length_a 9.283609
_cell_length_b 25.000362
_cell_length_c 14.769351
_cell_angle_alpha 90.000000
_cell_angle_beta 64.377663
_cell_angle_gamma 90.000000
_cell_volume 3090.788472
_symmetry_space_group_name_H-M "C 2/M"
_symmetry_group_IT_number 12
_symmetry_cell_setting 'monoclinic'
loop_
_space_group_symop_operation_xyz
x,y,z
-x,y,-z
-x,-y,-z
x,-y,z
1/2+x,1/2+y,z
1/2-x,1/2+y,-z
1/2-x,1/2-y,-z
1/2+x,1/2-y,z
loop_
_atom_site_type_symbol
_atom_site_label
_atom_site_fract_x
_atom_site_fract_y
_atom_site_fract_z
Si Si1 0.356910 0.798293 0.606908
Si Si2 0.298954 0.059709 0.120822
Si Si3 0.365232 0.063441 0.909622
Si Si4 0.485996 0.586135 0.302581
Si Si5 0.138502 0.000000 0.531858
Si Si6 0.990560 0.500000 0.395509
Si Si7 0.018550 0.805449 0.601480
Si Si8 0.805605 0.597840 0.734347
O O1 0.500000 0.811048 0.500000
O O2 0.197741 0.792013 0.588407
O O3 0.398135 0.744154 0.651795
O O4 0.354124 0.844962 0.681247
O O5 0.451969 0.084481 0.129411
O O6 0.148482 0.058849 0.227645
O O7 0.355055 0.000000 0.085091
O O8 0.269771 0.082364 0.026755
O O9 0.298258 0.097928 0.844620
O O10 0.348621 0.000000 0.891660
O O11 0.380464 0.553122 0.402987
O O12 0.538843 0.643207 0.327421
O O13 0.376087 0.587949 0.244576
O O14 0.000000 0.000000 0.500000
O O15 0.300528 0.000000 0.428545
O O16 0.000000 0.500000 0.500000
O O17 0.071011 0.552778 0.333330
O O18 0.000000 0.818666 0.500000
#
# Coordination Sequence:
#
# PCOD8105970 Si02
#       8
#     8   8   8   8   4   4   8   8
#     4  10  21  36  54  77 106 140 187 224 261 315
#     4   9  19  35  54  77 111 139 178 224 263 320
#     4   9  19  35  54  79 105 144 181 216 268 321
#     4  11  22  36  53  80 111 141 179 221 266 320
#     4  12  26  36  49  80 115 147 180 213 270 320
#     4  12  22  38  51  74 119 147 174 217 264 324
#     4  10  21  37  54  77 105 142 184 225 266 312
#     4  11  22  34  56  80 106 146 180 214 269 323
#
# _framework density 18.118354
#
# number of rings (size 3 to 8) (size 9 to 14) (size 15 to 20)
#    0.000    1.714    2.857    3.429    4.000    2.857 
#    0.000    1.429    0.000    0.857    0.000    0.000 
#    0.000    0.000    0.000    0.000    0.000    0.000 
#
# Total GULP energy -346923.268915 kJ/mol
# GULP energy per Si atom -12390.116747 kJ/mol
# Density = 1.807712 g / cm^3
# Si number density = 18.118354 Si / 1000 Ang^3
#
#
#
# Elastic Constant Matrix: (Units=GPa)
#
#
# Indices 1 2 3 4 5 6 
#
# 1 112.2019 41.7391 35.8137 0.0000 16.3725 0.0000
# 2 41.7391 81.6990 26.9390 0.0000 8.8886 0.0000
# 3 35.8137 26.9390 54.0676 0.0000 8.1493 0.0000
# 4 0.0000 0.0000 0.0000 18.1879 0.0000 6.2224
# 5 16.3725 8.8886 8.1493 0.0000 40.7735 0.0000
# 6 0.0000 0.0000 0.0000 6.2224 0.0000 27.2915
#
#
#
# Elastic Compliance Matrix: (Units=1/GPa)
#
#
# Indices 1 2 3 4 5 6 
#
# 1 0.012834 -0.004277 -0.005912 0.000000 -0.003040 0.000000
# 2 -0.004277 0.016199 -0.005119 0.000000 -0.000791 0.000000
# 3 -0.005912 -0.005119 0.025195 0.000000 -0.001546 0.000000
# 4 0.000000 0.000000 0.000000 0.059633 0.000000 -0.013596
# 5 -0.003040 -0.000791 -0.001546 0.000000 0.026228 0.000000
# 6 0.000000 0.000000 0.000000 -0.013596 0.000000 0.039741
#
#
# Mechanical properties :
#
#
# Convention : Reuss Voigt Hill
#
# Bulk Modulus (GPa) = 42.35080 50.77246 46.56163
# Shear Modulus (GPa) = 22.90254 26.81571 24.85912
#
# Velocity S-wave (km/s) = 3.55921 3.85129 3.70813
# Velocity P-wave (km/s) = 6.34948 6.91810 6.63988
#
# Compressibility (1/GPa) = 0.02361230
#
# Stress axis : x y z
#
# Youngs Moduli (GPa) = 77.91781 61.73256 39.69035
#
# Poissons Ratio (x) = 0.26401 0.23466
# Poissons Ratio (y) = 0.33322 0.20318
# Poissons Ratio (z) = 0.46066 0.31601
#
# Static dielectric constant tensor:
#      x y z
#    x 3.617580 0.000000 0.042430 
#    y 0.000000 3.299220 0.000000 
#    z 0.042430 0.000000 3.109040 
# 
# 
# High freq. dielectric constant tensor:
#      x y z
#    x 1.719630 0.000000 0.008040 
#    y 0.000000 1.680320 0.000000 
#    z 0.008040 0.000000 1.690230 
# 
# From -- ./inp_files/199720.got.cif
#   From: 2010.06.25/outbox.cif.g09.slc.cpg/sg12_100_cif.got.tgz:199720.got - 2010.06.28 00:19:55.
