data_PCOD8105225
_publ_section_title
;
Structure prediction by ZEFSAII (Michael W. Deem and Ramdas Pophale) SiO2 
 PCOD8105225
Probable space group: C 2/M
;
_chemical_formula_sum "Si O2"
_cell_formula_units_Z 52
_cell_length_a 8.568907
_cell_length_b 25.360522
_cell_length_c 12.524529
_cell_angle_alpha 90.000000
_cell_angle_beta 93.783234
_cell_angle_gamma 90.000000
_cell_volume 2715.798733
_symmetry_space_group_name_H-M "C 2/M"
_symmetry_group_IT_number 12
_symmetry_cell_setting 'monoclinic'
loop_
_space_group_symop_operation_xyz
x,y,z
-x,y,-z
-x,-y,-z
x,-y,z
1/2+x,1/2+y,z
1/2-x,1/2+y,-z
1/2-x,1/2-y,-z
1/2+x,1/2-y,z
loop_
_atom_site_type_symbol
_atom_site_label
_atom_site_fract_x
_atom_site_fract_y
_atom_site_fract_z
Si Si1 0.688297 0.794562 0.074230
Si Si2 0.681331 0.387609 0.039941
Si Si3 0.101774 0.916834 0.404968
Si Si4 0.384685 0.500000 0.288627
Si Si5 0.827222 0.000000 0.033894
Si Si6 0.945957 0.747700 0.208653
Si Si7 0.791629 0.828836 0.736012
Si Si8 0.317165 0.000000 0.514788
O O1 0.510778 0.782246 0.103835
O O2 0.805872 0.788654 0.179960
O O3 0.750000 0.750000 0.000000
O O4 0.705850 0.852725 0.028874
O O5 0.696070 0.367074 0.160908
O O6 0.500000 0.381898 0.000000
O O7 0.747315 0.446982 0.021406
O O8 0.180824 0.864714 0.363780
O O9 0.000000 0.898783 0.500000
O O10 0.247047 0.949950 0.452699
O O11 0.993089 0.948665 0.315462
O O12 0.323331 0.500000 0.163664
O O13 0.234525 0.500000 0.361988
O O14 0.000000 0.000000 0.000000
O O15 0.082886 0.781749 0.265542
O O16 0.878216 0.699667 0.277963
O O17 0.500000 0.000000 0.500000
#
# Coordination Sequence:
#
# PCOD8105225 Si02
#       8
#     8   8   8   4   4   8   8   4
#     4  11  17  31  51  74 104 146 195 232 253 312
#     4  11  19  30  51  77 116 148 187 226 270 324
#     4   9  19  38  63  84 106 142 186 229 282 341
#     4   9  18  37  62  86 109 147 192 223 268 350
#     4  10  21  31  47  87 118 150 182 227 278 331
#     4  10  21  31  51  77 107 144 191 228 270 316
#     4  11  21  35  54  82 110 149 189 231 277 329
#     4   9  19  40  66  88 109 135 185 243 282 331
#
# _framework density 19.147220999999998
#
# number of rings (size 3 to 8) (size 9 to 14) (size 15 to 20)
#    0.000    1.846    4.615    3.231    0.000    0.615 
#    2.769    2.308    0.000    1.846    0.000    0.000 
#    0.000    0.000    0.000    0.000    0.000    0.000 
#
# Total GULP energy -322119.870599 kJ/mol
# GULP energy per Si atom -12389.225792 kJ/mol
# Density = 1.910364 g / cm^3
# Si number density = 19.147221 Si / 1000 Ang^3
#
#
#
# Elastic Constant Matrix: (Units=GPa)
#
#
# Indices 1 2 3 4 5 6 
#
# 1 108.3492 56.9743 41.3422 0.0000 -19.7803 0.0000
# 2 56.9743 167.1218 58.0196 0.0000 -22.6827 0.0000
# 3 41.3422 58.0196 75.1201 0.0000 -17.2454 0.0000
# 4 0.0000 0.0000 0.0000 32.1647 0.0000 -15.8894
# 5 -19.7803 -22.6827 -17.2454 0.0000 20.1360 0.0000
# 6 0.0000 0.0000 0.0000 -15.8894 0.0000 29.8692
#
#
#
# Elastic Compliance Matrix: (Units=1/GPa)
#
#
# Indices 1 2 3 4 5 6 
#
# 1 0.013169 -0.002150 -0.003949 0.000000 0.007132 0.000000
# 2 -0.002150 0.008906 -0.004826 0.000000 0.003787 0.000000
# 3 -0.003949 -0.004826 0.021253 0.000000 0.008886 0.000000
# 4 0.000000 0.000000 0.000000 0.042172 0.000000 0.022434
# 5 0.007132 0.003787 0.008886 0.000000 0.068544 0.000000
# 6 0.000000 0.000000 0.000000 0.022434 0.000000 0.045414
#
#
# Mechanical properties :
#
#
# Convention : Reuss Voigt Hill
#
# Bulk Modulus (GPa) = 46.56239 73.69593 60.12916
# Shear Modulus (GPa) = 21.88480 29.38431 25.63455
#
# Velocity S-wave (km/s) = 3.38446 3.92171 3.66295
# Velocity P-wave (km/s) = 6.29632 7.68629 7.02576
#
# Compressibility (1/GPa) = 0.02147656
#
# Stress axis : x y z
#
# Youngs Moduli (GPa) = 75.93498 112.28168 47.05253
#
# Poissons Ratio (x) = 0.24146 0.18583
# Poissons Ratio (y) = 0.16330 0.22707
# Poissons Ratio (z) = 0.29990 0.54185
#
# Static dielectric constant tensor:
#      x y z
#    x 3.829860 0.000000 0.081530 
#    y 0.000000 3.727830 0.000000 
#    z 0.081530 0.000000 3.377620 
# 
# 
# High freq. dielectric constant tensor:
#      x y z
#    x 1.741790 0.000000 -0.016870 
#    y 0.000000 1.750360 0.000000 
#    z -0.016870 0.000000 1.711900 
# 
# From -- ./inp_files/123787.got.cif
#   From: 2010.06.25/outbox.cif.g09.slc.cpg/sg12_62_cif.got.tgz:123787.got - 2010.06.28 00:19:55.
