data_PCOD8105679
_publ_section_title
;
Structure prediction by ZEFSAII (Michael W. Deem and Ramdas Pophale) SiO2 
 PCOD8105679
Probable space group: C 2/M
;
_chemical_formula_sum "Si O2"
_cell_formula_units_Z 64
_cell_length_a 15.225708
_cell_length_b 9.340794
_cell_length_c 23.689606
_cell_angle_alpha 90.000000
_cell_angle_beta 90.323812
_cell_angle_gamma 90.000000
_cell_volume 3369.086743
_symmetry_space_group_name_H-M "C 2/M"
_symmetry_group_IT_number 12
_symmetry_cell_setting 'monoclinic'
loop_
_space_group_symop_operation_xyz
x,y,z
-x,y,-z
-x,-y,-z
x,-y,z
1/2+x,1/2+y,z
1/2-x,1/2+y,-z
1/2-x,1/2-y,-z
1/2+x,1/2-y,z
loop_
_atom_site_type_symbol
_atom_site_label
_atom_site_fract_x
_atom_site_fract_y
_atom_site_fract_z
Si Si1 0.102081 0.830754 0.358594
Si Si2 0.107013 0.338320 0.247183
Si Si3 0.259671 0.166662 0.442504
Si Si4 0.142345 0.164270 0.859688
Si Si5 0.336358 0.835932 0.874372
Si Si6 0.402917 0.160014 0.244004
Si Si7 0.425345 0.168557 0.369545
Si Si8 0.515618 0.669816 0.063699
O O1 0.129940 0.769587 0.297772
O O2 0.180163 0.791748 0.401257
O O3 0.013732 0.757233 0.382114
O O4 0.086957 0.000000 0.353258
O O5 0.132495 0.500000 0.265720
O O6 0.157981 0.289793 0.191275
O O7 0.005355 0.330077 0.230894
O O8 0.250000 0.250000 0.500000
O O9 0.352730 0.209637 0.415281
O O10 0.257887 0.000000 0.456307
O O11 0.234939 0.183228 0.892344
O O12 0.148616 0.240311 0.799313
O O13 0.065632 0.227391 0.899042
O O14 0.122814 0.000000 0.846343
O O15 0.393960 0.736343 0.914391
O O16 0.367806 0.000000 0.881242
O O17 0.386026 0.210466 0.308208
O O18 0.367054 0.000000 0.235301
O O19 0.449306 0.000000 0.370099
O O20 0.524056 0.500000 0.067061
O O21 0.500000 0.721702 0.000000
#
# Coordination Sequence:
#
# PCOD8105679 Si02
#       8
#     8   8   8   8   8   8   8   8
#     4  10  21  36  57  86 114 143 186 236 278 325
#     4   9  18  34  55  80 114 148 179 222 281 341
#     4  10  23  41  59  82 114 152 193 234 279 333
#     4  10  21  35  54  82 113 144 183 232 279 326
#     4  10  21  37  56  82 112 145 186 231 277 331
#     4   9  17  32  56  81 110 145 182 223 273 336
#     4   9  20  39  58  80 114 153 186 226 282 340
#     4  10  22  40  58  79 113 152 188 232 283 332
#
# _framework density 18.996244999999998
#
# number of rings (size 3 to 8) (size 9 to 14) (size 15 to 20)
#    0.000    2.375    1.250    1.125    1.750    5.750 
#    0.000    2.500    0.000    0.000    0.000    0.000 
#    0.000    0.000    0.000    0.000    0.000    0.000 
#
# Total GULP energy -396828.496725 kJ/mol
# GULP energy per Si atom -12400.890523 kJ/mol
# Density = 1.895301 g / cm^3
# Si number density = 18.996245 Si / 1000 Ang^3
#
#
#
# Elastic Constant Matrix: (Units=GPa)
#
#
# Indices 1 2 3 4 5 6 
#
# 1 73.4915 36.0013 39.7445 0.0000 13.4596 0.0000
# 2 36.0013 59.4852 43.3687 0.0000 11.7887 0.0000
# 3 39.7445 43.3687 95.9952 0.0000 10.5371 0.0000
# 4 0.0000 0.0000 0.0000 33.4777 0.0000 5.7974
# 5 13.4596 11.7887 10.5371 0.0000 23.4472 0.0000
# 6 0.0000 0.0000 0.0000 5.7974 0.0000 29.2285
#
#
#
# Elastic Compliance Matrix: (Units=1/GPa)
#
#
# Indices 1 2 3 4 5 6 
#
# 1 0.021182 -0.008533 -0.004261 0.000000 -0.005954 0.000000
# 2 -0.008533 0.029979 -0.009356 0.000000 -0.005970 0.000000
# 3 -0.004261 -0.009356 0.016434 0.000000 -0.000235 0.000000
# 4 0.000000 0.000000 0.000000 0.030933 0.000000 -0.006136
# 5 -0.005954 -0.005970 -0.000235 0.000000 0.049174 0.000000
# 6 0.000000 0.000000 0.000000 -0.006136 0.000000 0.035430
#
#
# Mechanical properties :
#
#
# Convention : Reuss Voigt Hill
#
# Bulk Modulus (GPa) = 42.92717 51.91123 47.41920
# Shear Modulus (GPa) = 21.25863 24.55451 22.90657
#
# Velocity S-wave (km/s) = 3.34892 3.59917 3.47630
# Velocity P-wave (km/s) = 6.13192 6.68270 6.41323
#
# Compressibility (1/GPa) = 0.02329527
#
# Stress axis : x y z
#
# Youngs Moduli (GPa) = 47.20981 33.35628 60.84887
#
# Poissons Ratio (x) = 0.28462 0.25930
# Poissons Ratio (y) = 0.40283 0.56930
# Poissons Ratio (z) = 0.20118 0.31208
#
# Static dielectric constant tensor:
#      x y z
#    x 3.489590 0.000000 -0.132300 
#    y 0.000000 3.380340 0.000000 
#    z -0.132300 0.000000 3.429500 
# 
# 
# High freq. dielectric constant tensor:
#      x y z
#    x 1.742940 0.000000 -0.006080 
#    y 0.000000 1.730540 0.000000 
#    z -0.006080 0.000000 1.733070 
# 
# From -- ./inp_files/338895.got.cif
#   From: 2010.06.25/outbox.cif.g09.slc.cpg/sg12_170_cif.got.tgz:338895.got - 2010.06.28 00:19:55.
