data_PCOD8105113
_publ_section_title
;
Structure prediction by ZEFSAII (Michael W. Deem and Ramdas Pophale) SiO2 
 PCOD8105113
Probable space group: C 2/M
;
_chemical_formula_sum "Si O2"
_cell_formula_units_Z 52
_cell_length_a 16.938654
_cell_length_b 8.467864
_cell_length_c 27.298772
_cell_angle_alpha 90.000000
_cell_angle_beta 40.395822
_cell_angle_gamma 90.000000
_cell_volume 2537.546599
_symmetry_space_group_name_H-M "C 2/M"
_symmetry_group_IT_number 12
_symmetry_cell_setting 'monoclinic'
loop_
_space_group_symop_operation_xyz
x,y,z
-x,y,-z
-x,-y,-z
x,-y,z
1/2+x,1/2+y,z
1/2-x,1/2+y,-z
1/2-x,1/2-y,-z
1/2+x,1/2-y,z
loop_
_atom_site_type_symbol
_atom_site_label
_atom_site_fract_x
_atom_site_fract_y
_atom_site_fract_z
Si Si1 0.792793 0.183642 0.833563
Si Si2 0.553417 0.500000 0.597184
Si Si3 0.087921 0.821473 0.866735
Si Si4 0.827695 0.000000 0.635490
Si Si5 0.950712 0.235594 0.315486
Si Si6 0.315557 0.686646 0.016521
Si Si7 0.316326 0.327022 0.282622
Si Si8 0.738975 0.000000 0.574527
O O1 0.690745 0.210251 0.840838
O O2 0.742693 0.228287 0.909850
O O3 0.912818 0.289338 0.764477
O O4 0.831955 0.000000 0.813782
O O5 0.459728 0.500000 0.596625
O O6 0.532040 0.645795 0.642140
O O7 0.689297 0.500000 0.510487
O O8 0.090687 0.809705 0.806604
O O9 0.111827 0.000000 0.873649
O O10 0.956829 0.764199 0.947349
O O11 0.763208 0.833702 0.680902
O O12 0.837360 0.000000 0.572126
O O13 0.894029 0.149689 0.295181
O O14 0.853246 0.359435 0.378089
O O15 0.299116 0.500000 0.028579
O O16 0.250000 0.750000 0.000000
O O17 0.245866 0.500000 0.310291
#
# Coordination Sequence:
#
# PCOD8105113 Si02
#       8
#     8   4   8   4   8   8   8   4
#     4  12  24  40  62  93 128 165 215 269 323 383
#     4  12  21  44  68  94 136 163 208 282 333 391
#     4  10  23  40  61  89 126 167 211 267 325 376
#     4  10  23  40  66 101 132 172 222 271 329 403
#     4  11  23  41  67  95 128 169 219 267 329 394
#     4  11  24  42  63  90 128 170 216 266 324 379
#     4  10  20  41  65  92 133 176 220 269 328 393
#     4  10  25  42  68  97 125 173 217 261 338 410
#
# _framework density 20.492235000000001
#
# number of rings (size 3 to 8) (size 9 to 14) (size 15 to 20)
#    0.000    1.231    1.538    3.923    3.231    4.308 
#    4.154    0.000    0.000    1.846    0.000    0.000 
#    0.000    0.000    0.000    0.000    0.000    0.000 
#
# Total GULP energy -322131.102061 kJ/mol
# GULP energy per Si atom -12389.657772 kJ/mol
# Density = 2.044559 g / cm^3
# Si number density = 20.492235 Si / 1000 Ang^3
#
#
#
# Elastic Constant Matrix: (Units=GPa)
#
#
# Indices 1 2 3 4 5 6 
#
# 1 110.7042 33.3006 46.6363 -0.0004 -6.8839 0.0006
# 2 33.3006 92.7042 35.5829 -0.0016 -6.7875 0.0003
# 3 46.6363 35.5829 148.2752 0.0000 -2.3258 0.0001
# 4 -0.0004 -0.0016 0.0000 -5.9422 0.0001 -24.1593
# 5 -6.8839 -6.7875 -2.3258 0.0001 33.5032 0.0001
# 6 0.0006 0.0003 0.0001 -24.1593 0.0001 17.8769
#
#
#
# Elastic Compliance Matrix: (Units=1/GPa)
#
#
# Indices 1 2 3 4 5 6 
#
# 1 0.011159 -0.002818 -0.002810 0.000000 0.001527 0.000000
# 2 -0.002818 0.012759 -0.002146 0.000000 0.001857 -0.000001
# 3 -0.002810 -0.002146 0.008136 0.000000 -0.000447 0.000000
# 4 0.000000 0.000000 0.000000 -0.025912 0.000000 -0.035019
# 5 0.001527 0.001857 -0.000447 0.000000 0.030507 0.000000
# 6 0.000000 -0.000001 0.000000 -0.035019 0.000000 0.008613
#
#
# Mechanical properties :
#
#
# Convention : Reuss Voigt Hill
#
# Bulk Modulus (GPa) = 60.58453 64.74701 62.66577
# Shear Modulus (GPa) = 75.40012 24.83183 50.11597
#
# Velocity S-wave (km/s) = 6.07243 3.48482 4.95067
# Velocity P-wave (km/s) = 8.87663 6.91784 7.95773
#
# Compressibility (1/GPa) = 0.01650586
#
# Stress axis : x y z
#
# Youngs Moduli (GPa) = 89.61027 78.37488 122.91092
#
# Poissons Ratio (x) = 0.22089 0.34533
# Poissons Ratio (y) = 0.25256 0.26381
# Poissons Ratio (z) = 0.25177 0.16822
#
# Static dielectric constant tensor:
#      x y z
#    x 3.769220 0.000000 0.156980 
#    y 0.000000 3.709200 0.000000 
#    z 0.156980 0.000000 3.812410 
# 
# 
# High freq. dielectric constant tensor:
#      x y z
#    x 1.808610 0.000000 0.013100 
#    y 0.000000 1.803650 0.000000 
#    z 0.013100 0.000000 1.808960 
# 
# From -- ./inp_files/362709.got.cif
#   From: 2010.06.25/outbox.cif.g09.slc.cpg/sg12_182_cif.got.tgz:362709.got - 2010.06.28 00:19:55.
