data_PCOD8105589
_publ_section_title
;
Structure prediction by ZEFSAII (Michael W. Deem and Ramdas Pophale) SiO2 
 PCOD8105589
Probable space group: C 2/M
;
_chemical_formula_sum "Si O2"
_cell_formula_units_Z 40
_cell_length_a 5.062585
_cell_length_b 24.288718
_cell_length_c 15.200547
_cell_angle_alpha 90.000000
_cell_angle_beta 109.811575
_cell_angle_gamma 90.000000
_cell_volume 1758.486878
_symmetry_space_group_name_H-M "C 2/M"
_symmetry_group_IT_number 12
_symmetry_cell_setting 'monoclinic'
loop_
_space_group_symop_operation_xyz
x,y,z
-x,y,-z
-x,-y,-z
x,-y,z
1/2+x,1/2+y,z
1/2-x,1/2+y,-z
1/2-x,1/2-y,-z
1/2+x,1/2-y,z
loop_
_atom_site_type_symbol
_atom_site_label
_atom_site_fract_x
_atom_site_fract_y
_atom_site_fract_z
Si Si1 0.912084 0.062187 0.395974
Si Si2 0.677241 0.176053 0.940774
Si Si3 0.193114 0.403330 0.708857
Si Si4 0.953746 0.717351 0.258277
Si Si5 0.259189 0.060292 0.094989
O O1 0.423587 0.060941 0.651824
O O2 0.000000 0.087903 0.500000
O O3 0.062066 0.096346 0.335766
O O4 0.025371 0.000000 0.402646
O O5 0.652865 0.214783 0.854127
O O6 0.551460 0.113511 0.910617
O O7 0.500000 0.203610 0.000000
O O8 0.000000 0.169379 0.000000
O O9 0.076122 0.341485 0.700645
O O10 0.331415 0.426842 0.814292
O O11 0.774515 0.762294 0.292467
O O12 0.415631 0.000000 0.108689
O O13 0.000000 0.056222 0.000000
#
# Coordination Sequence:
#
# PCOD8105589 Si02
#       5
#     8   8   8   8   8
#     4  11  23  41  68  99 127 158 199 250 312 375
#     4  10  21  35  52  79 112 151 205 257 299 350
#     4  11  23  41  64  92 128 164 206 257 307 365
#     4  11  23  39  60  84 115 161 209 257 311 356
#     4   9  19  35  56  85 124 166 202 239 293 368
#
# _framework density 22.746831
#
# number of rings (size 3 to 8) (size 9 to 14) (size 15 to 20)
#    0.000    1.600    0.000    4.800    0.000   12.400 
#    0.000    4.000    0.000   12.000    0.000    0.000 
#    0.000    0.000    0.000    0.000    0.000    0.000 
#
# Total GULP energy -247897.097949 kJ/mol
# GULP energy per Si atom -12394.854897 kJ/mol
# Density = 2.269506 g / cm^3
# Si number density = 22.746831 Si / 1000 Ang^3
#
#
#
# Elastic Constant Matrix: (Units=GPa)
#
#
# Indices 1 2 3 4 5 6 
#
# 1 96.2780 -0.3072 29.9253 0.0000 -12.8979 0.0000
# 2 -0.3072 82.8079 7.4386 0.0000 -5.7745 0.0000
# 3 29.9253 7.4386 131.7419 0.0000 -7.5900 0.0000
# 4 0.0000 0.0000 0.0000 1449.7590 0.0000 813.0309
# 5 -12.8979 -5.7745 -7.5900 0.0000 29.6966 0.0000
# 6 0.0000 0.0000 0.0000 813.0309 0.0000 497.8344
#
#
#
# Elastic Compliance Matrix: (Units=1/GPa)
#
#
# Indices 1 2 3 4 5 6 
#
# 1 0.011763 0.000584 -0.002440 0.000000 0.004599 0.000000
# 2 0.000584 0.012312 -0.000685 0.000000 0.002472 0.000000
# 3 -0.002440 -0.000685 0.008236 0.000000 0.000912 0.000000
# 4 0.000000 0.000000 0.000000 0.008199 0.000000 -0.013390
# 5 0.004599 0.002472 0.000912 0.000000 0.036385 0.000000
# 6 0.000000 0.000000 0.000000 -0.013390 0.000000 0.023876
#
#
# Mechanical properties :
#
#
# Convention : Reuss Voigt Hill
#
# Bulk Modulus (GPa) = 36.72716 42.77121 39.74919
# Shear Modulus (GPa) = 43.50457 413.70941 228.60699
#
# Velocity S-wave (km/s) = 4.37802 13.50076 10.03587
# Velocity P-wave (km/s) = 6.46043 16.18244 12.32089
#
# Compressibility (1/GPa) = 0.02722780
#
# Stress axis : x y z
#
# Youngs Moduli (GPa) = 85.01290 81.21973 121.41704
#
# Poissons Ratio (x) = -0.04739 0.29625
# Poissons Ratio (y) = -0.04961 0.08321
# Poissons Ratio (z) = 0.20743 0.05566
#
# Static dielectric constant tensor:
#      x y z
#    x 3.654890 0.000000 -0.213890 
#    y 0.000000 4.590920 0.000000 
#    z -0.213890 0.000000 4.044090 
# 
# 
# High freq. dielectric constant tensor:
#      x y z
#    x 1.874140 0.000000 -0.012310 
#    y 0.000000 1.914360 0.000000 
#    z -0.012310 0.000000 1.884870 
# 
# From -- ./inp_files/191781.got.cif
#   From: 2010.06.25/outbox.cif.g09.slc.cpg/sg12_96_cif.got.tgz:191781.got - 2010.06.28 00:19:55.
