data_PCOD8105308
_publ_section_title
;
Structure prediction by ZEFSAII (Michael W. Deem and Ramdas Pophale) SiO2 
 PCOD8105308
Probable space group: C 2/M
;
_chemical_formula_sum "Si O2"
_cell_formula_units_Z 48
_cell_length_a 23.926042
_cell_length_b 8.712381
_cell_length_c 11.884278
_cell_angle_alpha 90.000000
_cell_angle_beta 90.528670
_cell_angle_gamma 90.000000
_cell_volume 2477.205494
_symmetry_space_group_name_H-M "C 2/M"
_symmetry_group_IT_number 12
_symmetry_cell_setting 'monoclinic'
loop_
_space_group_symop_operation_xyz
x,y,z
-x,y,-z
-x,-y,-z
x,-y,z
1/2+x,1/2+y,z
1/2-x,1/2+y,-z
1/2-x,1/2-y,-z
1/2+x,1/2-y,z
loop_
_atom_site_type_symbol
_atom_site_label
_atom_site_fract_x
_atom_site_fract_y
_atom_site_fract_z
Si Si1 0.832784 0.678197 0.036326
Si Si2 0.051064 0.179831 0.919283
Si Si3 0.758817 0.322379 0.821931
Si Si4 0.914289 0.182495 0.541154
Si Si5 0.291629 0.680801 0.590551
Si Si6 0.020776 0.817784 0.672745
O O1 0.827067 0.500000 0.066257
O O2 0.896643 0.728693 0.030872
O O3 0.801789 0.775185 0.132261
O O4 0.805912 0.714309 0.914983
O O5 0.036136 0.246616 0.795693
O O6 0.065370 0.000000 0.915641
O O7 0.000000 0.214974 0.000000
O O8 0.757193 0.500000 0.787583
O O9 0.772269 0.221434 0.714518
O O10 0.853538 0.250233 0.569549
O O11 0.932443 0.236494 0.416267
O O12 0.959824 0.243843 0.632521
O O13 0.913154 0.000000 0.545618
O O14 0.292170 0.500000 0.575231
O O15 0.250000 0.750000 0.500000
O O16 0.018414 0.000000 0.677497
#
# Coordination Sequence:
#
# PCOD8105308 Si02
#       6
#     8   8   8   8   8   8
#     4  10  22  40  61  85 114 152 193 241 300 354
#     4  10  21  33  55  88 118 150 191 237 282 341
#     4  10  22  41  62  83 112 152 196 243 295 353
#     4   8  16  31  53  77 107 147 190 233 277 326
#     4  11  23  36  57  88 119 153 193 240 290 344
#     4   8  15  31  52  78 109 145 188 232 277 326
#
# _framework density 19.376671999999999
#
# number of rings (size 3 to 8) (size 9 to 14) (size 15 to 20)
#    0.000    2.500    0.000    2.500    4.667    2.333 
#    0.000    0.000    0.000    0.000    0.000    5.833 
#    0.000    0.000    0.000    0.000    0.000    0.000 
#
# Total GULP energy -297617.043310 kJ/mol
# GULP energy per Si atom -12400.710138 kJ/mol
# Density = 1.933257 g / cm^3
# Si number density = 19.376672 Si / 1000 Ang^3
#
#
#
# Elastic Constant Matrix: (Units=GPa)
#
#
# Indices 1 2 3 4 5 6 
#
# 1 136.3942 28.6042 57.8640 0.0000 2.3075 0.0000
# 2 28.6042 38.3791 27.0166 0.0000 3.7532 0.0000
# 3 57.8640 27.0166 121.3721 0.0000 -1.8495 0.0000
# 4 0.0000 0.0000 0.0000 20.8734 0.0000 3.0198
# 5 2.3075 3.7532 -1.8495 0.0000 22.6229 0.0000
# 6 0.0000 0.0000 0.0000 3.0198 0.0000 26.9075
#
#
#
# Elastic Compliance Matrix: (Units=1/GPa)
#
#
# Indices 1 2 3 4 5 6 
#
# 1 0.009891 -0.004738 -0.003669 0.000000 -0.000523 0.000000
# 2 -0.004738 0.033917 -0.005376 0.000000 -0.005583 0.000000
# 3 -0.003669 -0.005376 0.011218 0.000000 0.002183 0.000000
# 4 0.000000 0.000000 0.000000 0.048699 0.000000 -0.005465
# 5 -0.000523 -0.005583 0.002183 0.000000 0.045361 0.000000
# 6 0.000000 0.000000 0.000000 -0.005465 0.000000 0.037778
#
#
# Mechanical properties :
#
#
# Convention : Reuss Voigt Hill
#
# Bulk Modulus (GPa) = 36.41542 58.12387 47.26964
# Shear Modulus (GPa) = 22.36312 26.25812 24.31062
#
# Velocity S-wave (km/s) = 3.40093 3.68522 3.54592
# Velocity P-wave (km/s) = 5.85286 6.94044 6.41972
#
# Compressibility (1/GPa) = 0.02746089
#
# Stress axis : x y z
#
# Youngs Moduli (GPa) = 101.10675 29.48332 89.14165
#
# Poissons Ratio (x) = 0.13969 0.32703
# Poissons Ratio (y) = 0.47903 0.47923
# Poissons Ratio (z) = 0.37093 0.15851
#
# Static dielectric constant tensor:
#      x y z
#    x 3.769290 0.000000 0.022500 
#    y 0.000000 3.190220 0.000000 
#    z 0.022500 0.000000 3.755800 
# 
# 
# High freq. dielectric constant tensor:
#      x y z
#    x 1.765120 0.000000 0.000430 
#    y 0.000000 1.720930 0.000000 
#    z 0.000430 0.000000 1.762470 
# 
# From -- ./inp_files/172319.got.cif
#   From: 2010.06.25/outbox.cif.g09.slc.cpg/sg12_87_cif.got.tgz:172319.got - 2010.06.28 00:19:55.
