data_PCOD8105800
_publ_section_title
;
Structure prediction by ZEFSAII (Michael W. Deem and Ramdas Pophale) SiO2 
 PCOD8105800
Probable space group: C 2/M
;
_chemical_formula_sum "Si O2"
_cell_formula_units_Z 36
_cell_length_a 15.678270
_cell_length_b 21.478924
_cell_length_c 8.862400
_cell_angle_alpha 90.000000
_cell_angle_beta 36.761072
_cell_angle_gamma 90.000000
_cell_volume 1786.122468
_symmetry_space_group_name_H-M "C 2/M"
_symmetry_group_IT_number 12
_symmetry_cell_setting 'monoclinic'
loop_
_space_group_symop_operation_xyz
x,y,z
-x,y,-z
-x,-y,-z
x,-y,z
1/2+x,1/2+y,z
1/2-x,1/2+y,-z
1/2-x,1/2-y,-z
1/2+x,1/2-y,z
loop_
_atom_site_type_symbol
_atom_site_label
_atom_site_fract_x
_atom_site_fract_y
_atom_site_fract_z
Si Si1 0.139741 0.852510 0.893898
Si Si2 0.756054 0.730361 0.168663
Si Si3 0.056231 0.877787 0.566578
Si Si4 0.000000 0.661126 0.000000
Si Si5 0.285489 0.929401 0.453383
O O1 0.252698 0.795882 0.729525
O O2 0.217387 0.912356 0.712071
O O3 0.000000 0.832731 0.000000
O O4 0.087973 0.864855 0.136476
O O5 0.627135 0.687113 0.407980
O O6 0.905202 0.700156 0.015290
O O7 0.750000 0.750000 0.000000
O O8 0.162882 0.922623 0.502067
O O9 0.000000 0.914641 0.500000
O O10 0.911511 0.617001 0.236699
O O11 0.341099 0.000000 0.379386
#
# Coordination Sequence:
#
# PCOD8105800 Si02
#       5
#     8   8   8   4   8
#     4  10  21  35  59  88 122 154 198 242 304 353
#     4  11  21  35  62  92 125 155 192 247 306 366
#     4  10  21  35  57  91 119 157 200 249 301 354
#     4  10  23  40  66  88 121 160 200 248 304 368
#     4  10  23  41  62  84 117 165 208 247 294 353
#
# _framework density 20.155394000000001
#
# number of rings (size 3 to 8) (size 9 to 14) (size 15 to 20)
#    0.000    1.778    3.333    0.333    3.111    7.111 
#    0.000    0.000    0.000    1.333    0.000    0.000 
#    0.000    0.000    0.000    0.000    0.000    0.000 
#
# Total GULP energy -223001.318039 kJ/mol
# GULP energy per Si atom -12388.962113 kJ/mol
# Density = 2.010952 g / cm^3
# Si number density = 20.155394 Si / 1000 Ang^3
#
#
#
# Elastic Constant Matrix: (Units=GPa)
#
#
# Indices 1 2 3 4 5 6 
#
# 1 94.8454 47.8235 51.7928 0.0002 14.5682 -0.0002
# 2 47.8235 97.4045 27.6033 0.0001 9.6277 0.0000
# 3 51.7928 27.6033 110.4068 0.0014 19.1143 -0.0005
# 4 0.0002 0.0001 0.0014 18.6201 -0.0005 3.1995
# 5 14.5682 9.6277 19.1143 -0.0005 32.6377 0.0002
# 6 -0.0002 0.0000 -0.0005 3.1995 0.0002 10.3478
#
#
#
# Elastic Compliance Matrix: (Units=1/GPa)
#
#
# Indices 1 2 3 4 5 6 
#
# 1 0.017658 -0.006683 -0.006220 0.000000 -0.002268 0.000000
# 2 -0.006683 0.013677 -0.000114 0.000000 -0.000985 0.000000
# 3 -0.006220 -0.000114 0.012817 -0.000001 -0.004696 0.000001
# 4 0.000000 0.000000 -0.000001 0.056719 0.000002 -0.017537
# 5 -0.002268 -0.000985 -0.004696 0.000002 0.034692 -0.000001
# 6 0.000000 0.000000 0.000001 -0.017537 -0.000001 0.102061
#
#
# Mechanical properties :
#
#
# Convention : Reuss Voigt Hill
#
# Bulk Modulus (GPa) = 55.19325 61.89953 58.54639
# Shear Modulus (GPa) = 18.53924 24.01694 21.27809
#
# Velocity S-wave (km/s) = 3.03614 3.45568 3.25268
# Velocity P-wave (km/s) = 6.30350 6.83375 6.57397
#
# Compressibility (1/GPa) = 0.01811816
#
# Stress axis : x y z
#
# Youngs Moduli (GPa) = 56.63096 73.11389 78.02213
#
# Poissons Ratio (x) = 0.48861 0.48531
# Poissons Ratio (y) = 0.37846 0.00889
# Poissons Ratio (z) = 0.35225 0.00833
#
# Static dielectric constant tensor:
#      x y z
#    x 3.855640 0.000000 0.111150 
#    y 0.000000 3.443030 0.000000 
#    z 0.111150 0.000000 3.953140 
# 
# 
# High freq. dielectric constant tensor:
#      x y z
#    x 1.792340 0.000000 0.007430 
#    y 0.000000 1.770870 0.000000 
#    z 0.007430 0.000000 1.787470 
# 
# From -- ./inp_files/48076.got.cif
#   From: 2010.06.25/outbox.cif.g09.slc.cpg/sg12_25_cif.got.tgz:48076.got - 2010.06.28 00:19:55.
