data_PCOD8105479
_publ_section_title
;
Structure prediction by ZEFSAII (Michael W. Deem and Ramdas Pophale) SiO2 
 PCOD8105479
Probable space group: C 2/M
;
_chemical_formula_sum "Si O2"
_cell_formula_units_Z 56
_cell_length_a 32.719337
_cell_length_b 13.109171
_cell_length_c 11.980362
_cell_angle_alpha 90.000000
_cell_angle_beta 140.469529
_cell_angle_gamma 90.000000
_cell_volume 3270.696320
_symmetry_space_group_name_H-M "C 2/M"
_symmetry_group_IT_number 12
_symmetry_cell_setting 'monoclinic'
loop_
_space_group_symop_operation_xyz
x,y,z
-x,y,-z
-x,-y,-z
x,-y,z
1/2+x,1/2+y,z
1/2-x,1/2+y,-z
1/2-x,1/2-y,-z
1/2+x,1/2-y,z
loop_
_atom_site_type_symbol
_atom_site_label
_atom_site_fract_x
_atom_site_fract_y
_atom_site_fract_z
Si Si1 0.311943 0.615657 0.640121
Si Si2 0.933626 0.616503 0.912336
Si Si3 0.318845 0.817916 0.537348
Si Si4 0.251707 0.226619 0.183155
Si Si5 0.306278 0.384248 0.139493
Si Si6 0.121349 0.225392 0.028112
Si Si7 0.061745 0.118590 0.697688
O O1 0.323520 0.500000 0.622953
O O2 0.330579 0.697066 0.584498
O O3 0.236955 0.633360 0.505160
O O4 0.356213 0.634633 0.842357
O O5 0.941060 0.500000 0.969096
O O6 0.882902 0.621687 0.703955
O O7 0.911790 0.683572 0.972639
O O8 0.000000 0.657865 0.000000
O O9 0.300095 0.830934 0.368958
O O10 0.288171 0.324103 0.212222
O O11 0.186269 0.265541 0.104737
O O12 0.238412 0.145597 0.058483
O O13 0.293104 0.500000 0.141056
O O14 0.379634 0.363030 0.262547
O O15 0.070991 0.182175 0.831455
O O16 0.000000 0.158542 0.500000
O O17 0.054911 0.000000 0.716127
#
# Coordination Sequence:
#
# PCOD8105479 Si02
#       7
#     8   8   8   8   8   8   8
#     4   9  16  28  47  71  95 117 149 192 236 281
#     4  10  21  35  49  67  93 125 160 194 230 278
#     4   9  18  29  46  70  92 120 154 191 233 275
#     4   9  18  31  47  70  94 118 154 192 233 276
#     4   9  18  31  46  68  97 123 150 190 232 270
#     4   9  18  32  50  70  93 123 154 192 237 275
#     4   9  17  30  50  73  95 124 157 184 222 278
#
# _framework density 17.121735999999999
#
# number of rings (size 3 to 8) (size 9 to 14) (size 15 to 20)
#    0.000    2.857    0.000    1.714    0.000    6.286 
#    0.000    0.000    0.000   11.143    0.000    0.000 
#    0.000    0.000    0.000    0.000    0.000    0.000 
#
# Total GULP energy -347113.666417 kJ/mol
# GULP energy per Si atom -12396.916658 kJ/mol
# Density = 1.708277 g / cm^3
# Si number density = 17.121736 Si / 1000 Ang^3
#
#
#
# Elastic Constant Matrix: (Units=GPa)
#
#
# Indices 1 2 3 4 5 6 
#
# 1 58.0080 17.8685 25.8602 0.0000 2.3254 0.0000
# 2 17.8685 68.7535 16.6922 0.0000 8.4766 0.0000
# 3 25.8602 16.6922 117.8648 0.0000 1.3438 0.0000
# 4 0.0000 0.0000 0.0000 19.0273 0.0000 1.0333
# 5 2.3254 8.4766 1.3438 0.0000 19.2099 0.0000
# 6 0.0000 0.0000 0.0000 1.0333 0.0000 23.2551
#
#
#
# Elastic Compliance Matrix: (Units=1/GPa)
#
#
# Indices 1 2 3 4 5 6 
#
# 1 0.020288 -0.004305 -0.003838 0.000000 -0.000288 0.000000
# 2 -0.004305 0.016834 -0.001362 0.000000 -0.006812 0.000000
# 3 -0.003838 -0.001362 0.009515 0.000000 0.000400 0.000000
# 4 0.000000 0.000000 0.000000 0.052683 0.000000 -0.002341
# 5 -0.000288 -0.006812 0.000400 0.000000 0.055069 0.000000
# 6 0.000000 0.000000 0.000000 -0.002341 0.000000 0.043105
#
#
# Mechanical properties :
#
#
# Convention : Reuss Voigt Hill
#
# Bulk Modulus (GPa) = 36.19793 40.60757 38.40275
# Shear Modulus (GPa) = 22.15195 24.57882 23.36538
#
# Velocity S-wave (km/s) = 3.60083 3.79295 3.69814
# Velocity P-wave (km/s) = 6.20285 6.55366 6.38067
#
# Compressibility (1/GPa) = 0.02762589
#
# Stress axis : x y z
#
# Youngs Moduli (GPa) = 49.29059 59.40328 105.10023
#
# Poissons Ratio (x) = 0.25575 0.40340
# Poissons Ratio (y) = 0.21221 0.14312
# Poissons Ratio (z) = 0.18919 0.08089
#
# Static dielectric constant tensor:
#      x y z
#    x 3.060390 0.000000 -0.016150 
#    y 0.000000 3.087490 0.000000 
#    z -0.016150 0.000000 3.319890 
# 
# 
# High freq. dielectric constant tensor:
#      x y z
#    x 1.641690 0.000000 -0.004200 
#    y 0.000000 1.651270 0.000000 
#    z -0.004200 0.000000 1.666530 
# 
# From -- ./inp_files/189236.got.cif
#   From: 2010.06.25/outbox.cif.g09.slc.cpg/sg12_95_cif.got.tgz:189236.got - 2010.06.28 00:19:55.
