data_PCOD8105733
_publ_section_title
;
Structure prediction by ZEFSAII (Michael W. Deem and Ramdas Pophale) SiO2 
 PCOD8105733
Probable space group: C 2/M
;
_chemical_formula_sum "Si O2"
_cell_formula_units_Z 64
_cell_length_a 26.484267
_cell_length_b 21.760987
_cell_length_c 12.349874
_cell_angle_alpha 90.000000
_cell_angle_beta 151.686472
_cell_angle_gamma 90.000000
_cell_volume 3375.814797
_symmetry_space_group_name_H-M "C 2/M"
_symmetry_group_IT_number 12
_symmetry_cell_setting 'monoclinic'
loop_
_space_group_symop_operation_xyz
x,y,z
-x,y,-z
-x,-y,-z
x,-y,z
1/2+x,1/2+y,z
1/2-x,1/2+y,-z
1/2-x,1/2-y,-z
1/2+x,1/2-y,z
loop_
_atom_site_type_symbol
_atom_site_label
_atom_site_fract_x
_atom_site_fract_y
_atom_site_fract_z
Si Si1 0.817197 0.323571 0.008913
Si Si2 0.166066 0.427444 0.543659
Si Si3 0.032655 0.432300 0.684467
Si Si4 0.406387 0.833231 0.758153
Si Si5 0.266191 0.215975 0.682955
Si Si6 0.616632 0.706162 0.757938
Si Si7 0.536328 0.294472 0.189459
Si Si8 0.669072 0.663852 0.088771
O O1 0.861711 0.391636 0.107644
O O2 0.886939 0.278575 0.217981
O O3 0.828698 0.312688 0.902361
O O4 0.693310 0.312862 0.803864
O O5 0.173263 0.500000 0.536691
O O6 0.152414 0.390040 0.407303
O O7 0.279697 0.403898 0.804087
O O8 0.068493 0.408309 0.437605
O O9 0.064230 0.500000 0.786382
O O10 0.000000 0.435373 0.500000
O O11 0.331265 0.792400 0.695048
O O12 0.461995 0.779943 0.788930
O O13 0.500000 0.867071 0.000000
O O14 0.153140 0.183061 0.447150
O O15 0.258595 0.289019 0.700714
O O16 0.500000 0.684412 0.500000
O O17 0.669901 0.674623 0.962435
O O18 0.500000 0.312318 0.000000
O O19 0.453841 0.329767 0.110410
#
# Coordination Sequence:
#
# PCOD8105733 Si02
#       8
#     8   8   8   8   8   8   8   8
#     4  10  21  35  56  84 119 153 185 239 296 354
#     4  11  24  39  59  85 120 159 195 243 288 347
#     4  10  21  38  60  83 112 156 201 237 282 351
#     4  11  20  35  58  87 116 144 195 242 291 344
#     4  11  20  34  56  87 113 150 191 243 297 344
#     4  10  21  35  55  88 121 149 183 241 308 345
#     4  11  20  32  55  84 110 147 190 240 283 340
#     4  11  21  35  58  83 117 152 193 237 291 357
#
# _framework density 18.958386999999998
#
# number of rings (size 3 to 8) (size 9 to 14) (size 15 to 20)
#    0.000    1.375    3.750    3.750    1.750    2.250 
#    0.000    0.625    0.000    7.125    0.000    0.000 
#    0.000    0.000    0.000    0.000    0.000    0.000 
#
# Total GULP energy -396497.390778 kJ/mol
# GULP energy per Si atom -12390.543462 kJ/mol
# Density = 1.891524 g / cm^3
# Si number density = 18.958387 Si / 1000 Ang^3
#
#
#
# Elastic Constant Matrix: (Units=GPa)
#
#
# Indices 1 2 3 4 5 6 
#
# 1 69.7078 35.0350 23.4536 0.0000 1.5446 0.0000
# 2 35.0350 103.6532 43.2358 0.0000 2.3392 0.0000
# 3 23.4536 43.2358 98.1062 0.0000 15.0050 0.0000
# 4 0.0000 0.0000 0.0000 25.4500 0.0000 5.8828
# 5 1.5446 2.3392 15.0050 0.0000 26.5327 0.0000
# 6 0.0000 0.0000 0.0000 5.8828 0.0000 16.8814
#
#
#
# Elastic Compliance Matrix: (Units=1/GPa)
#
#
# Indices 1 2 3 4 5 6 
#
# 1 0.017586 -0.005105 -0.002043 0.000000 0.000582 0.000000
# 2 -0.005105 0.013409 -0.004985 0.000000 0.001934 0.000000
# 3 -0.002043 -0.004985 0.014004 0.000000 -0.007361 0.000000
# 4 0.000000 0.000000 0.000000 0.042735 0.000000 -0.014892
# 5 0.000582 0.001934 -0.007361 0.000000 0.041648 0.000000
# 6 0.000000 0.000000 0.000000 -0.014892 0.000000 0.064427
#
#
# Mechanical properties :
#
#
# Convention : Reuss Voigt Hill
#
# Bulk Modulus (GPa) = 48.23261 52.76845 50.50053
# Shear Modulus (GPa) = 22.22369 25.08900 23.65635
#
# Velocity S-wave (km/s) = 3.42751 3.64176 3.53626
# Velocity P-wave (km/s) = 6.41563 6.75111 6.58551
#
# Compressibility (1/GPa) = 0.02073286
#
# Stress axis : x y z
#
# Youngs Moduli (GPa) = 56.86375 74.57934 71.40724
#
# Poissons Ratio (x) = 0.38072 0.14591
# Poissons Ratio (y) = 0.29028 0.35594
# Poissons Ratio (z) = 0.11620 0.37175
#
# Static dielectric constant tensor:
#      x y z
#    x 3.564320 0.000000 -0.028320 
#    y 0.000000 3.268590 0.000000 
#    z -0.028320 0.000000 3.559450 
# 
# 
# High freq. dielectric constant tensor:
#      x y z
#    x 1.747730 0.000000 -0.002570 
#    y 0.000000 1.691290 0.000000 
#    z -0.002570 0.000000 1.749300 
# 
# From -- ./inp_files/178446.got.cif
#   From: 2010.06.25/outbox.cif.g09.slc.cpg/sg12_90_cif.got.tgz:178446.got - 2010.06.28 00:19:55.
