data_PCOD8105844
_publ_section_title
;
Structure prediction by ZEFSAII (Michael W. Deem and Ramdas Pophale) SiO2 
 PCOD8105844
Probable space group: C 2/M
;
_chemical_formula_sum "Si O2"
_cell_formula_units_Z 48
_cell_length_a 19.108785
_cell_length_b 15.600201
_cell_length_c 18.732581
_cell_angle_alpha 90.000000
_cell_angle_beta 153.562162
_cell_angle_gamma 90.000000
_cell_volume 2486.233984
_symmetry_space_group_name_H-M "C 2/M"
_symmetry_group_IT_number 12
_symmetry_cell_setting 'monoclinic'
loop_
_space_group_symop_operation_xyz
x,y,z
-x,y,-z
-x,-y,-z
x,-y,z
1/2+x,1/2+y,z
1/2-x,1/2+y,-z
1/2-x,1/2-y,-z
1/2+x,1/2-y,z
loop_
_atom_site_type_symbol
_atom_site_label
_atom_site_fract_x
_atom_site_fract_y
_atom_site_fract_z
Si Si1 0.000000 0.225169 0.500000
Si Si2 0.965919 0.639227 0.579062
Si Si3 0.993411 0.403205 0.110983
Si Si4 0.842414 0.665032 0.105537
Si Si5 0.200000 0.500000 0.742915
Si Si6 0.253262 0.097475 0.767847
Si Si7 0.645808 0.500000 0.967653
Si Si8 0.282380 0.500000 0.656700
O O1 0.913272 0.282291 0.480730
O O2 0.115914 0.165058 0.649890
O O3 0.053169 0.675415 0.728510
O O4 0.089637 0.582994 0.646919
O O5 0.811617 0.583614 0.457919
O O6 0.967467 0.500000 0.111806
O O7 0.871063 0.378251 0.938071
O O8 0.968464 0.346041 0.157468
O O9 0.166527 0.390725 0.236464
O O10 0.750000 0.750000 0.000000
O O11 0.722294 0.584683 0.002008
O O12 0.289993 0.500000 0.749876
O O13 0.326081 0.500000 0.921729
O O14 0.191629 0.000000 0.719869
O O15 0.457455 0.500000 0.783633
#
# Coordination Sequence:
#
# PCOD8105844 Si02
#       8
#     4   8   8   8   4   8   4   4
#     4  12  19  35  54  86 122 138 188 237 289 338
#     4  10  21  35  60  83 116 163 181 228 297 347
#     4   9  18  39  61  76 107 146 196 233 289 346
#     4  11  22  40  61  83 117 159 202 236 287 350
#     4   9  17  39  59  81 114 152 187 226 288 348
#     4   9  20  35  59  84 104 146 187 243 289 342
#     4  10  23  36  62  91 111 153 200 242 284 348
#     4  11  19  39  59  89 123 145 193 239 292 351
#
# _framework density 19.306308999999999
#
# number of rings (size 3 to 8) (size 9 to 14) (size 15 to 20)
#    0.000    2.000    2.500    3.500    0.000    1.333 
#    0.000    6.667    0.000    0.000    0.000    0.000 
#    0.000    0.000    0.000    0.000    0.000    0.000 
#
# Total GULP energy -297524.868156 kJ/mol
# GULP energy per Si atom -12396.869506 kJ/mol
# Density = 1.926237 g / cm^3
# Si number density = 19.306309 Si / 1000 Ang^3
#
#
#
# Elastic Constant Matrix: (Units=GPa)
#
#
# Indices 1 2 3 4 5 6 
#
# 1 66.7640 17.0721 7.1414 0.0044 -12.6671 0.0036
# 2 17.0721 93.8054 40.6916 -0.0026 -9.3934 0.0015
# 3 7.1414 40.6916 71.5371 0.0017 1.0035 -0.0014
# 4 0.0044 -0.0026 0.0017 20.2916 -0.0049 2.4352
# 5 -12.6671 -9.3934 1.0035 -0.0049 28.2482 0.0018
# 6 0.0036 0.0015 -0.0014 2.4352 0.0018 13.5488
#
#
#
# Elastic Compliance Matrix: (Units=1/GPa)
#
#
# Indices 1 2 3 4 5 6 
#
# 1 0.016892 -0.002139 -0.000566 -0.000002 0.006883 -0.000005
# 2 -0.002139 0.015165 -0.008474 0.000005 0.004384 -0.000003
# 3 -0.000566 -0.008474 0.018908 -0.000004 -0.003743 0.000004
# 4 -0.000002 0.000005 -0.000004 0.050368 0.000010 -0.009053
# 5 0.006883 0.004384 -0.003743 0.000010 0.040078 -0.000010
# 6 -0.000005 -0.000003 0.000004 -0.009053 -0.000010 0.075435
#
#
# Mechanical properties :
#
#
# Convention : Reuss Voigt Hill
#
# Bulk Modulus (GPa) = 34.95789 40.21297 37.58543
# Shear Modulus (GPa) = 20.10144 23.56446 21.83295
#
# Velocity S-wave (km/s) = 3.23024 3.49744 3.36649
# Velocity P-wave (km/s) = 5.66206 6.09783 5.88398
#
# Compressibility (1/GPa) = 0.02860584
#
# Stress axis : x y z
#
# Youngs Moduli (GPa) = 59.20062 65.94287 52.88808
#
# Poissons Ratio (x) = 0.14108 0.02993
# Poissons Ratio (y) = 0.12666 0.44817
# Poissons Ratio (z) = 0.03350 0.55879
#
# Static dielectric constant tensor:
#      x y z
#    x 3.382630 -0.000010 -0.157680 
#    y -0.000010 3.525570 0.000000 
#    z -0.157680 0.000000 3.320460 
# 
# 
# High freq. dielectric constant tensor:
#      x y z
#    x 1.742910 0.000000 -0.013050 
#    y 0.000000 1.751640 0.000000 
#    z -0.013050 0.000000 1.741120 
# 
# From -- ./inp_files/278300.got.cif
#   From: 2010.06.25/outbox.cif.g09.slc.cpg/sg12_140_cif.got.tgz:278300.got - 2010.06.28 00:19:55.
