data_PCOD8105455
_publ_section_title
;
Structure prediction by ZEFSAII (Michael W. Deem and Ramdas Pophale) SiO2 
 PCOD8105455
Probable space group: C 2/M
;
_chemical_formula_sum "Si O2"
_cell_formula_units_Z 48
_cell_length_a 16.730072
_cell_length_b 26.000148
_cell_length_c 5.480963
_cell_angle_alpha 90.000000
_cell_angle_beta 79.055450
_cell_angle_gamma 90.000000
_cell_volume 2340.769040
_symmetry_space_group_name_H-M "C 2/M"
_symmetry_group_IT_number 12
_symmetry_cell_setting 'monoclinic'
loop_
_space_group_symop_operation_xyz
x,y,z
-x,y,-z
-x,-y,-z
x,-y,z
1/2+x,1/2+y,z
1/2-x,1/2+y,-z
1/2-x,1/2-y,-z
1/2+x,1/2-y,z
loop_
_atom_site_type_symbol
_atom_site_label
_atom_site_fract_x
_atom_site_fract_y
_atom_site_fract_z
Si Si1 0.712551 0.784674 0.315830
Si Si2 0.173656 0.440078 0.358302
Si Si3 0.000000 0.774855 0.000000
Si Si4 0.778351 0.387173 0.162756
Si Si5 0.090026 0.320223 0.742255
Si Si6 0.000000 0.395159 0.500000
Si Si7 0.843184 0.812791 0.907735
O O1 0.750000 0.750000 0.500000
O O2 0.642232 0.821366 0.461389
O O3 0.671672 0.746769 0.146325
O O4 0.784615 0.821521 0.176927
O O5 0.190946 0.500000 0.359625
O O6 0.207679 0.417907 0.595148
O O7 0.076939 0.430732 0.395659
O O8 0.218810 0.420824 0.085149
O O9 0.943606 0.737452 0.196688
O O10 0.059461 0.814826 0.106816
O O11 0.848408 0.342272 0.086577
O O12 0.690022 0.358024 0.250449
O O13 0.015706 0.359133 0.731119
#
# Coordination Sequence:
#
# PCOD8105455 Si02
#       7
#     8   8   4   8   8   4   8
#     4  11  19  36  54  76 118 167 208 240 262 340
#     4  11  24  42  63  88 112 147 193 255 312 361
#     4  12  22  32  52  86 126 156 200 248 278 334
#     4  11  23  40  63  82 117 155 203 239 290 367
#     4  11  20  36  55  85 123 170 201 229 285 337
#     4  10  21  34  58  88 122 154 192 242 291 364
#     4  11  22  35  54  84 114 159 207 244 292 332
#
# _framework density 20.506081999999999
#
# number of rings (size 3 to 8) (size 9 to 14) (size 15 to 20)
#    0.000    1.000    3.333    5.750    0.000    2.000 
#    0.000    4.167    0.000    0.000    0.000    3.500 
#    0.000    0.000    0.000    0.000    0.000    0.000 
#
# Total GULP energy -297337.163036 kJ/mol
# GULP energy per Si atom -12389.048460 kJ/mol
# Density = 2.045941 g / cm^3
# Si number density = 20.506082 Si / 1000 Ang^3
#
#
#
# Elastic Constant Matrix: (Units=GPa)
#
#
# Indices 1 2 3 4 5 6 
#
# 1 143.0431 57.3628 29.2003 0.0000 17.8696 0.0000
# 2 57.3628 108.6148 32.8215 0.0000 9.3984 0.0000
# 3 29.2003 32.8215 88.5414 0.0000 6.1831 0.0000
# 4 0.0000 0.0000 0.0000 30.8760 0.0000 0.1449
# 5 17.8696 9.3984 6.1831 0.0000 23.3051 0.0000
# 6 0.0000 0.0000 0.0000 0.1449 0.0000 26.4640
#
#
#
# Elastic Compliance Matrix: (Units=1/GPa)
#
#
# Indices 1 2 3 4 5 6 
#
# 1 0.009608 -0.004243 -0.001223 0.000000 -0.005332 0.000000
# 2 -0.004243 0.012485 -0.003163 0.000000 -0.000942 0.000000
# 3 -0.001223 -0.003163 0.012956 0.000000 -0.001224 0.000000
# 4 0.000000 0.000000 0.000000 0.032388 0.000000 -0.000177
# 5 -0.005332 -0.000942 -0.001224 0.000000 0.047702 0.000000
# 6 0.000000 0.000000 0.000000 -0.000177 0.000000 0.037788
#
#
# Mechanical properties :
#
#
# Convention : Reuss Voigt Hill
#
# Bulk Modulus (GPa) = 56.21275 64.32983 60.27129
# Shear Modulus (GPa) = 28.39024 30.85001 29.62012
#
# Velocity S-wave (km/s) = 3.72490 3.88291 3.80472
# Velocity P-wave (km/s) = 6.78027 7.17926 6.98262
#
# Compressibility (1/GPa) = 0.01778956
#
# Stress axis : x y z
#
# Youngs Moduli (GPa) = 104.07578 80.09463 77.18701
#
# Poissons Ratio (x) = 0.33988 0.09443
# Poissons Ratio (y) = 0.44164 0.24414
# Poissons Ratio (z) = 0.12733 0.25333
#
# Static dielectric constant tensor:
#      x y z
#    x 3.911230 0.000000 -0.041960 
#    y 0.000000 4.130430 0.000000 
#    z -0.041960 0.000000 4.773210 
# 
# 
# High freq. dielectric constant tensor:
#      x y z
#    x 1.792500 0.000000 0.015270 
#    y 0.000000 1.771560 0.000000 
#    z 0.015270 0.000000 1.806150 
# 
# From -- ./inp_files/12859.got.cif
#   From: 2010.06.25/outbox.cif.g09.slc.cpg/sg12_7_cif.got.tgz:12859.got - 2010.06.28 00:19:55.
