data_PCOD8105198
_publ_section_title
;
Structure prediction by ZEFSAII (Michael W. Deem and Ramdas Pophale) SiO2 
 PCOD8105198
Probable space group: C 2/M
;
_chemical_formula_sum "Si O2"
_cell_formula_units_Z 44
_cell_length_a 9.191241
_cell_length_b 16.913857
_cell_length_c 15.611763
_cell_angle_alpha 90.000000
_cell_angle_beta 64.392016
_cell_angle_gamma 90.000000
_cell_volume 2188.596259
_symmetry_space_group_name_H-M "C 2/M"
_symmetry_group_IT_number 12
_symmetry_cell_setting 'monoclinic'
loop_
_space_group_symop_operation_xyz
x,y,z
-x,y,-z
-x,-y,-z
x,-y,z
1/2+x,1/2+y,z
1/2-x,1/2+y,-z
1/2-x,1/2-y,-z
1/2+x,1/2-y,z
loop_
_atom_site_type_symbol
_atom_site_label
_atom_site_fract_x
_atom_site_fract_y
_atom_site_fract_z
Si Si1 0.905058 0.413776 0.438415
Si Si2 0.954064 0.304388 0.289412
Si Si3 0.418538 0.672571 0.435823
Si Si4 0.317169 0.590892 0.727435
Si Si5 0.159648 0.805486 0.126011
Si Si6 0.000000 0.761743 0.000000
O O1 0.851849 0.500000 0.417838
O O2 0.018260 0.373014 0.337178
O O3 0.750899 0.359768 0.490186
O O4 0.000000 0.424056 0.500000
O O5 0.888171 0.233893 0.366696
O O6 0.814072 0.343791 0.267942
O O7 0.096298 0.272595 0.192861
O O8 0.500000 0.712024 0.500000
O O9 0.528411 0.600146 0.373611
O O10 0.257121 0.500000 0.740641
O O11 0.364113 0.614915 0.812682
O O12 0.052706 0.816199 0.067125
O O13 0.348505 0.794520 0.059026
#
# Coordination Sequence:
#
# PCOD8105198 Si02
#       6
#     8   8   8   8   8   4
#     4  11  24  37  54  85 129 169 206 253 299 340
#     4  11  22  36  60  88 120 160 203 253 290 354
#     4  11  23  37  60  85 122 170 216 246 284 347
#     4  11  23  39  61  93 126 158 201 250 302 354
#     4  10  22  39  66  94 118 154 198 248 305 367
#     4  10  20  42  68  90 120 150 198 246 304 380
#
# _framework density 20.104210999999999
#
# number of rings (size 3 to 8) (size 9 to 14) (size 15 to 20)
#    0.000    1.273    3.636    2.182    5.091    0.727 
#    0.000    0.909    0.000    1.091    0.000    0.000 
#    0.000    0.000    0.000    0.000    0.000    0.000 
#
# Total GULP energy -272658.131268 kJ/mol
# GULP energy per Si atom -12393.551421 kJ/mol
# Density = 2.005845 g / cm^3
# Si number density = 20.104211 Si / 1000 Ang^3
#
#
#
# Elastic Constant Matrix: (Units=GPa)
#
#
# Indices 1 2 3 4 5 6 
#
# 1 97.7487 36.6887 44.1169 0.0000 8.3080 0.0000
# 2 36.6887 99.7494 43.2246 0.0000 3.7616 0.0000
# 3 44.1169 43.2246 115.4519 0.0000 13.7466 0.0000
# 4 0.0000 0.0000 0.0000 13.4263 0.0000 -5.1857
# 5 8.3080 3.7616 13.7466 0.0000 41.5538 0.0000
# 6 0.0000 0.0000 0.0000 -5.1857 0.0000 14.5615
#
#
#
# Elastic Compliance Matrix: (Units=1/GPa)
#
#
# Indices 1 2 3 4 5 6 
#
# 1 0.013204 -0.003206 -0.003712 0.000000 -0.001122 0.000000
# 2 -0.003206 0.012752 -0.003631 0.000000 0.000688 0.000000
# 3 -0.003712 -0.003631 0.011776 0.000000 -0.002825 0.000000
# 4 0.000000 0.000000 0.000000 0.086359 0.000000 0.030755
# 5 -0.001122 0.000688 -0.002825 0.000000 0.025162 0.000000
# 6 0.000000 0.000000 0.000000 0.030755 0.000000 0.079627
#
#
# Mechanical properties :
#
#
# Convention : Reuss Voigt Hill
#
# Bulk Modulus (GPa) = 60.11678 62.33448 61.22563
# Shear Modulus (GPa) = 19.56781 26.50297 23.03539
#
# Velocity S-wave (km/s) = 3.12319 3.63475 3.38864
# Velocity P-wave (km/s) = 6.55540 6.97769 6.76984
#
# Compressibility (1/GPa) = 0.01663429
#
# Stress axis : x y z
#
# Youngs Moduli (GPa) = 75.73357 78.42040 84.92013
#
# Poissons Ratio (x) = 0.25141 0.31521
# Poissons Ratio (y) = 0.24279 0.30835
# Poissons Ratio (z) = 0.28111 0.28475
#
# Static dielectric constant tensor:
#      x y z
#    x 2.929480 0.000000 -0.347410 
#    y 0.000000 3.640330 0.000000 
#    z -0.347410 0.000000 3.614120 
# 
# 
# High freq. dielectric constant tensor:
#      x y z
#    x 1.784790 0.000000 0.016280 
#    y 0.000000 1.763960 0.000000 
#    z 0.016280 0.000000 1.796600 
# 
# From -- ./inp_files/195397.got.cif
#   From: 2010.06.25/outbox.cif.g09.slc.cpg/sg12_98_cif.got.tgz:195397.got - 2010.06.28 00:19:55.
