data_PCOD8105580
_publ_section_title
;
Structure prediction by ZEFSAII (Michael W. Deem and Ramdas Pophale) SiO2 
 PCOD8105580
Probable space group: C 2/M
;
_chemical_formula_sum "Si O2"
_cell_formula_units_Z 64
_cell_length_a 18.322607
_cell_length_b 8.864323
_cell_length_c 20.103026
_cell_angle_alpha 90.000000
_cell_angle_beta 88.837809
_cell_angle_gamma 90.000000
_cell_volume 3264.411684
_symmetry_space_group_name_H-M "C 2/M"
_symmetry_group_IT_number 12
_symmetry_cell_setting 'monoclinic'
loop_
_space_group_symop_operation_xyz
x,y,z
-x,y,-z
-x,-y,-z
x,-y,z
1/2+x,1/2+y,z
1/2-x,1/2+y,-z
1/2-x,1/2-y,-z
1/2+x,1/2-y,z
loop_
_atom_site_type_symbol
_atom_site_label
_atom_site_fract_x
_atom_site_fract_y
_atom_site_fract_z
Si Si1 0.180062 0.176661 0.271990
Si Si2 0.919222 0.678129 0.992355
Si Si3 0.673159 0.825571 0.882728
Si Si4 0.658761 0.328593 0.123893
Si Si5 0.075084 0.821748 0.393581
Si Si6 0.167263 0.178263 0.743433
Si Si7 0.671424 0.174186 0.503799
Si Si8 0.422852 0.173591 0.366229
O O1 0.147818 0.221496 0.200632
O O2 0.120397 0.222929 0.327124
O O3 0.255077 0.263354 0.285068
O O4 0.199646 0.000000 0.273267
O O5 0.918692 0.500000 0.995580
O O6 0.870096 0.741853 0.053462
O O7 0.890610 0.724575 0.920900
O O8 0.000000 0.744151 0.000000
O O9 0.757707 0.806358 0.898527
O O10 0.651449 0.730303 0.818679
O O11 0.654044 0.000000 0.868705
O O12 0.633600 0.500000 0.114081
O O13 0.116653 0.760198 0.456578
O O14 0.996136 0.747511 0.392718
O O15 0.066346 0.000000 0.400337
O O16 0.102061 0.241737 0.699702
O O17 0.166396 0.000000 0.739810
O O18 0.750000 0.250000 0.500000
O O19 0.641041 0.189267 0.578615
O O20 0.677785 0.000000 0.481996
O O21 0.438705 0.000000 0.349153
#
# Coordination Sequence:
#
# PCOD8105580 Si02
#       8
#     8   8   8   8   8   8   8   8
#     4   9  20  39  59  83 116 149 182 226 285 340
#     4  10  21  35  52  78 110 142 180 227 278 333
#     4   9  19  37  57  77 108 147 182 224 282 336
#     4   9  18  34  56  78 104 142 183 223 270 328
#     4  11  23  39  61  88 118 151 189 234 280 334
#     4  11  22  36  59  88 112 142 192 240 275 328
#     4  11  24  41  62  87 115 151 193 236 283 335
#     4  11  24  41  59  82 118 157 188 227 284 340
#
# _framework density 19.605371000000002
#
# number of rings (size 3 to 8) (size 9 to 14) (size 15 to 20)
#    0.000    1.875    0.000    4.500    0.000   11.250 
#    0.000    2.500    0.000    0.000    0.000    0.000 
#    0.000    0.000    0.000    0.000    0.000    0.000 
#
# Total GULP energy -396940.165827 kJ/mol
# GULP energy per Si atom -12404.380182 kJ/mol
# Density = 1.956075 g / cm^3
# Si number density = 19.605371 Si / 1000 Ang^3
#
#
#
# Elastic Constant Matrix: (Units=GPa)
#
#
# Indices 1 2 3 4 5 6 
#
# 1 83.4648 34.7106 32.0998 0.0000 23.9659 0.0000
# 2 34.7106 86.1691 33.8676 0.0000 12.3023 0.0000
# 3 32.0998 33.8676 84.1659 0.0000 16.9101 0.0000
# 4 0.0000 0.0000 0.0000 33.8709 0.0000 5.5482
# 5 23.9659 12.3023 16.9101 0.0000 31.4534 0.0000
# 6 0.0000 0.0000 0.0000 5.5482 0.0000 29.6058
#
#
#
# Elastic Compliance Matrix: (Units=1/GPa)
#
#
# Indices 1 2 3 4 5 6 
#
# 1 0.017996 -0.004624 -0.002928 0.000000 -0.010330 0.000000
# 2 -0.004624 0.015181 -0.004328 0.000000 -0.000088 0.000000
# 3 -0.002928 -0.004328 0.015640 0.000000 -0.004485 0.000000
# 4 0.000000 0.000000 0.000000 0.030459 0.000000 -0.005708
# 5 -0.010330 -0.000088 -0.004485 0.000000 0.042110 0.000000
# 6 0.000000 0.000000 0.000000 -0.005708 0.000000 0.034847
#
#
# Mechanical properties :
#
#
# Convention : Reuss Voigt Hill
#
# Bulk Modulus (GPa) = 39.90475 50.57286 45.23880
# Shear Modulus (GPa) = 26.54723 29.19414 27.87069
#
# Velocity S-wave (km/s) = 3.68377 3.86306 3.77448
# Velocity P-wave (km/s) = 6.20417 6.76380 6.49002
#
# Compressibility (1/GPa) = 0.02505967
#
# Stress axis : x y z
#
# Youngs Moduli (GPa) = 55.56827 65.87135 63.93711
#
# Poissons Ratio (x) = 0.30457 0.18718
# Poissons Ratio (y) = 0.25693 0.27669
# Poissons Ratio (z) = 0.16268 0.28506
#
# Static dielectric constant tensor:
#      x y z
#    x 3.569020 0.000000 -0.127980 
#    y 0.000000 3.542390 0.000000 
#    z -0.127980 0.000000 3.683660 
# 
# 
# High freq. dielectric constant tensor:
#      x y z
#    x 1.765010 0.000000 0.001190 
#    y 0.000000 1.762570 0.000000 
#    z 0.001190 0.000000 1.776170 
# 
# From -- ./inp_files/314097.got.cif
#   From: 2010.06.25/outbox.cif.g09.slc.cpg/sg12_158_cif.got.tgz:314097.got - 2010.06.28 00:19:55.
