data_PCOD8105282
_publ_section_title
;
Structure prediction by ZEFSAII (Michael W. Deem and Ramdas Pophale) SiO2 
 PCOD8105282
Probable space group: C 2/M
;
_chemical_formula_sum "Si O2"
_cell_formula_units_Z 64
_cell_length_a 20.248008
_cell_length_b 33.529387
_cell_length_c 16.486077
_cell_angle_alpha 90.000000
_cell_angle_beta 159.668857
_cell_angle_gamma 90.000000
_cell_volume 3888.765832
_symmetry_space_group_name_H-M "C 2/M"
_symmetry_group_IT_number 12
_symmetry_cell_setting 'monoclinic'
loop_
_space_group_symop_operation_xyz
x,y,z
-x,y,-z
-x,-y,-z
x,-y,z
1/2+x,1/2+y,z
1/2-x,1/2+y,-z
1/2-x,1/2-y,-z
1/2+x,1/2-y,z
loop_
_atom_site_type_symbol
_atom_site_label
_atom_site_fract_x
_atom_site_fract_y
_atom_site_fract_z
Si Si1 0.176545 0.820566 0.995076
Si Si2 0.967094 0.325021 0.700740
Si Si3 0.423969 0.265092 0.612636
Si Si4 0.717427 0.893858 0.616075
Si Si5 0.823075 0.751454 0.240618
Si Si6 0.624801 0.601534 0.029929
Si Si7 0.576946 0.044077 0.678654
Si Si8 0.036104 0.303902 0.129867
O O1 0.107497 0.862407 0.948194
O O2 0.985195 0.795955 0.753150
O O3 0.317086 0.828327 0.081247
O O4 0.284926 0.796028 0.190819
O O5 0.887434 0.279514 0.604395
O O6 0.837696 0.354327 0.497543
O O7 0.959078 0.335240 0.788763
O O8 0.611439 0.265894 0.772390
O O9 0.233259 0.279665 0.348960
O O10 0.558417 0.927987 0.422299
O O11 0.914294 0.912136 0.811198
O O12 0.746744 0.884126 0.745376
O O13 0.000000 0.760627 0.500000
O O14 0.634626 0.773288 0.051823
O O15 0.716158 0.564162 0.088359
O O16 0.500000 0.039689 0.500000
O O17 0.592665 0.000000 0.736627
O O18 0.000000 0.324882 0.000000
#
# Coordination Sequence:
#
# PCOD8105282 Si02
#       8
#     8   8   8   8   8   8   8   8
#     4  11  21  35  52  70 102 137 172 219 261 296
#     4  11  21  36  50  70  99 134 172 219 261 299
#     4  11  22  36  51  67  97 132 177 221 263 302
#     4  10  21  34  51  76 105 134 173 211 250 298
#     4  11  22  35  46  68  92 126 175 222 259 300
#     4  10  21  33  50  77 103 138 172 208 250 295
#     4   9  18  34  54  76 104 135 165 200 248 306
#     4  12  23  35  52  68  92 133 176 220 267 303
#
# _framework density 16.457663
#
# number of rings (size 3 to 8) (size 9 to 14) (size 15 to 20)
#    0.000    1.375    5.000    1.875    5.250    0.500 
#    0.000    2.500    0.000    0.000    0.000    0.000 
#    0.000    0.500    0.000    3.500    0.000    0.375 
#
# Total GULP energy -396602.437422 kJ/mol
# GULP energy per Si atom -12393.826169 kJ/mol
# Density = 1.642020 g / cm^3
# Si number density = 16.457663 Si / 1000 Ang^3
#
#
#
# Elastic Constant Matrix: (Units=GPa)
#
#
# Indices 1 2 3 4 5 6 
#
# 1 73.7436 29.8576 25.2225 -0.0001 -2.4188 -0.0001
# 2 29.8576 97.9155 36.8646 0.0001 -0.7230 0.0001
# 3 25.2225 36.8646 89.1169 -0.0022 8.3851 -0.0011
# 4 -0.0001 0.0001 -0.0022 15.6786 -0.0004 -0.7263
# 5 -2.4188 -0.7230 8.3851 -0.0004 27.5432 -0.0002
# 6 -0.0001 0.0001 -0.0011 -0.7263 -0.0002 12.3073
#
#
#
# Elastic Compliance Matrix: (Units=1/GPa)
#
#
# Indices 1 2 3 4 5 6 
#
# 1 0.016262 -0.003703 -0.003290 0.000000 0.002333 0.000000
# 2 -0.003703 0.013037 -0.004475 -0.000001 0.001379 -0.000001
# 3 -0.003290 -0.004475 0.014456 0.000002 -0.004807 0.000001
# 4 0.000000 -0.000001 0.000002 0.063956 0.000000 0.003774
# 5 0.002333 0.001379 -0.004807 0.000000 0.038011 0.000000
# 6 0.000000 -0.000001 0.000001 0.003774 0.000000 0.081476
#
#
# Mechanical properties :
#
#
# Convention : Reuss Voigt Hill
#
# Bulk Modulus (GPa) = 48.03335 49.40727 48.72031
# Shear Modulus (GPa) = 19.44982 22.36123 20.90552
#
# Velocity S-wave (km/s) = 3.44147 3.69007 3.56794
# Velocity P-wave (km/s) = 6.71126 6.94561 6.82944
#
# Compressibility (1/GPa) = 0.02081887
#
# Stress axis : x y z
#
# Youngs Moduli (GPa) = 61.49481 76.70574 69.17641
#
# Poissons Ratio (x) = 0.28402 0.22761
# Poissons Ratio (y) = 0.22770 0.30954
# Poissons Ratio (z) = 0.20233 0.34324
#
# Static dielectric constant tensor:
#      x y z
#    x 3.313640 0.000000 0.119360 
#    y 0.000000 2.900280 0.000000 
#    z 0.119360 0.000000 3.193370 
# 
# 
# High freq. dielectric constant tensor:
#      x y z
#    x 1.630240 0.000000 0.024480 
#    y 0.000000 1.588560 0.000000 
#    z 0.024480 0.000000 1.644050 
# 
# From -- ./inp_files/286790.got.cif
#   From: 2010.06.25/outbox.cif.g09.slc.cpg/sg12_144_cif.got.tgz:286790.got - 2010.06.28 00:19:55.
