data_PCOD8105236
_publ_section_title
;
Structure prediction by ZEFSAII (Michael W. Deem and Ramdas Pophale) SiO2 
 PCOD8105236
Probable space group: C 2/M
;
_chemical_formula_sum "Si O2"
_cell_formula_units_Z 52
_cell_length_a 5.361169
_cell_length_b 29.863895
_cell_length_c 20.520686
_cell_angle_alpha 90.000000
_cell_angle_beta 100.132491
_cell_angle_gamma 90.000000
_cell_volume 3234.230774
_symmetry_space_group_name_H-M "C 2/M"
_symmetry_group_IT_number 12
_symmetry_cell_setting 'monoclinic'
loop_
_space_group_symop_operation_xyz
x,y,z
-x,y,-z
-x,-y,-z
x,-y,z
1/2+x,1/2+y,z
1/2-x,1/2+y,-z
1/2-x,1/2-y,-z
1/2+x,1/2-y,z
loop_
_atom_site_type_symbol
_atom_site_label
_atom_site_fract_x
_atom_site_fract_y
_atom_site_fract_z
Si Si1 0.937637 0.372487 0.573139
Si Si2 0.500000 0.583086 0.500000
Si Si3 0.723671 0.549630 0.387136
Si Si4 0.037002 0.726433 0.578853
Si Si5 0.862021 0.446575 0.186097
Si Si6 0.773751 0.446741 0.035253
Si Si7 0.904583 0.948540 0.251850
O O1 0.639787 0.384294 0.558900
O O2 0.000000 0.374589 0.500000
O O3 0.077901 0.411160 0.620796
O O4 0.004531 0.323922 0.605134
O O5 0.666853 0.551005 0.461938
O O6 0.838414 0.500000 0.376992
O O7 0.474481 0.557047 0.331299
O O8 0.321704 0.744129 0.605876
O O9 0.000000 0.727600 0.500000
O O10 0.864029 0.500000 0.191479
O O11 0.825711 0.430045 0.110680
O O12 0.630166 0.426939 0.218525
O O13 0.129839 0.426507 0.225057
O O14 0.771060 0.500000 0.031629
O O15 0.500000 0.427952 0.000000
O O16 0.000000 0.427947 0.000000
O O17 0.883007 0.000000 0.230095
#
# Coordination Sequence:
#
# PCOD8105236 Si02
#       7
#     8   4   8   8   8   8   8
#     4   9  20  32  45  63  85 103 134 174 220 272
#     4  10  21  32  46  60  84 106 142 184 231 270
#     4  10  21  33  45  60  81 112 148 185 227 268
#     4   9  18  29  49  68  86 105 126 156 209 271
#     4   9  16  27  39  54  75  97 128 167 203 248
#     4   9  15  22  35  54  74  95 119 153 204 252
#     4   9  18  29  42  55  72 102 137 170 208 249
#
# _framework density 16.078011
#
# number of rings (size 3 to 8) (size 9 to 14) (size 15 to 20)
#    0.000    2.769    0.000    1.154    9.692    7.077 
#    0.000    0.000    0.000    0.000    0.000    0.000 
#    0.000    0.000    0.000    0.000    0.000    0.000 
#
# Total GULP energy -322110.629701 kJ/mol
# GULP energy per Si atom -12388.870373 kJ/mol
# Density = 1.604142 g / cm^3
# Si number density = 16.078011 Si / 1000 Ang^3
#
#
#
# Elastic Constant Matrix: (Units=GPa)
#
#
# Indices 1 2 3 4 5 6 
#
# 1 112.7956 24.9573 30.6546 0.0000 16.6841 0.0000
# 2 24.9573 74.0863 17.1840 0.0000 13.6736 0.0000
# 3 30.6546 17.1840 59.7198 0.0000 7.8763 0.0000
# 4 0.0000 0.0000 0.0000 1.4224 0.0000 4.3029
# 5 16.6841 13.6736 7.8763 0.0000 28.6762 0.0000
# 6 0.0000 0.0000 0.0000 4.3029 0.0000 12.4689
#
#
#
# Elastic Compliance Matrix: (Units=1/GPa)
#
#
# Indices 1 2 3 4 5 6 
#
# 1 0.011182 -0.001895 -0.004623 0.000000 -0.004332 0.000000
# 2 -0.001895 0.015841 -0.002837 0.000000 -0.005672 0.000000
# 3 -0.004623 -0.002837 0.020130 0.000000 -0.001486 0.000000
# 4 0.000000 0.000000 0.000000-15.998712 0.000000 5.520941
# 5 -0.004332 -0.005672 -0.001486 0.000000 0.040505 0.000000
# 6 0.000000 0.000000 0.000000 5.520941 0.000000 -1.825003
#
#
# Mechanical properties :
#
#
# Convention : Reuss Voigt Hill
#
# Bulk Modulus (GPa) = 35.15876 43.57706 39.36791
# Shear Modulus (GPa) = -0.28236 20.10056 9.90910
#
# Velocity S-wave (km/s) = -0.41952 3.53964 2.48526
# Velocity P-wave (km/s) = 4.65622 6.62327 5.72486
#
# Compressibility (1/GPa) = 0.02844242
#
# Stress axis : x y z
#
# Youngs Moduli (GPa) = 89.42805 63.12725 49.67591
#
# Poissons Ratio (x) = 0.11962 0.22966
# Poissons Ratio (y) = 0.16946 0.14095
# Poissons Ratio (z) = 0.41345 0.17912
#
# Static dielectric constant tensor:
#      x y z
#    x 3.570960 0.000000 0.138980 
#    y 0.000000 2.670760 0.000000 
#    z 0.138980 0.000000 2.857250 
# 
# 
# High freq. dielectric constant tensor:
#      x y z
#    x 1.637770 0.000000 0.010120 
#    y 0.000000 1.546530 0.000000 
#    z 0.010120 0.000000 1.586820 
# 
# From -- ./inp_files/298033.got.cif
#   From: 2010.06.25/outbox.cif.g09.slc.cpg/sg12_150_cif.got.tgz:298033.got - 2010.06.28 00:19:55.
