data_PCOD8105696
_publ_section_title
;
Structure prediction by ZEFSAII (Michael W. Deem and Ramdas Pophale) SiO2 
 PCOD8105696
Probable space group: C 2/M
;
_chemical_formula_sum "Si O2"
_cell_formula_units_Z 44
_cell_length_a 15.076062
_cell_length_b 26.088945
_cell_length_c 12.359225
_cell_angle_alpha 90.000000
_cell_angle_beta 26.975629
_cell_angle_gamma 90.000000
_cell_volume 2205.056357
_symmetry_space_group_name_H-M "C 2/M"
_symmetry_group_IT_number 12
_symmetry_cell_setting 'monoclinic'
loop_
_space_group_symop_operation_xyz
x,y,z
-x,y,-z
-x,-y,-z
x,-y,z
1/2+x,1/2+y,z
1/2-x,1/2+y,-z
1/2-x,1/2-y,-z
1/2+x,1/2-y,z
loop_
_atom_site_type_symbol
_atom_site_label
_atom_site_fract_x
_atom_site_fract_y
_atom_site_fract_z
Si Si1 0.339053 0.200474 0.464295
Si Si2 0.713539 0.193807 0.931767
Si Si3 0.698030 0.700228 0.844851
Si Si4 0.624110 0.440313 0.473638
Si Si5 0.489831 0.638446 0.774397
Si Si6 0.500000 0.880030 0.000000
O O1 0.250000 0.250000 0.500000
O O2 0.562086 0.191977 0.194504
O O3 0.355098 0.196668 0.577780
O O4 0.209652 0.152919 0.566224
O O5 0.755048 0.252175 0.857029
O O6 0.921032 0.173805 0.749012
O O7 0.630064 0.157389 0.930687
O O8 0.500000 0.716746 0.000000
O O9 0.654456 0.648540 0.964692
O O10 0.500000 0.429536 0.500000
O O11 0.652602 0.500000 0.462742
O O12 0.502785 0.418857 0.710514
O O13 0.841342 0.415516 0.233376
#
# Coordination Sequence:
#
# PCOD8105696 Si02
#       6
#     8   8   8   8   8   4
#     4  11  21  37  55  82 124 158 190 236 278 345
#     4  12  21  36  56  88 118 159 190 230 290 350
#     4  10  21  35  54  85 123 156 194 229 277 347
#     4  11  24  41  62  87 113 149 198 251 299 344
#     4  11  23  38  56  84 115 154 195 238 288 344
#     4  12  21  38  62  88 120 148 191 240 300 350
#
# _framework density 19.954139000000001
#
# number of rings (size 3 to 8) (size 9 to 14) (size 15 to 20)
#    0.000    0.909    8.182    0.818    0.000    0.727 
#    0.000    0.000    0.000    4.909    0.000    1.273 
#    0.000    0.000    0.000    0.000    0.000    0.000 
#
# Total GULP energy -272557.793120 kJ/mol
# GULP energy per Si atom -12388.990596 kJ/mol
# Density = 1.990872 g / cm^3
# Si number density = 19.954139 Si / 1000 Ang^3
#
#
#
# Elastic Constant Matrix: (Units=GPa)
#
#
# Indices 1 2 3 4 5 6 
#
# 1 81.5697 23.9378 35.1013 0.0036 17.3215 -0.0010
# 2 23.9378 89.2549 51.1991 0.0083 28.2165 -0.0036
# 3 35.1013 51.1991 91.4187 -0.0038 29.3919 0.0074
# 4 0.0036 0.0083 -0.0038 11.8808 0.0018 7.6655
# 5 17.3215 28.2165 29.3919 0.0018 36.9088 -0.0033
# 6 -0.0010 -0.0036 0.0074 7.6655 -0.0033 27.6049
#
#
#
# Elastic Compliance Matrix: (Units=1/GPa)
#
#
# Indices 1 2 3 4 5 6 
#
# 1 0.014989 -0.000457 -0.004503 -0.000007 -0.003099 0.000003
# 2 -0.000457 0.018016 -0.007467 -0.000019 -0.007612 0.000009
# 3 -0.004503 -0.007467 0.019268 0.000023 -0.007522 -0.000013
# 4 -0.000007 -0.000019 0.000023 0.102541 -0.000007 -0.028474
# 5 -0.003099 -0.007612 -0.007522 -0.000007 0.040358 0.000008
# 6 0.000003 0.000009 -0.000013 -0.028474 0.000008 0.044132
#
#
# Mechanical properties :
#
#
# Convention : Reuss Voigt Hill
#
# Bulk Modulus (GPa) = 36.47060 53.63551 45.05305
# Shear Modulus (GPa) = 18.29499 25.41258 21.85379
#
# Velocity S-wave (km/s) = 3.03124 3.57255 3.31297
# Velocity P-wave (km/s) = 5.52884 6.62988 6.10424
#
# Compressibility (1/GPa) = 0.02741935
#
# Stress axis : x y z
#
# Youngs Moduli (GPa) = 66.71355 55.50506 51.89990
#
# Poissons Ratio (x) = 0.02539 0.23369
# Poissons Ratio (y) = 0.03052 0.38753
# Poissons Ratio (z) = 0.30040 0.41445
#
# Static dielectric constant tensor:
#      x y z
#    x 4.020430 0.000020 0.236360 
#    y 0.000020 3.416950 0.000130 
#    z 0.236360 0.000130 4.189350 
# 
# 
# High freq. dielectric constant tensor:
#      x y z
#    x 1.801050 0.000000 -0.007280 
#    y 0.000000 1.733210 0.000000 
#    z -0.007280 0.000000 1.785690 
# 
# From -- ./inp_files/149385.got.cif
#   From: 2010.06.25/outbox.cif.g09.slc.cpg/sg12_75_cif.got.tgz:149385.got - 2010.06.28 00:19:55.
