data_PCOD8105670
_publ_section_title
;
Structure prediction by ZEFSAII (Michael W. Deem and Ramdas Pophale) SiO2 
 PCOD8105670
Probable space group: C 2/M
;
_chemical_formula_sum "Si O2"
_cell_formula_units_Z 44
_cell_length_a 5.196424
_cell_length_b 14.474386
_cell_length_c 27.956657
_cell_angle_alpha 90.000000
_cell_angle_beta 84.421419
_cell_angle_gamma 90.000000
_cell_volume 2092.802188
_symmetry_space_group_name_H-M "C 2/M"
_symmetry_group_IT_number 12
_symmetry_cell_setting 'monoclinic'
loop_
_space_group_symop_operation_xyz
x,y,z
-x,y,-z
-x,-y,-z
x,-y,z
1/2+x,1/2+y,z
1/2-x,1/2+y,-z
1/2-x,1/2-y,-z
1/2+x,1/2-y,z
loop_
_atom_site_type_symbol
_atom_site_label
_atom_site_fract_x
_atom_site_fract_y
_atom_site_fract_z
Si Si1 0.059302 0.392953 0.848383
Si Si2 0.798594 0.812474 0.406923
Si Si3 0.356613 0.309457 0.297724
Si Si4 0.934644 0.308633 0.052401
Si Si5 0.766936 0.000000 0.467617
Si Si6 0.084500 0.105732 0.799990
O O1 0.062091 0.500000 0.835227
O O2 0.036225 0.382024 0.905767
O O3 0.818343 0.345809 0.824980
O O4 0.319142 0.345918 0.822400
O O5 0.542382 0.750050 0.418615
O O6 0.827370 0.848085 0.351938
O O7 0.783041 0.906383 0.436846
O O8 0.612582 0.250591 0.288495
O O9 0.376613 0.389875 0.258063
O O10 0.139229 0.226217 0.057194
O O11 0.000000 0.356310 0.000000
O O12 0.500000 0.000000 0.500000
O O13 0.000000 0.000000 0.500000
O O14 0.072964 0.000000 0.815666
#
# Coordination Sequence:
#
# PCOD8105670 Si02
#       6
#     8   8   8   8   4   8
#     4  10  21  36  52  78 109 140 181 223 278 336
#     4  10  23  43  64  93 131 165 208 265 307 365
#     4  10  21  37  58  85 114 151 194 231 286 347
#     4  10  21  36  54  76 101 135 179 225 276 330
#     4  12  26  42  68 100 124 170 220 250 317 378
#     4  10  21  35  54  80 111 145 179 227 277 332
#
# _framework density 21.024445
#
# number of rings (size 3 to 8) (size 9 to 14) (size 15 to 20)
#    0.000    1.818    0.000    3.273    1.273    6.909 
#    0.000    0.000    0.000    6.545    0.000    0.000 
#    0.000    0.000    0.000    0.000    0.000    0.000 
#
# Total GULP energy -272716.348707 kJ/mol
# GULP energy per Si atom -12396.197668 kJ/mol
# Density = 2.097659 g / cm^3
# Si number density = 21.024445 Si / 1000 Ang^3
#
#
#
# Elastic Constant Matrix: (Units=GPa)
#
#
# Indices 1 2 3 4 5 6 
#
# 1 195.6144 38.5330 68.5923 0.0000 4.6870 0.0000
# 2 38.5330 65.9974 55.9799 0.0000 -0.6309 0.0000
# 3 68.5923 55.9799 164.7075 0.0000 2.2224 0.0000
# 4 0.0000 0.0000 0.0000 44.0638 0.0000 -0.3166
# 5 4.6870 -0.6309 2.2224 0.0000 36.6475 0.0000
# 6 0.0000 0.0000 0.0000 -0.3166 0.0000 4.0519
#
#
#
# Elastic Compliance Matrix: (Units=1/GPa)
#
#
# Indices 1 2 3 4 5 6 
#
# 1 0.006187 -0.002026 -0.001878 0.000000 -0.000712 0.000000
# 2 -0.002026 0.021977 -0.006640 0.000000 0.001040 0.000000
# 3 -0.001878 -0.006640 0.009116 0.000000 -0.000427 0.000000
# 4 0.000000 0.000000 0.000000 0.022707 0.000000 0.001774
# 5 -0.000712 0.001040 -0.000427 0.000000 0.027422 0.000000
# 6 0.000000 0.000000 0.000000 0.001774 0.000000 0.246936
#
#
# Mechanical properties :
#
#
# Convention : Reuss Voigt Hill
#
# Bulk Modulus (GPa) = 61.75942 83.61442 72.68692
# Shear Modulus (GPa) = 13.85693 34.50024 24.17859
#
# Velocity S-wave (km/s) = 2.57005 4.05527 3.39488
# Velocity P-wave (km/s) = 6.18431 7.86024 7.07210
#
# Compressibility (1/GPa) = 0.01619186
#
# Stress axis : x y z
#
# Youngs Moduli (GPa) = 161.63262 45.50262 109.69644
#
# Poissons Ratio (x) = 0.09218 0.20605
# Poissons Ratio (y) = 0.32743 0.72836
# Poissons Ratio (z) = 0.30361 0.30213
#
# Static dielectric constant tensor:
#      x y z
#    x 4.424670 0.000000 0.031240 
#    y 0.000000 3.315460 0.000000 
#    z 0.031240 0.000000 4.006830 
# 
# 
# High freq. dielectric constant tensor:
#      x y z
#    x 1.853950 0.000000 0.002090 
#    y 0.000000 1.793440 0.000000 
#    z 0.002090 0.000000 1.837580 
# 
# From -- ./inp_files/354782.got.cif
#   From: 2010.06.25/outbox.cif.g09.slc.cpg/sg12_178_cif.got.tgz:354782.got - 2010.06.28 00:19:55.
