data_PCOD8105022
_publ_section_title
;
Structure prediction by ZEFSAII (Michael W. Deem and Ramdas Pophale) SiO2 
 PCOD8105022
Probable space group: C 2/M
;
_chemical_formula_sum "Si O2"
_cell_formula_units_Z 52
_cell_length_a 12.220526
_cell_length_b 22.703422
_cell_length_c 11.924181
_cell_angle_alpha 90.000000
_cell_angle_beta 47.707869
_cell_angle_gamma 90.000000
_cell_volume 2447.254907
_symmetry_space_group_name_H-M "C 2/M"
_symmetry_group_IT_number 12
_symmetry_cell_setting 'monoclinic'
loop_
_space_group_symop_operation_xyz
x,y,z
-x,y,-z
-x,-y,-z
x,-y,z
1/2+x,1/2+y,z
1/2-x,1/2+y,-z
1/2-x,1/2-y,-z
1/2+x,1/2-y,z
loop_
_atom_site_type_symbol
_atom_site_label
_atom_site_fract_x
_atom_site_fract_y
_atom_site_fract_z
Si Si1 0.363467 0.868594 0.268018
Si Si2 0.163920 0.321123 0.149667
Si Si3 0.549186 0.500000 0.300225
Si Si4 0.625676 0.000000 0.819951
Si Si5 0.712244 0.314369 0.169757
Si Si6 0.363690 0.623472 0.180779
Si Si7 0.576966 0.500000 0.832269
Si Si8 0.080755 0.873764 0.608398
O O1 0.493758 0.835588 0.244505
O O2 0.393038 0.939261 0.237449
O O3 0.345157 0.835633 0.160447
O O4 0.220667 0.854830 0.440879
O O5 0.199193 0.254799 0.161478
O O6 0.215016 0.355731 0.224491
O O7 0.254993 0.341391 0.976166
O O8 0.710590 0.500000 0.240854
O O9 0.562780 0.500000 0.156563
O O10 0.451069 0.442675 0.397416
O O11 0.500000 0.000000 0.000000
O O12 0.566050 0.339911 0.329218
O O13 0.322718 0.557177 0.246851
O O14 0.398712 0.651082 0.277883
O O15 0.500000 0.631266 0.000000
O O16 0.500000 0.500000 0.000000
#
# Coordination Sequence:
#
# PCOD8105022 Si02
#       8
#     8   8   4   4   8   8   4   8
#     4  12  27  43  66 108 139 172 222 284 355 398
#     4  11  26  43  67  94 133 176 228 287 331 394
#     4  10  21  40  66  96 131 178 219 262 337 410
#     4  12  25  41  72 104 144 174 217 286 341 413
#     4  11  24  44  67  90 129 182 227 277 327 407
#     4  10  20  40  66  93 126 176 225 268 327 402
#     4   8  18  31  60  93 119 156 219 266 303 391
#     4  11  23  43  69  97 134 175 224 274 334 412
#
# _framework density 21.248297999999998
#
# number of rings (size 3 to 8) (size 9 to 14) (size 15 to 20)
#    0.000    1.231    3.077    2.308    2.154    2.462 
#    2.769    0.000    0.000    3.692    0.000    0.000 
#    0.000    0.000    0.000    0.000    0.000    0.000 
#
# Total GULP energy -322103.306657 kJ/mol
# GULP energy per Si atom -12388.588718 kJ/mol
# Density = 2.119994 g / cm^3
# Si number density = 21.248298 Si / 1000 Ang^3
#
#
#
# Elastic Constant Matrix: (Units=GPa)
#
#
# Indices 1 2 3 4 5 6 
#
# 1 133.5696 41.3457 12.0994 0.0000 1.1466 0.0000
# 2 41.3457 72.0357 8.6938 0.0000 5.7706 0.0000
# 3 12.0994 8.6938 84.6822 0.0000 -7.3897 0.0000
# 4 0.0000 0.0000 0.0000 7.1608 0.0000 9.1224
# 5 1.1466 5.7706 -7.3897 0.0000 31.7786 0.0000
# 6 0.0000 0.0000 0.0000 9.1224 0.0000 27.4660
#
#
#
# Elastic Compliance Matrix: (Units=1/GPa)
#
#
# Indices 1 2 3 4 5 6 
#
# 1 0.009161 -0.005205 -0.000736 0.000000 0.000443 0.000000
# 2 -0.005205 0.017289 -0.001316 0.000000 -0.003258 0.000000
# 3 -0.000736 -0.001316 0.012322 0.000000 0.003131 0.000000
# 4 0.000000 0.000000 0.000000 0.242076 0.000000 -0.080402
# 5 0.000443 -0.003258 0.003131 0.000000 0.032771 0.000000
# 6 0.000000 0.000000 0.000000 -0.080402 0.000000 0.063113
#
#
# Mechanical properties :
#
#
# Convention : Reuss Voigt Hill
#
# Bulk Modulus (GPa) = 41.22039 46.06280 43.64159
# Shear Modulus (GPa) = 12.52095 28.49100 20.50598
#
# Velocity S-wave (km/s) = 2.43012 3.66575 3.10992
# Velocity P-wave (km/s) = 5.22642 6.29622 5.78610
#
# Compressibility (1/GPa) = 0.02425984
#
# Stress axis : x y z
#
# Youngs Moduli (GPa) = 109.16286 57.84042 81.15397
#
# Poissons Ratio (x) = 0.30103 0.05972
# Poissons Ratio (y) = 0.56814 0.10676
# Poissons Ratio (z) = 0.08033 0.07609
#
# Static dielectric constant tensor:
#      x y z
#    x 3.981070 0.000000 0.246230 
#    y 0.000000 3.954240 0.000000 
#    z 0.246230 0.000000 3.755610 
# 
# 
# High freq. dielectric constant tensor:
#      x y z
#    x 1.842970 0.000000 0.014500 
#    y 0.000000 1.834600 0.000000 
#    z 0.014500 0.000000 1.822980 
# 
# From -- ./inp_files/135888.got.cif
#   From: 2010.06.25/outbox.cif.g09.slc.cpg/sg12_68_cif.got.tgz:135888.got - 2010.06.28 00:19:55.
