data_PCOD8105277
_publ_section_title
;
Structure prediction by ZEFSAII (Michael W. Deem and Ramdas Pophale) SiO2 
 PCOD8105277
Probable space group: C 2/M
;
_chemical_formula_sum "Si O2"
_cell_formula_units_Z 48
_cell_length_a 13.789562
_cell_length_b 23.411667
_cell_length_c 14.760860
_cell_angle_alpha 90.000000
_cell_angle_beta 151.014456
_cell_angle_gamma 90.000000
_cell_volume 2309.234109
_symmetry_space_group_name_H-M "C 2/M"
_symmetry_group_IT_number 12
_symmetry_cell_setting 'monoclinic'
loop_
_space_group_symop_operation_xyz
x,y,z
-x,y,-z
-x,-y,-z
x,-y,z
1/2+x,1/2+y,z
1/2-x,1/2+y,-z
1/2-x,1/2-y,-z
1/2+x,1/2-y,z
loop_
_atom_site_type_symbol
_atom_site_label
_atom_site_fract_x
_atom_site_fract_y
_atom_site_fract_z
Si Si1 0.313610 0.435801 0.559636
Si Si2 0.278166 0.731296 0.302345
Si Si3 0.249719 0.564122 0.140984
Si Si4 0.645936 0.114624 0.240511
Si Si5 0.897393 0.246649 0.205905
Si Si6 0.261747 0.820419 0.439449
O O1 0.231803 0.500000 0.513100
O O2 0.552535 0.435744 0.757585
O O3 0.252594 0.414104 0.411523
O O4 0.231470 0.389525 0.565436
O O5 0.500000 0.708188 0.500000
O O6 0.136020 0.683963 0.232519
O O7 0.247288 0.738135 0.169002
O O8 0.250076 0.791773 0.330807
O O9 0.181866 0.500000 0.107922
O O10 0.270143 0.596514 0.253048
O O11 0.082291 0.594666 0.944210
O O12 0.057440 0.194956 0.327282
O O13 0.038919 0.302024 0.341274
O O14 0.750000 0.250000 0.000000
#
# Coordination Sequence:
#
# PCOD8105277 Si02
#       6
#     8   8   8   8   8   8
#     4  11  22  36  54  76 108 151 194 234 277 328
#     4  10  21  37  57  84 119 149 179 233 290 336
#     4  10  21  33  48  77 115 151 187 229 278 337
#     4  11  19  32  53  78 110 149 186 223 281 348
#     4  10  21  38  61  86 114 149 185 227 282 341
#     4  10  22  38  55  83 117 147 187 233 281 337
#
# _framework density 20.786111999999999
#
# number of rings (size 3 to 8) (size 9 to 14) (size 15 to 20)
#    0.000    1.667    0.000    7.500    0.000   10.000 
#    0.000    0.000    0.000    4.500    0.000    1.167 
#    0.000    0.000    0.000    0.000    0.000    0.333 
#
# Total GULP energy -297471.966410 kJ/mol
# GULP energy per Si atom -12394.665267 kJ/mol
# Density = 2.073880 g / cm^3
# Si number density = 20.786112 Si / 1000 Ang^3
#
#
#
# Elastic Constant Matrix: (Units=GPa)
#
#
# Indices 1 2 3 4 5 6 
#
# 1 67.3881 40.6692 30.6736 0.0001 -14.8743 0.0000
# 2 40.6692 174.3212 48.0759 -0.0001 -2.1736 0.0000
# 3 30.6736 48.0759 90.8289 0.0004 -10.2869 -0.0003
# 4 0.0001 -0.0001 0.0004 21.2068 0.0002 2.6645
# 5 -14.8743 -2.1736 -10.2869 0.0002 24.1043 0.0000
# 6 0.0000 0.0000 -0.0003 2.6645 0.0000 24.7518
#
#
#
# Elastic Compliance Matrix: (Units=1/GPa)
#
#
# Indices 1 2 3 4 5 6 
#
# 1 0.021373 -0.003753 -0.003968 0.000000 0.011157 0.000000
# 2 -0.003753 0.007397 -0.002979 0.000000 -0.002920 0.000000
# 3 -0.003968 -0.002979 0.014310 0.000000 0.003390 0.000000
# 4 0.000000 0.000000 0.000000 0.047801 -0.000001 -0.005146
# 5 0.011157 -0.002920 0.003390 -0.000001 0.049555 0.000000
# 6 0.000000 0.000000 0.000000 -0.005146 0.000000 0.040955
#
#
# Mechanical properties :
#
#
# Convention : Reuss Voigt Hill
#
# Bulk Modulus (GPa) = 46.12192 63.48619 54.80406
# Shear Modulus (GPa) = 23.80757 28.22056 26.01406
#
# Velocity S-wave (km/s) = 3.38799 3.68865 3.54151
# Velocity P-wave (km/s) = 6.12712 6.98215 6.56856
#
# Compressibility (1/GPa) = 0.02168166
#
# Stress axis : x y z
#
# Youngs Moduli (GPa) = 46.78791 135.18681 69.88020
#
# Poissons Ratio (x) = 0.50735 0.27727
# Poissons Ratio (y) = 0.17559 0.20815
# Poissons Ratio (z) = 0.18564 0.40267
#
# Static dielectric constant tensor:
#      x y z
#    x 3.625210 0.000000 0.101610 
#    y 0.000000 3.982590 0.000000 
#    z 0.101610 0.000000 3.778540 
# 
# 
# High freq. dielectric constant tensor:
#      x y z
#    x 1.779470 0.000000 0.008720 
#    y 0.000000 1.810520 0.000000 
#    z 0.008720 0.000000 1.819630 
# 
# From -- ./inp_files/218561.got.cif
#   From: 2010.06.25/outbox.cif.g09.slc.cpg/sg12_110_cif.got.tgz:218561.got - 2010.06.28 00:19:55.
