data_PCOD8105534
_publ_section_title
;
Structure prediction by ZEFSAII (Michael W. Deem and Ramdas Pophale) SiO2 
 PCOD8105534
Probable space group: C 2/M
;
_chemical_formula_sum "Si O2"
_cell_formula_units_Z 48
_cell_length_a 30.733413
_cell_length_b 9.608950
_cell_length_c 16.461173
_cell_angle_alpha 90.000000
_cell_angle_beta 149.182304
_cell_angle_gamma 90.000000
_cell_volume 2490.455324
_symmetry_space_group_name_H-M "C 2/M"
_symmetry_group_IT_number 12
_symmetry_cell_setting 'monoclinic'
loop_
_space_group_symop_operation_xyz
x,y,z
-x,y,-z
-x,-y,-z
x,-y,z
1/2+x,1/2+y,z
1/2-x,1/2+y,-z
1/2-x,1/2-y,-z
1/2+x,1/2-y,z
loop_
_atom_site_type_symbol
_atom_site_label
_atom_site_fract_x
_atom_site_fract_y
_atom_site_fract_z
Si Si1 0.470118 0.159499 0.041484
Si Si2 0.510590 0.345156 0.252867
Si Si3 0.212886 0.346193 0.191439
Si Si4 0.628092 0.166848 0.554767
Si Si5 0.661823 0.713810 0.953047
Si Si6 0.848575 0.649698 0.228988
O O1 0.516444 0.266415 0.176361
O O2 0.495469 0.000000 0.104076
O O3 0.500000 0.200144 0.000000
O O4 0.368715 0.177798 0.882658
O O5 0.551967 0.500000 0.312444
O O6 0.555564 0.244588 0.389204
O O7 0.413516 0.371134 0.125284
O O8 0.251511 0.500000 0.268078
O O9 0.280442 0.228202 0.325049
O O10 0.185518 0.340162 0.052250
O O11 0.612487 0.207476 0.624400
O O12 0.627062 0.000000 0.539027
O O13 0.627841 0.757044 0.809838
O O14 0.747107 0.625819 0.076746
O O15 0.889481 0.500000 0.276996
#
# Coordination Sequence:
#
# PCOD8105534 Si02
#       6
#     8   8   8   8   8   8
#     4   9  19  37  61  86 108 131 164 209 260 315
#     4  11  22  36  54  77 107 139 175 216 260 310
#     4   9  17  32  55  79 105 137 171 209 258 314
#     4  10  21  35  51  74 107 144 179 217 260 306
#     4   9  18  31  50  76 103 136 175 221 263 303
#     4   9  17  31  50  72 100 137 180 218 258 309
#
# _framework density 19.273584
#
# number of rings (size 3 to 8) (size 9 to 14) (size 15 to 20)
#    0.000    2.500    0.000    2.000    0.000    7.000 
#    0.000    5.833    0.000    0.000    0.000    0.000 
#    0.000    0.000    0.000    0.000    0.000    0.000 
#
# Total GULP energy -297389.746613 kJ/mol
# GULP energy per Si atom -12391.239442 kJ/mol
# Density = 1.922972 g / cm^3
# Si number density = 19.273584 Si / 1000 Ang^3
#
#
#
# Elastic Constant Matrix: (Units=GPa)
#
#
# Indices 1 2 3 4 5 6 
#
# 1 92.9916 32.2876 25.4770 0.0000 -19.7853 0.0000
# 2 32.2876 117.9648 41.6303 0.0000 -12.7803 0.0000
# 3 25.4770 41.6303 79.0947 0.0000 -16.7376 0.0000
# 4 0.0000 0.0000 0.0000 25.7749 0.0000 1.9160
# 5 -19.7853 -12.7803 -16.7376 0.0000 22.8754 0.0000
# 6 0.0000 0.0000 0.0000 1.9160 0.0000 10.8066
#
#
#
# Elastic Compliance Matrix: (Units=1/GPa)
#
#
# Indices 1 2 3 4 5 6 
#
# 1 0.014004 -0.002341 -0.001174 0.000000 0.009945 0.000000
# 2 -0.002341 0.010891 -0.004874 0.000000 0.000494 0.000000
# 3 -0.001174 -0.004874 0.017506 0.000000 0.009070 0.000000
# 4 0.000000 0.000000 0.000000 0.039316 0.000000 -0.006971
# 5 0.009945 0.000494 0.009070 0.000000 0.059230 0.000000
# 6 0.000000 0.000000 0.000000 -0.006971 0.000000 0.093772
#
#
# Mechanical properties :
#
#
# Convention : Reuss Voigt Hill
#
# Bulk Modulus (GPa) = 39.02687 54.31563 46.67125
# Shear Modulus (GPa) = 19.22792 24.60179 21.91485
#
# Velocity S-wave (km/s) = 3.16196 3.57662 3.37566
# Velocity P-wave (km/s) = 5.79857 6.73044 6.28181
#
# Compressibility (1/GPa) = 0.02562337
#
# Stress axis : x y z
#
# Youngs Moduli (GPa) = 71.40691 91.81523 57.12344
#
# Poissons Ratio (x) = 0.21496 0.06706
# Poissons Ratio (y) = 0.16718 0.27841
# Poissons Ratio (z) = 0.08383 0.44750
#
# Static dielectric constant tensor:
#      x y z
#    x 3.409560 0.000000 -0.021180 
#    y 0.000000 3.451120 0.000000 
#    z -0.021180 0.000000 3.395550 
# 
# 
# High freq. dielectric constant tensor:
#      x y z
#    x 1.735770 0.000000 -0.001650 
#    y 0.000000 1.748720 0.000000 
#    z -0.001650 0.000000 1.737910 
# 
# From -- ./inp_files/249381.got.cif
#   From: 2010.06.25/outbox.cif.g09.slc.cpg/sg12_125_cif.got.tgz:249381.got - 2010.06.28 00:19:55.
