data_PCOD8105955
_publ_section_title
;
Structure prediction by ZEFSAII (Michael W. Deem and Ramdas Pophale) SiO2 
 PCOD8105955
Probable space group: C 2/M
;
_chemical_formula_sum "Si O2"
_cell_formula_units_Z 64
_cell_length_a 22.930430
_cell_length_b 9.064180
_cell_length_c 21.574522
_cell_angle_alpha 90.000000
_cell_angle_beta 124.190348
_cell_angle_gamma 90.000000
_cell_volume 3709.193024
_symmetry_space_group_name_H-M "C 2/M"
_symmetry_group_IT_number 12
_symmetry_cell_setting 'monoclinic'
loop_
_space_group_symop_operation_xyz
x,y,z
-x,y,-z
-x,-y,-z
x,-y,z
1/2+x,1/2+y,z
1/2-x,1/2+y,-z
1/2-x,1/2-y,-z
1/2+x,1/2-y,z
loop_
_atom_site_type_symbol
_atom_site_label
_atom_site_fract_x
_atom_site_fract_y
_atom_site_fract_z
Si Si1 0.786434 0.169734 0.079120
Si Si2 0.209429 0.827497 0.141373
Si Si3 0.721877 0.330064 0.290903
Si Si4 0.420797 0.672750 0.728753
Si Si5 0.062680 0.831293 0.880210
Si Si6 0.074387 0.327301 0.014784
Si Si7 0.291539 0.334111 0.437188
Si Si8 0.643619 0.166170 0.418761
O O1 0.764458 0.247318 0.129581
O O2 0.870739 0.180607 0.125593
O O3 0.761208 0.000000 0.064465
O O4 0.750000 0.250000 0.000000
O O5 0.234408 0.799552 0.226245
O O6 0.131889 0.760733 0.088259
O O7 0.206437 0.000000 0.123085
O O8 0.732975 0.500000 0.314757
O O9 0.642652 0.282236 0.262884
O O10 0.780624 0.239115 0.363497
O O11 0.421109 0.500000 0.715129
O O12 0.493633 0.724667 0.803081
O O13 0.413699 0.753980 0.658672
O O14 0.052766 0.000000 0.897585
O O15 0.076514 0.724059 0.945497
O O16 0.091162 0.500000 0.027857
O O17 0.000000 0.287253 0.000000
O O18 0.318306 0.500000 0.443498
O O19 0.350856 0.247657 0.511742
O O20 0.218508 0.329049 0.430041
O O21 0.618390 0.000000 0.415733
#
# Coordination Sequence:
#
# PCOD8105955 Si02
#       8
#     8   8   8   8   8   8   8   8
#     4  11  22  37  56  76  97 127 170 218 260 300
#     4  11  22  36  54  74  98 133 171 209 256 304
#     4   9  18  31  48  71 100 131 164 203 247 297
#     4   9  17  31  49  71  99 130 165 204 245 297
#     4  10  21  36  54  73  96 131 170 208 254 304
#     4  11  23  35  50  74 102 131 164 205 252 303
#     4   9  16  26  43  67  97 133 167 198 236 286
#     4   9  16  26  42  67  99 133 165 197 237 288
#
# _framework density 17.254427
#
# number of rings (size 3 to 8) (size 9 to 14) (size 15 to 20)
#    0.000    2.125    1.250    2.625    0.000    7.000 
#    0.000    2.500    0.000    0.000    0.000    0.875 
#    0.000    7.000    0.000    0.000    0.000    0.000 
#
# Total GULP energy -396870.187426 kJ/mol
# GULP energy per Si atom -12402.193357 kJ/mol
# Density = 1.721515 g / cm^3
# Si number density = 17.254427 Si / 1000 Ang^3
#
#
#
# Elastic Constant Matrix: (Units=GPa)
#
#
# Indices 1 2 3 4 5 6 
#
# 1 57.9694 25.6724 16.8355 0.0000 -15.6270 0.0000
# 2 25.6724 99.3408 46.9382 0.0000 -16.1223 0.0000
# 3 16.8355 46.9382 90.7978 0.0000 -19.6801 0.0000
# 4 0.0000 0.0000 0.0000 32.1739 0.0000 -2.9773
# 5 -15.6270 -16.1223 -19.6801 0.0000 13.5514 0.0000
# 6 0.0000 0.0000 0.0000 -2.9773 0.0000 21.5659
#
#
#
# Elastic Compliance Matrix: (Units=1/GPa)
#
#
# Indices 1 2 3 4 5 6 
#
# 1 0.026189 -0.003416 0.003758 0.000000 0.031593 0.000000
# 2 -0.003416 0.014478 -0.005796 0.000000 0.004868 0.000000
# 3 0.003758 -0.005796 0.018618 0.000000 0.024476 0.000000
# 4 0.000000 0.000000 0.000000 0.031483 0.000000 0.004347
# 5 0.031593 0.004868 0.024476 0.000000 0.151563 0.000000
# 6 0.000000 0.000000 0.000000 0.004347 0.000000 0.046970
#
#
# Mechanical properties :
#
#
# Convention : Reuss Voigt Hill
#
# Bulk Modulus (GPa) = 20.67129 47.44446 34.05788
# Shear Modulus (GPa) = 15.80610 24.03569 19.92090
#
# Velocity S-wave (km/s) = 3.02993 3.73636 3.40154
# Velocity P-wave (km/s) = 4.92412 6.79489 5.93370
#
# Compressibility (1/GPa) = 0.04837627
#
# Stress axis : x y z
#
# Youngs Moduli (GPa) = 38.18447 69.07168 53.71153
#
# Poissons Ratio (x) = 0.23596 -0.20184
# Poissons Ratio (y) = 0.13044 0.31130
# Poissons Ratio (z) = -0.14349 0.40032
#
# Static dielectric constant tensor:
#      x y z
#    x 3.019760 0.000000 0.020020 
#    y 0.000000 3.360050 0.000000 
#    z 0.020020 0.000000 3.282700 
# 
# 
# High freq. dielectric constant tensor:
#      x y z
#    x 1.626460 0.000000 -0.002220 
#    y 0.000000 1.678780 0.000000 
#    z -0.002220 0.000000 1.671010 
# 
# From -- ./inp_files/323688.got.cif
#   From: 2010.06.25/outbox.cif.g09.slc.cpg/sg12_162_cif.got.tgz:323688.got - 2010.06.28 00:19:55.
