data_PCOD8105843
_publ_section_title
;
Structure prediction by ZEFSAII (Michael W. Deem and Ramdas Pophale) SiO2 
 PCOD8105843
Probable space group: C 2/M
;
_chemical_formula_sum "Si O2"
_cell_formula_units_Z 64
_cell_length_a 17.066606
_cell_length_b 16.532186
_cell_length_c 13.915652
_cell_angle_alpha 90.000000
_cell_angle_beta 53.865741
_cell_angle_gamma 90.000000
_cell_volume 3171.008807
_symmetry_space_group_name_H-M "C 2/M"
_symmetry_group_IT_number 12
_symmetry_cell_setting 'monoclinic'
loop_
_space_group_symop_operation_xyz
x,y,z
-x,y,-z
-x,-y,-z
x,-y,z
1/2+x,1/2+y,z
1/2-x,1/2+y,-z
1/2-x,1/2-y,-z
1/2+x,1/2-y,z
loop_
_atom_site_type_symbol
_atom_site_label
_atom_site_fract_x
_atom_site_fract_y
_atom_site_fract_z
Si Si1 0.112035 0.161350 0.715613
Si Si2 0.744792 0.699038 0.101382
Si Si3 0.656495 0.408215 0.884342
Si Si4 0.913262 0.908079 0.861365
Si Si5 0.185225 0.595364 0.459198
Si Si6 0.156767 0.333751 0.278233
Si Si7 0.569731 0.090413 0.038828
Si Si8 0.465123 0.165018 0.293110
O O1 0.128670 0.151933 0.817894
O O2 0.207936 0.129432 0.591812
O O3 0.084529 0.252098 0.705530
O O4 0.023389 0.104077 0.748573
O O5 0.655496 0.637913 0.161842
O O6 0.722234 0.753752 0.211022
O O7 0.750000 0.750000 0.000000
O O8 0.844059 0.652002 0.044416
O O9 0.625327 0.500000 0.881486
O O10 0.774037 0.405166 0.815527
O O11 0.601104 0.376083 0.018702
O O12 0.881334 0.000000 0.880752
O O13 0.190261 0.500000 0.430132
O O14 0.141613 0.647292 0.401753
O O15 0.116484 0.609331 0.599494
O O16 0.053420 0.322129 0.303260
O O17 0.506423 0.116257 0.174840
O O18 0.610917 0.000000 0.026533
O O19 0.500000 0.091906 0.000000
#
# Coordination Sequence:
#
# PCOD8105843 Si02
#       8
#     8   8   8   8   8   8   8   8
#     4  11  22  38  58  93 129 163 206 260 319 380
#     4  12  21  40  60  95 129 164 211 262 318 382
#     4  10  21  35  59  94 130 164 206 260 325 385
#     4  11  20  34  60  90 127 171 210 261 323 377
#     4  11  26  45  67  95 126 165 217 274 328 380
#     4  11  22  39  63  95 125 161 207 263 329 374
#     4  11  26  43  64  94 131 176 214 254 310 381
#     4  12  24  42  67  93 129 168 214 265 321 382
#
# _framework density 20.182852
#
# number of rings (size 3 to 8) (size 9 to 14) (size 15 to 20)
#    0.000    0.875    3.750    4.125    3.500    4.500 
#    0.000    0.000    0.000    0.000    0.000    0.875 
#    0.000    0.000    0.000    0.000    0.000    0.000 
#
# Total GULP energy -396699.837833 kJ/mol
# GULP energy per Si atom -12396.869932 kJ/mol
# Density = 2.013691 g / cm^3
# Si number density = 20.182852 Si / 1000 Ang^3
#
#
#
# Elastic Constant Matrix: (Units=GPa)
#
#
# Indices 1 2 3 4 5 6 
#
# 1 97.2817 55.4754 45.1516 0.0000 -16.3085 0.0000
# 2 55.4754 112.3639 35.8770 0.0000 -1.4791 0.0000
# 3 45.1516 35.8770 97.6477 0.0000 -18.2118 0.0000
# 4 0.0000 0.0000 0.0000 34.3659 0.0000 -0.7113
# 5 -16.3085 -1.4791 -18.2118 0.0000 28.0104 0.0000
# 6 0.0000 0.0000 0.0000 -0.7113 0.0000 33.7638
#
#
#
# Elastic Compliance Matrix: (Units=1/GPa)
#
#
# Indices 1 2 3 4 5 6 
#
# 1 0.017511 -0.007241 -0.004104 0.000000 0.007145 0.000000
# 2 -0.007241 0.013190 -0.002452 0.000000 -0.005114 0.000000
# 3 -0.004104 -0.002452 0.014304 0.000000 0.006781 0.000000
# 4 0.000000 0.000000 0.000000 0.029111 0.000000 0.000613
# 5 0.007145 -0.005114 0.006781 0.000000 0.044000 0.000000
# 6 0.000000 0.000000 0.000000 0.000613 0.000000 0.029630
#
#
# Mechanical properties :
#
#
# Convention : Reuss Voigt Hill
#
# Bulk Modulus (GPa) = 57.43217 64.47793 60.95505
# Shear Modulus (GPa) = 27.60218 30.61397 29.10808
#
# Velocity S-wave (km/s) = 3.70213 3.89888 3.80177
# Velocity P-wave (km/s) = 6.84047 7.23081 7.03834
#
# Compressibility (1/GPa) = 0.01741185
#
# Stress axis : x y z
#
# Youngs Moduli (GPa) = 57.10597 75.81398 69.90987
#
# Poissons Ratio (x) = 0.54898 0.28692
# Poissons Ratio (y) = 0.41351 0.17140
# Poissons Ratio (z) = 0.23437 0.18587
#
# Static dielectric constant tensor:
#      x y z
#    x 3.765150 0.000000 -0.241530 
#    y 0.000000 3.843030 0.000000 
#    z -0.241530 0.000000 3.679510 
# 
# 
# High freq. dielectric constant tensor:
#      x y z
#    x 1.790100 0.000000 -0.022640 
#    y 0.000000 1.794620 0.000000 
#    z -0.022640 0.000000 1.780690 
# 
# From -- ./inp_files/225691.got.cif
#   From: 2010.06.25/outbox.cif.g09.slc.cpg/sg12_113_cif.got.tgz:225691.got - 2010.06.28 00:19:55.
