data_PCOD8105183
_publ_section_title
;
Structure prediction by ZEFSAII (Michael W. Deem and Ramdas Pophale) SiO2 
 PCOD8105183
Probable space group: C 2/M
;
_chemical_formula_sum "Si O2"
_cell_formula_units_Z 64
_cell_length_a 29.196157
_cell_length_b 22.622510
_cell_length_c 7.964722
_cell_angle_alpha 90.000000
_cell_angle_beta 33.204453
_cell_angle_gamma 90.000000
_cell_volume 2880.865273
_symmetry_space_group_name_H-M "C 2/M"
_symmetry_group_IT_number 12
_symmetry_cell_setting 'monoclinic'
loop_
_space_group_symop_operation_xyz
x,y,z
-x,y,-z
-x,-y,-z
x,-y,z
1/2+x,1/2+y,z
1/2-x,1/2+y,-z
1/2-x,1/2-y,-z
1/2+x,1/2-y,z
loop_
_atom_site_type_symbol
_atom_site_label
_atom_site_fract_x
_atom_site_fract_y
_atom_site_fract_z
Si Si1 0.549170 0.567509 0.501187
Si Si2 0.258098 0.618948 0.740814
Si Si3 0.755109 0.253611 0.682479
Si Si4 0.581648 0.278688 0.143049
Si Si5 0.165227 0.569446 0.699656
Si Si6 0.732315 0.431350 0.949175
Si Si7 0.079748 0.317580 0.874005
Si Si8 0.566640 0.372753 0.911792
O O1 0.500000 0.599400 0.500000
O O2 0.565026 0.500000 0.406837
O O3 0.639835 0.597786 0.234225
O O4 0.491491 0.574053 0.841279
O O5 0.262906 0.689379 0.738220
O O6 0.204832 0.591379 0.752588
O O7 0.220126 0.597382 0.035954
O O8 0.354441 0.597373 0.423298
O O9 0.750000 0.250000 0.500000
O O10 0.835223 0.294621 0.483641
O O11 0.663155 0.278488 0.017039
O O12 0.500000 0.292850 0.500000
O O13 0.600773 0.328566 0.946621
O O14 0.568527 0.216844 0.084272
O O15 0.138820 0.500000 0.792318
O O16 0.087051 0.612428 0.898158
O O17 0.228810 0.580604 0.351611
O O18 0.730620 0.500000 0.994884
O O19 0.000000 0.308369 0.000000
O O20 0.500000 0.336597 0.000000
#
# Coordination Sequence:
#
# PCOD8105183 Si02
#       8
#     8   8   8   8   8   8   8   8
#     4  10  21  36  53  84 130 170 215 269 323 389
#     4  12  21  41  67  90 132 176 223 274 338 399
#     4  10  20  42  65  93 133 174 220 277 330 411
#     4  11  23  41  66  95 131 173 218 272 332 408
#     4  11  24  44  70  94 128 175 226 285 344 397
#     4  10  23  40  61  96 129 170 228 275 324 399
#     4  11  23  44  69  96 135 176 223 278 345 407
#     4  12  22  35  56  90 128 171 218 263 326 402
#
# _framework density 22.215547000000001
#
# number of rings (size 3 to 8) (size 9 to 14) (size 15 to 20)
#    0.000    1.125    6.250    1.875    0.000    4.500 
#    0.000    1.250    0.000    0.375    0.000    0.000 
#    0.000    0.000    0.000    0.000    0.000    0.000 
#
# Total GULP energy -396508.609640 kJ/mol
# GULP energy per Si atom -12390.894051 kJ/mol
# Density = 2.216498 g / cm^3
# Si number density = 22.215547 Si / 1000 Ang^3
#
#
#
# Elastic Constant Matrix: (Units=GPa)
#
#
# Indices 1 2 3 4 5 6 
#
# 1 119.3824 30.3867 31.5634 0.0000 -15.9048 0.0000
# 2 30.3867 100.5254 5.9119 0.0000 -6.4719 0.0000
# 3 31.5634 5.9119 66.7395 0.0000 -20.0830 0.0000
# 4 0.0000 0.0000 0.0000 22.9377 0.0000 2.8610
# 5 -15.9048 -6.4719 -20.0830 0.0000 40.5921 0.0000
# 6 0.0000 0.0000 0.0000 2.8610 0.0000 19.6969
#
#
#
# Elastic Compliance Matrix: (Units=1/GPa)
#
#
# Indices 1 2 3 4 5 6 
#
# 1 0.010408 -0.002799 -0.004208 0.000000 0.001550 0.000000
# 2 -0.002799 0.010817 0.000651 0.000000 0.000950 0.000000
# 3 -0.004208 0.000651 0.019329 0.000000 0.008018 0.000000
# 4 0.000000 0.000000 0.000000 0.044401 0.000000 -0.006449
# 5 0.001550 0.000950 0.008018 0.000000 0.029361 0.000000
# 6 0.000000 0.000000 0.000000 -0.006449 0.000000 0.051706
#
#
# Mechanical properties :
#
#
# Convention : Reuss Voigt Hill
#
# Bulk Modulus (GPa) = 35.91610 46.93014 41.42312
# Shear Modulus (GPa) = 26.59395 31.23102 28.91248
#
# Velocity S-wave (km/s) = 3.46365 3.75349 3.61148
# Velocity P-wave (km/s) = 5.67433 6.32105 6.00640
#
# Compressibility (1/GPa) = 0.02784266
#
# Stress axis : x y z
#
# Youngs Moduli (GPa) = 96.08130 92.45023 51.73637
#
# Poissons Ratio (x) = 0.25875 0.21770
# Poissons Ratio (y) = 0.26891 -0.03370
# Poissons Ratio (z) = 0.40430 -0.06023
#
# Static dielectric constant tensor:
#      x y z
#    x 4.227060 0.000000 -0.230210 
#    y 0.000000 4.024110 0.000000 
#    z -0.230210 0.000000 4.270730 
# 
# 
# High freq. dielectric constant tensor:
#      x y z
#    x 1.876620 0.000000 -0.004370 
#    y 0.000000 1.874490 0.000000 
#    z -0.004370 0.000000 1.854790 
# 
# From -- ./inp_files/113612.got.cif
#   From: 2010.06.25/outbox.cif.g09.slc.cpg/sg12_57_cif.got.tgz:113612.got - 2010.06.28 00:19:55.
