data_PCOD8105364
_publ_section_title
;
Structure prediction by ZEFSAII (Michael W. Deem and Ramdas Pophale) SiO2 
 PCOD8105364
Probable space group: C 2/M
;
_chemical_formula_sum "Si O2"
_cell_formula_units_Z 56
_cell_length_a 33.483726
_cell_length_b 9.165478
_cell_length_c 11.439137
_cell_angle_alpha 90.000000
_cell_angle_beta 56.704251
_cell_angle_gamma 90.000000
_cell_volume 2934.333799
_symmetry_space_group_name_H-M "C 2/M"
_symmetry_group_IT_number 12
_symmetry_cell_setting 'monoclinic'
loop_
_space_group_symop_operation_xyz
x,y,z
-x,y,-z
-x,-y,-z
x,-y,z
1/2+x,1/2+y,z
1/2-x,1/2+y,-z
1/2-x,1/2-y,-z
1/2+x,1/2-y,z
loop_
_atom_site_type_symbol
_atom_site_label
_atom_site_fract_x
_atom_site_fract_y
_atom_site_fract_z
Si Si1 0.235664 0.326806 0.643131
Si Si2 0.054641 0.834951 0.443728
Si Si3 0.639755 0.827023 0.918790
Si Si4 0.134559 0.671926 0.188524
Si Si5 0.089766 0.333768 0.599604
Si Si6 0.446469 0.172749 0.092188
Si Si7 0.190283 0.333762 0.326043
O O1 0.239629 0.500000 0.620585
O O2 0.250000 0.250000 0.500000
O O3 0.182368 0.276415 0.764812
O O4 0.269484 0.276609 0.694926
O O5 0.084628 0.746110 0.300469
O O6 0.059641 0.768558 0.563882
O O7 0.000000 0.824880 0.500000
O O8 0.073537 0.000000 0.414564
O O9 0.588583 0.766798 0.953900
O O10 0.638445 0.000000 0.920802
O O11 0.649493 0.772312 0.035651
O O12 0.125454 0.500000 0.207191
O O13 0.174994 0.713498 0.219081
O O14 0.072981 0.500000 0.606488
O O15 0.078722 0.280713 0.747425
O O16 0.145971 0.319091 0.485696
O O17 0.450336 0.000000 0.074846
O O18 0.500000 0.240962 0.000000
O O19 0.209515 0.500000 0.296258
#
# Coordination Sequence:
#
# PCOD8105364 Si02
#       7
#     8   8   8   8   8   8   8
#     4  11  22  36  57  82 110 147 185 223 272 325
#     4  10  21  34  50  75 109 145 179 223 273 321
#     4   9  19  35  53  79 113 141 175 229 278 318
#     4   9  19  36  58  80 106 142 181 226 274 321
#     4   9  18  33  54  79 105 138 181 227 269 315
#     4   9  17  29  50  81 108 133 172 227 278 314
#     4   9  18  34  54  80 111 140 177 227 275 319
#
# _framework density 19.084399999999999
#
# number of rings (size 3 to 8) (size 9 to 14) (size 15 to 20)
#    0.000    2.571    0.000    2.571    2.000    6.286 
#    0.000    1.429    0.000    1.286    0.000    0.000 
#    0.000    0.000    0.000    0.000    0.000    0.000 
#
# Total GULP energy -347133.010396 kJ/mol
# GULP energy per Si atom -12397.607514 kJ/mol
# Density = 1.904096 g / cm^3
# Si number density = 19.084400 Si / 1000 Ang^3
#
#
#
# Elastic Constant Matrix: (Units=GPa)
#
#
# Indices 1 2 3 4 5 6 
#
# 1 132.6595 37.9654 73.2733 0.0000 4.2848 0.0000
# 2 37.9654 53.4315 24.6331 0.0000 0.8625 0.0000
# 3 73.2733 24.6331 130.7403 0.0000 15.4802 0.0000
# 4 0.0000 0.0000 0.0000 9.0178 0.0000 -2.4580
# 5 4.2848 0.8625 15.4802 0.0000 25.4307 0.0000
# 6 0.0000 0.0000 0.0000 -2.4580 0.0000 29.8748
#
#
#
# Elastic Compliance Matrix: (Units=1/GPa)
#
#
# Indices 1 2 3 4 5 6 
#
# 1 0.012635 -0.006180 -0.006131 0.000000 0.001813 0.000000
# 2 -0.006180 0.023594 -0.001089 0.000000 0.000904 0.000000
# 3 -0.006131 -0.001089 0.012031 0.000000 -0.006253 0.000000
# 4 0.000000 0.000000 0.000000 0.113435 0.000000 0.009333
# 5 0.001813 0.000904 -0.006253 0.000000 0.042793 0.000000
# 6 0.000000 0.000000 0.000000 0.009333 0.000000 0.034241
#
#
# Mechanical properties :
#
#
# Convention : Reuss Voigt Hill
#
# Bulk Modulus (GPa) = 46.60069 65.39721 55.99895
# Shear Modulus (GPa) = 18.33635 24.92863 21.63249
#
# Velocity S-wave (km/s) = 3.10305 3.61810 3.37043
# Velocity P-wave (km/s) = 6.10817 7.19694 6.67479
#
# Compressibility (1/GPa) = 0.02145891
#
# Stress axis : x y z
#
# Youngs Moduli (GPa) = 79.14601 42.38336 83.12068
#
# Poissons Ratio (x) = 0.26193 0.50965
# Poissons Ratio (y) = 0.48913 0.09050
# Poissons Ratio (z) = 0.48528 0.04615
#
# Static dielectric constant tensor:
#      x y z
#    x 3.699110 0.000000 0.137480 
#    y 0.000000 3.247990 0.000000 
#    z 0.137480 0.000000 3.660090 
# 
# 
# High freq. dielectric constant tensor:
#      x y z
#    x 1.750010 0.000000 0.006930 
#    y 0.000000 1.707400 0.000000 
#    z 0.006930 0.000000 1.745820 
# 
# From -- ./inp_files/187141.got.cif
#   From: 2010.06.25/outbox.cif.g09.slc.cpg/sg12_94_cif.got.tgz:187141.got - 2010.06.28 00:19:55.
