data_PCOD8105578
_publ_section_title
;
Structure prediction by ZEFSAII (Michael W. Deem and Ramdas Pophale) SiO2 
 PCOD8105578
Probable space group: C 2/M
;
_chemical_formula_sum "Si O2"
_cell_formula_units_Z 48
_cell_length_a 29.949410
_cell_length_b 8.988092
_cell_length_c 17.802936
_cell_angle_alpha 90.000000
_cell_angle_beta 32.083564
_cell_angle_gamma 90.000000
_cell_volume 2545.476752
_symmetry_space_group_name_H-M "C 2/M"
_symmetry_group_IT_number 12
_symmetry_cell_setting 'monoclinic'
loop_
_space_group_symop_operation_xyz
x,y,z
-x,y,-z
-x,-y,-z
x,-y,z
1/2+x,1/2+y,z
1/2-x,1/2+y,-z
1/2-x,1/2-y,-z
1/2+x,1/2-y,z
loop_
_atom_site_type_symbol
_atom_site_label
_atom_site_fract_x
_atom_site_fract_y
_atom_site_fract_z
Si Si1 0.581858 0.175969 0.841312
Si Si2 0.256310 0.331025 0.335573
Si Si3 0.992997 0.827644 0.355708
Si Si4 0.855743 0.327262 0.646903
Si Si5 0.091975 0.324992 0.657031
Si Si6 0.322296 0.327252 0.849963
O O1 0.663796 0.226843 0.769050
O O2 0.581211 0.234607 0.756820
O O3 0.581627 0.000000 0.841576
O O4 0.500000 0.240013 0.000000
O O5 0.285658 0.500000 0.305017
O O6 0.218525 0.305579 0.307128
O O7 0.186678 0.287888 0.496678
O O8 0.941881 0.743075 0.493478
O O9 0.973935 0.761948 0.300831
O O10 0.090970 0.803362 0.229958
O O11 0.967295 0.000000 0.395139
O O12 0.872925 0.500000 0.638655
O O13 0.825961 0.245825 0.763498
O O14 0.073559 0.500000 0.674619
O O15 0.300974 0.500000 0.870614
O O16 0.250000 0.250000 0.000000
#
# Coordination Sequence:
#
# PCOD8105578 Si02
#       6
#     8   8   8   8   8   8
#     4  10  21  35  52  78 110 142 178 221 270 326
#     4   9  19  35  55  79 105 137 179 223 266 319
#     4  10  21  37  58  84 110 140 185 233 274 324
#     4  10  21  38  60  85 112 143 182 227 276 330
#     4   9  19  36  56  79 107 140 181 225 271 325
#     4  11  24  39  56  82 115 149 186 227 272 326
#
# _framework density 18.856978000000002
#
# number of rings (size 3 to 8) (size 9 to 14) (size 15 to 20)
#    0.000    2.167    0.000    3.500    0.000   10.333 
#    0.000    3.333    0.000    0.000    0.000    0.000 
#    0.000    0.000    0.000    0.000    0.000    0.000 
#
# Total GULP energy -297696.764689 kJ/mol
# GULP energy per Si atom -12404.031862 kJ/mol
# Density = 1.881406 g / cm^3
# Si number density = 18.856978 Si / 1000 Ang^3
#
#
#
# Elastic Constant Matrix: (Units=GPa)
#
#
# Indices 1 2 3 4 5 6 
#
# 1 94.9181 57.5305 69.1887 -0.0035 -4.8637 0.0013
# 2 57.5305 96.0659 63.9696 0.0007 -2.2449 0.0007
# 3 69.1887 63.9696 125.8501 -0.0050 -7.1229 0.0023
# 4 -0.0035 0.0007 -0.0050 28.8493 -0.0003 -2.3240
# 5 -4.8637 -2.2449 -7.1229 -0.0003 11.6770 0.0007
# 6 0.0013 0.0007 0.0023 -2.3240 0.0007 37.9494
#
#
#
# Elastic Compliance Matrix: (Units=1/GPa)
#
#
# Indices 1 2 3 4 5 6 
#
# 1 0.020480 -0.007263 -0.007420 0.000001 0.002608 0.000000
# 2 -0.007263 0.018353 -0.005497 -0.000002 -0.002850 0.000000
# 3 -0.007420 -0.005497 0.015106 0.000002 0.005067 -0.000001
# 4 0.000001 -0.000002 0.000002 0.034835 0.000002 0.002133
# 5 0.002608 -0.002850 0.005067 0.000002 0.089268 -0.000002
# 6 0.000000 0.000000 -0.000001 0.002133 -0.000002 0.026482
#
#
# Mechanical properties :
#
#
# Convention : Reuss Voigt Hill
#
# Bulk Modulus (GPa) = 73.64273 77.57907 75.61090
# Shear Modulus (GPa) = 20.04742 24.10481 22.07612
#
# Velocity S-wave (km/s) = 3.26410 3.57921 3.42528
# Velocity P-wave (km/s) = 7.30369 7.63617 7.47178
#
# Compressibility (1/GPa) = 0.01357907
#
# Stress axis : x y z
#
# Youngs Moduli (GPa) = 48.82921 54.48730 66.19792
#
# Poissons Ratio (x) = 0.39573 0.49118
# Poissons Ratio (y) = 0.35463 0.36391
# Poissons Ratio (z) = 0.36230 0.29953
#
# Static dielectric constant tensor:
#      x y z
#    x 3.428370 0.000000 0.016410 
#    y 0.000000 3.556420 0.000010 
#    z 0.016410 0.000010 3.354700 
# 
# 
# High freq. dielectric constant tensor:
#      x y z
#    x 1.741710 0.000000 0.003320 
#    y 0.000000 1.736640 0.000000 
#    z 0.003320 0.000000 1.731320 
# 
# From -- ./inp_files/274066.got.cif
#   From: 2010.06.25/outbox.cif.g09.slc.cpg/sg12_138_cif.got.tgz:274066.got - 2010.06.28 00:19:55.
