data_PCOD8105995
_publ_section_title
;
Structure prediction by ZEFSAII (Michael W. Deem and Ramdas Pophale) SiO2 
 PCOD8105995
Probable space group: C 2/M
;
_chemical_formula_sum "Si O2"
_cell_formula_units_Z 56
_cell_length_a 20.925304
_cell_length_b 9.311201
_cell_length_c 14.414559
_cell_angle_alpha 90.000000
_cell_angle_beta 90.418773
_cell_angle_gamma 90.000000
_cell_volume 2808.453501
_symmetry_space_group_name_H-M "C 2/M"
_symmetry_group_IT_number 12
_symmetry_cell_setting 'monoclinic'
loop_
_space_group_symop_operation_xyz
x,y,z
-x,y,-z
-x,-y,-z
x,-y,z
1/2+x,1/2+y,z
1/2-x,1/2+y,-z
1/2-x,1/2-y,-z
1/2+x,1/2-y,z
loop_
_atom_site_type_symbol
_atom_site_label
_atom_site_fract_x
_atom_site_fract_y
_atom_site_fract_z
Si Si1 0.932517 0.834691 0.230823
Si Si2 0.243530 0.835783 0.593846
Si Si3 0.810309 0.831373 0.889824
Si Si4 0.185255 0.167243 0.896063
Si Si5 0.074106 0.164588 0.234453
Si Si6 0.114627 0.338658 0.400467
Si Si7 0.625447 0.169842 0.614452
O O1 0.880145 0.785488 0.155008
O O2 0.930075 0.731068 0.320810
O O3 0.003651 0.816257 0.188449
O O4 0.921251 0.000000 0.260685
O O5 0.250000 0.750000 0.500000
O O6 0.313357 0.831833 0.640907
O O7 0.189589 0.752218 0.652138
O O8 0.222119 0.000000 0.575649
O O9 0.745992 0.752056 0.854901
O O10 0.871677 0.772802 0.833451
O O11 0.800034 0.000000 0.875191
O O12 0.824312 0.793564 0.996659
O O13 0.199341 0.000000 0.880994
O O14 0.072002 0.239856 0.334806
O O15 0.089793 0.000000 0.254019
O O16 0.087771 0.500000 0.394754
O O17 0.111064 0.287654 0.507612
O O18 0.634597 0.000000 0.625501
#
# Coordination Sequence:
#
# PCOD8105995 Si02
#       7
#     8   8   8   8   8   8   8
#     4  10  22  38  55  81 114 150 189 229 280 335
#     4   9  17  31  51  77 106 139 182 231 280 330
#     4   9  19  37  60  87 113 141 181 228 277 334
#     4   9  19  37  61  85 112 145 180 224 280 338
#     4  10  22  37  55  82 114 148 188 232 277 328
#     4   9  20  36  53  76 109 148 188 228 277 331
#     4  10  21  36  54  78 109 149 192 236 281 329
#
# _framework density 19.939800999999999
#
# number of rings (size 3 to 8) (size 9 to 14) (size 15 to 20)
#    0.000    2.571    0.000    1.714    2.000    6.286 
#    0.000    5.714    0.000    0.000    0.000    6.000 
#    0.000    0.000    0.000    0.000    0.000    0.000 
#
# Total GULP energy -347084.643689 kJ/mol
# GULP energy per Si atom -12395.880132 kJ/mol
# Density = 1.989442 g / cm^3
# Si number density = 19.939801 Si / 1000 Ang^3
#
#
#
# Elastic Constant Matrix: (Units=GPa)
#
#
# Indices 1 2 3 4 5 6 
#
# 1 133.8974 48.8064 61.1662 0.0000 2.6581 0.0000
# 2 48.8064 73.2060 35.5653 0.0000 1.6553 0.0000
# 3 61.1662 35.5653 80.0050 0.0000 2.3775 0.0000
# 4 0.0000 0.0000 0.0000 24.9491 0.0000 -0.8983
# 5 2.6581 1.6553 2.3775 0.0000 26.8828 0.0000
# 6 0.0000 0.0000 0.0000 -0.8983 0.0000 29.7516
#
#
#
# Elastic Compliance Matrix: (Units=1/GPa)
#
#
# Indices 1 2 3 4 5 6 
#
# 1 0.012662 -0.004765 -0.007553 0.000000 -0.000291 0.000000
# 2 -0.004765 0.019220 -0.004893 0.000000 -0.000280 0.000000
# 3 -0.007553 -0.004893 0.020471 0.000000 -0.000762 0.000000
# 4 0.000000 0.000000 0.000000 0.040125 0.000000 0.001212
# 5 -0.000291 -0.000280 -0.000762 0.000000 0.037312 0.000000
# 6 0.000000 0.000000 0.000000 0.001212 0.000000 0.033648
#
#
# Mechanical properties :
#
#
# Convention : Reuss Voigt Hill
#
# Bulk Modulus (GPa) = 55.76885 64.24269 60.00577
# Shear Modulus (GPa) = 24.52926 25.75471 25.14198
#
# Velocity S-wave (km/s) = 3.51118 3.59782 3.55476
# Velocity P-wave (km/s) = 6.66837 7.03898 6.85618
#
# Compressibility (1/GPa) = 0.01793116
#
# Stress axis : x y z
#
# Youngs Moduli (GPa) = 78.97930 52.02787 48.84857
#
# Poissons Ratio (x) = 0.24793 0.36896
# Poissons Ratio (y) = 0.37637 0.23900
# Poissons Ratio (z) = 0.59654 0.25455
#
# Static dielectric constant tensor:
#      x y z
#    x 79.005500 0.000000 -35.532810 
#    y 0.000000 3.581740 0.000000 
#    z -35.532810 0.000000 20.142680 
# 
# 
# High freq. dielectric constant tensor:
#      x y z
#    x 1.782130 0.000000 -0.004720 
#    y 0.000000 1.771790 0.000000 
#    z -0.004720 0.000000 1.760840 
# 
# From -- ./inp_files/231069.got.cif
#   From: 2010.06.25/outbox.cif.g09.slc.cpg/sg12_116_cif.got.tgz:231069.got - 2010.06.28 00:19:55.
