data_PCOD8105719
_publ_section_title
;
Structure prediction by ZEFSAII (Michael W. Deem and Ramdas Pophale) SiO2 
 PCOD8105719
Probable space group: C 2/M
;
_chemical_formula_sum "Si O2"
_cell_formula_units_Z 64
_cell_length_a 27.121321
_cell_length_b 10.316279
_cell_length_c 12.648888
_cell_angle_alpha 90.000000
_cell_angle_beta 112.712114
_cell_angle_gamma 90.000000
_cell_volume 3264.616337
_symmetry_space_group_name_H-M "C 2/M"
_symmetry_group_IT_number 12
_symmetry_cell_setting 'monoclinic'
loop_
_space_group_symop_operation_xyz
x,y,z
-x,y,-z
-x,-y,-z
x,-y,z
1/2+x,1/2+y,z
1/2-x,1/2+y,-z
1/2-x,1/2-y,-z
1/2+x,1/2-y,z
loop_
_atom_site_type_symbol
_atom_site_label
_atom_site_fract_x
_atom_site_fract_y
_atom_site_fract_z
Si Si1 0.567159 0.145167 0.837374
Si Si2 0.987624 0.854517 0.868429
Si Si3 0.142180 0.146504 0.598048
Si Si4 0.781902 0.855417 0.156719
Si Si5 0.560415 0.145314 0.583964
Si Si6 0.371252 0.648920 0.803406
Si Si7 0.794425 0.853577 0.561996
Si Si8 0.669096 0.263780 0.009705
O O1 0.528306 0.254908 0.849495
O O2 0.569010 0.166189 0.714630
O O3 0.546374 0.000000 0.847883
O O4 0.627145 0.156151 0.934439
O O5 0.928137 0.790798 0.814373
O O6 0.992089 0.000000 0.820149
O O7 0.000000 0.871542 0.000000
O O8 0.184582 0.205358 0.718170
O O9 0.092925 0.244581 0.549823
O O10 0.164949 0.141450 0.500354
O O11 0.124566 0.000000 0.617811
O O12 0.725010 0.788648 0.098380
O O13 0.768322 0.000000 0.178000
O O14 0.817007 0.854691 0.078464
O O15 0.500000 0.166297 0.500000
O O16 0.579361 0.000000 0.567236
O O17 0.377558 0.500000 0.781420
O O18 0.323841 0.703276 0.690709
O O19 0.359020 0.662074 0.917440
O O20 0.750000 0.750000 0.500000
O O21 0.771374 0.000000 0.562248
#
# Coordination Sequence:
#
# PCOD8105719 Si02
#       8
#     8   8   8   8   8   8   8   8
#     4  11  23  39  59  88 120 152 192 242 297 352
#     4  10  21  38  60  85 115 154 196 235 284 350
#     4  10  21  39  61  88 118 150 197 250 292 340
#     4  10  21  35  55  84 115 150 191 241 294 343
#     4  10  23  42  61  84 118 156 194 240 294 354
#     4  10  21  38  59  86 117 156 200 240 287 350
#     4  10  22  40  61  86 120 157 200 247 291 344
#     4  11  20  36  58  84 118 155 190 237 290 356
#
# _framework density 19.604143000000001
#
# number of rings (size 3 to 8) (size 9 to 14) (size 15 to 20)
#    0.000    1.750    2.500    1.500    1.750    2.000 
#    0.000    1.875    0.000    0.000    0.000    0.000 
#    0.000    0.000    0.000    0.000    0.000    0.000 
#
# Total GULP energy -396599.713354 kJ/mol
# GULP energy per Si atom -12393.741042 kJ/mol
# Density = 1.955952 g / cm^3
# Si number density = 19.604143 Si / 1000 Ang^3
#
#
#
# Elastic Constant Matrix: (Units=GPa)
#
#
# Indices 1 2 3 4 5 6 
#
# 1 84.8965 49.5502 16.9139 0.0000 8.7366 0.0000
# 2 49.5502 98.0254 17.0755 0.0000 8.3571 0.0000
# 3 16.9139 17.0755 92.2438 0.0000 10.7749 0.0000
# 4 0.0000 0.0000 0.0000 28.0599 0.0000 21.2560
# 5 8.7366 8.3571 10.7749 0.0000 29.9917 0.0000
# 6 0.0000 0.0000 0.0000 21.2560 0.0000 7.4991
#
#
#
# Elastic Compliance Matrix: (Units=1/GPa)
#
#
# Indices 1 2 3 4 5 6 
#
# 1 0.017062 -0.008201 -0.001353 0.000000 -0.002199 0.000000
# 2 -0.008201 0.014642 -0.001053 0.000000 -0.001313 0.000000
# 3 -0.001353 -0.001053 0.011694 0.000000 -0.003514 0.000000
# 4 0.000000 0.000000 0.000000 -0.031066 0.000000 0.088056
# 5 -0.002199 -0.001313 -0.003514 0.000000 0.035611 0.000000
# 6 0.000000 0.000000 0.000000 0.088056 0.000000 -0.116242
#
#
# Mechanical properties :
#
#
# Convention : Reuss Voigt Hill
#
# Bulk Modulus (GPa) = 45.08087 49.13832 47.10960
# Shear Modulus (GPa) = -125.98097 25.88523 -50.04787
#
# Velocity S-wave (km/s) = -8.02508 3.63767 -5.05813
# Velocity P-wave (km/s) = 7.92614 6.53936 3.16706
#
# Compressibility (1/GPa) = 0.02218236
#
# Stress axis : x y z
#
# Youngs Moduli (GPa) = 58.61123 68.29490 85.51077
#
# Poissons Ratio (x) = 0.56010 0.11574
# Poissons Ratio (y) = 0.48068 0.09008
# Poissons Ratio (z) = 0.07933 0.07194
#
# Static dielectric constant tensor:
#      x y z
#    x 3.318600 0.000000 0.182990 
#    y 0.000000 3.402100 0.000000 
#    z 0.182990 0.000000 3.934350 
# 
# 
# High freq. dielectric constant tensor:
#      x y z
#    x 1.759460 0.000000 0.009090 
#    y 0.000000 1.752940 0.000000 
#    z 0.009090 0.000000 1.779740 
# 
# From -- ./inp_files/175321.got.cif
#   From: 2010.06.25/outbox.cif.g09.slc.cpg/sg12_88_cif.got.tgz:175321.got - 2010.06.28 00:19:55.
