data_PCOD8105406
_publ_section_title
;
Structure prediction by ZEFSAII (Michael W. Deem and Ramdas Pophale) SiO2 
 PCOD8105406
Probable space group: C 2/M
;
_chemical_formula_sum "Si O2"
_cell_formula_units_Z 56
_cell_length_a 27.759666
_cell_length_b 9.322951
_cell_length_c 19.088883
_cell_angle_alpha 90.000000
_cell_angle_beta 144.494676
_cell_angle_gamma 90.000000
_cell_volume 2869.186383
_symmetry_space_group_name_H-M "C 2/M"
_symmetry_group_IT_number 12
_symmetry_cell_setting 'monoclinic'
loop_
_space_group_symop_operation_xyz
x,y,z
-x,y,-z
-x,-y,-z
x,-y,z
1/2+x,1/2+y,z
1/2-x,1/2+y,-z
1/2-x,1/2-y,-z
1/2+x,1/2-y,z
loop_
_atom_site_type_symbol
_atom_site_label
_atom_site_fract_x
_atom_site_fract_y
_atom_site_fract_z
Si Si1 0.914666 0.162104 0.439001
Si Si2 0.233822 0.336204 0.783893
Si Si3 0.704196 0.664305 0.294692
Si Si4 0.473469 0.834788 0.186768
Si Si5 0.457176 0.832188 0.878647
Si Si6 0.186377 0.831571 0.974599
Si Si7 0.113208 0.334907 0.459333
O O1 0.846756 0.236638 0.309219
O O2 0.926763 0.241488 0.526733
O O3 0.000000 0.167758 0.500000
O O4 0.886040 0.000000 0.419720
O O5 0.202965 0.500000 0.747249
O O6 0.287031 0.303037 0.777611
O O7 0.289249 0.302308 0.916531
O O8 0.680376 0.500000 0.279768
O O9 0.631195 0.759606 0.239392
O O10 0.789822 0.705429 0.435960
O O11 0.483376 0.796959 0.116569
O O12 0.562434 0.806253 0.328398
O O13 0.446155 0.000000 0.164434
O O14 0.405253 0.734316 0.142817
O O15 0.440276 0.000000 0.865238
O O16 0.500000 0.771886 0.000000
O O17 0.185100 0.000000 0.954202
O O18 0.250000 0.750000 0.000000
O O19 0.107584 0.500000 0.476743
#
# Coordination Sequence:
#
# PCOD8105406 Si02
#       7
#     8   8   8   8   8   8   8
#     4  10  21  34  53  83 112 140 183 241 290 334
#     4   9  20  38  57  79 109 149 190 228 280 346
#     4   9  18  35  58  83 110 144 191 238 281 336
#     4  10  22  40  59  83 117 156 196 237 285 344
#     4  10  21  36  57  86 118 151 189 236 291 342
#     4  11  24  40  59  84 114 151 194 238 289 342
#     4   9  20  38  57  79 113 155 194 234 283 346
#
# _framework density 19.517728000000002
#
# number of rings (size 3 to 8) (size 9 to 14) (size 15 to 20)
#    0.000    2.286    0.000    2.571    2.000    6.571 
#    0.000    0.000    0.000    0.000    0.000    0.000 
#    0.000    0.000    0.000    0.000    0.000    0.000 
#
# Total GULP energy -347258.882016 kJ/mol
# GULP energy per Si atom -12402.102929 kJ/mol
# Density = 1.947330 g / cm^3
# Si number density = 19.517728 Si / 1000 Ang^3
#
#
#
# Elastic Constant Matrix: (Units=GPa)
#
#
# Indices 1 2 3 4 5 6 
#
# 1 80.9443 48.2618 45.2255 0.0000 12.9968 0.0000
# 2 48.2618 90.1917 45.5388 0.0000 13.5079 0.0000
# 3 45.2255 45.5388 106.0973 0.0000 5.2424 0.0000
# 4 0.0000 0.0000 0.0000 25.8956 0.0000 10.9791
# 5 12.9968 13.5079 5.2424 0.0000 30.1254 0.0000
# 6 0.0000 0.0000 0.0000 10.9791 0.0000 31.2160
#
#
#
# Elastic Compliance Matrix: (Units=1/GPa)
#
#
# Indices 1 2 3 4 5 6 
#
# 1 0.020606 -0.007694 -0.005257 0.000000 -0.004525 0.000000
# 2 -0.007694 0.017933 -0.004220 0.000000 -0.003987 0.000000
# 3 -0.005257 -0.004220 0.013387 0.000000 0.001831 0.000000
# 4 0.000000 0.000000 0.000000 0.045384 0.000000 -0.015962
# 5 -0.004525 -0.003987 0.001831 0.000000 0.036616 0.000000
# 6 0.000000 0.000000 0.000000 -0.015962 0.000000 0.037649
#
#
# Mechanical properties :
#
#
# Convention : Reuss Voigt Hill
#
# Bulk Modulus (GPa) = 56.87598 61.69838 59.28718
# Shear Modulus (GPa) = 23.60957 26.66120 25.13539
#
# Velocity S-wave (km/s) = 3.48177 3.69995 3.59252
# Velocity P-wave (km/s) = 6.73555 7.06632 6.90292
#
# Compressibility (1/GPa) = 0.01758211
#
# Stress axis : x y z
#
# Youngs Moduli (GPa) = 48.53071 55.76465 74.69729
#
# Poissons Ratio (x) = 0.42904 0.39272
# Poissons Ratio (y) = 0.37339 0.31525
# Poissons Ratio (z) = 0.25515 0.23535
#
# Static dielectric constant tensor:
#      x y z
#    x 3.423210 0.000000 -0.149950 
#    y 0.000000 3.605880 0.000000 
#    z -0.149950 0.000000 3.748010 
# 
# 
# High freq. dielectric constant tensor:
#      x y z
#    x 1.752030 0.000000 -0.000550 
#    y 0.000000 1.760010 0.000000 
#    z -0.000550 0.000000 1.766750 
# 
# From -- ./inp_files/238308.got.cif
#   From: 2010.06.25/outbox.cif.g09.slc.cpg/sg12_120_cif.got.tgz:238308.got - 2010.06.28 00:19:55.
