data_PCOD8105324
_publ_section_title
;
Structure prediction by ZEFSAII (Michael W. Deem and Ramdas Pophale) SiO2 
 PCOD8105324
Probable space group: C 2/M
;
_chemical_formula_sum "Si O2"
_cell_formula_units_Z 64
_cell_length_a 27.112575
_cell_length_b 9.302644
_cell_length_c 15.099273
_cell_angle_alpha 90.000000
_cell_angle_beta 90.000595
_cell_angle_gamma 90.000000
_cell_volume 3808.317997
_symmetry_space_group_name_H-M "C 2/M"
_symmetry_group_IT_number 12
_symmetry_cell_setting 'monoclinic'
loop_
_space_group_symop_operation_xyz
x,y,z
-x,y,-z
-x,-y,-z
x,-y,z
1/2+x,1/2+y,z
1/2-x,1/2+y,-z
1/2-x,1/2-y,-z
1/2+x,1/2-y,z
loop_
_atom_site_type_symbol
_atom_site_label
_atom_site_fract_x
_atom_site_fract_y
_atom_site_fract_z
Si Si1 0.563232 0.161760 0.754024
Si Si2 0.586533 0.662350 0.477191
Si Si3 0.861618 0.836695 0.339435
Si Si4 0.986060 0.668923 0.900810
Si Si5 0.255748 0.671566 0.406395
Si Si6 0.417507 0.332936 0.787090
Si Si7 0.831385 0.164181 0.667472
Si Si8 0.525624 0.163713 0.361814
O O1 0.613638 0.250831 0.742082
O O2 0.530287 0.220364 0.835955
O O3 0.532199 0.169497 0.661885
O O4 0.579302 0.000000 0.775392
O O5 0.568373 0.500000 0.459593
O O6 0.603106 0.683545 0.576943
O O7 0.632793 0.698560 0.414519
O O8 0.540579 0.770643 0.457590
O O9 0.807256 0.779987 0.362518
O O10 0.858465 0.000000 0.308320
O O11 0.976614 0.500000 0.888719
O O12 0.934839 0.750185 0.876067
O O13 0.000000 0.711147 0.000000
O O14 0.253294 0.500000 0.420475
O O15 0.250000 0.750000 0.500000
O O16 0.213850 0.725107 0.338455
O O17 0.430680 0.500000 0.796991
O O18 0.359627 0.312917 0.761843
O O19 0.447550 0.266801 0.706766
O O20 0.812228 0.000000 0.660181
O O21 0.544959 0.000000 0.355180
#
# Coordination Sequence:
#
# PCOD8105324 Si02
#       8
#     8   8   8   8   8   8   8   8
#     4   9  19  33  47  67  94 123 156 192 232 282
#     4   9  17  30  44  61  89 124 162 200 239 281
#     4  10  21  34  45  62  92 126 162 202 243 284
#     4   9  18  34  55  78 104 128 152 188 233 286
#     4  11  21  33  48  67  91 124 168 212 249 283
#     4   9  17  29  47  72 101 127 155 193 235 285
#     4   9  17  31  47  66  95 126 161 205 244 279
#     4   9  17  29  44  64  91 122 161 200 233 276
#
# _framework density 16.805319000000001
#
# number of rings (size 3 to 8) (size 9 to 14) (size 15 to 20)
#    0.000    2.625    1.250    2.625    0.000    7.250 
#    0.000    2.500    0.000    0.000    0.000    0.875 
#    0.000    0.000    0.000    0.000    0.000    0.000 
#
# Total GULP energy -396571.717731 kJ/mol
# GULP energy per Si atom -12392.866179 kJ/mol
# Density = 1.676707 g / cm^3
# Si number density = 16.805319 Si / 1000 Ang^3
#
#
#
# Elastic Constant Matrix: (Units=GPa)
#
#
# Indices 1 2 3 4 5 6 
#
# 1 85.1650 52.5669 40.1271 0.0000 -1.4211 0.0000
# 2 52.5669 78.3655 33.0075 0.0000 4.7365 0.0000
# 3 40.1271 33.0075 51.2286 0.0000 2.8272 0.0000
# 4 0.0000 0.0000 0.0000 21.7859 0.0000 3.9197
# 5 -1.4211 4.7365 2.8272 0.0000 17.7870 0.0000
# 6 0.0000 0.0000 0.0000 3.9197 0.0000 29.5891
#
#
#
# Elastic Compliance Matrix: (Units=1/GPa)
#
#
# Indices 1 2 3 4 5 6 
#
# 1 0.025121 -0.012119 -0.012265 0.000000 0.007184 0.000000
# 2 -0.012119 0.023509 -0.005302 0.000000 -0.006386 0.000000
# 3 -0.012265 -0.005302 0.032808 0.000000 -0.004783 0.000000
# 4 0.000000 0.000000 0.000000 0.047022 0.000000 -0.006229
# 5 0.007184 -0.006386 -0.004783 0.000000 0.059255 0.000000
# 6 0.000000 0.000000 0.000000 -0.006229 0.000000 0.034621
#
#
# Mechanical properties :
#
#
# Convention : Reuss Voigt Hill
#
# Bulk Modulus (GPa) = 45.31997 51.79579 48.55788
# Shear Modulus (GPa) = 17.29714 19.76957 18.53335
#
# Velocity S-wave (km/s) = 3.21170 3.43357 3.32449
# Velocity P-wave (km/s) = 6.38588 6.82695 6.61009
#
# Compressibility (1/GPa) = 0.02206533
#
# Stress axis : x y z
#
# Youngs Moduli (GPa) = 39.80721 42.53623 30.48051
#
# Poissons Ratio (x) = 0.51550 0.37385
# Poissons Ratio (y) = 0.48243 0.16162
# Poissons Ratio (z) = 0.48824 0.22554
#
# Static dielectric constant tensor:
#      x y z
#    x 3.269530 0.000000 0.294800 
#    y 0.000000 3.272810 0.000000 
#    z 0.294800 0.000000 3.029260 
# 
# 
# High freq. dielectric constant tensor:
#      x y z
#    x 1.634950 0.000000 0.014160 
#    y 0.000000 1.655120 0.000000 
#    z 0.014160 0.000000 1.609260 
# 
# From -- ./inp_files/248432.got.cif
#   From: 2010.06.25/outbox.cif.g09.slc.cpg/sg12_125_cif.got.tgz:248432.got - 2010.06.28 00:19:55.
