data_PCOD8105339
_publ_section_title
;
Structure prediction by ZEFSAII (Michael W. Deem and Ramdas Pophale) SiO2 
 PCOD8105339
Probable space group: C 2/M
;
_chemical_formula_sum "Si O2"
_cell_formula_units_Z 56
_cell_length_a 15.987888
_cell_length_b 9.291986
_cell_length_c 23.321139
_cell_angle_alpha 90.000000
_cell_angle_beta 57.192804
_cell_angle_gamma 90.000000
_cell_volume 2911.966511
_symmetry_space_group_name_H-M "C 2/M"
_symmetry_group_IT_number 12
_symmetry_cell_setting 'monoclinic'
loop_
_space_group_symop_operation_xyz
x,y,z
-x,y,-z
-x,-y,-z
x,-y,z
1/2+x,1/2+y,z
1/2-x,1/2+y,-z
1/2-x,1/2-y,-z
1/2+x,1/2-y,z
loop_
_atom_site_type_symbol
_atom_site_label
_atom_site_fract_x
_atom_site_fract_y
_atom_site_fract_z
Si Si1 0.302063 0.168559 0.429472
Si Si2 0.174881 0.843615 0.063476
Si Si3 0.869401 0.161795 0.796587
Si Si4 0.669301 0.841745 0.805736
Si Si5 0.479198 0.343275 0.068659
Si Si6 0.464708 0.829173 0.659844
Si Si7 0.701696 0.670972 0.346738
O O1 0.250000 0.250000 0.500000
O O2 0.418636 0.209121 0.387902
O O3 0.244292 0.215765 0.392860
O O4 0.288366 0.000000 0.443574
O O5 0.136473 0.772220 0.137168
O O6 0.084237 0.869537 0.056454
O O7 0.223266 0.000000 0.060276
O O8 0.250000 0.750000 0.000000
O O9 0.756849 0.152384 0.818497
O O10 0.932236 0.269109 0.733699
O O11 0.916835 0.000000 0.777934
O O12 0.584515 0.742477 0.862012
O O13 0.711939 0.781964 0.729710
O O14 0.623375 0.000000 0.813005
O O15 0.428365 0.500000 0.076153
O O16 0.500000 0.263256 0.000000
O O17 0.401179 0.753662 0.631928
O O18 0.446211 0.000000 0.664000
O O19 0.680280 0.500000 0.349526
#
# Coordination Sequence:
#
# PCOD8105339 Si02
#       7
#     8   8   8   8   8   8   8
#     4  10  23  41  61  88 122 157 195 240 290 348
#     4  10  21  35  51  74 104 142 185 228 278 337
#     4   9  19  36  55  77 108 145 185 230 283 344
#     4   9  18  33  55  77 100 136 182 227 271 330
#     4  10  21  34  48  72 107 140 174 225 282 328
#     4  10  21  37  60  90 118 148 194 246 289 337
#     4   9  20  40  61  84 119 158 192 233 290 352
#
# _framework density 19.230991
#
# number of rings (size 3 to 8) (size 9 to 14) (size 15 to 20)
#    0.000    2.429    0.000    2.143    2.000    6.000 
#    0.000    2.857    0.000    0.000    0.000    0.000 
#    0.000    0.000    0.000    0.000    0.000    0.000 
#
# Total GULP energy -346987.421233 kJ/mol
# GULP energy per Si atom -12392.407901 kJ/mol
# Density = 1.918722 g / cm^3
# Si number density = 19.230991 Si / 1000 Ang^3
#
#
#
# Elastic Constant Matrix: (Units=GPa)
#
#
# Indices 1 2 3 4 5 6 
#
# 1 112.3939 49.6071 83.2095 0.0000 11.0399 0.0000
# 2 49.6071 78.0008 60.8055 0.0000 -7.9945 0.0001
# 3 83.2095 60.8055 139.2732 0.0000 9.7542 0.0000
# 4 0.0000 0.0000 0.0000 16.1179 0.0000 16.4361
# 5 11.0399 -7.9945 9.7542 0.0000 37.7648 0.0000
# 6 0.0000 0.0001 0.0000 16.4361 0.0000 11.9349
#
#
#
# Elastic Compliance Matrix: (Units=1/GPa)
#
#
# Indices 1 2 3 4 5 6 
#
# 1 0.017482 -0.005532 -0.007730 0.000000 -0.004285 0.000000
# 2 -0.005532 0.022846 -0.007252 0.000000 0.008327 0.000000
# 3 -0.007730 -0.007252 0.015188 0.000000 -0.003199 0.000000
# 4 0.000000 0.000000 0.000000 -0.153445 0.000000 0.211316
# 5 -0.004285 0.008327 -0.003199 0.000000 0.030321 0.000000
# 6 0.000000 0.000000 0.000000 0.211316 0.000000 -0.207225
#
#
# Mechanical properties :
#
#
# Convention : Reuss Voigt Hill
#
# Bulk Modulus (GPa) = 69.01910 79.65691 74.33801
# Shear Modulus (GPa) = -21.83641 22.23322 0.19840
#
# Velocity S-wave (km/s) = -3.37334 3.40386 0.32155
# Velocity P-wave (km/s) = 4.56013 7.54714 6.23515
#
# Compressibility (1/GPa) = 0.01448874
#
# Stress axis : x y z
#
# Youngs Moduli (GPa) = 57.20046 43.77217 65.83961
#
# Poissons Ratio (x) = 0.24215 0.50891
# Poissons Ratio (y) = 0.31644 0.47748
# Poissons Ratio (z) = 0.44213 0.31744
#
# Static dielectric constant tensor:
#      x y z
#    x 3.824480 0.000000 0.002220 
#    y 0.000000 3.558250 0.000000 
#    z 0.002220 0.000000 3.577170 
# 
# 
# High freq. dielectric constant tensor:
#      x y z
#    x 1.750110 0.000000 0.012140 
#    y 0.000000 1.740120 0.000000 
#    z 0.012140 0.000000 1.750390 
# 
# From -- ./inp_files/342263.got.cif
#   From: 2010.06.25/outbox.cif.g09.slc.cpg/sg12_172_cif.got.tgz:342263.got - 2010.06.28 00:19:55.
