data_PCOD8105553
_publ_section_title
;
Structure prediction by ZEFSAII (Michael W. Deem and Ramdas Pophale) SiO2 
 PCOD8105553
Probable space group: C 2/M
;
_chemical_formula_sum "Si O2"
_cell_formula_units_Z 40
_cell_length_a 21.896030
_cell_length_b 9.957666
_cell_length_c 12.138455
_cell_angle_alpha 90.000000
_cell_angle_beta 137.021109
_cell_angle_gamma 90.000000
_cell_volume 1804.255473
_symmetry_space_group_name_H-M "C 2/M"
_symmetry_group_IT_number 12
_symmetry_cell_setting 'monoclinic'
loop_
_space_group_symop_operation_xyz
x,y,z
-x,y,-z
-x,-y,-z
x,-y,z
1/2+x,1/2+y,z
1/2-x,1/2+y,-z
1/2-x,1/2-y,-z
1/2+x,1/2-y,z
loop_
_atom_site_type_symbol
_atom_site_label
_atom_site_fract_x
_atom_site_fract_y
_atom_site_fract_z
Si Si1 0.910946 0.760787 0.433767
Si Si2 0.743439 0.855394 0.647837
Si Si3 0.367829 0.151765 0.720364
Si Si4 0.670353 0.646974 0.887338
Si Si5 0.009456 0.151848 0.237541
O O1 0.832253 0.655867 0.357636
O O2 0.873663 0.860628 0.291685
O O3 0.000000 0.688249 0.500000
O O4 0.933620 0.842308 0.574290
O O5 0.697513 0.858189 0.468720
O O6 0.815737 0.734033 0.748157
O O7 0.791405 0.000000 0.729725
O O8 0.456204 0.237533 0.804791
O O9 0.393634 0.000000 0.794028
O O10 0.708775 0.500000 0.965089
O O11 0.594376 0.685682 0.876442
O O12 0.750000 0.750000 0.000000
O O13 0.021344 0.000000 0.207138
#
# Coordination Sequence:
#
# PCOD8105553 Si02
#       5
#     8   8   8   8   8
#     4   9  18  32  52  77 102 131 170 211 249 293
#     4   9  17  28  45  72 104 134 164 203 251 299
#     4   9  17  28  45  72 103 133 165 204 251 298
#     4  10  21  35  52  75 103 136 169 205 252 302
#     4   9  17  32  54  76 100 132 171 210 247 293
#
# _framework density 22.169809999999998
#
# number of rings (size 3 to 8) (size 9 to 14) (size 15 to 20)
#    0.000    2.800    0.000    1.200    0.000   10.000 
#    0.000    4.000    0.000    1.200    0.000    7.000 
#    0.000    0.000    0.000    0.000    0.000    0.000 
#
# Total GULP energy -247805.818984 kJ/mol
# GULP energy per Si atom -12390.290949 kJ/mol
# Density = 2.211935 g / cm^3
# Si number density = 22.169810 Si / 1000 Ang^3
#
#
#
# Elastic Constant Matrix: (Units=GPa)
#
#
# Indices 1 2 3 4 5 6 
#
# 1 152.1580 96.8131 27.3830 0.0000 40.1811 0.0000
# 2 96.8131 201.6349 32.8214 0.0000 45.2249 0.0000
# 3 27.3830 32.8214 37.3311 0.0000 24.6469 0.0000
# 4 0.0000 0.0000 0.0000 20.1268 0.0000 14.6190
# 5 40.1811 45.2249 24.6469 0.0000 30.0710 0.0000
# 6 0.0000 0.0000 0.0000 14.6190 0.0000 30.3140
#
#
#
# Elastic Compliance Matrix: (Units=1/GPa)
#
#
# Indices 1 2 3 4 5 6 
#
# 1 0.011438 -0.003021 0.002957 0.000000 -0.013165 0.000000
# 2 -0.003021 0.008341 0.001089 0.000000 -0.009401 0.000000
# 3 0.002957 0.001089 0.059605 0.000000 -0.054443 0.000000
# 4 0.000000 0.000000 0.000000 0.076471 0.000000 -0.036879
# 5 -0.013165 -0.009401 -0.054443 0.000000 0.109607 0.000000
# 6 0.000000 0.000000 0.000000 -0.036879 0.000000 0.050773
#
#
# Mechanical properties :
#
#
# Convention : Reuss Voigt Hill
#
# Bulk Modulus (GPa) = 12.27957 78.35100 45.31529
# Shear Modulus (GPa) = 14.64858 31.70947 23.17903
#
# Velocity S-wave (km/s) = 2.57328 3.78603 3.23696
# Velocity P-wave (km/s) = 3.79209 7.38445 5.86984
#
# Compressibility (1/GPa) = 0.08143605
#
# Stress axis : x y z
#
# Youngs Moduli (GPa) = 87.42481 119.88960 16.77701
#
# Poissons Ratio (x) = 0.36214 -0.04962
# Poissons Ratio (y) = 0.26407 -0.01827
# Poissons Ratio (z) = -0.25856 -0.13053
#
# Static dielectric constant tensor:
#      x y z
#    x 4.226650 0.000000 0.199070 
#    y 0.000000 4.073600 0.000000 
#    z 0.199070 0.000000 3.541690 
# 
# 
# High freq. dielectric constant tensor:
#      x y z
#    x 1.877960 0.000000 0.016380 
#    y 0.000000 1.863050 0.000000 
#    z 0.016380 0.000000 1.834020 
# 
# From -- ./inp_files/238088.got.cif
#   From: 2010.06.25/outbox.cif.g09.slc.cpg/sg12_120_cif.got.tgz:238088.got - 2010.06.28 00:19:55.
