data_PCOD8105601
_publ_section_title
;
Structure prediction by ZEFSAII (Michael W. Deem and Ramdas Pophale) SiO2 
 PCOD8105601
Probable space group: C 2/M
;
_chemical_formula_sum "Si O2"
_cell_formula_units_Z 56
_cell_length_a 14.835678
_cell_length_b 8.791742
_cell_length_c 28.701047
_cell_angle_alpha 90.000000
_cell_angle_beta 50.026533
_cell_angle_gamma 90.000000
_cell_volume 2868.816153
_symmetry_space_group_name_H-M "C 2/M"
_symmetry_group_IT_number 12
_symmetry_cell_setting 'monoclinic'
loop_
_space_group_symop_operation_xyz
x,y,z
-x,y,-z
-x,-y,-z
x,-y,z
1/2+x,1/2+y,z
1/2-x,1/2+y,-z
1/2-x,1/2-y,-z
1/2+x,1/2-y,z
loop_
_atom_site_type_symbol
_atom_site_label
_atom_site_fract_x
_atom_site_fract_y
_atom_site_fract_z
Si Si1 0.349936 0.680134 0.499753
Si Si2 0.298363 0.820746 0.270611
Si Si3 0.952169 0.180744 0.807243
Si Si4 0.701162 0.670072 0.061210
Si Si5 0.886017 0.820078 0.591717
Si Si6 0.240042 0.326439 0.194762
Si Si7 0.872977 0.168904 0.063194
O O1 0.338317 0.500000 0.499357
O O2 0.250000 0.750000 0.500000
O O3 0.481003 0.736911 0.441358
O O4 0.335551 0.735147 0.558338
O O5 0.414710 0.728698 0.245173
O O6 0.199617 0.762076 0.339292
O O7 0.254482 0.783042 0.233642
O O8 0.321731 0.000000 0.267166
O O9 0.917454 0.225996 0.872706
O O10 0.872157 0.271995 0.797459
O O11 0.935843 0.000000 0.805380
O O12 0.683735 0.500000 0.050829
O O13 0.799687 0.691062 0.067621
O O14 0.750000 0.750000 0.000000
O O15 0.891281 0.000000 0.588390
O O16 0.219359 0.500000 0.218178
O O17 0.360039 0.318037 0.123526
O O18 0.825867 0.000000 0.064005
O O19 0.000000 0.191536 0.000000
#
# Coordination Sequence:
#
# PCOD8105601 Si02
#       7
#     8   8   8   8   8   8   8
#     4   9  17  35  60  84 114 151 188 227 273 321
#     4  11  22  37  59  85 115 153 192 233 284 338
#     4  10  22  40  57  78 110 148 189 235 284 340
#     4  10  21  35  53  76 103 134 175 225 279 338
#     4   8  18  36  56  81 115 152 188 225 271 332
#     4  10  21  38  57  80 111 146 187 234 286 342
#     4   9  19  35  54  75 101 134 173 223 280 337
#
# _framework density 19.520247999999999
#
# number of rings (size 3 to 8) (size 9 to 14) (size 15 to 20)
#    0.000    2.429    0.000    2.571    2.000    3.714 
#    0.000    7.143    0.000    0.000    0.000    0.000 
#    0.000    0.000    0.000    0.000    0.000    0.000 
#
# Total GULP energy -346882.324716 kJ/mol
# GULP energy per Si atom -12388.654454 kJ/mol
# Density = 1.947582 g / cm^3
# Si number density = 19.520248 Si / 1000 Ang^3
#
#
#
# Elastic Constant Matrix: (Units=GPa)
#
#
# Indices 1 2 3 4 5 6 
#
# 1 105.9396 17.2035 61.3502 0.0001 -2.9112 0.0002
# 2 17.2035 41.6400 30.6118 0.0002 -3.7346 0.0004
# 3 61.3502 30.6118 165.7087 0.0000 -6.9906 0.0001
# 4 0.0001 0.0002 0.0000 20.2769 0.0001 0.7971
# 5 -2.9112 -3.7346 -6.9906 0.0001 26.3859 0.0001
# 6 0.0002 0.0004 0.0001 0.7971 0.0001 35.5540
#
#
#
# Elastic Compliance Matrix: (Units=1/GPa)
#
#
# Indices 1 2 3 4 5 6 
#
# 1 0.012155 -0.001985 -0.004135 0.000000 -0.000035 0.000000
# 2 -0.001985 0.028291 -0.004381 0.000000 0.002625 0.000000
# 3 -0.004135 -0.004381 0.008424 0.000000 0.001155 0.000000
# 4 0.000000 0.000000 0.000000 0.049361 0.000000 -0.001107
# 5 -0.000035 0.002625 0.001155 0.000000 0.038573 0.000000
# 6 0.000000 0.000000 0.000000 -0.001107 0.000000 0.028151
#
#
# Mechanical properties :
#
#
# Convention : Reuss Voigt Hill
#
# Bulk Modulus (GPa) = 35.88272 59.06882 47.47577
# Shear Modulus (GPa) = 25.60867 30.05152 27.83009
#
# Velocity S-wave (km/s) = 3.62595 3.92791 3.77995
# Velocity P-wave (km/s) = 5.99602 7.13423 6.58975
#
# Compressibility (1/GPa) = 0.02786857
#
# Stress axis : x y z
#
# Youngs Moduli (GPa) = 82.26816 35.34639 118.71439
#
# Poissons Ratio (x) = 0.07017 0.49089
# Poissons Ratio (y) = 0.16332 0.52004
# Poissons Ratio (z) = 0.34018 0.15484
#
# Static dielectric constant tensor:
#      x y z
#    x 3.442970 0.000000 0.025200 
#    y 0.000000 3.387810 0.000000 
#    z 0.025200 0.000000 4.139810 
# 
# 
# High freq. dielectric constant tensor:
#      x y z
#    x 1.750030 0.000000 0.000390 
#    y 0.000000 1.748500 0.000000 
#    z 0.000390 0.000000 1.772480 
# 
# From -- ./inp_files/374959.got.cif
#   From: 2010.06.25/outbox.cif.g09.slc.cpg/sg12_188_cif.got.tgz:374959.got - 2010.06.28 00:19:55.
