data_PCOD8105536
_publ_section_title
;
Structure prediction by ZEFSAII (Michael W. Deem and Ramdas Pophale) SiO2 
 PCOD8105536
Probable space group: C 2/M
;
_chemical_formula_sum "Si O2"
_cell_formula_units_Z 48
_cell_length_a 18.749810
_cell_length_b 8.991593
_cell_length_c 15.228245
_cell_angle_alpha 90.000000
_cell_angle_beta 89.201016
_cell_angle_gamma 90.000000
_cell_volume 2567.090262
_symmetry_space_group_name_H-M "C 2/M"
_symmetry_group_IT_number 12
_symmetry_cell_setting 'monoclinic'
loop_
_space_group_symop_operation_xyz
x,y,z
-x,y,-z
-x,-y,-z
x,-y,z
1/2+x,1/2+y,z
1/2-x,1/2+y,-z
1/2-x,1/2-y,-z
1/2+x,1/2-y,z
loop_
_atom_site_type_symbol
_atom_site_label
_atom_site_fract_x
_atom_site_fract_y
_atom_site_fract_z
Si Si1 0.296202 0.824483 0.924652
Si Si2 0.705563 0.824929 0.576911
Si Si3 0.043793 0.323882 0.582572
Si Si4 0.206458 0.825923 0.254701
Si Si5 0.056826 0.829539 0.071708
Si Si6 0.043902 0.168946 0.270247
O O1 0.269495 0.765568 0.830887
O O2 0.377741 0.781341 0.940197
O O3 0.286867 0.000000 0.928301
O O4 0.250000 0.750000 0.000000
O O5 0.750000 0.750000 0.500000
O O6 0.624713 0.764088 0.576217
O O7 0.739913 0.780887 0.669186
O O8 0.708413 0.000000 0.561683
O O9 0.043599 0.500000 0.582575
O O10 0.000000 0.260752 0.500000
O O11 0.007632 0.272287 0.672895
O O12 0.125990 0.782436 0.283841
O O13 0.209590 0.000000 0.231160
O O14 0.022447 0.811145 0.168711
O O15 0.082746 0.000000 0.058345
O O16 0.000000 0.782726 0.000000
O O17 0.032824 0.000000 0.301520
#
# Coordination Sequence:
#
# PCOD8105536 Si02
#       6
#     8   8   8   8   8   8
#     4  11  22  36  56  81 110 145 185 228 276 329
#     4  10  21  36  55  79 107 140 177 220 267 318
#     4  10  21  35  51  75 107 138 169 211 264 317
#     4   9  19  37  56  76 105 140 181 226 270 318
#     4   9  19  37  58  81 112 145 178 220 270 325
#     4   9  18  33  54  77 101 134 174 215 258 306
#
# _framework density 18.698212000000002
#
# number of rings (size 3 to 8) (size 9 to 14) (size 15 to 20)
#    0.000    2.333    0.000    3.500    0.000    6.000 
#    0.000    3.333    0.000    0.000    0.000    0.000 
#    0.000    0.000    0.000    0.000    0.000    0.000 
#
# Total GULP energy -297659.979765 kJ/mol
# GULP energy per Si atom -12402.499157 kJ/mol
# Density = 1.865565 g / cm^3
# Si number density = 18.698212 Si / 1000 Ang^3
#
#
#
# Elastic Constant Matrix: (Units=GPa)
#
#
# Indices 1 2 3 4 5 6 
#
# 1 130.4418 41.4785 95.4697 0.0000 6.7065 0.0000
# 2 41.4785 69.6399 56.6034 0.0000 -5.4344 0.0000
# 3 95.4697 56.6034 147.5812 0.0000 4.5834 0.0000
# 4 0.0000 0.0000 0.0000 34.7722 0.0000 -8.1856
# 5 6.7065 -5.4344 4.5834 0.0000 42.2090 0.0000
# 6 0.0000 0.0000 0.0000 -8.1856 0.0000 26.5163
#
#
#
# Elastic Compliance Matrix: (Units=1/GPa)
#
#
# Indices 1 2 3 4 5 6 
#
# 1 0.014771 -0.001740 -0.008838 0.000000 -0.001611 0.000000
# 2 -0.001740 0.021618 -0.007285 0.000000 0.003851 0.000000
# 3 -0.008838 -0.007285 0.015324 0.000000 -0.001198 0.000000
# 4 0.000000 0.000000 0.000000 0.031012 0.000000 0.009574
# 5 -0.001611 0.003851 -0.001198 0.000000 0.024573 0.000000
# 6 0.000000 0.000000 0.000000 0.009574 0.000000 0.040668
#
#
# Mechanical properties :
#
#
# Convention : Reuss Voigt Hill
#
# Bulk Modulus (GPa) = 62.55105 81.64069 72.09587
# Shear Modulus (GPa) = 26.45195 30.97359 28.71277
#
# Velocity S-wave (km/s) = 3.76530 4.07443 3.92291
# Velocity P-wave (km/s) = 7.24078 8.11737 7.69157
#
# Compressibility (1/GPa) = 0.01598694
#
# Stress axis : x y z
#
# Youngs Moduli (GPa) = 67.70191 46.25759 65.25547
#
# Poissons Ratio (x) = 0.08049 0.57670
# Poissons Ratio (y) = 0.11781 0.47541
# Poissons Ratio (z) = 0.59832 0.33700
#
# Static dielectric constant tensor:
#      x y z
#    x 3.407610 0.000000 0.087770 
#    y 0.000000 3.314230 0.000000 
#    z 0.087770 0.000000 3.521640 
# 
# 
# High freq. dielectric constant tensor:
#      x y z
#    x 1.725080 0.000000 0.004080 
#    y 0.000000 1.715970 0.000000 
#    z 0.004080 0.000000 1.737920 
# 
# From -- ./inp_files/221574.got.cif
#   From: 2010.06.25/outbox.cif.g09.slc.cpg/sg12_111_cif.got.tgz:221574.got - 2010.06.28 00:19:55.
