data_PCOD8105162
_publ_section_title
;
Structure prediction by ZEFSAII (Michael W. Deem and Ramdas Pophale) SiO2 
 PCOD8105162
Probable space group: C 2/M
;
_chemical_formula_sum "Si O2"
_cell_formula_units_Z 64
_cell_length_a 10.767110
_cell_length_b 31.567905
_cell_length_c 16.436969
_cell_angle_alpha 90.000000
_cell_angle_beta 33.883977
_cell_angle_gamma 90.000000
_cell_volume 3114.738729
_symmetry_space_group_name_H-M "C 2/M"
_symmetry_group_IT_number 12
_symmetry_cell_setting 'monoclinic'
loop_
_space_group_symop_operation_xyz
x,y,z
-x,y,-z
-x,-y,-z
x,-y,z
1/2+x,1/2+y,z
1/2-x,1/2+y,-z
1/2-x,1/2-y,-z
1/2+x,1/2-y,z
loop_
_atom_site_type_symbol
_atom_site_label
_atom_site_fract_x
_atom_site_fract_y
_atom_site_fract_z
Si Si1 0.201878 0.105412 0.082969
Si Si2 0.266834 0.452013 0.081753
Si Si3 0.543369 0.635554 0.638480
Si Si4 0.414339 0.843487 0.179373
Si Si5 0.912108 0.160528 0.131533
Si Si6 0.887657 0.228603 0.355088
Si Si7 0.333401 0.752622 0.202262
Si Si8 0.509751 0.879568 0.690801
O O1 0.077738 0.100476 0.237151
O O2 0.064674 0.143630 0.119067
O O3 0.197550 0.063043 0.031224
O O4 0.455258 0.123293 0.949861
O O5 0.179230 0.500000 0.126279
O O6 0.081978 0.425257 0.231040
O O7 0.500000 0.448728 0.000000
O O8 0.352098 0.649804 0.679410
O O9 0.635632 0.677448 0.633680
O O10 0.749626 0.613028 0.481028
O O11 0.478720 0.795657 0.116834
O O12 0.480354 0.848815 0.237165
O O13 0.957241 0.210669 0.105057
O O14 0.656540 0.144478 0.281671
O O15 0.000000 0.139772 0.000000
O O16 0.750000 0.250000 0.500000
O O17 0.787809 0.245717 0.323858
O O18 0.135408 0.242207 0.245001
#
# Coordination Sequence:
#
# PCOD8105162 Si02
#       8
#     8   8   8   8   8   8   8   8
#     4  11  21  40  61  87 124 151 204 243 316 364
#     4  10  20  41  70  95 119 152 194 243 312 391
#     4  11  23  37  58  87 120 165 204 248 306 360
#     4  10  22  39  58  81 121 173 212 247 294 357
#     4  12  21  37  58  86 115 161 205 258 307 354
#     4  11  22  36  51  79 120 168 212 261 314 357
#     4  11  23  35  54  83 118 162 223 269 297 345
#     4  11  21  40  63  89 121 158 201 251 307 371
#
# _framework density 20.547471000000002
#
# number of rings (size 3 to 8) (size 9 to 14) (size 15 to 20)
#    0.000    1.125    5.000    3.375    0.000    5.000 
#    0.000    0.625    0.000   13.500    0.000    0.000 
#    0.000    0.000    0.000    0.000    0.000    0.000 
#
# Total GULP energy -396522.826064 kJ/mol
# GULP energy per Si atom -12391.338315 kJ/mol
# Density = 2.050070 g / cm^3
# Si number density = 20.547471 Si / 1000 Ang^3
#
#
#
# Elastic Constant Matrix: (Units=GPa)
#
#
# Indices 1 2 3 4 5 6 
#
# 1 53.5754 21.6272 16.9201 0.0000 0.6720 0.0000
# 2 21.6272 127.3286 31.9910 0.0000 -7.5603 0.0000
# 3 16.9201 31.9910 108.6671 0.0000 -2.3939 0.0000
# 4 0.0000 0.0000 0.0000 25.3716 0.0000 -1.2323
# 5 0.6720 -7.5603 -2.3939 0.0000 31.7843 0.0000
# 6 0.0000 0.0000 0.0000 -1.2323 0.0000 21.9352
#
#
#
# Elastic Compliance Matrix: (Units=1/GPa)
#
#
# Indices 1 2 3 4 5 6 
#
# 1 0.020635 -0.002990 -0.002362 0.000000 -0.001325 0.000000
# 2 -0.002990 0.009022 -0.002145 0.000000 0.002048 0.000000
# 3 -0.002362 -0.002145 0.010209 0.000000 0.000309 0.000000
# 4 0.000000 0.000000 0.000000 0.039522 0.000000 0.002220
# 5 -0.001325 0.002048 0.000309 0.000000 0.032000 0.000000
# 6 0.000000 0.000000 0.000000 0.002220 0.000000 0.045714
#
#
# Mechanical properties :
#
#
# Convention : Reuss Voigt Hill
#
# Bulk Modulus (GPa) = 40.20785 47.84974 44.02880
# Shear Modulus (GPa) = 27.71821 30.42039 29.06930
#
# Velocity S-wave (km/s) = 3.67684 3.85189 3.76538
# Velocity P-wave (km/s) = 6.13484 6.56664 6.35441
#
# Compressibility (1/GPa) = 0.02487077
#
# Stress axis : x y z
#
# Youngs Moduli (GPa) = 48.46153 110.83767 97.95700
#
# Poissons Ratio (x) = 0.33143 0.23136
# Poissons Ratio (y) = 0.14491 0.21016
# Poissons Ratio (z) = 0.11446 0.23779
#
# Static dielectric constant tensor:
#      x y z
#    x 3.979250 0.000000 -0.051670 
#    y 0.000000 3.562550 0.000000 
#    z -0.051670 0.000000 3.775280 
# 
# 
# High freq. dielectric constant tensor:
#      x y z
#    x 1.818720 0.000000 -0.004760 
#    y 0.000000 1.770250 0.000000 
#    z -0.004760 0.000000 1.793370 
# 
# From -- ./inp_files/266274.got.cif
#   From: 2010.06.25/outbox.cif.g09.slc.cpg/sg12_134_cif.got.tgz:266274.got - 2010.06.28 00:19:55.
