data_PCOD8105602
_publ_section_title
;
Structure prediction by ZEFSAII (Michael W. Deem and Ramdas Pophale) SiO2 
 PCOD8105602
Probable space group: C 2/M
;
_chemical_formula_sum "Si O2"
_cell_formula_units_Z 56
_cell_length_a 13.278907
_cell_length_b 10.034898
_cell_length_c 22.776981
_cell_angle_alpha 90.000000
_cell_angle_beta 91.159896
_cell_angle_gamma 90.000000
_cell_volume 3034.467245
_symmetry_space_group_name_H-M "C 2/M"
_symmetry_group_IT_number 12
_symmetry_cell_setting 'monoclinic'
loop_
_space_group_symop_operation_xyz
x,y,z
-x,y,-z
-x,-y,-z
x,-y,z
1/2+x,1/2+y,z
1/2-x,1/2+y,-z
1/2-x,1/2-y,-z
1/2+x,1/2-y,z
loop_
_atom_site_type_symbol
_atom_site_label
_atom_site_fract_x
_atom_site_fract_y
_atom_site_fract_z
Si Si1 0.666479 0.151861 0.634088
Si Si2 0.515602 0.151361 0.737401
Si Si3 0.408576 0.203897 0.961412
Si Si4 0.459076 0.651876 0.436308
Si Si5 0.060808 0.657702 0.870423
Si Si6 0.609737 0.651394 0.332326
Si Si7 0.183472 0.857564 0.942705
O O1 0.605195 0.172796 0.692914
O O2 0.630933 0.248851 0.581629
O O3 0.778586 0.193820 0.650435
O O4 0.658723 0.000000 0.611274
O O5 0.558242 0.187352 0.801598
O O6 0.425839 0.251453 0.720044
O O7 0.474273 0.000000 0.735330
O O8 0.457586 0.219299 0.897279
O O9 0.303342 0.125722 0.955066
O O10 0.500000 0.132289 0.000000
O O11 0.377025 0.338009 0.996325
O O12 0.500000 0.694522 0.500000
O O13 0.418659 0.500000 0.436711
O O14 0.547499 0.670371 0.390819
O O15 0.071289 0.500000 0.883424
O O16 0.157254 0.736188 0.898271
O O17 0.603246 0.500000 0.308894
O O18 0.147563 0.000000 0.916407
#
# Coordination Sequence:
#
# PCOD8105602 Si02
#       7
#     8   8   8   8   8   8   8
#     4   9  18  33  51  71  99 132 165 203 247 292
#     4   9  19  35  52  72  98 129 166 203 240 289
#     4   9  20  35  54  72  98 131 160 193 241 294
#     4   9  18  32  49  72 102 132 165 205 245 289
#     4  10  21  36  53  73 100 132 162 197 245 295
#     4   9  18  33  52  73  99 132 165 201 248 291
#     4  10  21  35  53  77 100 125 162 203 241 287
#
# _framework density 18.454640000000001
#
# number of rings (size 3 to 8) (size 9 to 14) (size 15 to 20)
#    0.000    2.714    0.000    0.429    0.000   13.714 
#    0.000    0.000    0.000    0.000    0.000    0.000 
#    0.000    0.000    0.000    0.000    0.000    0.000 
#
# Total GULP energy -346933.199204 kJ/mol
# GULP energy per Si atom -12390.471400 kJ/mol
# Density = 1.841264 g / cm^3
# Si number density = 18.454640 Si / 1000 Ang^3
#
#
#
# Elastic Constant Matrix: (Units=GPa)
#
#
# Indices 1 2 3 4 5 6 
#
# 1 92.6025 54.4162 34.7207 0.0000 29.9147 0.0000
# 2 54.4162 112.7232 68.1316 0.0000 26.8340 0.0000
# 3 34.7207 68.1316 111.0056 0.0000 18.5701 0.0000
# 4 0.0000 0.0000 0.0000 24.0780 0.0000 13.0257
# 5 29.9147 26.8340 18.5701 0.0000 21.3162 0.0000
# 6 0.0000 0.0000 0.0000 13.0257 0.0000 11.9572
#
#
#
# Elastic Compliance Matrix: (Units=1/GPa)
#
#
# Indices 1 2 3 4 5 6 
#
# 1 0.021253 -0.004657 0.000257 0.000000 -0.024187 0.000000
# 2 -0.004657 0.018315 -0.008219 0.000000 -0.009361 0.000000
# 3 0.000257 -0.008219 0.014401 0.000000 -0.002560 0.000000
# 4 0.000000 0.000000 0.000000 0.101130 0.000000 -0.110167
# 5 -0.024187 -0.009361 -0.002560 0.000000 0.094870 0.000000
# 6 0.000000 0.000000 0.000000 -0.110167 0.000000 0.203643
#
#
# Mechanical properties :
#
#
# Convention : Reuss Voigt Hill
#
# Bulk Modulus (GPa) = 34.80539 70.09647 52.45093
# Shear Modulus (GPa) = 10.23696 22.07447 16.15572
#
# Velocity S-wave (km/s) = 2.35778 3.46229 2.96197
# Velocity P-wave (km/s) = 5.12963 7.35179 6.33885
#
# Compressibility (1/GPa) = 0.02873118
#
# Stress axis : x y z
#
# Youngs Moduli (GPa) = 47.05326 54.59896 69.44042
#
# Poissons Ratio (x) = 0.25428 -0.01786
# Poissons Ratio (y) = 0.21914 0.57071
# Poissons Ratio (z) = -0.01210 0.44873
#
# Static dielectric constant tensor:
#      x y z
#    x 3.451940 0.000000 0.002890 
#    y 0.000000 3.433120 0.000000 
#    z 0.002890 0.000000 3.382030 
# 
# 
# High freq. dielectric constant tensor:
#      x y z
#    x 1.714210 0.000000 0.000440 
#    y 0.000000 1.713480 0.000000 
#    z 0.000440 0.000000 1.706880 
# 
# From -- ./inp_files/304784.got.cif
#   From: 2010.06.25/outbox.cif.g09.slc.cpg/sg12_153_cif.got.tgz:304784.got - 2010.06.28 00:19:55.
