data_PCOD8105175
_publ_section_title
;
Structure prediction by ZEFSAII (Michael W. Deem and Ramdas Pophale) SiO2 
 PCOD8105175
Probable space group: C 2/M
;
_chemical_formula_sum "Si O2"
_cell_formula_units_Z 40
_cell_length_a 9.135432
_cell_length_b 27.164422
_cell_length_c 15.610072
_cell_angle_alpha 90.000000
_cell_angle_beta 30.472981
_cell_angle_gamma 90.000000
_cell_volume 1964.515541
_symmetry_space_group_name_H-M "C 2/M"
_symmetry_group_IT_number 12
_symmetry_cell_setting 'monoclinic'
loop_
_space_group_symop_operation_xyz
x,y,z
-x,y,-z
-x,-y,-z
x,-y,z
1/2+x,1/2+y,z
1/2-x,1/2+y,-z
1/2-x,1/2-y,-z
1/2+x,1/2-y,z
loop_
_atom_site_type_symbol
_atom_site_label
_atom_site_fract_x
_atom_site_fract_y
_atom_site_fract_z
Si Si1 0.099066 0.785320 0.642192
Si Si2 0.706119 0.103991 0.472668
Si Si3 0.812584 0.442708 0.175652
Si Si4 0.044746 0.725418 0.823773
Si Si5 0.842479 0.625172 0.317451
O O1 0.250000 0.750000 0.500000
O O2 0.193153 0.840812 0.590399
O O3 0.186997 0.766513 0.691229
O O4 0.752856 0.784275 0.799457
O O5 0.500000 0.086839 0.500000
O O6 0.549394 0.103258 0.645420
O O7 0.974979 0.067117 0.331343
O O8 0.864964 0.500000 0.164985
O O9 0.917849 0.414839 0.207575
O O10 0.000000 0.424058 0.000000
O O11 0.998498 0.675685 0.790493
O O12 0.750000 0.750000 0.000000
O O13 0.500000 0.636012 0.500000
#
# Coordination Sequence:
#
# PCOD8105175 Si02
#       5
#     8   8   8   8   8
#     4  12  22  40  58  85 129 170 213 253 311 374
#     4  11  23  40  67  94 126 171 215 269 310 379
#     4  10  23  44  71  97 126 164 210 270 333 382
#     4  12  24  36  57  91 124 167 211 260 311 373
#     4  10  20  42  64  89 129 169 218 258 313 386
#
# _framework density 20.361256000000001
#
# number of rings (size 3 to 8) (size 9 to 14) (size 15 to 20)
#    0.000    1.000    6.000    2.400    2.800    4.000 
#    0.000    1.000    0.000    2.400    0.000    0.000 
#    0.000    0.000    0.000    0.000    0.000    0.000 
#
# Total GULP energy -247943.292398 kJ/mol
# GULP energy per Si atom -12397.164620 kJ/mol
# Density = 2.031491 g / cm^3
# Si number density = 20.361256 Si / 1000 Ang^3
#
#
#
# Elastic Constant Matrix: (Units=GPa)
#
#
# Indices 1 2 3 4 5 6 
#
# 1 128.3119 21.8275 30.6663 0.0000 22.6483 0.0000
# 2 21.8275 83.6163 43.8239 0.0000 23.2438 0.0000
# 3 30.6663 43.8239 93.8522 0.0000 22.3927 0.0000
# 4 0.0000 0.0000 0.0000 37.0384 0.0000 3.5824
# 5 22.6483 23.2438 22.3927 0.0000 32.3233 0.0000
# 6 0.0000 0.0000 0.0000 3.5824 0.0000 29.6113
#
#
#
# Elastic Compliance Matrix: (Units=1/GPa)
#
#
# Indices 1 2 3 4 5 6 
#
# 1 0.009126 -0.000039 -0.001731 0.000000 -0.005167 0.000000
# 2 -0.000039 0.017516 -0.006191 0.000000 -0.008280 0.000000
# 3 -0.001731 -0.006191 0.015287 0.000000 -0.004926 0.000000
# 4 0.000000 0.000000 0.000000 0.027319 0.000000 -0.003305
# 5 -0.005167 -0.008280 -0.004926 0.000000 0.043924 0.000000
# 6 0.000000 0.000000 0.000000 -0.003305 0.000000 0.034171
#
#
# Mechanical properties :
#
#
# Convention : Reuss Voigt Hill
#
# Bulk Modulus (GPa) = 38.45039 55.37952 46.91495
# Shear Modulus (GPa) = 29.08131 33.75877 31.42004
#
# Velocity S-wave (km/s) = 3.78334 4.07626 3.93253
# Velocity P-wave (km/s) = 6.16522 7.02937 6.61143
#
# Compressibility (1/GPa) = 0.02600754
#
# Stress axis : x y z
#
# Youngs Moduli (GPa) = 109.57865 57.09161 65.41689
#
# Poissons Ratio (x) = 0.00220 0.11323
# Poissons Ratio (y) = 0.00423 0.40498
# Poissons Ratio (z) = 0.18967 0.35344
#
# Static dielectric constant tensor:
#      x y z
#    x 4.638320 0.000000 0.033070 
#    y 0.000000 3.727870 0.000000 
#    z 0.033070 0.000000 2.493690 
# 
# 
# High freq. dielectric constant tensor:
#      x y z
#    x 1.798990 0.000000 0.022460 
#    y 0.000000 1.791990 0.000000 
#    z 0.022460 0.000000 1.787210 
# 
# From -- ./inp_files/68735.got.cif
#   From: 2010.06.25/outbox.cif.g09.slc.cpg/sg12_35_cif.got.tgz:68735.got - 2010.06.28 00:19:55.
