data_PCOD8105860
_publ_section_title
;
Structure prediction by ZEFSAII (Michael W. Deem and Ramdas Pophale) SiO2 
 PCOD8105860
Probable space group: C 2/M
;
_chemical_formula_sum "Si O2"
_cell_formula_units_Z 64
_cell_length_a 9.041606
_cell_length_b 25.587683
_cell_length_c 14.472694
_cell_angle_alpha 90.000000
_cell_angle_beta 89.730793
_cell_angle_gamma 90.000000
_cell_volume 3348.275043
_symmetry_space_group_name_H-M "C 2/M"
_symmetry_group_IT_number 12
_symmetry_cell_setting 'monoclinic'
loop_
_space_group_symop_operation_xyz
x,y,z
-x,y,-z
-x,-y,-z
x,-y,z
1/2+x,1/2+y,z
1/2-x,1/2+y,-z
1/2-x,1/2-y,-z
1/2+x,1/2-y,z
loop_
_atom_site_type_symbol
_atom_site_label
_atom_site_fract_x
_atom_site_fract_y
_atom_site_fract_z
Si Si1 0.420426 0.790220 0.591642
Si Si2 0.329905 0.061034 0.311338
Si Si3 0.810360 0.262050 0.297617
Si Si4 0.325979 0.693675 0.000066
Si Si5 0.662237 0.439938 0.492374
Si Si6 0.349108 0.899925 0.652525
Si Si7 0.824158 0.856190 0.808631
Si Si8 0.162914 0.845056 0.805749
O O1 0.500000 0.769864 0.500000
O O2 0.273293 0.756294 0.608725
O O3 0.528683 0.784081 0.679032
O O4 0.380846 0.850957 0.585676
O O5 0.253793 0.083530 0.405450
O O6 0.505069 0.068890 0.319893
O O7 0.266016 0.092895 0.224235
O O8 0.297996 0.000000 0.294605
O O9 0.712032 0.307021 0.254573
O O10 0.830994 0.214187 0.228948
O O11 0.280931 0.658604 0.088841
O O12 0.500000 0.704875 0.000000
O O13 0.250000 0.750000 0.000000
O O14 0.277395 0.658671 0.912871
O O15 0.500000 0.412575 0.500000
O O16 0.639394 0.500000 0.468376
O O17 0.745336 0.436080 0.589966
O O18 0.268589 0.882896 0.747192
O O19 0.998121 0.868284 0.800120
#
# Coordination Sequence:
#
# PCOD8105860 Si02
#       8
#     8   8   8   8   8   8   8   8
#     4  11  22  35  48  78 116 160 189 227 282 348
#     4  11  23  39  62  87 116 156 201 248 296 341
#     4  11  20  34  55  77 117 152 191 234 279 346
#     4  10  21  35  61  88 120 153 193 244 301 354
#     4  10  21  39  61  87 116 151 199 250 294 345
#     4  11  22  36  59  83 117 152 199 244 293 348
#     4  11  21  38  59  84 120 152 193 244 293 361
#     4  10  22  38  56  89 117 154 193 239 302 357
#
# _framework density 19.114318000000001
#
# number of rings (size 3 to 8) (size 9 to 14) (size 15 to 20)
#    0.000    1.375    3.750    2.625    0.000    2.000 
#    0.000    0.625    0.000    5.625    0.000    0.000 
#    0.000    0.000    0.000    0.000    0.000    0.000 
#
# Total GULP energy -396844.286985 kJ/mol
# GULP energy per Si atom -12401.383968 kJ/mol
# Density = 1.907081 g / cm^3
# Si number density = 19.114318 Si / 1000 Ang^3
#
#
#
# Elastic Constant Matrix: (Units=GPa)
#
#
# Indices 1 2 3 4 5 6 
#
# 1 104.9506 31.7393 45.1544 0.0000 2.7487 0.0000
# 2 31.7393 60.1906 48.6822 0.0000 6.7842 0.0000
# 3 45.1544 48.6822 115.5618 0.0000 -6.2170 0.0000
# 4 0.0000 0.0000 0.0000 20.8000 0.0000 3.3190
# 5 2.7487 6.7842 -6.2170 0.0000 28.3572 0.0000
# 6 0.0000 0.0000 0.0000 3.3190 0.0000 28.5578
#
#
#
# Elastic Compliance Matrix: (Units=1/GPa)
#
#
# Indices 1 2 3 4 5 6 
#
# 1 0.012041 -0.003619 -0.003234 0.000000 -0.001010 0.000000
# 2 -0.003619 0.028465 -0.011055 0.000000 -0.008883 0.000000
# 3 -0.003234 -0.011055 0.014909 0.000000 0.006227 0.000000
# 4 0.000000 0.000000 0.000000 0.048985 0.000000 -0.005693
# 5 -0.001010 -0.008883 0.006227 0.000000 0.038853 0.000000
# 6 0.000000 0.000000 0.000000 -0.005693 0.000000 0.035678
#
#
# Mechanical properties :
#
#
# Convention : Reuss Voigt Hill
#
# Bulk Modulus (GPa) = 51.02694 59.09497 55.06096
# Shear Modulus (GPa) = 22.59565 25.88480 24.24023
#
# Velocity S-wave (km/s) = 3.44194 3.68395 3.56500
# Velocity P-wave (km/s) = 6.52301 7.00564 6.76863
#
# Compressibility (1/GPa) = 0.01959749
#
# Stress axis : x y z
#
# Youngs Moduli (GPa) = 83.04984 35.13103 67.07240
#
# Poissons Ratio (x) = 0.12715 0.21694
# Poissons Ratio (y) = 0.30059 0.74148
# Poissons Ratio (z) = 0.26862 0.38837
#
# Static dielectric constant tensor:
#      x y z
#    x 3.675260 0.000000 -0.089470 
#    y 0.000000 3.243550 0.000000 
#    z -0.089470 0.000000 3.579290 
# 
# 
# High freq. dielectric constant tensor:
#      x y z
#    x 1.757800 0.000000 -0.001640 
#    y 0.000000 1.722830 0.000000 
#    z -0.001640 0.000000 1.740800 
# 
# From -- ./inp_files/198869.got.cif
#   From: 2010.06.25/outbox.cif.g09.slc.cpg/sg12_100_cif.got.tgz:198869.got - 2010.06.28 00:19:55.
