data_PCOD8105545
_publ_section_title
;
Structure prediction by ZEFSAII (Michael W. Deem and Ramdas Pophale) SiO2 
 PCOD8105545
Probable space group: C 2/M
;
_chemical_formula_sum "Si O2"
_cell_formula_units_Z 56
_cell_length_a 21.277405
_cell_length_b 8.967656
_cell_length_c 18.379096
_cell_angle_alpha 90.000000
_cell_angle_beta 122.211839
_cell_angle_gamma 90.000000
_cell_volume 2967.117440
_symmetry_space_group_name_H-M "C 2/M"
_symmetry_group_IT_number 12
_symmetry_cell_setting 'monoclinic'
loop_
_space_group_symop_operation_xyz
x,y,z
-x,y,-z
-x,-y,-z
x,-y,z
1/2+x,1/2+y,z
1/2-x,1/2+y,-z
1/2-x,1/2-y,-z
1/2+x,1/2-y,z
loop_
_atom_site_type_symbol
_atom_site_label
_atom_site_fract_x
_atom_site_fract_y
_atom_site_fract_z
Si Si1 0.639066 0.325623 0.263962
Si Si2 0.791796 0.676855 0.294182
Si Si3 0.918757 0.322979 0.477730
Si Si4 0.331959 0.323178 0.554905
Si Si5 0.234987 0.676102 0.880495
Si Si6 0.354172 0.171245 0.037014
Si Si7 0.484545 0.172021 0.909456
O O1 0.633507 0.500000 0.246208
O O2 0.719401 0.262448 0.290730
O O3 0.630053 0.287698 0.343620
O O4 0.578928 0.252886 0.174387
O O5 0.790713 0.500000 0.292651
O O6 0.864554 0.732601 0.380464
O O7 0.793387 0.741259 0.213474
O O8 0.915567 0.500000 0.489570
O O9 0.891092 0.242720 0.534048
O O10 0.000000 0.273000 0.500000
O O11 0.322047 0.500000 0.537550
O O12 0.250000 0.250000 0.500000
O O13 0.240967 0.500000 0.880726
O O14 0.177056 0.731651 0.905618
O O15 0.316999 0.738631 0.947889
O O16 0.441706 0.195012 0.092446
O O17 0.332424 0.000000 0.012125
O O18 0.461604 0.000000 0.903120
O O19 0.500000 0.237846 0.000000
#
# Coordination Sequence:
#
# PCOD8105545 Si02
#       7
#     8   8   8   8   8   8   8
#     4  10  21  36  56  80 108 145 188 235 281 339
#     4   9  17  33  53  77 106 136 182 231 274 332
#     4  10  21  38  61  87 117 153 192 238 295 356
#     4  11  22  39  62  86 117 153 195 246 297 352
#     4   9  17  30  52  73  96 137 179 218 267 327
#     4   9  18  32  48  72 105 135 171 223 273 321
#     4  10  21  35  51  76 112 145 179 229 281 334
#
# _framework density 18.873536000000001
#
# number of rings (size 3 to 8) (size 9 to 14) (size 15 to 20)
#    0.000    2.286    1.429    1.286    0.000    3.429 
#    0.000    3.571    0.000    0.000    0.000    0.000 
#    0.000    0.000    0.000    0.000    0.000    0.000 
#
# Total GULP energy -347108.080723 kJ/mol
# GULP energy per Si atom -12396.717169 kJ/mol
# Density = 1.883058 g / cm^3
# Si number density = 18.873536 Si / 1000 Ang^3
#
#
#
# Elastic Constant Matrix: (Units=GPa)
#
#
# Indices 1 2 3 4 5 6 
#
# 1 134.5857 39.5895 84.4105 0.0000 1.3881 0.0000
# 2 39.5895 45.1604 46.2580 0.0000 0.0562 0.0000
# 3 84.4105 46.2580 182.6091 0.0000 -1.0897 0.0000
# 4 0.0000 0.0000 0.0000 30.6809 0.0000 -0.0135
# 5 1.3881 0.0562 -1.0897 0.0000 33.6007 0.0000
# 6 0.0000 0.0000 0.0000 -0.0135 0.0000 24.6476
#
#
#
# Elastic Compliance Matrix: (Units=1/GPa)
#
#
# Indices 1 2 3 4 5 6 
#
# 1 0.011687 -0.006357 -0.003795 0.000000 -0.000595 0.000000
# 2 -0.006357 0.033363 -0.005513 0.000000 0.000028 0.000000
# 3 -0.003795 -0.005513 0.008630 0.000000 0.000446 0.000000
# 4 0.000000 0.000000 0.000000 0.032594 0.000000 0.000018
# 5 -0.000595 0.000028 0.000446 0.000000 0.029800 0.000000
# 6 0.000000 0.000000 0.000000 0.000018 0.000000 0.040572
#
#
# Mechanical properties :
#
#
# Convention : Reuss Voigt Hill
#
# Bulk Modulus (GPa) = 44.74420 78.09678 61.42049
# Shear Modulus (GPa) = 25.58536 30.59230 28.08883
#
# Velocity S-wave (km/s) = 3.68587 4.03042 3.86199
# Velocity P-wave (km/s) = 6.47094 7.94530 7.24572
#
# Compressibility (1/GPa) = 0.02234927
#
# Stress axis : x y z
#
# Youngs Moduli (GPa) = 85.56785 29.97373 115.87803
#
# Poissons Ratio (x) = 0.19053 0.43981
# Poissons Ratio (y) = 0.54392 0.63882
# Poissons Ratio (z) = 0.32477 0.16524
#
# Static dielectric constant tensor:
#      x y z
#    x 3.636500 0.000000 -0.178490 
#    y 0.000000 3.244180 0.000000 
#    z -0.178490 0.000000 3.737230 
# 
# 
# High freq. dielectric constant tensor:
#      x y z
#    x 1.739960 0.000000 -0.007540 
#    y 0.000000 1.709030 0.000000 
#    z -0.007540 0.000000 1.743660 
# 
# From -- ./inp_files/281757.got.cif
#   From: 2010.06.25/outbox.cif.g09.slc.cpg/sg12_141_cif.got.tgz:281757.got - 2010.06.28 00:19:55.
