data_PCOD8105938
_publ_section_title
;
Structure prediction by ZEFSAII (Michael W. Deem and Ramdas Pophale) SiO2 
 PCOD8105938
Probable space group: C 2/M
;
_chemical_formula_sum "Si O2"
_cell_formula_units_Z 48
_cell_length_a 18.922868
_cell_length_b 8.944264
_cell_length_c 32.297681
_cell_angle_alpha 90.000000
_cell_angle_beta 152.388545
_cell_angle_gamma 90.000000
_cell_volume 2533.538677
_symmetry_space_group_name_H-M "C 2/M"
_symmetry_group_IT_number 12
_symmetry_cell_setting 'monoclinic'
loop_
_space_group_symop_operation_xyz
x,y,z
-x,y,-z
-x,-y,-z
x,-y,z
1/2+x,1/2+y,z
1/2-x,1/2+y,-z
1/2-x,1/2-y,-z
1/2+x,1/2-y,z
loop_
_atom_site_type_symbol
_atom_site_label
_atom_site_fract_x
_atom_site_fract_y
_atom_site_fract_z
Si Si1 0.571224 0.175678 0.267615
Si Si2 0.201982 0.675116 0.246150
Si Si3 0.447640 0.676961 0.907467
Si Si4 0.233056 0.823632 0.106636
Si Si5 0.984170 0.325432 0.611144
Si Si6 0.314827 0.325540 0.594923
O O1 0.629120 0.214441 0.252269
O O2 0.399961 0.241320 0.183599
O O3 0.680919 0.259009 0.356874
O O4 0.576634 0.000000 0.279721
O O5 0.226972 0.500000 0.253087
O O6 0.084735 0.735167 0.151250
O O7 0.363120 0.756218 0.327506
O O8 0.446173 0.500000 0.898269
O O9 0.318034 0.721481 0.873634
O O10 0.610922 0.733979 0.009358
O O11 0.234340 0.000000 0.103571
O O12 0.008643 0.500000 0.631389
O O13 0.852107 0.290961 0.509595
O O14 0.944079 0.253262 0.634425
O O15 0.350238 0.500000 0.613929
#
# Coordination Sequence:
#
# PCOD8105938 Si02
#       6
#     8   8   8   8   8   8
#     4  10  21  36  53  76 112 152 181 214 267 323
#     4  11  23  35  50  78 113 146 183 224 264 312
#     4   9  17  33  58  80 100 135 183 229 272 321
#     4   8  16  33  56  79 101 134 182 225 267 324
#     4  10  21  38  59  80 106 141 177 218 271 324
#     4  10  21  37  59  85 107 132 176 227 268 317
#
# _framework density 18.945831999999999
#
# number of rings (size 3 to 8) (size 9 to 14) (size 15 to 20)
#    0.000    2.333    0.000    3.500    0.000    6.000 
#    0.000    5.833    0.000    0.000    0.000    0.000 
#    0.000    0.000    0.000    0.000    0.000    0.000 
#
# Total GULP energy -297656.654942 kJ/mol
# GULP energy per Si atom -12402.360623 kJ/mol
# Density = 1.890271 g / cm^3
# Si number density = 18.945832 Si / 1000 Ang^3
#
#
#
# Elastic Constant Matrix: (Units=GPa)
#
#
# Indices 1 2 3 4 5 6 
#
# 1 101.1152 45.8176 54.3891 0.0000 -21.7801 -0.0001
# 2 45.8176 65.7808 41.3358 0.0001 -13.0866 -0.0002
# 3 54.3891 41.3358 91.9714 0.0000 -19.8486 0.0000
# 4 0.0000 0.0001 0.0000 29.2019 0.0000 -4.2700
# 5 -21.7801 -13.0866 -19.8486 0.0000 29.0034 0.0001
# 6 -0.0001 -0.0002 0.0000 -4.2700 0.0001 29.1457
#
#
#
# Elastic Compliance Matrix: (Units=1/GPa)
#
#
# Indices 1 2 3 4 5 6 
#
# 1 0.017686 -0.007485 -0.005816 0.000000 0.005923 0.000000
# 2 -0.007485 0.024673 -0.006421 0.000000 0.001117 0.000000
# 3 -0.005816 -0.006421 0.018339 0.000000 0.005285 0.000000
# 4 0.000000 0.000000 0.000000 0.034994 0.000000 0.005127
# 5 0.005923 0.001117 0.005285 0.000000 0.043048 0.000000
# 6 0.000000 0.000000 0.000000 0.005127 0.000000 0.035062
#
#
# Mechanical properties :
#
#
# Convention : Reuss Voigt Hill
#
# Bulk Modulus (GPa) = 47.05430 60.21694 53.63562
# Shear Modulus (GPa) = 22.69303 25.29186 23.99244
#
# Velocity S-wave (km/s) = 3.46466 3.65767 3.56247
# Velocity P-wave (km/s) = 6.39494 7.04917 6.73001
#
# Compressibility (1/GPa) = 0.02125204
#
# Stress axis : x y z
#
# Youngs Moduli (GPa) = 56.54215 40.53009 54.52763
#
# Poissons Ratio (x) = 0.30338 0.31716
# Poissons Ratio (y) = 0.42323 0.35015
# Poissons Ratio (z) = 0.32887 0.26026
#
# Static dielectric constant tensor:
#      x y z
#    x 3.484530 0.000000 0.102040 
#    y 0.000000 3.302980 0.000000 
#    z 0.102040 0.000000 3.746460 
# 
# 
# High freq. dielectric constant tensor:
#      x y z
#    x 1.733090 0.000000 -0.002710 
#    y 0.000000 1.722380 0.000000 
#    z -0.002710 0.000000 1.750420 
# 
# From -- ./inp_files/274049.got.cif
#   From: 2010.06.25/outbox.cif.g09.slc.cpg/sg12_138_cif.got.tgz:274049.got - 2010.06.28 00:19:55.
