data_PCOD8105728
_publ_section_title
;
Structure prediction by ZEFSAII (Michael W. Deem and Ramdas Pophale) SiO2 
 PCOD8105728
Probable space group: C 2/M
;
_chemical_formula_sum "Si O2"
_cell_formula_units_Z 64
_cell_length_a 23.886600
_cell_length_b 23.521775
_cell_length_c 11.570722
_cell_angle_alpha 90.000000
_cell_angle_beta 30.488914
_cell_angle_gamma 90.000000
_cell_volume 3298.458887
_symmetry_space_group_name_H-M "C 2/M"
_symmetry_group_IT_number 12
_symmetry_cell_setting 'monoclinic'
loop_
_space_group_symop_operation_xyz
x,y,z
-x,y,-z
-x,-y,-z
x,-y,z
1/2+x,1/2+y,z
1/2-x,1/2+y,-z
1/2-x,1/2-y,-z
1/2+x,1/2-y,z
loop_
_atom_site_type_symbol
_atom_site_label
_atom_site_fract_x
_atom_site_fract_y
_atom_site_fract_z
Si Si1 0.659149 0.433555 0.953949
Si Si2 0.441225 0.882729 0.827385
Si Si3 0.607930 0.668287 0.382276
Si Si4 0.681333 0.065073 0.744615
Si Si5 0.587738 0.435814 0.578413
Si Si6 0.935613 0.712452 0.496620
Si Si7 0.285080 0.136036 0.904639
Si Si8 0.154115 0.566011 0.540369
O O1 0.677541 0.500000 0.929590
O O2 0.699424 0.409452 0.005449
O O3 0.735984 0.408193 0.714917
O O4 0.531018 0.418185 0.156904
O O5 0.487648 0.817420 0.737643
O O6 0.379214 0.895091 0.815827
O O7 0.547670 0.923150 0.649916
O O8 0.361966 0.892956 0.077756
O O9 0.500000 0.660495 0.500000
O O10 0.625155 0.609310 0.417198
O O11 0.601689 0.724197 0.477472
O O12 0.715499 0.677980 0.111025
O O13 0.815001 0.065540 0.499507
O O14 0.637771 0.090168 0.699765
O O15 0.639705 0.000000 0.842349
O O16 0.579778 0.500000 0.539658
O O17 0.834423 0.671057 0.708994
O O18 0.000000 0.723565 0.500000
O O19 0.172786 0.500000 0.523950
#
# Coordination Sequence:
#
# PCOD8105728 Si02
#       8
#     8   8   8   8   8   8   8   8
#     4  10  21  35  55  85 117 150 185 233 289 337
#     4  11  20  35  56  84 118 147 185 232 280 334
#     4  11  20  35  57  82 113 151 189 229 280 334
#     4  10  21  37  59  85 112 150 196 238 280 333
#     4  10  21  37  56  84 114 145 190 236 287 335
#     4   9  21  35  53  82 112 147 193 227 273 339
#     4  11  20  35  54  83 117 150 184 227 281 344
#     4  10  21  37  57  83 113 151 198 236 278 335
#
# _framework density 19.403001
#
# number of rings (size 3 to 8) (size 9 to 14) (size 15 to 20)
#    0.000    1.750    3.750    1.125    0.000    3.250 
#    0.000    3.750    0.000    0.750    3.250    0.000 
#    0.000    0.000    0.000    0.000    0.000    0.000 
#
# Total GULP energy -396495.443833 kJ/mol
# GULP energy per Si atom -12390.482620 kJ/mol
# Density = 1.935884 g / cm^3
# Si number density = 19.403001 Si / 1000 Ang^3
#
#
#
# Elastic Constant Matrix: (Units=GPa)
#
#
# Indices 1 2 3 4 5 6 
#
# 1 67.2604 35.9969 34.0131 -0.0001 -1.9561 0.0003
# 2 35.9969 71.6432 36.5941 0.0000 8.8221 0.0001
# 3 34.0131 36.5941 122.0341 0.0000 -6.7146 0.0004
# 4 -0.0001 0.0000 0.0000 33.8360 0.0000 -2.2666
# 5 -1.9561 8.8221 -6.7146 0.0000 28.3714 -0.0003
# 6 0.0003 0.0001 0.0004 -2.2666 -0.0003 17.3954
#
#
#
# Elastic Compliance Matrix: (Units=1/GPa)
#
#
# Indices 1 2 3 4 5 6 
#
# 1 0.021755 -0.009950 -0.002864 0.000000 0.003916 0.000000
# 2 -0.009950 0.022257 -0.004376 0.000000 -0.008643 0.000000
# 3 -0.002864 -0.004376 0.010506 0.000000 0.003650 0.000000
# 4 0.000000 0.000000 0.000000 0.029815 0.000000 0.003885
# 5 0.003916 -0.008643 0.003650 0.000000 0.039068 0.000001
# 6 0.000000 0.000000 0.000000 0.003885 0.000001 0.057993
#
#
# Mechanical properties :
#
#
# Convention : Reuss Voigt Hill
#
# Bulk Modulus (GPa) = 49.66109 52.68289 51.17199
# Shear Modulus (GPa) = 22.47324 26.20947 24.34136
#
# Velocity S-wave (km/s) = 3.40698 3.67930 3.54576
# Velocity P-wave (km/s) = 6.41302 6.72760 6.57219
#
# Compressibility (1/GPa) = 0.02013649
#
# Stress axis : x y z
#
# Youngs Moduli (GPa) = 45.96639 44.92964 95.18383
#
# Poissons Ratio (x) = 0.44704 0.27265
# Poissons Ratio (y) = 0.45736 0.41657
# Poissons Ratio (z) = 0.13167 0.19663
#
# Static dielectric constant tensor:
#      x y z
#    x 3.467880 0.000000 -0.133840 
#    y 0.000000 3.614210 0.000000 
#    z -0.133840 0.000000 3.851750 
# 
# 
# High freq. dielectric constant tensor:
#      x y z
#    x 1.729070 0.000000 -0.021320 
#    y 0.000000 1.732420 0.000000 
#    z -0.021320 0.000000 1.771700 
# 
# From -- ./inp_files/178408.got.cif
#   From: 2010.06.25/outbox.cif.g09.slc.cpg/sg12_90_cif.got.tgz:178408.got - 2010.06.28 00:19:55.
