data_PCOD8105976
_publ_section_title
;
Structure prediction by ZEFSAII (Michael W. Deem and Ramdas Pophale) SiO2 
 PCOD8105976
Probable space group: C 2/M
;
_chemical_formula_sum "Si O2"
_cell_formula_units_Z 56
_cell_length_a 16.692697
_cell_length_b 9.394727
_cell_length_c 22.230272
_cell_angle_alpha 90.000000
_cell_angle_beta 51.663672
_cell_angle_gamma 90.000000
_cell_volume 2734.536724
_symmetry_space_group_name_H-M "C 2/M"
_symmetry_group_IT_number 12
_symmetry_cell_setting 'monoclinic'
loop_
_space_group_symop_operation_xyz
x,y,z
-x,y,-z
-x,-y,-z
x,-y,z
1/2+x,1/2+y,z
1/2-x,1/2+y,-z
1/2-x,1/2-y,-z
1/2+x,1/2-y,z
loop_
_atom_site_type_symbol
_atom_site_label
_atom_site_fract_x
_atom_site_fract_y
_atom_site_fract_z
Si Si1 0.438403 0.669349 0.468750
Si Si2 0.800403 0.664544 0.922719
Si Si3 0.810620 0.842743 0.803080
Si Si4 0.033601 0.653226 0.794961
Si Si5 0.030166 0.222285 0.675050
Si Si6 0.257889 0.846492 0.589813
Si Si7 0.215025 0.837379 0.744428
O O1 0.500000 0.713357 0.500000
O O2 0.441902 0.500000 0.456468
O O3 0.487130 0.752273 0.388297
O O4 0.320431 0.719986 0.528812
O O5 0.762584 0.500000 0.938345
O O6 0.768934 0.745840 0.876594
O O7 0.921585 0.671648 0.874209
O O8 0.750000 0.750000 0.000000
O O9 0.779616 0.762157 0.757412
O O10 0.933239 0.866748 0.744799
O O11 0.760707 0.000000 0.830679
O O12 0.078225 0.500000 0.794225
O O13 0.034802 0.647630 0.720607
O O14 0.099446 0.780189 0.792271
O O15 0.138966 0.143638 0.627245
O O16 0.270431 0.824506 0.654955
O O17 0.305370 0.000000 0.549567
O O18 0.210963 0.000000 0.769618
#
# Coordination Sequence:
#
# PCOD8105976 Si02
#       7
#     8   8   8   8   8   8   8
#     4  11  23  37  53  76 108 146 189 235 282 335
#     4  10  21  38  60  88 120 150 186 229 274 329
#     4  11  21  36  61  86 113 151 189 228 278 333
#     4   9  20  38  61  86 111 145 188 231 276 333
#     4  10  21  36  56  81 110 144 188 235 280 333
#     4  10  21  36  54  77 107 144 187 235 284 333
#     4  10  21  37  57  84 117 148 185 234 283 333
#
# _framework density 20.478788999999999
#
# number of rings (size 3 to 8) (size 9 to 14) (size 15 to 20)
#    0.000    1.857    0.000    3.857    0.000   10.000 
#    0.000    0.714    0.000    4.286    0.000    0.000 
#    0.000    0.000    0.000    0.000    0.000    0.000 
#
# Total GULP energy -346916.682902 kJ/mol
# GULP energy per Si atom -12389.881532 kJ/mol
# Density = 2.043218 g / cm^3
# Si number density = 20.478789 Si / 1000 Ang^3
#
#
#
# Elastic Constant Matrix: (Units=GPa)
#
#
# Indices 1 2 3 4 5 6 
#
# 1 74.2623 34.1746 35.4823 0.0000 9.8514 0.0000
# 2 34.1746 131.2830 45.5319 0.0000 -1.9515 0.0002
# 3 35.4823 45.5319 120.4511 0.0000 3.7910 0.0000
# 4 0.0000 0.0000 0.0000 19.4192 0.0000 1.9950
# 5 9.8514 -1.9515 3.7910 0.0000 25.9979 0.0000
# 6 0.0000 0.0002 0.0000 1.9950 0.0000 20.0839
#
#
#
# Elastic Compliance Matrix: (Units=1/GPa)
#
#
# Indices 1 2 3 4 5 6 
#
# 1 0.017656 -0.003403 -0.003713 0.000000 -0.006404 0.000000
# 2 -0.003403 0.009457 -0.002647 0.000000 0.002386 0.000000
# 3 -0.003713 -0.002647 0.010406 0.000000 -0.000309 0.000000
# 4 0.000000 0.000000 0.000000 0.052026 0.000000 -0.005168
# 5 -0.006404 0.002386 -0.000309 0.000000 0.041116 0.000000
# 6 0.000000 0.000000 0.000000 -0.005168 0.000000 0.050304
#
#
# Mechanical properties :
#
#
# Convention : Reuss Voigt Hill
#
# Bulk Modulus (GPa) = 55.58200 61.81936 58.70068
# Shear Modulus (GPa) = 24.21436 27.15404 25.68420
#
# Velocity S-wave (km/s) = 3.44235 3.64532 3.54529
# Velocity P-wave (km/s) = 6.55743 6.92607 6.74427
#
# Compressibility (1/GPa) = 0.01799144
#
# Stress axis : x y z
#
# Youngs Moduli (GPa) = 56.63936 105.74537 96.09596
#
# Poissons Ratio (x) = 0.35990 0.35679
# Poissons Ratio (y) = 0.19277 0.25439
# Poissons Ratio (z) = 0.21029 0.27993
#
# Static dielectric constant tensor:
#      x y z
#    x 3.685370 0.000000 0.160780 
#    y 0.000000 3.703050 0.000000 
#    z 0.160780 0.000000 3.679960 
# 
# 
# High freq. dielectric constant tensor:
#      x y z
#    x 1.795460 0.000000 0.007450 
#    y 0.000000 1.800590 0.000000 
#    z 0.007450 0.000000 1.791310 
# 
# From -- ./inp_files/313753.got.cif
#   From: 2010.06.25/outbox.cif.g09.slc.cpg/sg12_157_cif.got.tgz:313753.got - 2010.06.28 00:19:55.
