data_PCOD8105551
_publ_section_title
;
Structure prediction by ZEFSAII (Michael W. Deem and Ramdas Pophale) SiO2 
 PCOD8105551
Probable space group: C 2/M
;
_chemical_formula_sum "Si O2"
_cell_formula_units_Z 64
_cell_length_a 29.639974
_cell_length_b 8.838717
_cell_length_c 25.764004
_cell_angle_alpha 90.000000
_cell_angle_beta 30.499929
_cell_angle_gamma 90.000000
_cell_volume 3425.692414
_symmetry_space_group_name_H-M "C 2/M"
_symmetry_group_IT_number 12
_symmetry_cell_setting 'monoclinic'
loop_
_space_group_symop_operation_xyz
x,y,z
-x,y,-z
-x,-y,-z
x,-y,z
1/2+x,1/2+y,z
1/2-x,1/2+y,-z
1/2-x,1/2-y,-z
1/2+x,1/2-y,z
loop_
_atom_site_type_symbol
_atom_site_label
_atom_site_fract_x
_atom_site_fract_y
_atom_site_fract_z
Si Si1 0.516900 0.677709 0.201729
Si Si2 0.991589 0.820157 0.343721
Si Si3 0.919946 0.674455 0.114408
Si Si4 0.774584 0.825886 0.725849
Si Si5 0.866293 0.176196 0.270624
Si Si6 0.314265 0.319481 0.573712
Si Si7 0.829906 0.819678 0.780891
Si Si8 0.798895 0.320714 0.000586
O O1 0.538539 0.500000 0.179499
O O2 0.500059 0.737638 0.276558
O O3 0.428330 0.716778 0.257742
O O4 0.600258 0.764510 0.094544
O O5 0.075284 0.758029 0.293257
O O6 0.901343 0.756040 0.458639
O O7 0.989376 0.000000 0.347042
O O8 0.933573 0.500000 0.117172
O O9 0.831214 0.694948 0.168717
O O10 0.917963 0.773628 0.167941
O O11 0.000000 0.734801 0.000000
O O12 0.814508 0.756131 0.632900
O O13 0.812992 0.749211 0.740207
O O14 0.802074 0.000000 0.699753
O O15 0.772928 0.262224 0.370018
O O16 0.845704 0.000000 0.287959
O O17 0.309953 0.500000 0.578253
O O18 0.830268 0.000000 0.778123
O O19 0.752514 0.766748 0.896707
O O20 0.796326 0.500000 0.997200
O O21 0.750000 0.250000 0.000000
#
# Coordination Sequence:
#
# PCOD8105551 Si02
#       8
#     8   8   8   8   8   8   8   8
#     4  10  21  37  53  76 109 142 177 216 263 315
#     4   9  17  32  53  76 103 137 173 219 270 310
#     4   9  18  32  52  76 105 135 173 224 262 304
#     4   8  15  28  46  76 106 128 163 212 261 303
#     4  10  21  35  52  74 107 143 174 216 266 318
#     4   9  18  34  56  77 102 134 175 225 267 309
#     4   9  17  29  50  78 106 134 167 207 261 318
#     4  11  21  34  55  78 107 144 176 215 261 313
#
# _framework density 18.682355000000001
#
# number of rings (size 3 to 8) (size 9 to 14) (size 15 to 20)
#    0.000    2.625    1.250    1.500    1.750    2.250 
#    0.000    3.125    0.000    0.750    0.000    3.500 
#    0.000    0.000    0.000    0.000    0.000    0.000 
#
# Total GULP energy -396745.692868 kJ/mol
# GULP energy per Si atom -12398.302902 kJ/mol
# Density = 1.863983 g / cm^3
# Si number density = 18.682355 Si / 1000 Ang^3
#
#
#
# Elastic Constant Matrix: (Units=GPa)
#
#
# Indices 1 2 3 4 5 6 
#
# 1 141.9646 26.6583 64.2716 -0.0122 -1.2683 0.0254
# 2 26.6583 28.8796 22.7481 0.0240 -3.9149 -0.0105
# 3 64.2716 22.7481 162.5428 0.0058 -13.5767 0.0076
# 4 -0.0122 0.0240 0.0058 20.4925 -0.0213 -1.8708
# 5 -1.2683 -3.9149 -13.5767 -0.0213 18.2973 0.0293
# 6 0.0254 -0.0105 0.0076 -1.8708 0.0293 23.0547
#
#
#
# Elastic Compliance Matrix: (Units=1/GPa)
#
#
# Indices 1 2 3 4 5 6 
#
# 1 0.009743 -0.006944 -0.003143 0.000011 -0.003143 -0.000008
# 2 -0.006944 0.044227 -0.002872 -0.000047 0.006851 0.000016
# 3 -0.003143 -0.002872 0.008238 0.000004 0.005280 -0.000007
# 4 0.000011 -0.000047 0.000004 0.049163 0.000045 0.003989
# 5 -0.003143 0.006851 0.005280 0.000045 0.059819 -0.000068
# 6 -0.000008 0.000016 -0.000007 0.003989 -0.000068 0.043699
#
#
# Mechanical properties :
#
#
# Convention : Reuss Voigt Hill
#
# Bulk Modulus (GPa) = 27.55539 62.30477 44.93008
# Shear Modulus (GPa) = 19.77049 27.01617 23.39333
#
# Velocity S-wave (km/s) = 3.25660 3.80686 3.54243
# Velocity P-wave (km/s) = 5.37792 7.26256 6.39010
#
# Compressibility (1/GPa) = 0.03629054
#
# Stress axis : x y z
#
# Youngs Moduli (GPa) = 102.63965 22.61069 121.38824
#
# Poissons Ratio (x) = 0.15700 0.38154
# Poissons Ratio (y) = 0.71269 0.34860
# Poissons Ratio (z) = 0.32261 0.06493
#
# Static dielectric constant tensor:
#      x y z
#    x 3.623760 -0.000020 0.073870 
#    y -0.000020 3.049640 0.000040 
#    z 0.073870 0.000040 3.697570 
# 
# 
# High freq. dielectric constant tensor:
#      x y z
#    x 1.733810 0.000000 -0.000050 
#    y 0.000000 1.680870 0.000000 
#    z -0.000050 0.000000 1.733260 
# 
# From -- ./inp_files/353399.got.cif
#   From: 2010.06.25/outbox.cif.g09.slc.cpg/sg12_177_cif.got.tgz:353399.got - 2010.06.28 00:19:55.
