data_PCOD8105375
_publ_section_title
;
Structure prediction by ZEFSAII (Michael W. Deem and Ramdas Pophale) SiO2 
 PCOD8105375
Probable space group: C 2/M
;
_chemical_formula_sum "Si O2"
_cell_formula_units_Z 60
_cell_length_a 24.927405
_cell_length_b 15.179914
_cell_length_c 6.641140
_cell_angle_alpha 90.000000
_cell_angle_beta 88.246196
_cell_angle_gamma 90.000000
_cell_volume 2511.802732
_symmetry_space_group_name_H-M "C 2/M"
_symmetry_group_IT_number 12
_symmetry_cell_setting 'monoclinic'
loop_
_space_group_symop_operation_xyz
x,y,z
-x,y,-z
-x,-y,-z
x,-y,z
1/2+x,1/2+y,z
1/2-x,1/2+y,-z
1/2-x,1/2-y,-z
1/2+x,1/2-y,z
loop_
_atom_site_type_symbol
_atom_site_label
_atom_site_fract_x
_atom_site_fract_y
_atom_site_fract_z
Si Si1 0.894761 0.770567 0.878848
Si Si2 0.358909 0.273853 0.341135
Si Si3 0.446780 0.403359 0.385486
Si Si4 0.310450 0.097330 0.304745
Si Si5 0.305922 0.599600 0.800010
Si Si6 0.727461 0.401343 0.741971
Si Si7 0.500000 0.346538 0.000000
Si Si8 0.156559 0.403491 0.161427
O O1 0.856327 0.835192 0.747934
O O2 0.958575 0.790276 0.865216
O O3 0.887128 0.672088 0.791273
O O4 0.873950 0.776014 0.106738
O O5 0.408272 0.321549 0.451085
O O6 0.346539 0.173103 0.409939
O O7 0.306385 0.333279 0.388775
O O8 0.500000 0.387877 0.500000
O O9 0.421053 0.500000 0.434767
O O10 0.462213 0.404882 0.147222
O O11 0.245871 0.112422 0.343970
O O12 0.327266 0.000000 0.383610
O O13 0.320974 0.101965 0.066073
O O14 0.327721 0.500000 0.780040
O O15 0.284138 0.619369 0.024426
O O16 0.708435 0.500000 0.690171
O O17 0.791687 0.390575 0.694956
O O18 0.130557 0.500000 0.201814
#
# Coordination Sequence:
#
# PCOD8105375 Si02
#       8
#     8   8   8   8   8   8   4   8
#     4   9  16  25  38  60  90 123 160 198 238 282
#     4   9  15  24  41  63  90 123 156 194 238 284
#     4  10  21  36  53  74 100 128 159 197 239 282
#     4   8  13  21  35  59  90 122 156 194 237 284
#     4   8  13  20  32  55  88 121 152 191 238 285
#     4   8  12  18  32  57  87 118 152 191 238 289
#     4  10  21  34  51  72  98 130 165 200 235 278
#     4   8  13  21  34  56  89 123 155 197 242 283
#
# _framework density 23.887225999999998
#
# number of rings (size 3 to 8) (size 9 to 14) (size 15 to 20)
#    0.000    3.333    0.000    3.000    0.000    6.933 
#    0.000    0.333    0.000    1.200    0.000    3.733 
#    0.000    4.267    0.000    0.533    0.000    0.000 
#
# Total GULP energy -371761.366406 kJ/mol
# GULP energy per Si atom -12392.045547 kJ/mol
# Density = 2.383286 g / cm^3
# Si number density = 23.887226 Si / 1000 Ang^3
#
#
#
# Elastic Constant Matrix: (Units=GPa)
#
#
# Indices 1 2 3 4 5 6 
#
# 1 104.0782 93.6293 21.6040 0.0000 28.3130 0.0000
# 2 93.6293 227.5202 17.4535 0.0000 41.0355 0.0000
# 3 21.6040 17.4535 36.1262 0.0000 19.4171 0.0000
# 4 0.0000 0.0000 0.0000 8.1304 0.0000 11.3630
# 5 28.3130 41.0355 19.4171 0.0000 44.2969 0.0000
# 6 0.0000 0.0000 0.0000 11.3630 0.0000 -0.5297
#
#
#
# Elastic Compliance Matrix: (Units=1/GPa)
#
#
# Indices 1 2 3 4 5 6 
#
# 1 0.017001 -0.006063 -0.005777 0.000000 -0.002718 0.000000
# 2 -0.006063 0.007439 0.002162 0.000000 -0.003964 0.000000
# 3 -0.005777 0.002162 0.038177 0.000000 -0.015045 0.000000
# 4 0.000000 0.000000 0.000000 0.003970 0.000000 0.085164
# 5 -0.002718 -0.003964 -0.015045 0.000000 0.034579 0.000000
# 6 0.000000 0.000000 0.000000 0.085164 0.000000 -0.060936
#
#
# Mechanical properties :
#
#
# Convention : Reuss Voigt Hill
#
# Bulk Modulus (GPa) = 23.11482 70.34426 46.72954
# Shear Modulus (GPa) = 67.56171 26.04871 46.80521
#
# Velocity S-wave (km/s) = 5.32400 3.30584 4.43134
# Velocity P-wave (km/s) = 6.89137 6.63956 6.76664
#
# Compressibility (1/GPa) = 0.04326230
#
# Stress axis : x y z
#
# Youngs Moduli (GPa) = 58.82087 134.42068 26.19352
#
# Poissons Ratio (x) = 0.81498 0.15132
# Poissons Ratio (y) = 0.35662 -0.05664
# Poissons Ratio (z) = 0.33981 -0.29065
#
# Static dielectric constant tensor:
#      x y z
#    x 4.225820 0.000000 0.108710 
#    y 0.000000 4.594410 0.000000 
#    z 0.108710 0.000000 4.468650 
# 
# 
# High freq. dielectric constant tensor:
#      x y z
#    x 1.910470 0.000000 -0.011680 
#    y 0.000000 1.939670 0.000000 
#    z -0.011680 0.000000 1.976340 
# 
# From -- ./inp_files/111290.got.cif
#   From: 2010.06.25/outbox.cif.g09.slc.cpg/sg12_56_cif.got.tgz:111290.got - 2010.06.28 00:19:55.
