data_PCOD8105493
_publ_section_title
;
Structure prediction by ZEFSAII (Michael W. Deem and Ramdas Pophale) SiO2 
 PCOD8105493
Probable space group: C 2/M
;
_chemical_formula_sum "Si O2"
_cell_formula_units_Z 56
_cell_length_a 26.506016
_cell_length_b 9.238973
_cell_length_c 17.415939
_cell_angle_alpha 90.000000
_cell_angle_beta 125.363897
_cell_angle_gamma 90.000000
_cell_volume 3478.044216
_symmetry_space_group_name_H-M "C 2/M"
_symmetry_group_IT_number 12
_symmetry_cell_setting 'monoclinic'
loop_
_space_group_symop_operation_xyz
x,y,z
-x,y,-z
-x,-y,-z
x,-y,z
1/2+x,1/2+y,z
1/2-x,1/2+y,-z
1/2-x,1/2-y,-z
1/2+x,1/2-y,z
loop_
_atom_site_type_symbol
_atom_site_label
_atom_site_fract_x
_atom_site_fract_y
_atom_site_fract_z
Si Si1 0.699992 0.667856 0.776831
Si Si2 0.514911 0.828688 0.395084
Si Si3 0.166593 0.666866 0.063743
Si Si4 0.542783 0.668480 0.965448
Si Si5 0.598709 0.171225 0.603588
Si Si6 0.982604 0.662451 0.204804
Si Si7 0.660710 0.839012 0.888027
O O1 0.682971 0.500000 0.757577
O O2 0.773712 0.692350 0.829690
O O3 0.663830 0.751280 0.677639
O O4 0.681520 0.723702 0.844251
O O5 0.452181 0.771063 0.380258
O O6 0.575278 0.783621 0.497651
O O7 0.521334 0.775027 0.312342
O O8 0.508651 0.000000 0.390099
O O9 0.144415 0.500000 0.045437
O O10 0.109698 0.763341 0.042121
O O11 0.186769 0.707716 0.994404
O O12 0.552051 0.500000 0.958155
O O13 0.508942 0.736110 0.861431
O O14 0.500000 0.700513 0.000000
O O15 0.608813 0.000000 0.619194
O O16 0.004480 0.500000 0.202198
O O17 0.912784 0.659837 0.171765
O O18 0.684201 0.000000 0.885529
#
# Coordination Sequence:
#
# PCOD8105493 Si02
#       7
#     8   8   8   8   8   8   8
#     4  11  20  28  40  64  95 123 153 190 225 258
#     4   8  14  27  46  65  87 121 162 193 215 254
#     4   9  20  34  46  62  87 121 157 186 219 270
#     4  10  21  35  50  71  94 113 141 186 237 281
#     4   9  16  28  45  62  88 127 162 189 218 255
#     4   9  16  29  49  70  91 119 156 189 220 265
#     4   9  16  28  44  61  86 122 159 187 214 260
#
# _framework density 16.101002999999999
#
# number of rings (size 3 to 8) (size 9 to 14) (size 15 to 20)
#    0.000    2.714    1.429    3.000    0.000    4.571 
#    0.000    2.143    0.000    0.000    0.000    1.000 
#    0.000    0.000    0.000    0.000    0.000    0.000 
#
# Total GULP energy -347038.037574 kJ/mol
# GULP energy per Si atom -12394.215628 kJ/mol
# Density = 1.606436 g / cm^3
# Si number density = 16.101003 Si / 1000 Ang^3
#
#
#
# Elastic Constant Matrix: (Units=GPa)
#
#
# Indices 1 2 3 4 5 6 
#
# 1 51.3326 40.5606 48.8385 0.0000 -4.3317 0.0000
# 2 40.5606 77.2595 55.8734 0.0000 -0.7841 0.0000
# 3 48.8385 55.8734 142.1004 0.0000 8.0159 0.0000
# 4 0.0000 0.0000 0.0000 24.7104 0.0000 0.2116
# 5 -4.3317 -0.7841 8.0159 0.0000 16.8810 0.0000
# 6 0.0000 0.0000 0.0000 0.2116 0.0000 20.9753
#
#
#
# Elastic Compliance Matrix: (Units=1/GPa)
#
#
# Indices 1 2 3 4 5 6 
#
# 1 0.041019 -0.014838 -0.009061 0.000000 0.014139 0.000000
# 2 -0.014838 0.023768 -0.004206 0.000000 -0.000706 0.000000
# 3 -0.009061 -0.004206 0.012276 0.000000 -0.008350 0.000000
# 4 0.000000 0.000000 0.000000 0.040472 0.000000 -0.000408
# 5 0.014139 -0.000706 -0.008350 0.000000 0.066798 0.000000
# 6 0.000000 0.000000 0.000000 -0.000408 0.000000 0.047679
#
#
# Mechanical properties :
#
#
# Convention : Reuss Voigt Hill
#
# Bulk Modulus (GPa) = 47.95514 62.35972 55.15743
# Shear Modulus (GPa) = 16.93910 20.87467 18.90689
#
# Velocity S-wave (km/s) = 3.24705 3.60458 3.43048
# Velocity P-wave (km/s) = 6.62619 7.49255 7.07265
#
# Compressibility (1/GPa) = 0.02085282
#
# Stress axis : x y z
#
# Youngs Moduli (GPa) = 24.37867 42.07361 81.45845
#
# Poissons Ratio (x) = 0.62431 0.73811
# Poissons Ratio (y) = 0.36174 0.34259
# Poissons Ratio (z) = 0.22090 0.17695
#
# Static dielectric constant tensor:
#      x y z
#    x 2.645770 0.000000 0.050050 
#    y 0.000000 2.943390 0.000000 
#    z 0.050050 0.000000 3.584570 
# 
# 
# High freq. dielectric constant tensor:
#      x y z
#    x 1.567510 0.000000 0.009560 
#    y 0.000000 1.608730 0.000000 
#    z 0.009560 0.000000 1.629330 
# 
# From -- ./inp_files/291679.got.cif
#   From: 2010.06.25/outbox.cif.g09.slc.cpg/sg12_146_cif.got.tgz:291679.got - 2010.06.28 00:19:55.
