data_PCOD8105614
_publ_section_title
;
Structure prediction by ZEFSAII (Michael W. Deem and Ramdas Pophale) SiO2 
 PCOD8105614
Probable space group: C 2/M
;
_chemical_formula_sum "Si O2"
_cell_formula_units_Z 56
_cell_length_a 9.046571
_cell_length_b 18.859260
_cell_length_c 19.825800
_cell_angle_alpha 90.000000
_cell_angle_beta 117.148791
_cell_angle_gamma 90.000000
_cell_volume 3009.842369
_symmetry_space_group_name_H-M "C 2/M"
_symmetry_group_IT_number 12
_symmetry_cell_setting 'monoclinic'
loop_
_space_group_symop_operation_xyz
x,y,z
-x,y,-z
-x,-y,-z
x,-y,z
1/2+x,1/2+y,z
1/2-x,1/2+y,-z
1/2-x,1/2-y,-z
1/2+x,1/2-y,z
loop_
_atom_site_type_symbol
_atom_site_label
_atom_site_fract_x
_atom_site_fract_y
_atom_site_fract_z
Si Si1 0.825704 0.325827 0.500000
Si Si2 0.373145 0.583686 0.204982
Si Si3 0.536819 0.916314 0.204982
Si Si4 0.739743 0.822199 0.912362
Si Si5 0.315566 0.418259 0.642939
Si Si6 0.529687 0.918259 0.357061
Si Si7 0.584980 0.677801 0.912362
O O1 0.750000 0.250000 0.500000
O O2 0.701642 0.370198 0.426844
O O3 0.000000 0.314793 0.500000
O O4 0.847955 0.370198 0.573156
O O5 0.376278 0.500000 0.197995
O O6 0.201221 0.610824 0.201221
O O7 0.522252 0.609020 0.284152
O O8 0.395561 0.613798 0.135162
O O9 0.374763 0.886202 0.135162
O O10 0.546052 0.890980 0.284152
O O11 0.519711 0.000000 0.197995
O O12 0.636029 0.750000 0.886029
O O13 0.895989 0.815261 0.895989
O O14 0.794055 0.838372 1.000000
O O15 0.333008 0.500000 0.623580
O O16 0.160042 0.408839 0.660042
O O17 0.585847 0.000000 0.376420
#
# Coordination Sequence:
#
# PCOD8105614 Si02
#       7
#     8   8   8   8   8   8   8
#     4  10  21  35  53  79 107 136 172 216 266 316
#     4  10  21  36  55  81 111 142 178 220 266 316
#     4  10  21  36  55  81 111 142 178 220 266 316
#     4  10  21  37  57  80 107 141 180 221 267 319
#     4   9  18  35  57  77 101 137 180 221 261 310
#     4   9  18  35  57  77 101 137 180 221 261 310
#     4  10  21  37  57  80 107 141 180 221 267 319
#
# _framework density 18.605626000000001
#
# number of rings (size 3 to 8) (size 9 to 14) (size 15 to 20)
#    0.000    2.286    0.000    2.143    0.000    8.000 
#    0.000    5.714    0.000    4.286    0.000    0.000 
#    0.000    0.000    0.000    0.000    0.000    0.000 
#
# Total GULP energy -347315.693332 kJ/mol
# GULP energy per Si atom -12404.131905 kJ/mol
# Density = 1.856328 g / cm^3
# Si number density = 18.605626 Si / 1000 Ang^3
#
#
#
# Elastic Constant Matrix: (Units=GPa)
#
#
# Indices 1 2 3 4 5 6 
#
# 1 95.9699 42.5354 66.3572 0.0000 2.5516 0.0000
# 2 42.5354 71.4394 60.5117 0.0000 1.4933 0.0000
# 3 66.3572 60.5117 125.1081 0.0000 -0.1310 0.0000
# 4 0.0000 0.0000 0.0000 22.7539 0.0000 -1.0648
# 5 2.5516 1.4933 -0.1310 0.0000 29.9410 0.0000
# 6 0.0000 0.0000 0.0000 -1.0648 0.0000 35.5716
#
#
#
# Elastic Compliance Matrix: (Units=1/GPa)
#
#
# Indices 1 2 3 4 5 6 
#
# 1 0.017235 -0.004219 -0.007102 0.000000 -0.001289 0.000000
# 2 -0.004219 0.024791 -0.009754 0.000000 -0.000920 0.000000
# 3 -0.007102 -0.009754 0.016479 0.000000 0.001164 0.000000
# 4 0.000000 0.000000 0.000000 0.044010 0.000000 0.001317
# 5 -0.001289 -0.000920 0.001164 0.000000 0.033560 0.000000
# 6 0.000000 0.000000 0.000000 0.001317 0.000000 0.028152
#
#
# Mechanical properties :
#
#
# Convention : Reuss Voigt Hill
#
# Bulk Modulus (GPa) = 61.14453 70.14735 65.64594
# Shear Modulus (GPa) = 23.60400 25.86084 24.73242
#
# Velocity S-wave (km/s) = 3.56567 3.73224 3.64991
# Velocity P-wave (km/s) = 7.06306 7.50713 7.28848
#
# Compressibility (1/GPa) = 0.01635469
#
# Stress axis : x y z
#
# Youngs Moduli (GPa) = 58.02228 40.33691 60.68333
#
# Poissons Ratio (x) = 0.17018 0.43097
# Poissons Ratio (y) = 0.24480 0.59191
# Poissons Ratio (z) = 0.41207 0.39345
#
# Static dielectric constant tensor:
#      x y z
#    x 3.515740 0.000000 -0.001970 
#    y 0.000000 3.315670 0.000000 
#    z -0.001970 0.000000 3.492030 
# 
# 
# High freq. dielectric constant tensor:
#      x y z
#    x 1.728090 0.000000 0.000190 
#    y 0.000000 1.717010 0.000000 
#    z 0.000190 0.000000 1.730420 
# 
# From -- ./inp_files/257141.got.cif
#   From: 2010.06.25/outbox.cif.g09.slc.cpg/sg12_129_cif.got.tgz:257141.got - 2010.06.28 00:19:55.
