data_PCOD8105010
_publ_section_title
;
Structure prediction by ZEFSAII (Michael W. Deem and Ramdas Pophale) SiO2 
 PCOD8105010
Probable space group: C 2/M
;
_chemical_formula_sum "Si O2"
_cell_formula_units_Z 40
_cell_length_a 19.061949
_cell_length_b 7.483566
_cell_length_c 20.313804
_cell_angle_alpha 90.000000
_cell_angle_beta 44.797543
_cell_angle_gamma 90.000000
_cell_volume 2041.794942
_symmetry_space_group_name_H-M "C 2/M"
_symmetry_group_IT_number 12
_symmetry_cell_setting 'monoclinic'
loop_
_space_group_symop_operation_xyz
x,y,z
-x,y,-z
-x,-y,-z
x,-y,z
1/2+x,1/2+y,z
1/2-x,1/2+y,-z
1/2-x,1/2-y,-z
1/2+x,1/2-y,z
loop_
_atom_site_type_symbol
_atom_site_label
_atom_site_fract_x
_atom_site_fract_y
_atom_site_fract_z
Si Si1 0.335951 0.000000 0.607895
Si Si2 0.329779 0.789514 0.290367
Si Si3 0.491212 0.707579 0.288393
Si Si4 0.981118 0.698807 0.082215
Si Si5 0.135368 0.205769 0.078151
Si Si6 0.493391 0.000000 0.612865
O O1 0.271835 0.820168 0.642495
O O2 0.388721 0.000000 0.643878
O O3 0.415770 0.000000 0.497394
O O4 0.389288 0.753628 0.318156
O O5 0.396307 0.713793 0.184951
O O6 0.306281 0.000000 0.299779
O O7 0.492624 0.500000 0.307313
O O8 0.586469 0.760660 0.180215
O O9 0.499129 0.821497 0.349030
O O10 0.943903 0.500000 0.090239
O O11 0.084258 0.686873 0.053219
O O12 0.000000 0.801515 0.000000
O O13 0.114303 0.000000 0.078324
O O14 0.250000 0.250000 0.000000
#
# Coordination Sequence:
#
# PCOD8105010 Si02
#       6
#     4   8   8   8   8   4
#     4  11  26  44  61  94 127 151 208 259 311 379
#     4  10  20  40  66  90 124 162 203 260 304 353
#     4  10  21  41  65  91 121 161 210 253 299 365
#     4   9  19  35  56  84 120 156 196 241 291 350
#     4  10  21  34  55  85 119 156 197 241 286 349
#     4  11  26  44  64  90 126 163 193 261 323 363
#
# _framework density 19.590606000000001
#
# number of rings (size 3 to 8) (size 9 to 14) (size 15 to 20)
#    0.000    2.000    2.000    0.600    4.200    4.400 
#    0.000    6.000    0.000    0.000    0.000    0.000 
#    0.000    0.000    0.000    0.000    0.000    0.000 
#
# Total GULP energy -247962.755736 kJ/mol
# GULP energy per Si atom -12398.137787 kJ/mol
# Density = 1.954602 g / cm^3
# Si number density = 19.590606 Si / 1000 Ang^3
#
#
#
# Elastic Constant Matrix: (Units=GPa)
#
#
# Indices 1 2 3 4 5 6 
#
# 1 134.5295 53.4070 79.1380 0.0007 -1.0382 -0.0001
# 2 53.4070 105.3436 41.6786 0.0036 6.0929 -0.0020
# 3 79.1380 41.6786 100.0772 0.0003 5.8096 -0.0002
# 4 0.0007 0.0036 0.0003 25.6839 -0.0005 -4.9046
# 5 -1.0382 6.0929 5.8096 -0.0005 39.1123 0.0003
# 6 -0.0001 -0.0020 -0.0002 -4.9046 0.0003 27.3137
#
#
#
# Elastic Compliance Matrix: (Units=1/GPa)
#
#
# Indices 1 2 3 4 5 6 
#
# 1 0.015127 -0.003622 -0.010601 0.000000 0.002540 0.000000
# 2 -0.003622 0.012278 -0.002151 -0.000002 -0.001689 0.000001
# 3 -0.010601 -0.002151 0.019436 0.000000 -0.002833 0.000000
# 4 0.000000 -0.000002 0.000000 0.040317 0.000001 0.007240
# 5 0.002540 -0.001689 -0.002833 0.000001 0.026319 0.000000
# 6 0.000000 0.000001 0.000000 0.007240 0.000000 0.037912
#
#
# Mechanical properties :
#
#
# Convention : Reuss Voigt Hill
#
# Bulk Modulus (GPa) = 70.96085 76.48862 73.72473
# Shear Modulus (GPa) = 26.47840 29.47043 27.97442
#
# Velocity S-wave (km/s) = 3.68038 3.88276 3.78292
# Velocity P-wave (km/s) = 7.37298 7.69606 7.53625
#
# Compressibility (1/GPa) = 0.01409228
#
# Stress axis : x y z
#
# Youngs Moduli (GPa) = 66.10793 81.44852 51.45205
#
# Poissons Ratio (x) = 0.29498 0.54544
# Poissons Ratio (y) = 0.23942 0.11069
# Poissons Ratio (z) = 0.70081 0.17522
#
# Static dielectric constant tensor:
#      x y z
#    x 3.454440 0.000000 0.157180 
#    y 0.000000 3.627650 0.000000 
#    z 0.157180 0.000000 3.545840 
# 
# 
# High freq. dielectric constant tensor:
#      x y z
#    x 1.755170 0.000000 0.003060 
#    y 0.000000 1.771330 0.000000 
#    z 0.003060 0.000000 1.762840 
# 
# From -- ./inp_files/273956.got.cif
#   From: 2010.06.25/outbox.cif.g09.slc.cpg/sg12_137_cif.got.tgz:273956.got - 2010.06.28 00:19:55.
