data_PCOD8105200
_publ_section_title
;
Structure prediction by ZEFSAII (Michael W. Deem and Ramdas Pophale) SiO2 
 PCOD8105200
Probable space group: C 2/M
;
_chemical_formula_sum "Si O2"
_cell_formula_units_Z 64
_cell_length_a 15.234876
_cell_length_b 17.555606
_cell_length_c 16.972683
_cell_angle_alpha 90.000000
_cell_angle_beta 136.564623
_cell_angle_gamma 90.000000
_cell_volume 3121.049755
_symmetry_space_group_name_H-M "C 2/M"
_symmetry_group_IT_number 12
_symmetry_cell_setting 'monoclinic'
loop_
_space_group_symop_operation_xyz
x,y,z
-x,y,-z
-x,-y,-z
x,-y,z
1/2+x,1/2+y,z
1/2-x,1/2+y,-z
1/2-x,1/2-y,-z
1/2+x,1/2-y,z
loop_
_atom_site_type_symbol
_atom_site_label
_atom_site_fract_x
_atom_site_fract_y
_atom_site_fract_z
Si Si1 0.911218 0.088847 0.248476
Si Si2 0.515227 0.911491 0.922148
Si Si3 0.262807 0.587199 0.305892
Si Si4 0.236946 0.838696 0.985132
Si Si5 0.641798 0.412139 0.078515
Si Si6 0.356813 0.089415 0.342050
Si Si7 0.887383 0.663561 0.528932
Si Si8 0.848834 0.840878 0.516686
O O1 0.809789 0.110175 0.249769
O O2 0.874996 0.136852 0.147641
O O3 0.051537 0.109942 0.368845
O O4 0.906210 0.000000 0.223277
O O5 0.387892 0.896902 0.788496
O O6 0.550257 0.000000 0.951059
O O7 0.500000 0.877832 0.000000
O O8 0.627277 0.870351 0.950797
O O9 0.295560 0.500000 0.344124
O O10 0.339606 0.634577 0.420215
O O11 0.250000 0.750000 0.000000
O O12 0.207232 0.867147 0.052056
O O13 0.635735 0.500000 0.050139
O O14 0.724419 0.399421 0.210776
O O15 0.500000 0.379720 0.000000
O O16 0.340571 0.135974 0.412494
O O17 0.474030 0.124677 0.366910
O O18 0.384360 0.000000 0.376205
O O19 0.896256 0.754405 0.542647
O O20 0.786293 0.640323 0.529962
#
# Coordination Sequence:
#
# PCOD8105200 Si02
#       8
#     8   8   8   8   8   8   8   8
#     4  11  24  43  65  93 132 174 216 260 326 399
#     4  10  20  42  69  92 124 170 219 267 322 386
#     4  10  22  39  65  97 126 164 217 266 318 389
#     4  12  27  41  65  99 134 170 215 269 334 399
#     4  10  24  46  69  95 128 169 222 274 323 385
#     4  10  23  44  70  92 124 174 222 265 319 387
#     4  10  24  42  62  93 130 166 216 267 323 380
#     4  11  25  39  64  97 131 171 210 270 328 383
#
# _framework density 20.505921000000001
#
# number of rings (size 3 to 8) (size 9 to 14) (size 15 to 20)
#    0.000    1.500    1.250    2.625    8.750    4.500 
#    0.000    0.000    0.000    0.000    0.000    0.000 
#    0.000    0.000    0.000    0.000    0.000    0.000 
#
# Total GULP energy -396864.842663 kJ/mol
# GULP energy per Si atom -12402.026333 kJ/mol
# Density = 2.045925 g / cm^3
# Si number density = 20.505921 Si / 1000 Ang^3
#
#
#
# Elastic Constant Matrix: (Units=GPa)
#
#
# Indices 1 2 3 4 5 6 
#
# 1 91.0248 47.5436 25.3648 0.0000 8.5899 0.0000
# 2 47.5436 75.5963 38.0068 0.0000 -0.5195 0.0000
# 3 25.3648 38.0068 107.5459 0.0000 2.5282 0.0000
# 4 0.0000 0.0000 0.0000 18.0851 0.0000 -0.9450
# 5 8.5899 -0.5195 2.5282 0.0000 32.9147 0.0000
# 6 0.0000 0.0000 0.0000 -0.9450 0.0000 59.8999
#
#
#
# Elastic Compliance Matrix: (Units=1/GPa)
#
#
# Indices 1 2 3 4 5 6 
#
# 1 0.017035 -0.010677 -0.000136 0.000000 -0.004604 0.000000
# 2 -0.010677 0.022794 -0.005621 0.000000 0.003578 0.000000
# 3 -0.000136 -0.005621 0.011339 0.000000 -0.000924 0.000000
# 4 0.000000 0.000000 0.000000 0.055340 0.000000 0.000873
# 5 -0.004604 0.003578 -0.000924 0.000000 0.031710 0.000000
# 6 0.000000 0.000000 0.000000 0.000873 0.000000 0.016708
#
#
# Mechanical properties :
#
#
# Convention : Reuss Voigt Hill
#
# Bulk Modulus (GPa) = 54.64827 55.11080 54.87954
# Shear Modulus (GPa) = 25.78726 33.06339 29.42532
#
# Velocity S-wave (km/s) = 3.55004 4.01980 3.79221
# Velocity P-wave (km/s) = 6.59633 6.96269 6.78198
#
# Compressibility (1/GPa) = 0.01829884
#
# Stress axis : x y z
#
# Youngs Moduli (GPa) = 58.70255 43.87198 88.19269
#
# Poissons Ratio (x) = 0.46841 0.01203
# Poissons Ratio (y) = 0.62675 0.49576
# Poissons Ratio (z) = 0.00800 0.24662
#
# Static dielectric constant tensor:
#      x y z
#    x 3.889420 0.000000 0.061890 
#    y 0.000000 3.795510 0.000000 
#    z 0.061890 0.000000 3.800260 
# 
# 
# High freq. dielectric constant tensor:
#      x y z
#    x 1.808230 0.000000 0.004480 
#    y 0.000000 1.799230 0.000000 
#    z 0.004480 0.000000 1.813530 
# 
# From -- ./inp_files/271765.got.cif
#   From: 2010.06.25/outbox.cif.g09.slc.cpg/sg12_136_cif.got.tgz:271765.got - 2010.06.28 00:19:55.
