data_PCOD8105472
_publ_section_title
;
Structure prediction by ZEFSAII (Michael W. Deem and Ramdas Pophale) SiO2 
 PCOD8105472
Probable space group: C 2/M
;
_chemical_formula_sum "Si O2"
_cell_formula_units_Z 60
_cell_length_a 23.905445
_cell_length_b 31.783788
_cell_length_c 5.072302
_cell_angle_alpha 90.000000
_cell_angle_beta 62.721811
_cell_angle_gamma 90.000000
_cell_volume 3425.370968
_symmetry_space_group_name_H-M "C 2/M"
_symmetry_group_IT_number 12
_symmetry_cell_setting 'monoclinic'
loop_
_space_group_symop_operation_xyz
x,y,z
-x,y,-z
-x,-y,-z
x,-y,z
1/2+x,1/2+y,z
1/2-x,1/2+y,-z
1/2-x,1/2-y,-z
1/2+x,1/2-y,z
loop_
_atom_site_type_symbol
_atom_site_label
_atom_site_fract_x
_atom_site_fract_y
_atom_site_fract_z
Si Si1 0.147777 0.261974 0.256249
Si Si2 0.768649 0.818060 0.963476
Si Si3 0.929883 0.254376 0.077019
Si Si4 0.088954 0.046624 0.537448
Si Si5 0.566641 0.655498 0.968532
Si Si6 0.500000 0.391607 0.500000
Si Si7 0.329478 0.453179 0.137756
Si Si8 0.797987 0.869264 0.408530
O O1 0.173276 0.214056 0.202548
O O2 0.118301 0.272250 0.603081
O O3 0.203262 0.294043 0.075610
O O4 0.092802 0.269819 0.160058
O O5 0.767562 0.855736 0.751721
O O6 0.775063 0.836046 0.241610
O O7 0.926108 0.204562 0.080595
O O8 0.000000 0.270036 0.000000
O O9 0.030311 0.078190 0.655095
O O10 0.112785 0.046619 0.784441
O O11 0.065741 0.000000 0.509783
O O12 0.144590 0.059118 0.208006
O O13 0.558195 0.638954 0.286079
O O14 0.500000 0.639703 0.000000
O O15 0.626435 0.632376 0.712785
O O16 0.297310 0.500000 0.203527
O O17 0.280769 0.416841 0.348591
#
# Coordination Sequence:
#
# PCOD8105472 Si02
#       8
#     8   8   8   8   8   4   8   8
#     4  11  21  40  52  77 103 129 171 207 256 298
#     4  11  23  35  58  73  98 135 167 217 248 294
#     4  11  23  35  55  74 104 133 165 205 260 309
#     4  10  21  35  48  63  86 125 167 210 268 318
#     4  11  24  31  47  68  98 128 168 220 266 309
#     4  12  23  32  46  64  92 126 164 224 272 304
#     4  10  21  36  51  68  94 123 162 215 261 308
#     4  12  21  37  52  75  94 130 176 210 264 303
#
# _framework density 17.516352000000001
#
# number of rings (size 3 to 8) (size 9 to 14) (size 15 to 20)
#    0.000    1.067    4.000    3.000    5.600    2.133 
#    0.000    2.000    0.000    0.000    0.000    0.000 
#    0.000    0.000    0.000    0.000    0.000   46.667 
#
# Total GULP energy -371812.717100 kJ/mol
# GULP energy per Si atom -12393.757237 kJ/mol
# Density = 1.747648 g / cm^3
# Si number density = 17.516352 Si / 1000 Ang^3
#
#
#
# Elastic Constant Matrix: (Units=GPa)
#
#
# Indices 1 2 3 4 5 6 
#
# 1 54.5709 12.1800 7.0043 0.0000 0.8476 0.0000
# 2 12.1800 61.1102 14.4617 0.0000 -9.5726 0.0000
# 3 7.0043 14.4617 66.5356 0.0000 1.8792 0.0000
# 4 0.0000 0.0000 0.0000 20.4651 0.0000 -3.2678
# 5 0.8476 -9.5726 1.8792 0.0000 21.4788 0.0000
# 6 0.0000 0.0000 0.0000 -3.2678 0.0000 16.6107
#
#
#
# Elastic Compliance Matrix: (Units=1/GPa)
#
#
# Indices 1 2 3 4 5 6 
#
# 1 0.019395 -0.003987 -0.001106 0.000000 -0.002445 0.000000
# 2 -0.003987 0.019575 -0.004096 0.000000 0.009240 0.000000
# 3 -0.001106 -0.004096 0.016126 0.000000 -0.003193 0.000000
# 4 0.000000 0.000000 0.000000 0.050449 0.000000 0.009925
# 5 -0.002445 0.009240 -0.003193 0.000000 0.051051 0.000000
# 6 0.000000 0.000000 0.000000 0.009925 0.000000 0.062154
#
#
# Mechanical properties :
#
#
# Convention : Reuss Voigt Hill
#
# Bulk Modulus (GPa) = 27.23433 27.72318 27.47876
# Shear Modulus (GPa) = 20.05068 21.61563 20.83316
#
# Velocity S-wave (km/s) = 3.38699 3.51668 3.45244
# Velocity P-wave (km/s) = 5.55673 5.68777 5.62264
#
# Compressibility (1/GPa) = 0.03671836
#
# Stress axis : x y z
#
# Youngs Moduli (GPa) = 51.56080 51.08499 62.00995
#
# Poissons Ratio (x) = 0.20367 0.06859
# Poissons Ratio (y) = 0.20557 0.25399
# Poissons Ratio (z) = 0.05703 0.20924
#
# Static dielectric constant tensor:
#      x y z
#    x 3.136430 0.000000 0.234650 
#    y 0.000000 3.383550 0.000000 
#    z 0.234650 0.000000 3.329240 
# 
# 
# High freq. dielectric constant tensor:
#      x y z
#    x 1.644940 0.000000 0.036090 
#    y 0.000000 1.665630 0.000000 
#    z 0.036090 0.000000 1.677790 
# 
# From -- ./inp_files/26638.got.cif
#   From: 2010.06.25/outbox.cif.g09.slc.cpg/sg12_14_cif.got.tgz:26638.got - 2010.06.28 00:19:55.
