data_PCOD8105007
_publ_section_title
;
Structure prediction by ZEFSAII (Michael W. Deem and Ramdas Pophale) SiO2 
 PCOD8105007
Probable space group: C 2/M
;
_chemical_formula_sum "Si O2"
_cell_formula_units_Z 64
_cell_length_a 30.642565
_cell_length_b 8.533056
_cell_length_c 12.161494
_cell_angle_alpha 90.000000
_cell_angle_beta 89.316448
_cell_angle_gamma 90.000000
_cell_volume 3179.696979
_symmetry_space_group_name_H-M "C 2/M"
_symmetry_group_IT_number 12
_symmetry_cell_setting 'monoclinic'
loop_
_space_group_symop_operation_xyz
x,y,z
-x,y,-z
-x,-y,-z
x,-y,z
1/2+x,1/2+y,z
1/2-x,1/2+y,-z
1/2-x,1/2-y,-z
1/2+x,1/2-y,z
loop_
_atom_site_type_symbol
_atom_site_label
_atom_site_fract_x
_atom_site_fract_y
_atom_site_fract_z
Si Si1 0.797154 0.181951 0.978594
Si Si2 0.797798 0.314506 0.518477
Si Si3 0.576286 0.826395 0.257334
Si Si4 0.322211 0.825558 0.758178
Si Si5 0.952503 0.687265 0.969346
Si Si6 0.050456 0.314428 0.490328
Si Si7 0.373550 0.815144 0.122763
Si Si8 0.125614 0.815995 0.633923
O O1 0.805621 0.204713 0.849206
O O2 0.799707 0.000000 0.009139
O O3 0.750000 0.250000 0.000000
O O4 0.831199 0.276225 0.052139
O O5 0.797994 0.500000 0.510909
O O6 0.750000 0.250000 0.500000
O O7 0.810710 0.256811 0.639447
O O8 0.832754 0.253690 0.430025
O O9 0.626667 0.839309 0.231812
O O10 0.555631 0.740133 0.152019
O O11 0.566655 0.741486 0.373354
O O12 0.555394 0.000000 0.268090
O O13 0.301711 0.000000 0.776214
O O14 0.949774 0.500000 0.963728
O O15 0.916484 0.747142 0.057183
O O16 0.000000 0.748902 0.000000
O O17 0.057650 0.500000 0.496908
O O18 0.079407 0.241434 0.586427
O O19 0.000000 0.266652 0.500000
O O20 0.371363 0.730506 0.239300
O O21 0.375703 0.000000 0.142541
O O22 0.128162 0.000000 0.622550
#
# Coordination Sequence:
#
# PCOD8105007 Si02
#       8
#     8   8   8   8   8   8   8   8
#     4  12  26  43  65  93 127 165 210 256 315 379
#     4  11  24  43  67  94 126 163 212 263 315 375
#     4   9  16  33  59  89 122 155 200 258 308 356
#     4  10  20  40  66  90 122 161 206 260 312 365
#     4   9  18  32  59  95 123 153 199 256 310 362
#     4  10  21  38  65  96 125 164 216 266 315 374
#     4  11  23  42  66  91 124 165 214 264 316 373
#     4  12  26  43  62  89 131 172 211 259 322 386
#
# _framework density 20.127704000000001
#
# number of rings (size 3 to 8) (size 9 to 14) (size 15 to 20)
#    0.000    1.500    2.500    3.000    3.500    1.250 
#    0.000    0.000    0.000    1.500    0.000    0.000 
#    0.000    0.000    0.000    0.000    0.000    0.000 
#
# Total GULP energy -396768.346923 kJ/mol
# GULP energy per Si atom -12399.010841 kJ/mol
# Density = 2.008189 g / cm^3
# Si number density = 20.127704 Si / 1000 Ang^3
#
#
#
# Elastic Constant Matrix: (Units=GPa)
#
#
# Indices 1 2 3 4 5 6 
#
# 1 137.5598 23.7548 52.9762 0.0000 2.8006 0.0000
# 2 23.7548 59.3042 20.7656 0.0000 -3.7956 0.0000
# 3 52.9762 20.7656 144.4336 0.0000 0.6951 0.0000
# 4 0.0000 0.0000 0.0000 16.7235 0.0000 -1.3316
# 5 2.8006 -3.7956 0.6951 0.0000 36.2668 0.0000
# 6 0.0000 0.0000 0.0000 -1.3316 0.0000 22.8714
#
#
#
# Elastic Compliance Matrix: (Units=1/GPa)
#
#
# Indices 1 2 3 4 5 6 
#
# 1 0.008839 -0.002595 -0.002865 0.000000 -0.000899 0.000000
# 2 -0.002595 0.018651 -0.001740 0.000000 0.002186 0.000000
# 3 -0.002865 -0.001740 0.008225 0.000000 -0.000119 0.000000
# 4 0.000000 0.000000 0.000000 0.060075 0.000000 0.003498
# 5 -0.000899 0.002186 -0.000119 0.000000 0.027874 0.000000
# 6 0.000000 0.000000 0.000000 0.003498 0.000000 0.043926
#
#
# Mechanical properties :
#
#
# Convention : Reuss Voigt Hill
#
# Bulk Modulus (GPa) = 46.91458 59.58787 53.25123
# Shear Modulus (GPa) = 26.44174 31.42574 28.93374
#
# Velocity S-wave (km/s) = 3.62843 3.95564 3.79556
# Velocity P-wave (km/s) = 6.39633 7.10858 6.76184
#
# Compressibility (1/GPa) = 0.02131533
#
# Stress axis : x y z
#
# Youngs Moduli (GPa) = 113.13181 53.61668 121.57943
#
# Poissons Ratio (x) = 0.13914 0.34829
# Poissons Ratio (y) = 0.29359 0.21157
# Poissons Ratio (z) = 0.32409 0.09330
#
# Static dielectric constant tensor:
#      x y z
#    x 3.694650 0.000000 0.020710 
#    y 0.000000 4.295200 0.000000 
#    z 0.020710 0.000000 3.892260 
# 
# 
# High freq. dielectric constant tensor:
#      x y z
#    x 1.795830 0.000000 0.002140 
#    y 0.000000 1.756460 0.000000 
#    z 0.002140 0.000000 1.807000 
# 
# From -- ./inp_files/187468.got.cif
#   From: 2010.06.25/outbox.cif.g09.slc.cpg/sg12_94_cif.got.tgz:187468.got - 2010.06.28 00:19:55.
