data_PCOD8105447
_publ_section_title
;
Structure prediction by ZEFSAII (Michael W. Deem and Ramdas Pophale) SiO2 
 PCOD8105447
Probable space group: C 2/M
;
_chemical_formula_sum "Si O2"
_cell_formula_units_Z 44
_cell_length_a 22.631058
_cell_length_b 9.625536
_cell_length_c 11.376450
_cell_angle_alpha 90.000000
_cell_angle_beta 78.458189
_cell_angle_gamma 90.000000
_cell_volume 2428.089274
_symmetry_space_group_name_H-M "C 2/M"
_symmetry_group_IT_number 12
_symmetry_cell_setting 'monoclinic'
loop_
_space_group_symop_operation_xyz
x,y,z
-x,y,-z
-x,-y,-z
x,-y,z
1/2+x,1/2+y,z
1/2-x,1/2+y,-z
1/2-x,1/2-y,-z
1/2+x,1/2-y,z
loop_
_atom_site_type_symbol
_atom_site_label
_atom_site_fract_x
_atom_site_fract_y
_atom_site_fract_z
Si Si1 0.732856 0.500000 0.600159
Si Si2 0.923630 0.000000 0.903885
Si Si3 0.337887 0.000000 0.725096
Si Si4 0.642349 0.265405 0.683831
Si Si5 0.663592 0.730237 0.130661
Si Si6 0.208916 0.346182 0.878281
Si Si7 0.935072 0.000000 0.173692
Si Si8 0.358119 0.000000 0.459339
O O1 0.766180 0.500000 0.716526
O O2 0.692040 0.362944 0.601294
O O3 0.784347 0.500000 0.479045
O O4 0.894617 0.132976 0.852054
O O5 0.993567 0.000000 0.846937
O O6 0.911911 0.000000 0.048544
O O7 0.356272 0.869651 0.796609
O O8 0.377396 0.000000 0.589227
O O9 0.671865 0.182988 0.777506
O O10 0.587981 0.361548 0.751574
O O11 0.617412 0.143791 0.607515
O O12 0.719863 0.665817 0.179495
O O13 0.687299 0.743750 0.988367
O O14 0.194152 0.500000 0.928725
#
# Coordination Sequence:
#
# PCOD8105447 Si02
#       8
#     4   4   4   8   8   8   4   4
#     4   9  20  31  51  85 118 151 179 227 281 343
#     4  11  22  41  59  82 115 156 190 223 291 343
#     4  10  21  35  50  85 115 146 186 228 279 336
#     4  11  19  35  57  85 121 149 189 232 285 334
#     4  11  21  33  55  82 122 150 180 232 281 355
#     4  11  19  28  53  90 117 147 178 227 299 341
#     4  10  24  39  59  85 112 151 194 236 276 345
#     4  10  21  34  57  82 117 156 189 233 284 338
#
# _framework density 18.121244000000001
#
# number of rings (size 3 to 8) (size 9 to 14) (size 15 to 20)
#    0.545    0.909    6.364    0.545    0.000    0.000 
#    0.000    2.727    0.000    6.545    0.000    0.000 
#    0.000    0.000    0.000    0.000    0.000    0.000 
#
# Total GULP energy -272706.910571 kJ/mol
# GULP energy per Si atom -12395.768662 kJ/mol
# Density = 1.808000 g / cm^3
# Si number density = 18.121244 Si / 1000 Ang^3
#
#
#
# Elastic Constant Matrix: (Units=GPa)
#
#
# Indices 1 2 3 4 5 6 
#
# 1 76.1840 44.2526 28.5718 0.0000 -5.2223 0.0000
# 2 44.2526 141.0495 43.1876 0.0000 -2.8249 0.0000
# 3 28.5718 43.1876 80.8609 0.0000 -1.6020 0.0000
# 4 0.0000 0.0000 0.0000 15.0952 0.0000 -0.9663
# 5 -5.2223 -2.8249 -1.6020 0.0000 22.7065 0.0000
# 6 0.0000 0.0000 0.0000 -0.9663 0.0000 19.7463
#
#
#
# Elastic Compliance Matrix: (Units=1/GPa)
#
#
# Indices 1 2 3 4 5 6 
#
# 1 0.017184 -0.004170 -0.003782 0.000000 0.003167 0.000000
# 2 -0.004170 0.009500 -0.003601 0.000000 -0.000031 0.000000
# 3 -0.003782 -0.003601 0.015622 0.000000 -0.000216 0.000000
# 4 0.000000 0.000000 0.000000 0.066455 0.000000 0.003252
# 5 0.003167 -0.000031 -0.000216 0.000000 0.044750 0.000000
# 6 0.000000 0.000000 0.000000 0.003252 0.000000 0.050801
#
#
# Mechanical properties :
#
#
# Convention : Reuss Voigt Hill
#
# Bulk Modulus (GPa) = 52.08285 58.90203 55.49244
# Shear Modulus (GPa) = 21.38422 23.64841 22.51632
#
# Velocity S-wave (km/s) = 3.43893 3.61641 3.52879
# Velocity P-wave (km/s) = 6.67623 7.07198 6.87695
#
# Compressibility (1/GPa) = 0.01920018
#
# Stress axis : x y z
#
# Youngs Moduli (GPa) = 58.19495 105.26409 64.01085
#
# Poissons Ratio (x) = 0.43892 0.24209
# Poissons Ratio (y) = 0.24266 0.23051
# Poissons Ratio (z) = 0.22009 0.37907
#
# Static dielectric constant tensor:
#      x y z
#    x 2.987670 0.000000 0.048930 
#    y 0.000000 3.433090 0.000000 
#    z 0.048930 0.000000 3.172330 
# 
# 
# High freq. dielectric constant tensor:
#      x y z
#    x 1.662190 0.000000 0.007350 
#    y 0.000000 1.718070 0.000000 
#    z 0.007350 0.000000 1.691180 
# 
# From -- ./inp_files/172008.got.cif
#   From: 2010.06.25/outbox.cif.g09.slc.cpg/sg12_87_cif.got.tgz:172008.got - 2010.06.28 00:19:55.
