data_PCOD8105134
_publ_section_title
;
Structure prediction by ZEFSAII (Michael W. Deem and Ramdas Pophale) SiO2 
 PCOD8105134
Probable space group: C 2/M
;
_chemical_formula_sum "Si O2"
_cell_formula_units_Z 48
_cell_length_a 8.155288
_cell_length_b 27.638522
_cell_length_c 14.053123
_cell_angle_alpha 90.000000
_cell_angle_beta 39.278573
_cell_angle_gamma 90.000000
_cell_volume 2005.364868
_symmetry_space_group_name_H-M "C 2/M"
_symmetry_group_IT_number 12
_symmetry_cell_setting 'monoclinic'
loop_
_space_group_symop_operation_xyz
x,y,z
-x,y,-z
-x,-y,-z
x,-y,z
1/2+x,1/2+y,z
1/2-x,1/2+y,-z
1/2-x,1/2-y,-z
1/2+x,1/2-y,z
loop_
_atom_site_type_symbol
_atom_site_label
_atom_site_fract_x
_atom_site_fract_y
_atom_site_fract_z
Si Si1 0.913394 0.103322 0.935220
Si Si2 0.921465 0.555851 0.191224
Si Si3 0.236869 0.799124 0.562159
Si Si4 0.890836 0.944832 0.321757
Si Si5 0.275506 0.296947 0.922547
Si Si6 0.244422 0.604302 0.560361
O O1 0.136696 0.089670 0.758174
O O2 0.848735 0.159895 0.960407
O O3 0.670093 0.069022 0.015456
O O4 0.000000 0.088226 0.000000
O O5 0.923936 0.500000 0.222995
O O6 0.668535 0.567250 0.243704
O O7 0.965105 0.592380 0.263495
O O8 0.500000 0.808757 0.500000
O O9 0.250000 0.750000 0.500000
O O10 0.214574 0.840551 0.491519
O O11 0.991876 0.794643 0.742704
O O12 0.682050 0.928700 0.495200
O O13 0.850021 0.000000 0.311071
O O14 0.250000 0.250000 0.000000
O O15 0.000000 0.308019 0.000000
O O16 0.500000 0.585126 0.500000
#
# Coordination Sequence:
#
# PCOD8105134 Si02
#       6
#     8   8   8   8   8   8
#     4  12  26  41  64  97 139 181 232 286 346 409
#     4  10  22  39  66  98 133 182 233 287 346 412
#     4  12  27  46  73 105 142 181 229 288 350 415
#     4  10  20  41  66  95 133 178 231 286 343 413
#     4  12  27  48  75 104 141 183 231 288 350 418
#     4  10  22  40  68  99 136 177 230 284 346 414
#
# _framework density 23.935794000000001
#
# number of rings (size 3 to 8) (size 9 to 14) (size 15 to 20)
#    0.000    1.000    1.667    4.500    7.000    4.667 
#    0.000    0.000    0.000    3.000    0.000    0.000 
#    0.000    0.000    0.000    0.000    0.000    0.000 
#
# Total GULP energy -297526.228991 kJ/mol
# GULP energy per Si atom -12396.926208 kJ/mol
# Density = 2.388131 g / cm^3
# Si number density = 23.935794 Si / 1000 Ang^3
#
#
#
# Elastic Constant Matrix: (Units=GPa)
#
#
# Indices 1 2 3 4 5 6 
#
# 1 48.0333 13.8555 21.5385 0.0000 24.4950 0.0000
# 2 13.8555 145.7887 26.6616 0.0000 31.1878 0.0000
# 3 21.5385 26.6616 123.2122 0.0000 14.0943 0.0000
# 4 0.0000 0.0000 0.0000 40.3971 0.0000 11.0607
# 5 24.4950 31.1878 14.0943 0.0000 42.5228 0.0000
# 6 0.0000 0.0000 0.0000 11.0607 0.0000 31.5491
#
#
#
# Elastic Compliance Matrix: (Units=1/GPa)
#
#
# Indices 1 2 3 4 5 6 
#
# 1 0.031143 0.001538 -0.003737 0.000000 -0.017829 0.000000
# 2 0.001538 0.008363 -0.001326 0.000000 -0.006580 0.000000
# 3 -0.003737 -0.001326 0.009042 0.000000 0.000128 0.000000
# 4 0.000000 0.000000 0.000000 0.027383 0.000000 -0.009600
# 5 -0.017829 -0.006580 0.000128 0.000000 0.038571 0.000000
# 6 0.000000 0.000000 0.000000 -0.009600 0.000000 0.035062
#
#
# Mechanical properties :
#
#
# Convention : Reuss Voigt Hill
#
# Bulk Modulus (GPa) = 24.09797 49.01614 36.55706
# Shear Modulus (GPa) = 29.33463 39.89239 34.61351
#
# Velocity S-wave (km/s) = 3.50459 4.08688 3.80689
# Velocity P-wave (km/s) = 5.14449 6.54162 5.88467
#
# Compressibility (1/GPa) = 0.04149727
#
# Stress axis : x y z
#
# Youngs Moduli (GPa) = 32.10970 119.57087 110.59991
#
# Poissons Ratio (x) = -0.18387 0.41335
# Poissons Ratio (y) = -0.04938 0.14663
# Poissons Ratio (z) = 0.12001 0.15853
#
# Static dielectric constant tensor:
#      x y z
#    x 4.783280 0.000000 0.455980 
#    y 0.000000 4.182640 0.000000 
#    z 0.455980 0.000000 4.980080 
# 
# 
# High freq. dielectric constant tensor:
#      x y z
#    x 1.955480 0.000000 0.008880 
#    y 0.000000 1.949710 0.000000 
#    z 0.008880 0.000000 1.970460 
# 
# From -- ./inp_files/200114.got.cif
#   From: 2010.06.25/outbox.cif.g09.slc.cpg/sg12_101_cif.got.tgz:200114.got - 2010.06.28 00:19:55.
