data_PCOD8105497
_publ_section_title
;
Structure prediction by ZEFSAII (Michael W. Deem and Ramdas Pophale) SiO2 
 PCOD8105497
Probable space group: C 2/M
;
_chemical_formula_sum "Si O2"
_cell_formula_units_Z 64
_cell_length_a 13.412277
_cell_length_b 10.479425
_cell_length_c 24.711152
_cell_angle_alpha 90.000000
_cell_angle_beta 90.797498
_cell_angle_gamma 90.000000
_cell_volume 3472.888892
_symmetry_space_group_name_H-M "C 2/M"
_symmetry_group_IT_number 12
_symmetry_cell_setting 'monoclinic'
loop_
_space_group_symop_operation_xyz
x,y,z
-x,y,-z
-x,-y,-z
x,-y,z
1/2+x,1/2+y,z
1/2-x,1/2+y,-z
1/2-x,1/2-y,-z
1/2+x,1/2-y,z
loop_
_atom_site_type_symbol
_atom_site_label
_atom_site_fract_x
_atom_site_fract_y
_atom_site_fract_z
Si Si1 0.894248 0.144985 0.786135
Si Si2 0.384904 0.643283 0.237758
Si Si3 0.387433 0.144649 0.515205
Si Si4 0.618680 0.143203 0.048370
Si Si5 0.404474 0.149611 0.069101
Si Si6 0.756344 0.214383 0.141160
Si Si7 0.769804 0.354412 0.301066
Si Si8 0.775896 0.144916 0.575624
O O1 0.838161 0.215650 0.833865
O O2 0.836150 0.163141 0.729151
O O3 0.006864 0.194752 0.779680
O O4 0.898064 0.000000 0.804775
O O5 0.392616 0.500000 0.263771
O O6 0.309345 0.627495 0.186595
O O7 0.347136 0.749450 0.279649
O O8 0.500000 0.171947 0.500000
O O9 0.322112 0.163006 0.461126
O O10 0.357971 0.250008 0.559644
O O11 0.374669 0.000000 0.538255
O O12 0.518125 0.205037 0.073502
O O13 0.712875 0.140908 0.089037
O O14 0.586592 0.000000 0.035471
O O15 0.642426 0.200608 0.988703
O O16 0.341962 0.193758 0.120156
O O17 0.399893 0.000000 0.074704
O O18 0.809693 0.500000 0.291826
O O19 0.755279 0.326528 0.363691
O O20 0.818539 0.000000 0.569889
#
# Coordination Sequence:
#
# PCOD8105497 Si02
#       8
#     8   8   8   8   8   8   8   8
#     4   9  19  34  49  68  96 127 160 200 247 293
#     4  10  21  35  50  72 100 127 158 202 252 295
#     4   9  18  32  50  75 108 140 167 202 250 294
#     4   9  18  31  45  66  94 119 149 193 238 281
#     4   9  18  31  47  67  91 120 154 191 234 285
#     4  11  18  30  50  70  90 122 159 195 236 290
#     4   9  19  36  55  73  97 132 170 207 243 287
#     4   9  18  33  52  75 102 132 171 210 242 286
#
# _framework density 18.428462
#
# number of rings (size 3 to 8) (size 9 to 14) (size 15 to 20)
#    0.000    2.625    0.000    2.625    0.000    2.250 
#    0.000    3.125    0.000    0.000    0.000   10.500 
#    0.000    0.000    0.000    0.000    0.000    0.000 
#
# Total GULP energy -396496.548773 kJ/mol
# GULP energy per Si atom -12390.517149 kJ/mol
# Density = 1.838652 g / cm^3
# Si number density = 18.428462 Si / 1000 Ang^3
#
#
#
# Elastic Constant Matrix: (Units=GPa)
#
#
# Indices 1 2 3 4 5 6 
#
# 1 86.4135 43.0622 26.2116 0.0000 -19.6384 0.0000
# 2 43.0622 93.5373 45.3424 0.0000 -21.7625 0.0000
# 3 26.2116 45.3424 87.9215 0.0000 -12.6559 0.0000
# 4 0.0000 0.0000 0.0000 29.5554 0.0000 2.4288
# 5 -19.6384 -21.7625 -12.6559 0.0000 23.1899 0.0000
# 6 0.0000 0.0000 0.0000 2.4288 0.0000 32.5000
#
#
#
# Elastic Compliance Matrix: (Units=1/GPa)
#
#
# Indices 1 2 3 4 5 6 
#
# 1 0.016336 -0.005024 -0.001049 0.000000 0.008548 0.000000
# 2 -0.005024 0.018411 -0.006644 0.000000 0.009397 0.000000
# 3 -0.001049 -0.006644 0.015289 0.000000 0.001220 0.000000
# 4 0.000000 0.000000 0.000000 0.034044 0.000000 -0.002544
# 5 0.008548 0.009397 0.001220 0.000000 0.059845 0.000000
# 6 0.000000 0.000000 0.000000 -0.002544 0.000000 0.030959
#
#
# Mechanical properties :
#
#
# Convention : Reuss Voigt Hill
#
# Bulk Modulus (GPa) = 40.64752 55.23384 47.94068
# Shear Modulus (GPa) = 23.97855 27.26614 25.62234
#
# Velocity S-wave (km/s) = 3.61109 3.85069 3.73281
# Velocity P-wave (km/s) = 6.28422 7.05744 6.68202
#
# Compressibility (1/GPa) = 0.02460175
#
# Stress axis : x y z
#
# Youngs Moduli (GPa) = 61.21292 54.31552 65.40739
#
# Poissons Ratio (x) = 0.27286 0.06862
# Poissons Ratio (y) = 0.30751 0.43460
# Poissons Ratio (z) = 0.06422 0.36090
#
# Static dielectric constant tensor:
#      x y z
#    x 3.417880 0.000000 -0.009830 
#    y 0.000000 3.306680 0.000000 
#    z -0.009830 0.000000 3.343480 
# 
# 
# High freq. dielectric constant tensor:
#      x y z
#    x 1.717880 0.000000 0.003840 
#    y 0.000000 1.702610 0.000000 
#    z 0.003840 0.000000 1.710980 
# 
# From -- ./inp_files/335212.got.cif
#   From: 2010.06.25/outbox.cif.g09.slc.cpg/sg12_168_cif.got.tgz:335212.got - 2010.06.28 00:19:55.
