data_PCOD8105624
_publ_section_title
;
Structure prediction by ZEFSAII (Michael W. Deem and Ramdas Pophale) SiO2 
 PCOD8105624
Probable space group: C 2/M
;
_chemical_formula_sum "Si O2"
_cell_formula_units_Z 48
_cell_length_a 18.849363
_cell_length_b 8.786259
_cell_length_c 15.091461
_cell_angle_alpha 90.000000
_cell_angle_beta 90.398232
_cell_angle_gamma 90.000000
_cell_volume 2499.317757
_symmetry_space_group_name_H-M "C 2/M"
_symmetry_group_IT_number 12
_symmetry_cell_setting 'monoclinic'
loop_
_space_group_symop_operation_xyz
x,y,z
-x,y,-z
-x,-y,-z
x,-y,z
1/2+x,1/2+y,z
1/2-x,1/2+y,-z
1/2-x,1/2-y,-z
1/2+x,1/2-y,z
loop_
_atom_site_type_symbol
_atom_site_label
_atom_site_fract_x
_atom_site_fract_y
_atom_site_fract_z
Si Si1 0.326000 0.178567 0.845398
Si Si2 0.421019 0.820463 0.007089
Si Si3 0.664389 0.325865 0.843070
Si Si4 0.170425 0.180134 0.341954
Si Si5 0.679173 0.321320 0.641071
Si Si6 0.416889 0.177262 0.507122
O O1 0.244945 0.211259 0.871365
O O2 0.346932 0.269800 0.757920
O O3 0.337304 0.000000 0.826322
O O4 0.374092 0.242733 0.925447
O O5 0.388348 0.776851 0.100966
O O6 0.423072 0.000000 0.000744
O O7 0.500000 0.751798 0.000000
O O8 0.645893 0.500000 0.862925
O O9 0.652929 0.286289 0.740135
O O10 0.245797 0.241768 0.376917
O O11 0.108712 0.247662 0.402203
O O12 0.170612 0.000000 0.349057
O O13 0.690154 0.500000 0.625959
O O14 0.620106 0.257064 0.576050
O O15 0.500000 0.206495 0.500000
O O16 0.397748 0.000000 0.506699
#
# Coordination Sequence:
#
# PCOD8105624 Si02
#       6
#     8   8   8   8   8   8
#     4   9  19  37  57  79 109 143 183 229 276 325
#     4  10  21  35  53  79 111 146 181 222 274 330
#     4   9  19  35  56  80 106 140 180 226 273 319
#     4  11  22  37  60  86 111 144 188 233 278 330
#     4  10  21  39  61  85 114 145 183 231 280 330
#     4  11  24  40  58  82 114 151 187 226 276 331
#
# _framework density 19.20524
#
# number of rings (size 3 to 8) (size 9 to 14) (size 15 to 20)
#    0.000    2.000    0.000    4.500    0.000    7.000 
#    0.000    5.000    0.000    0.000    0.000    0.000 
#    0.000    0.000    0.000    0.000    0.000    0.000 
#
# Total GULP energy -297699.108546 kJ/mol
# GULP energy per Si atom -12404.129523 kJ/mol
# Density = 1.916153 g / cm^3
# Si number density = 19.205240 Si / 1000 Ang^3
#
#
#
# Elastic Constant Matrix: (Units=GPa)
#
#
# Indices 1 2 3 4 5 6 
#
# 1 112.2352 58.5836 69.6195 0.0000 -16.0215 0.0000
# 2 58.5836 110.1908 53.9046 0.0000 -9.2573 0.0000
# 3 69.6195 53.9046 108.3548 0.0000 -14.3521 0.0000
# 4 0.0000 0.0000 0.0000 32.3973 0.0000 -3.0950
# 5 -16.0215 -9.2573 -14.3521 0.0000 19.7918 0.0000
# 6 0.0000 0.0000 0.0000 -3.0950 0.0000 25.7119
#
#
#
# Elastic Compliance Matrix: (Units=1/GPa)
#
#
# Indices 1 2 3 4 5 6 
#
# 1 0.017101 -0.004762 -0.007833 0.000000 0.005936 0.000000
# 2 -0.004762 0.013356 -0.003615 0.000000 -0.000229 0.000000
# 3 -0.007833 -0.003615 0.016590 0.000000 0.003998 0.000000
# 4 0.000000 0.000000 0.000000 0.031226 0.000000 0.003759
# 5 0.005936 -0.000229 0.003998 0.000000 0.058124 0.000000
# 6 0.000000 0.000000 0.000000 0.003759 0.000000 0.039345
#
#
# Mechanical properties :
#
#
# Convention : Reuss Voigt Hill
#
# Bulk Modulus (GPa) = 68.36291 77.22178 72.79235
# Shear Modulus (GPa) = 23.47009 25.49174 24.48091
#
# Velocity S-wave (km/s) = 3.49960 3.64721 3.57417
# Velocity P-wave (km/s) = 7.21130 7.61789 7.41738
#
# Compressibility (1/GPa) = 0.01462781
#
# Stress axis : x y z
#
# Youngs Moduli (GPa) = 58.47493 74.87247 60.27799
#
# Poissons Ratio (x) = 0.35651 0.47214
# Poissons Ratio (y) = 0.27843 0.21793
# Poissons Ratio (z) = 0.45802 0.27069
#
# Static dielectric constant tensor:
#      x y z
#    x 3.583550 0.000000 0.091660 
#    y 0.000000 3.467430 0.000000 
#    z 0.091660 0.000000 3.587740 
# 
# 
# High freq. dielectric constant tensor:
#      x y z
#    x 1.744950 0.000000 -0.000180 
#    y 0.000000 1.747100 0.000000 
#    z -0.000180 0.000000 1.759160 
# 
# From -- ./inp_files/221545.got.cif
#   From: 2010.06.25/outbox.cif.g09.slc.cpg/sg12_111_cif.got.tgz:221545.got - 2010.06.28 00:19:55.
