data_PCOD8105779
_publ_section_title
;
Structure prediction by ZEFSAII (Michael W. Deem and Ramdas Pophale) SiO2 
 PCOD8105779
Probable space group: C 2/M
;
_chemical_formula_sum "Si O2"
_cell_formula_units_Z 56
_cell_length_a 13.492954
_cell_length_b 14.610042
_cell_length_c 18.009275
_cell_angle_alpha 90.000000
_cell_angle_beta 125.293659
_cell_angle_gamma 90.000000
_cell_volume 2897.691470
_symmetry_space_group_name_H-M "C 2/M"
_symmetry_group_IT_number 12
_symmetry_cell_setting 'monoclinic'
loop_
_space_group_symop_operation_xyz
x,y,z
-x,y,-z
-x,-y,-z
x,-y,z
1/2+x,1/2+y,z
1/2-x,1/2+y,-z
1/2-x,1/2-y,-z
1/2+x,1/2-y,z
loop_
_atom_site_type_symbol
_atom_site_label
_atom_site_fract_x
_atom_site_fract_y
_atom_site_fract_z
Si Si1 0.363725 0.233710 0.409198
Si Si2 0.565282 0.391185 0.167048
Si Si3 0.125406 0.902513 0.511631
Si Si4 0.741216 0.247117 0.794912
Si Si5 0.833800 0.104113 0.633906
Si Si6 0.549202 0.107748 0.104392
Si Si7 0.873140 0.252650 0.097382
O O1 0.500000 0.231943 0.500000
O O2 0.297017 0.324762 0.413550
O O3 0.349693 0.239328 0.314636
O O4 0.297705 0.149237 0.417906
O O5 0.557600 0.500000 0.146133
O O6 0.673353 0.343811 0.166707
O O7 0.582073 0.366404 0.261268
O O8 0.440317 0.338934 0.095734
O O9 0.099408 0.874137 0.414726
O O10 0.000000 0.913356 0.500000
O O11 0.195874 0.000000 0.544345
O O12 0.822326 0.339824 0.829536
O O13 0.653031 0.248739 0.826709
O O14 0.800983 0.000000 0.629076
O O15 0.450541 0.155552 0.115192
O O16 0.565071 0.000000 0.131572
O O17 0.500000 0.119200 0.000000
O O18 0.750000 0.250000 0.000000
#
# Coordination Sequence:
#
# PCOD8105779 Si02
#       7
#     8   8   8   8   8   8   8
#     4  10  21  35  57  82 111 150 192 231 285 337
#     4   9  21  38  60  86 115 153 195 233 288 350
#     4   9  18  31  50  77 109 142 183 231 272 322
#     4  10  22  40  60  85 120 155 191 247 287 341
#     4   9  18  36  56  78 111 149 187 233 280 332
#     4  10  21  40  63  87 118 155 192 237 296 353
#     4  11  22  37  61  88 119 147 191 241 290 343
#
# _framework density 19.325728999999999
#
# number of rings (size 3 to 8) (size 9 to 14) (size 15 to 20)
#    0.000    2.286    1.429    0.429    4.000    2.571 
#    2.571    0.714    0.000    0.000    0.000    0.000 
#    0.000    0.000    0.000    0.000    0.000    0.000 
#
# Total GULP energy -346914.155852 kJ/mol
# GULP energy per Si atom -12389.791280 kJ/mol
# Density = 1.928174 g / cm^3
# Si number density = 19.325729 Si / 1000 Ang^3
#
#
#
# Elastic Constant Matrix: (Units=GPa)
#
#
# Indices 1 2 3 4 5 6 
#
# 1 84.4849 40.0314 31.1775 0.0000 -1.3669 0.0000
# 2 40.0314 106.9218 23.6099 0.0000 11.7935 0.0000
# 3 31.1775 23.6099 75.9451 0.0000 13.6201 0.0000
# 4 0.0000 0.0000 0.0000 28.0594 0.0000 -3.0832
# 5 -1.3669 11.7935 13.6201 0.0000 28.0380 0.0000
# 6 0.0000 0.0000 0.0000 -3.0832 0.0000 23.1664
#
#
#
# Elastic Compliance Matrix: (Units=1/GPa)
#
#
# Indices 1 2 3 4 5 6 
#
# 1 0.016945 -0.005639 -0.006328 0.000000 0.006272 0.000000
# 2 -0.005639 0.012149 -0.000544 0.000000 -0.005121 0.000000
# 3 -0.006328 -0.000544 0.017471 0.000000 -0.008567 0.000000
# 4 0.000000 0.000000 0.000000 0.036168 0.000000 0.004814
# 5 0.006272 -0.005121 -0.008567 0.000000 0.042287 0.000000
# 6 0.000000 0.000000 0.000000 0.004814 0.000000 0.043807
#
#
# Mechanical properties :
#
#
# Convention : Reuss Voigt Hill
#
# Bulk Modulus (GPa) = 46.41808 50.77661 48.59735
# Shear Modulus (GPa) = 24.87225 27.35497 26.11361
#
# Velocity S-wave (km/s) = 3.59137 3.76635 3.67990
# Velocity P-wave (km/s) = 6.42403 6.72644 6.57698
#
# Compressibility (1/GPa) = 0.02154333
#
# Stress axis : x y z
#
# Youngs Moduli (GPa) = 59.01462 82.31419 57.23882
#
# Poissons Ratio (x) = 0.46414 0.36222
# Poissons Ratio (y) = 0.33276 0.03111
# Poissons Ratio (z) = 0.37346 0.04475
#
# Static dielectric constant tensor:
#      x y z
#    x 3.500650 0.000000 -0.266270 
#    y 0.000000 4.283150 0.000000 
#    z -0.266270 0.000000 3.702370 
# 
# 
# High freq. dielectric constant tensor:
#      x y z
#    x 1.745320 0.000000 -0.015110 
#    y 0.000000 1.764850 0.000000 
#    z -0.015110 0.000000 1.746930 
# 
# From -- ./inp_files/246546.got.cif
#   From: 2010.06.25/outbox.cif.g09.slc.cpg/sg12_124_cif.got.tgz:246546.got - 2010.06.28 00:19:55.
