data_PCOD8105678
_publ_section_title
;
Structure prediction by ZEFSAII (Michael W. Deem and Ramdas Pophale) SiO2 
 PCOD8105678
Probable space group: C 2/M
;
_chemical_formula_sum "Si O2"
_cell_formula_units_Z 48
_cell_length_a 31.772539
_cell_length_b 15.853800
_cell_length_c 9.283462
_cell_angle_alpha 90.000000
_cell_angle_beta 28.770434
_cell_angle_gamma 90.000000
_cell_volume 2250.672989
_symmetry_space_group_name_H-M "C 2/M"
_symmetry_group_IT_number 12
_symmetry_cell_setting 'monoclinic'
loop_
_space_group_symop_operation_xyz
x,y,z
-x,y,-z
-x,-y,-z
x,-y,z
1/2+x,1/2+y,z
1/2-x,1/2+y,-z
1/2-x,1/2-y,-z
1/2+x,1/2-y,z
loop_
_atom_site_type_symbol
_atom_site_label
_atom_site_fract_x
_atom_site_fract_y
_atom_site_fract_z
Si Si1 0.991130 0.095304 0.682428
Si Si2 0.991130 0.595304 0.870792
Si Si3 0.848865 0.098416 0.327814
Si Si4 0.151242 0.842247 0.357096
Si Si5 0.848758 0.342247 0.764550
Si Si6 0.848865 0.401584 0.078996
O O1 0.000000 0.141419 0.500000
O O2 0.084213 0.094702 0.482555
O O3 0.960592 0.000000 0.746467
O O4 0.915158 0.136571 0.009437
O O5 0.960592 0.500000 0.989983
O O6 0.084213 0.594702 0.512167
O O7 0.000000 0.641419 0.000000
O O8 0.915158 0.636571 0.999617
O O9 0.862968 0.153462 0.428993
O O10 0.750000 0.109082 0.566521
O O11 0.868889 0.000000 0.302628
O O12 0.130377 0.750000 0.358870
O O13 0.250000 0.870137 0.021611
O O14 0.862969 0.346538 0.893196
O O15 0.868889 0.500000 0.984040
#
# Coordination Sequence:
#
# PCOD8105678 Si02
#       6
#     8   8   8   8   8   8
#     4  10  21  35  54  82 111 141 180 224 270 321
#     4  10  21  35  54  82 111 141 180 224 270 321
#     4   9  18  35  59  83 108 142 182 223 270 325
#     4  10  21  36  54  78 107 141 183 226 269 320
#     4  10  21  36  54  78 107 141 183 226 269 320
#     4   9  18  35  59  83 108 142 182 223 270 325
#
# _framework density 21.326955000000002
#
# number of rings (size 3 to 8) (size 9 to 14) (size 15 to 20)
#    0.000    2.333    0.000    2.000    0.000    8.667 
#    0.000    3.333    0.000    7.000    0.000    0.000 
#    0.000    0.000    0.000    0.000    0.000    0.000 
#
# Total GULP energy -297545.438321 kJ/mol
# GULP energy per Si atom -12397.726597 kJ/mol
# Density = 2.127841 g / cm^3
# Si number density = 21.326955 Si / 1000 Ang^3
#
#
#
# Elastic Constant Matrix: (Units=GPa)
#
#
# Indices 1 2 3 4 5 6 
#
# 1 173.1333 31.0225 99.0582 0.0000 0.8483 0.0000
# 2 31.0225 38.7462 23.5654 0.0000 5.5457 0.0000
# 3 99.0582 23.5654 163.5320 0.0000 6.2922 0.0000
# 4 0.0000 0.0000 0.0000 17.6140 0.0000 1.8067
# 5 0.8483 5.5457 6.2922 0.0000 32.4190 0.0000
# 6 0.0000 0.0000 0.0000 1.8067 0.0000 20.0434
#
#
#
# Elastic Compliance Matrix: (Units=1/GPa)
#
#
# Indices 1 2 3 4 5 6 
#
# 1 0.009583 -0.004746 -0.005181 0.000000 0.001567 0.000000
# 2 -0.004746 0.031184 -0.001429 0.000000 -0.004933 0.000000
# 3 -0.005181 -0.001429 0.009516 0.000000 -0.001467 0.000000
# 4 0.000000 0.000000 0.000000 0.057303 0.000000 -0.005165
# 5 0.001567 -0.004933 -0.001467 0.000000 0.031934 0.000000
# 6 0.000000 0.000000 0.000000 -0.005165 0.000000 0.050357
#
#
# Mechanical properties :
#
#
# Convention : Reuss Voigt Hill
#
# Bulk Modulus (GPa) = 36.27066 75.85597 56.06332
# Shear Modulus (GPa) = 22.54492 28.79962 25.67227
#
# Velocity S-wave (km/s) = 3.25485 3.67875 3.47327
# Velocity P-wave (km/s) = 5.58294 7.32732 6.51379
#
# Compressibility (1/GPa) = 0.02757049
#
# Stress axis : x y z
#
# Youngs Moduli (GPa) = 104.35118 32.06778 105.08728
#
# Poissons Ratio (x) = 0.15219 0.54448
# Poissons Ratio (y) = 0.49522 0.15019
# Poissons Ratio (z) = 0.54067 0.04583
#
# Static dielectric constant tensor:
#      x y z
#    x 4.027680 0.000000 0.015530 
#    y 0.000000 3.410580 0.000000 
#    z 0.015530 0.000000 4.006800 
# 
# 
# High freq. dielectric constant tensor:
#      x y z
#    x 1.842000 0.000000 -0.003820 
#    y 0.000000 1.800620 0.000000 
#    z -0.003820 0.000000 1.847130 
# 
# From -- ./inp_files/112749.got.cif
#   From: 2010.06.25/outbox.cif.g09.slc.cpg/sg12_57_cif.got.tgz:112749.got - 2010.06.28 00:19:55.
