data_PCOD8105274
_publ_section_title
;
Structure prediction by ZEFSAII (Michael W. Deem and Ramdas Pophale) SiO2 
 PCOD8105274
Probable space group: C 2/M
;
_chemical_formula_sum "Si O2"
_cell_formula_units_Z 56
_cell_length_a 24.901517
_cell_length_b 9.198446
_cell_length_c 15.993408
_cell_angle_alpha 90.000000
_cell_angle_beta 56.328706
_cell_angle_gamma 90.000000
_cell_volume 3048.777263
_symmetry_space_group_name_H-M "C 2/M"
_symmetry_group_IT_number 12
_symmetry_cell_setting 'monoclinic'
loop_
_space_group_symop_operation_xyz
x,y,z
-x,y,-z
-x,-y,-z
x,-y,z
1/2+x,1/2+y,z
1/2-x,1/2+y,-z
1/2-x,1/2-y,-z
1/2+x,1/2-y,z
loop_
_atom_site_type_symbol
_atom_site_label
_atom_site_fract_x
_atom_site_fract_y
_atom_site_fract_z
Si Si1 0.488141 0.167647 0.252595
Si Si2 0.720814 0.330737 0.224834
Si Si3 0.753856 0.830102 0.365023
Si Si4 0.535436 0.669100 0.055056
Si Si5 0.658483 0.166566 0.990475
Si Si6 0.377672 0.167213 0.792489
Si Si7 0.844132 0.333010 0.407026
O O1 0.493114 0.261379 0.164867
O O2 0.546227 0.205927 0.266281
O O3 0.419794 0.200093 0.355458
O O4 0.494689 0.000000 0.220005
O O5 0.712448 0.500000 0.251865
O O6 0.745611 0.251228 0.285465
O O7 0.771320 0.300647 0.106897
O O8 0.652407 0.266327 0.254182
O O9 0.816934 0.768578 0.357111
O O10 0.690740 0.798756 0.475492
O O11 0.764357 0.000000 0.339270
O O12 0.542070 0.500000 0.067769
O O13 0.500000 0.703212 0.000000
O O14 0.606769 0.735325 0.987014
O O15 0.638284 0.000000 0.993364
O O16 0.657668 0.203101 0.089490
O O17 0.367266 0.000000 0.775982
O O18 0.832285 0.500000 0.390708
#
# Coordination Sequence:
#
# PCOD8105274 Si02
#       7
#     8   8   8   8   8   8   8
#     4   9  19  36  58  78 102 140 180 216 263 321
#     4  11  22  35  54  80 109 142 182 222 265 315
#     4  10  21  36  56  82 110 139 175 222 271 317
#     4  10  21  33  47  76 112 139 173 218 262 313
#     4   9  20  36  53  74 103 144 185 217 259 315
#     4   9  18  35  55  78 105 137 179 223 267 314
#     4   9  19  38  60  81 106 139 178 220 268 321
#
# _framework density 18.368020000000001
#
# number of rings (size 3 to 8) (size 9 to 14) (size 15 to 20)
#    0.000    2.429    0.000    2.571    2.000    5.714 
#    0.000    0.714    0.000    4.286    0.000    0.000 
#    0.000    0.000    0.000    0.000    0.000    0.000 
#
# Total GULP energy -347256.254957 kJ/mol
# GULP energy per Si atom -12402.009106 kJ/mol
# Density = 1.832621 g / cm^3
# Si number density = 18.368020 Si / 1000 Ang^3
#
#
#
# Elastic Constant Matrix: (Units=GPa)
#
#
# Indices 1 2 3 4 5 6 
#
# 1 93.9734 44.2868 37.8684 0.0000 -9.4205 0.0000
# 2 44.2868 73.9361 21.8033 0.0000 6.6457 0.0000
# 3 37.8684 21.8033 51.5939 0.0000 -7.1076 0.0000
# 4 0.0000 0.0000 0.0000 22.4249 0.0000 5.4897
# 5 -9.4205 6.6457 -7.1076 0.0000 26.6404 0.0000
# 6 0.0000 0.0000 0.0000 5.4897 0.0000 35.8524
#
#
#
# Elastic Compliance Matrix: (Units=1/GPa)
#
#
# Indices 1 2 3 4 5 6 
#
# 1 0.019650 -0.009605 -0.009422 0.000000 0.006831 0.000000
# 2 -0.009605 0.021064 -0.003159 0.000000 -0.009494 0.000000
# 3 -0.009422 -0.003159 0.028323 0.000000 0.005013 0.000000
# 4 0.000000 0.000000 0.000000 0.046330 0.000000 -0.007094
# 5 0.006831 -0.009494 0.005013 0.000000 0.043658 0.000000
# 6 0.000000 0.000000 0.000000 -0.007094 0.000000 0.028978
#
#
# Mechanical properties :
#
#
# Convention : Reuss Voigt Hill
#
# Bulk Modulus (GPa) = 40.54610 47.49117 44.01863
# Shear Modulus (GPa) = 20.78158 24.68653 22.73406
#
# Velocity S-wave (km/s) = 3.36728 3.67003 3.52191
# Velocity P-wave (km/s) = 6.10248 6.62347 6.36830
#
# Compressibility (1/GPa) = 0.02466328
#
# Stress axis : x y z
#
# Youngs Moduli (GPa) = 50.89170 47.47506 35.30655
#
# Poissons Ratio (x) = 0.45601 0.33266
# Poissons Ratio (y) = 0.48883 0.11154
# Poissons Ratio (z) = 0.47950 0.14999
#
# Static dielectric constant tensor:
#      x y z
#    x 3.415520 0.000000 -0.193560 
#    y 0.000000 3.431310 0.000000 
#    z -0.193560 0.000000 3.346270 
# 
# 
# High freq. dielectric constant tensor:
#      x y z
#    x 1.715500 0.000000 -0.007030 
#    y 0.000000 1.717770 0.000000 
#    z -0.007030 0.000000 1.697020 
# 
# From -- ./inp_files/238426.got.cif
#   From: 2010.06.25/outbox.cif.g09.slc.cpg/sg12_120_cif.got.tgz:238426.got - 2010.06.28 00:19:55.
