data_PCOD8105464
_publ_section_title
;
Structure prediction by ZEFSAII (Michael W. Deem and Ramdas Pophale) SiO2 
 PCOD8105464
Probable space group: C 2/M
;
_chemical_formula_sum "Si O2"
_cell_formula_units_Z 48
_cell_length_a 19.192447
_cell_length_b 14.530333
_cell_length_c 11.888698
_cell_angle_alpha 90.000000
_cell_angle_beta 48.204765
_cell_angle_gamma 90.000000
_cell_volume 2471.759256
_symmetry_space_group_name_H-M "C 2/M"
_symmetry_group_IT_number 12
_symmetry_cell_setting 'monoclinic'
loop_
_space_group_symop_operation_xyz
x,y,z
-x,y,-z
-x,-y,-z
x,-y,z
1/2+x,1/2+y,z
1/2-x,1/2+y,-z
1/2-x,1/2-y,-z
1/2+x,1/2-y,z
loop_
_atom_site_type_symbol
_atom_site_label
_atom_site_fract_x
_atom_site_fract_y
_atom_site_fract_z
Si Si1 0.639738 0.500000 0.620606
Si Si2 0.236260 0.500000 0.980878
Si Si3 0.104841 0.329914 0.875596
Si Si4 0.940211 0.000000 0.755163
Si Si5 0.268501 0.000000 0.276915
Si Si6 0.491365 0.303609 0.635573
Si Si7 0.840921 0.305428 0.933030
Si Si8 0.344125 0.698223 0.370130
O O1 0.526394 0.500000 0.749938
O O2 0.675141 0.500000 0.452341
O O3 0.677509 0.591979 0.641513
O O4 0.174536 0.412382 0.081319
O O5 0.339349 0.500000 0.927813
O O6 0.260349 0.500000 0.822007
O O7 0.170296 0.410659 0.758361
O O8 0.103449 0.246035 0.789488
O O9 0.141335 0.291581 0.954362
O O10 0.000000 0.368963 0.000000
O O11 0.946257 0.094309 0.676957
O O12 0.500000 0.266170 0.500000
O O13 0.427742 0.231333 0.769754
O O14 0.591990 0.305013 0.587097
O O15 0.750000 0.250000 0.000000
O O16 0.250000 0.750000 0.500000
#
# Coordination Sequence:
#
# PCOD8105464 Si02
#       8
#     4   4   8   4   4   8   8   8
#     4  10  22  36  57  94 121 154 202 253 306 357
#     4  10  22  36  60  91 120 156 206 254 293 355
#     4  11  22  41  62  89 121 160 205 250 305 357
#     4  10  21  34  61  91 120 151 199 260 302 347
#     4  10  21  35  62  91 115 150 208 264 294 343
#     4  11  24  39  63  93 123 158 201 255 306 360
#     4  11  23  40  62  90 124 160 203 248 304 362
#     4  11  23  40  62  89 126 160 201 249 305 368
#
# _framework density 19.419366
#
# number of rings (size 3 to 8) (size 9 to 14) (size 15 to 20)
#    0.000    1.333    5.000    0.500    7.000    0.000 
#    0.000    3.333    0.000    0.000    0.000    0.000 
#    0.000    0.000    0.000    0.000    0.000    0.000 
#
# Total GULP energy -297618.353070 kJ/mol
# GULP energy per Si atom -12400.764711 kJ/mol
# Density = 1.937517 g / cm^3
# Si number density = 19.419366 Si / 1000 Ang^3
#
#
#
# Elastic Constant Matrix: (Units=GPa)
#
#
# Indices 1 2 3 4 5 6 
#
# 1 95.5619 42.1648 30.7821 0.0000 -5.8426 0.0000
# 2 42.1648 155.6284 50.3941 0.0000 -1.0807 0.0000
# 3 30.7821 50.3941 78.3320 0.0000 -3.8871 0.0000
# 4 0.0000 0.0000 0.0000 31.6808 0.0000 -6.8881
# 5 -5.8426 -1.0807 -3.8871 0.0000 36.2399 0.0000
# 6 0.0000 0.0000 0.0000 -6.8881 0.0000 28.6874
#
#
#
# Elastic Compliance Matrix: (Units=1/GPa)
#
#
# Indices 1 2 3 4 5 6 
#
# 1 0.012686 -0.002321 -0.003412 0.000000 0.001610 0.000000
# 2 -0.002321 0.008545 -0.004616 0.000000 -0.000614 0.000000
# 3 -0.003412 -0.004616 0.017134 0.000000 0.001150 0.000000
# 4 0.000000 0.000000 0.000000 0.033304 0.000000 0.007996
# 5 0.001610 -0.000614 0.001150 0.000000 0.027958 0.000000
# 6 0.000000 0.000000 0.000000 0.007996 0.000000 0.036779
#
#
# Mechanical properties :
#
#
# Convention : Reuss Voigt Hill
#
# Bulk Modulus (GPa) = 56.60321 64.02270 60.31296
# Shear Modulus (GPa) = 30.67651 33.06704 31.87177
#
# Velocity S-wave (km/s) = 3.97884 4.13096 4.05561
# Velocity P-wave (km/s) = 7.09361 7.46948 7.28397
#
# Compressibility (1/GPa) = 0.01766684
#
# Stress axis : x y z
#
# Youngs Moduli (GPa) = 78.82663 117.03168 58.36517
#
# Poissons Ratio (x) = 0.27163 0.19915
# Poissons Ratio (y) = 0.18296 0.26939
# Poissons Ratio (z) = 0.26897 0.54017
#
# Static dielectric constant tensor:
#      x y z
#    x 3.521330 0.000000 -0.178960 
#    y 0.000000 3.834840 0.000000 
#    z -0.178960 0.000000 3.431540 
# 
# 
# High freq. dielectric constant tensor:
#      x y z
#    x 1.749640 0.000000 -0.023260 
#    y 0.000000 1.768700 0.000000 
#    z -0.023260 0.000000 1.745450 
# 
# From -- ./inp_files/167592.got.cif
#   From: 2010.06.25/outbox.cif.g09.slc.cpg/sg12_84_cif.got.tgz:167592.got - 2010.06.28 00:19:55.
