data_PCOD8105180
_publ_section_title
;
Structure prediction by ZEFSAII (Michael W. Deem and Ramdas Pophale) SiO2 
 PCOD8105180
Probable space group: C 2/M
;
_chemical_formula_sum "Si O2"
_cell_formula_units_Z 28
_cell_length_a 5.127263
_cell_length_b 31.050762
_cell_length_c 8.852565
_cell_angle_alpha 90.000000
_cell_angle_beta 59.913059
_cell_angle_gamma 90.000000
_cell_volume 1219.485025
_symmetry_space_group_name_H-M "C 2/M"
_symmetry_group_IT_number 12
_symmetry_cell_setting 'monoclinic'
loop_
_space_group_symop_operation_xyz
x,y,z
-x,y,-z
-x,-y,-z
x,-y,z
1/2+x,1/2+y,z
1/2-x,1/2+y,-z
1/2-x,1/2-y,-z
1/2+x,1/2-y,z
loop_
_atom_site_type_symbol
_atom_site_label
_atom_site_fract_x
_atom_site_fract_y
_atom_site_fract_z
Si Si1 0.907818 0.269231 0.805255
Si Si2 0.850674 0.000000 0.878454
Si Si3 0.717862 0.408834 0.193525
Si Si4 0.608385 0.861721 0.303983
O O1 0.750552 0.247710 0.705008
O O2 0.892567 0.320835 0.807130
O O3 0.750000 0.250000 0.000000
O O4 0.929419 0.956879 0.760845
O O5 0.500000 0.000000 0.000000
O O6 0.000000 0.000000 0.000000
O O7 0.449873 0.378675 0.211814
O O8 0.857869 0.395896 0.315511
O O9 0.000000 0.405439 0.000000
O O10 0.500000 0.847486 0.500000
#
# Coordination Sequence:
#
# PCOD8105180 Si02
#       4
#     8   4   8   8
#     4  10  23  40  63  92 127 168 231 270 328 394
#     4  10  20  42  65 106 133 168 231 282 313 382
#     4  11  24  42  73  97 133 180 226 273 329 396
#     4  12  26  43  65 102 140 173 220 282 343 398
#
# _framework density 22.960511
#
# number of rings (size 3 to 8) (size 9 to 14) (size 15 to 20)
#    0.000    1.143    0.000    6.857   12.000    1.143 
#    0.000    4.286    0.000    0.000    0.000    0.000 
#    0.000    0.000    0.000    0.000    0.000    0.000 
#
# Total GULP energy -173510.213003 kJ/mol
# GULP energy per Si atom -12393.586643 kJ/mol
# Density = 2.290825 g / cm^3
# Si number density = 22.960511 Si / 1000 Ang^3
#
#
#
# Elastic Constant Matrix: (Units=GPa)
#
#
# Indices 1 2 3 4 5 6 
#
# 1 221.4680 72.3120 17.3757 0.0000 14.6945 0.0000
# 2 72.3120 169.0633 49.7798 0.0000 6.4442 0.0000
# 3 17.3757 49.7798 55.1026 0.0000 11.5942 0.0000
# 4 0.0000 0.0000 0.0000 12.8645 0.0000 8.7030
# 5 14.6945 6.4442 11.5942 0.0000 30.8077 0.0000
# 6 0.0000 0.0000 0.0000 8.7030 0.0000 48.0258
#
#
#
# Elastic Compliance Matrix: (Units=1/GPa)
#
#
# Indices 1 2 3 4 5 6 
#
# 1 0.005426 -0.002556 0.001119 0.000000 -0.002475 0.000000
# 2 -0.002556 0.009300 -0.008083 0.000000 0.002316 0.000000
# 3 0.001119 -0.008083 0.026991 0.000000 -0.009001 0.000000
# 4 0.000000 0.000000 0.000000 0.088594 0.000000 -0.016055
# 5 -0.002475 0.002316 -0.009001 0.000000 0.036543 0.000000
# 6 0.000000 0.000000 0.000000 -0.016055 0.000000 0.023731
#
#
# Mechanical properties :
#
#
# Convention : Reuss Voigt Hill
#
# Bulk Modulus (GPa) = 44.09750 80.50768 62.30259
# Shear Modulus (GPa) = 23.02185 38.75069 30.88627
#
# Velocity S-wave (km/s) = 3.16993 4.11263 3.67166
# Velocity P-wave (km/s) = 5.71362 7.59548 6.72074
#
# Compressibility (1/GPa) = 0.02267702
#
# Stress axis : x y z
#
# Youngs Moduli (GPa) = 184.28706 107.52834 37.04931
#
# Poissons Ratio (x) = 0.27484 -0.04145
# Poissons Ratio (y) = 0.47104 0.29946
# Poissons Ratio (z) = -0.20616 0.86913
#
# Static dielectric constant tensor:
#      x y z
#    x 7.340310 0.000000 0.852830 
#    y 0.000000 5.092370 0.000000 
#    z 0.852830 0.000000 3.795480 
# 
# 
# High freq. dielectric constant tensor:
#      x y z
#    x 1.946900 0.000000 0.007090 
#    y 0.000000 1.916150 0.000000 
#    z 0.007090 0.000000 1.863570 
# 
# From -- ./inp_files/33961.got.cif
#   From: 2010.06.25/outbox.cif.g09.slc.cpg/sg12_17_cif.got.tgz:33961.got - 2010.06.28 00:19:55.
