data_PCOD8105599
_publ_section_title
;
Structure prediction by ZEFSAII (Michael W. Deem and Ramdas Pophale) SiO2 
 PCOD8105599
Probable space group: C 2/M
;
_chemical_formula_sum "Si O2"
_cell_formula_units_Z 64
_cell_length_a 20.105776
_cell_length_b 9.028893
_cell_length_c 18.995523
_cell_angle_alpha 90.000000
_cell_angle_beta 86.374687
_cell_angle_gamma 90.000000
_cell_volume 3441.411930
_symmetry_space_group_name_H-M "C 2/M"
_symmetry_group_IT_number 12
_symmetry_cell_setting 'monoclinic'
loop_
_space_group_symop_operation_xyz
x,y,z
-x,y,-z
-x,-y,-z
x,-y,z
1/2+x,1/2+y,z
1/2-x,1/2+y,-z
1/2-x,1/2-y,-z
1/2+x,1/2-y,z
loop_
_atom_site_type_symbol
_atom_site_label
_atom_site_fract_x
_atom_site_fract_y
_atom_site_fract_z
Si Si1 0.232966 0.827126 0.697797
Si Si2 0.110304 0.827697 0.803990
Si Si3 0.953116 0.328763 0.439485
Si Si4 0.996648 0.824227 0.295037
Si Si5 0.143204 0.173223 0.243120
Si Si6 0.199412 0.327343 0.555953
Si Si7 0.170352 0.826006 0.937347
Si Si8 0.191149 0.828429 0.088859
O O1 0.181033 0.795014 0.763144
O O2 0.304340 0.767268 0.716440
O O3 0.206971 0.741582 0.631934
O O4 0.238949 0.000000 0.679220
O O5 0.050225 0.754519 0.763551
O O6 0.115698 0.765606 0.884261
O O7 0.094522 0.000000 0.807125
O O8 0.965957 0.500000 0.420912
O O9 0.972237 0.234348 0.370864
O O10 0.876155 0.301071 0.465628
O O11 0.000000 0.275280 0.500000
O O12 0.071565 0.773722 0.274740
O O13 0.990246 0.000000 0.297488
O O14 0.146215 0.208735 0.159465
O O15 0.155892 0.000000 0.256419
O O16 0.216827 0.500000 0.558255
O O17 0.250000 0.250000 0.500000
O O18 0.241630 0.762570 0.911980
O O19 0.176819 0.000000 0.925788
O O20 0.150882 0.786406 0.019426
O O21 0.211146 0.000000 0.085620
#
# Coordination Sequence:
#
# PCOD8105599 Si02
#       8
#     8   8   8   8   8   8   8   8
#     4  11  21  36  59  82 109 145 186 232 272 319
#     4   9  17  32  54  79 104 138 185 226 264 319
#     4  10  23  42  60  81 110 143 179 221 267 319
#     4  10  21  38  57  78 109 146 182 222 270 331
#     4  10  21  35  52  81 115 146 181 229 281 326
#     4  11  24  41  61  87 117 145 178 226 273 324
#     4   9  16  29  50  75 103 141 183 224 271 323
#     4   9  17  29  47  75 110 140 176 226 277 323
#
# _framework density 18.597019
#
# number of rings (size 3 to 8) (size 9 to 14) (size 15 to 20)
#    0.000    2.125    2.500    0.750    1.750    1.250 
#    0.000    1.250    0.000    3.750    0.000    0.000 
#    0.000    6.000    0.000    0.000    0.000    0.000 
#
# Total GULP energy -396689.916045 kJ/mol
# GULP energy per Si atom -12396.559876 kJ/mol
# Density = 1.855469 g / cm^3
# Si number density = 18.597019 Si / 1000 Ang^3
#
#
#
# Elastic Constant Matrix: (Units=GPa)
#
#
# Indices 1 2 3 4 5 6 
#
# 1 114.8246 35.6949 45.6631 0.0000 21.6501 0.0000
# 2 35.6949 47.2330 27.5667 0.0000 3.0324 0.0000
# 3 45.6631 27.5667 101.4298 0.0000 27.7002 0.0000
# 4 0.0000 0.0000 0.0000 24.0821 0.0000 -0.4722
# 5 21.6501 3.0324 27.7002 0.0000 35.5041 0.0000
# 6 0.0000 0.0000 0.0000 -0.4722 0.0000 22.5451
#
#
#
# Elastic Compliance Matrix: (Units=1/GPa)
#
#
# Indices 1 2 3 4 5 6 
#
# 1 0.013239 -0.008402 -0.002119 0.000000 -0.005702 0.000000
# 2 -0.008402 0.030962 -0.006747 0.000000 0.007743 0.000000
# 3 -0.002119 -0.006747 0.015423 0.000000 -0.010164 0.000000
# 4 0.000000 0.000000 0.000000 0.041542 0.000000 0.000870
# 5 -0.005702 0.007743 -0.010164 0.000000 0.038911 0.000000
# 6 0.000000 0.000000 0.000000 0.000870 0.000000 0.044374
#
#
# Mechanical properties :
#
#
# Convention : Reuss Voigt Hill
#
# Bulk Modulus (GPa) = 39.86163 53.48187 46.67175
# Shear Modulus (GPa) = 21.99274 26.73044 24.36159
#
# Velocity S-wave (km/s) = 3.44262 3.79535 3.62328
# Velocity P-wave (km/s) = 6.10599 6.93015 6.53108
#
# Compressibility (1/GPa) = 0.02508678
#
# Stress axis : x y z
#
# Youngs Moduli (GPa) = 75.53670 32.29812 64.83976
#
# Poissons Ratio (x) = 0.27136 0.13742
# Poissons Ratio (y) = 0.63463 0.43747
# Poissons Ratio (z) = 0.16009 0.21791
#
# Static dielectric constant tensor:
#      x y z
#    x 3.580680 0.000000 0.266870 
#    y 0.000000 3.305940 0.000000 
#    z 0.266870 0.000000 2.389940 
# 
# 
# High freq. dielectric constant tensor:
#      x y z
#    x 1.712660 0.000000 0.013440 
#    y 0.000000 1.706390 0.000000 
#    z 0.013440 0.000000 1.738780 
# 
# From -- ./inp_files/281374.got.cif
#   From: 2010.06.25/outbox.cif.g09.slc.cpg/sg12_141_cif.got.tgz:281374.got - 2010.06.28 00:19:55.
