data_PCOD8105321
_publ_section_title
;
Structure prediction by ZEFSAII (Michael W. Deem and Ramdas Pophale) SiO2 
 PCOD8105321
Probable space group: C 2/M
;
_chemical_formula_sum "Si O2"
_cell_formula_units_Z 48
_cell_length_a 19.701600
_cell_length_b 13.892609
_cell_length_c 13.269095
_cell_angle_alpha 90.000000
_cell_angle_beta 41.163721
_cell_angle_gamma 90.000000
_cell_volume 2390.523452
_symmetry_space_group_name_H-M "C 2/M"
_symmetry_group_IT_number 12
_symmetry_cell_setting 'monoclinic'
loop_
_space_group_symop_operation_xyz
x,y,z
-x,y,-z
-x,-y,-z
x,-y,z
1/2+x,1/2+y,z
1/2-x,1/2+y,-z
1/2-x,1/2-y,-z
1/2+x,1/2-y,z
loop_
_atom_site_type_symbol
_atom_site_label
_atom_site_fract_x
_atom_site_fract_y
_atom_site_fract_z
Si Si1 0.676253 0.000000 0.051787
Si Si2 0.335879 0.000000 0.650195
Si Si3 0.346401 0.500000 0.030160
Si Si4 0.468694 0.687108 0.919768
Si Si5 0.389272 0.207556 0.598521
Si Si6 0.137670 0.708526 0.608559
Si Si7 0.572353 0.000000 0.670517
Si Si8 0.224143 0.701541 0.922097
O O1 0.715968 0.088446 0.942379
O O2 0.739405 0.000000 0.085674
O O3 0.551942 0.000000 0.206179
O O4 0.208866 0.000000 0.797505
O O5 0.379177 0.098149 0.653018
O O6 0.367452 0.000000 0.500387
O O7 0.417996 0.591003 0.930790
O O8 0.565801 0.714116 0.743777
O O9 0.500000 0.670970 0.000000
O O10 0.384856 0.769737 0.002951
O O11 0.500000 0.250252 0.500000
O O12 0.378523 0.209799 0.491750
O O13 0.308700 0.275513 0.744019
O O14 0.250000 0.750000 0.500000
O O15 0.111714 0.599776 0.680384
O O16 0.250000 0.750000 0.000000
#
# Coordination Sequence:
#
# PCOD8105321 Si02
#       8
#     4   4   4   8   8   8   4   8
#     4  12  24  42  70 103 131 178 232 279 333 407
#     4  10  21  33  63  98 129 158 216 269 338 377
#     4  12  25  40  69 102 139 172 226 293 341 402
#     4  12  25  43  68 100 137 180 227 280 345 406
#     4  11  23  39  67  96 132 172 218 279 336 395
#     4  11  25  45  66  96 136 179 225 278 344 403
#     4  10  24  40  67  97 130 172 228 280 329 404
#     4  12  23  43  68  98 136 176 230 282 338 404
#
# _framework density 20.079284000000001
#
# number of rings (size 3 to 8) (size 9 to 14) (size 15 to 20)
#    0.000    0.667    5.000    2.500    9.333    0.667 
#    0.000    5.417    0.000    0.000    0.000    0.000 
#    0.000    0.000    0.000    0.000    0.000    0.000 
#
# Total GULP energy -297468.233655 kJ/mol
# GULP energy per Si atom -12394.509736 kJ/mol
# Density = 2.003358 g / cm^3
# Si number density = 20.079284 Si / 1000 Ang^3
#
#
#
# Elastic Constant Matrix: (Units=GPa)
#
#
# Indices 1 2 3 4 5 6 
#
# 1 117.4234 46.1097 37.9244 0.0000 -23.5870 0.0000
# 2 46.1097 149.6330 62.5116 0.0000 -13.3161 0.0000
# 3 37.9244 62.5116 145.5689 0.0000 -27.8507 0.0000
# 4 0.0000 0.0000 0.0000 44.8056 0.0000 -9.7450
# 5 -23.5870 -13.3161 -27.8507 0.0000 38.0227 0.0000
# 6 0.0000 0.0000 0.0000 -9.7450 0.0000 31.6625
#
#
#
# Elastic Compliance Matrix: (Units=1/GPa)
#
#
# Indices 1 2 3 4 5 6 
#
# 1 0.010815 -0.002568 -0.000701 0.000000 0.005296 0.000000
# 2 -0.002568 0.008758 -0.003268 0.000000 -0.000920 0.000000
# 3 -0.000701 -0.003268 0.009482 0.000000 0.005366 0.000000
# 4 0.000000 0.000000 0.000000 0.023920 0.000000 0.007362
# 5 0.005296 -0.000920 0.005366 0.000000 0.033194 0.000000
# 6 0.000000 0.000000 0.000000 0.007362 0.000000 0.033849
#
#
# Mechanical properties :
#
#
# Convention : Reuss Voigt Hill
#
# Bulk Modulus (GPa) = 62.57810 78.41296 70.49553
# Shear Modulus (GPa) = 36.12220 40.63679 38.37950
#
# Velocity S-wave (km/s) = 4.24604 4.50357 4.37670
# Velocity P-wave (km/s) = 7.43449 8.13506 7.79265
#
# Compressibility (1/GPa) = 0.01598003
#
# Stress axis : x y z
#
# Youngs Moduli (GPa) = 92.46379 114.18471 105.46055
#
# Poissons Ratio (x) = 0.29327 0.07398
# Poissons Ratio (y) = 0.23748 0.34461
# Poissons Ratio (z) = 0.06486 0.37312
#
# Static dielectric constant tensor:
#      x y z
#    x 3.725900 0.000000 -0.254430 
#    y 0.000000 4.293910 0.000000 
#    z -0.254430 0.000000 3.896790 
# 
# 
# High freq. dielectric constant tensor:
#      x y z
#    x 1.775180 0.000000 -0.016820 
#    y 0.000000 1.791620 0.000000 
#    z -0.016820 0.000000 1.796430 
# 
# From -- ./inp_files/167608.got.cif
#   From: 2010.06.25/outbox.cif.g09.slc.cpg/sg12_84_cif.got.tgz:167608.got - 2010.06.28 00:19:55.
