data_PCOD8105740
_publ_section_title
;
Structure prediction by ZEFSAII (Michael W. Deem and Ramdas Pophale) SiO2 
 PCOD8105740
Probable space group: C 2/M
;
_chemical_formula_sum "Si O2"
_cell_formula_units_Z 40
_cell_length_a 10.300932
_cell_length_b 26.369673
_cell_length_c 16.597662
_cell_angle_alpha 90.000000
_cell_angle_beta 154.134738
_cell_angle_gamma 90.000000
_cell_volume 1966.843955
_symmetry_space_group_name_H-M "C 2/M"
_symmetry_group_IT_number 12
_symmetry_cell_setting 'monoclinic'
loop_
_space_group_symop_operation_xyz
x,y,z
-x,y,-z
-x,-y,-z
x,-y,z
1/2+x,1/2+y,z
1/2-x,1/2+y,-z
1/2-x,1/2-y,-z
1/2+x,1/2-y,z
loop_
_atom_site_type_symbol
_atom_site_label
_atom_site_fract_x
_atom_site_fract_y
_atom_site_fract_z
Si Si1 0.895823 0.113120 0.526530
Si Si2 0.038990 0.441537 0.113409
Si Si3 0.802447 0.384598 0.125628
Si Si4 0.337063 0.771579 0.191807
Si Si5 0.804409 0.308110 0.461071
O O1 0.564369 0.091247 0.327033
O O2 0.894063 0.152813 0.598660
O O3 0.000000 0.139510 0.500000
O O4 0.117464 0.067304 0.670652
O O5 0.956328 0.500000 0.080085
O O6 0.817392 0.407436 0.044033
O O7 0.000000 0.424413 0.000000
O O8 0.844712 0.323717 0.144727
O O9 0.500000 0.400385 0.000000
O O10 0.572470 0.730753 0.288540
O O11 0.449230 0.780881 0.345542
O O12 0.000000 0.749887 0.000000
O O13 0.000000 0.334761 0.500000
#
# Coordination Sequence:
#
# PCOD8105740 Si02
#       5
#     8   8   8   8   8
#     4   9  20  38  59  80 112 152 187 225 279 338
#     4  10  22  39  60  86 113 143 183 232 285 336
#     4   9  19  37  60  83 112 147 188 230 274 331
#     4   9  20  36  53  79 115 152 187 226 277 334
#     4  10  21  35  56  83 112 146 192 237 272 317
#
# _framework density 20.337150999999999
#
# number of rings (size 3 to 8) (size 9 to 14) (size 15 to 20)
#    0.000    2.600    0.000    0.000    0.000   22.400 
#    0.000    4.000    0.000    7.800    0.000    0.000 
#    0.000    0.000    0.000    0.000    0.000    0.000 
#
# Total GULP energy -247846.975026 kJ/mol
# GULP energy per Si atom -12392.348751 kJ/mol
# Density = 2.029086 g / cm^3
# Si number density = 20.337151 Si / 1000 Ang^3
#
#
#
# Elastic Constant Matrix: (Units=GPa)
#
#
# Indices 1 2 3 4 5 6 
#
# 1 161.6834 70.2329 55.2462 0.0038 10.0717 0.0026
# 2 70.2329 71.8974 31.6832 -0.0016 -1.4955 -0.0002
# 3 55.2462 31.6832 118.5099 0.0083 19.7836 0.0066
# 4 0.0038 -0.0016 0.0083 19.9433 0.0039 -5.3528
# 5 10.0717 -1.4955 19.7836 0.0039 25.9863 0.0038
# 6 0.0026 -0.0002 0.0066 -5.3528 0.0038 26.3142
#
#
#
# Elastic Compliance Matrix: (Units=1/GPa)
#
#
# Indices 1 2 3 4 5 6 
#
# 1 0.011718 -0.010634 -0.002016 -0.000002 -0.003619 -0.000001
# 2 -0.010634 0.025938 -0.003338 0.000004 0.008156 0.000002
# 3 -0.002016 -0.003338 0.011653 -0.000004 -0.008282 -0.000002
# 4 -0.000002 0.000004 -0.000004 0.053038 -0.000006 0.010789
# 5 -0.003619 0.008156 -0.008282 -0.000006 0.046659 -0.000005
# 6 -0.000001 0.000002 -0.000002 0.010789 -0.000005 0.040197
#
#
# Mechanical properties :
#
#
# Convention : Reuss Voigt Hill
#
# Bulk Modulus (GPa) = 57.69562 74.04616 65.87089
# Shear Modulus (GPa) = 22.03062 27.44400 24.73731
#
# Velocity S-wave (km/s) = 3.29488 3.67747 3.49142
# Velocity P-wave (km/s) = 6.55028 7.38377 6.97948
#
# Compressibility (1/GPa) = 0.01733234
#
# Stress axis : x y z
#
# Youngs Moduli (GPa) = 85.33555 38.55421 85.81560
#
# Poissons Ratio (x) = 0.40999 0.17297
# Poissons Ratio (y) = 0.90748 0.28649
# Poissons Ratio (z) = 0.17200 0.12871
#
# Static dielectric constant tensor:
#      x y z
#    x 3.683330 -0.000010 0.110960 
#    y -0.000010 3.314230 -0.000010 
#    z 0.110960 -0.000010 4.009630 
# 
# 
# High freq. dielectric constant tensor:
#      x y z
#    x 1.793590 0.000000 0.005910 
#    y 0.000000 1.754800 0.000000 
#    z 0.005910 0.000000 1.806530 
# 
# From -- ./inp_files/201417.got.cif
#   From: 2010.06.25/outbox.cif.g09.slc.cpg/sg12_101_cif.got.tgz:201417.got - 2010.06.28 00:19:55.
