data_PCOD8105196
_publ_section_title
;
Structure prediction by ZEFSAII (Michael W. Deem and Ramdas Pophale) SiO2 
 PCOD8105196
Probable space group: C 2/M
;
_chemical_formula_sum "Si O2"
_cell_formula_units_Z 64
_cell_length_a 19.530765
_cell_length_b 9.042004
_cell_length_c 30.987493
_cell_angle_alpha 90.000000
_cell_angle_beta 36.833453
_cell_angle_gamma 90.000000
_cell_volume 3280.598407
_symmetry_space_group_name_H-M "C 2/M"
_symmetry_group_IT_number 12
_symmetry_cell_setting 'monoclinic'
loop_
_space_group_symop_operation_xyz
x,y,z
-x,y,-z
-x,-y,-z
x,-y,z
1/2+x,1/2+y,z
1/2-x,1/2+y,-z
1/2-x,1/2-y,-z
1/2+x,1/2-y,z
loop_
_atom_site_type_symbol
_atom_site_label
_atom_site_fract_x
_atom_site_fract_y
_atom_site_fract_z
Si Si1 0.144603 0.325813 0.030542
Si Si2 0.020254 0.167982 0.298236
Si Si3 0.116311 0.333658 0.467097
Si Si4 0.149196 0.826739 0.694020
Si Si5 0.900781 0.676086 0.190900
Si Si6 0.639347 0.332458 0.540695
Si Si7 0.747036 0.326221 0.806223
Si Si8 0.867762 0.337237 0.060756
O O1 0.154354 0.500000 0.031531
O O2 0.024102 0.270945 0.111009
O O3 0.250000 0.250000 0.000000
O O4 0.155647 0.278470 0.975318
O O5 0.124530 0.280129 0.247693
O O6 0.937054 0.213330 0.301118
O O7 0.957505 0.184591 0.375072
O O8 0.063449 0.000000 0.269888
O O9 0.144539 0.500000 0.468538
O O10 0.223204 0.278186 0.384524
O O11 0.093306 0.232259 0.519543
O O12 0.000000 0.327695 0.500000
O O13 0.113078 0.732479 0.753547
O O14 0.144822 0.000000 0.707861
O O15 0.889238 0.500000 0.195258
O O16 0.800800 0.743462 0.211766
O O17 0.674246 0.500000 0.515263
O O18 0.750000 0.250000 0.500000
O O19 0.740610 0.500000 0.800955
O O20 0.674529 0.284912 0.884735
O O21 0.810080 0.500000 0.097485
O O22 0.000000 0.359535 0.000000
#
# Coordination Sequence:
#
# PCOD8105196 Si02
#       8
#     8   8   8   8   8   8   8   8
#     4  10  23  41  64  91 122 161 202 249 306 366
#     4  10  23  43  64  89 126 167 205 251 309 373
#     4  10  22  41  64  92 128 164 203 255 312 366
#     4  10  22  42  63  90 126 166 207 248 308 369
#     4  11  24  44  64  89 127 166 206 252 309 369
#     4  11  22  40  66  93 122 159 209 259 310 368
#     4  12  26  41  63  95 125 160 210 260 308 363
#     4  10  20  42  68  88 119 163 205 250 310 368
#
# _framework density 19.508637
#
# number of rings (size 3 to 8) (size 9 to 14) (size 15 to 20)
#    0.000    1.500    2.500    1.875    3.500    4.000 
#    0.000    0.000    0.000    0.000    0.000    0.000 
#    0.000    0.000    0.000    0.000    0.000    0.000 
#
# Total GULP energy -396873.591176 kJ/mol
# GULP energy per Si atom -12402.299724 kJ/mol
# Density = 1.946423 g / cm^3
# Si number density = 19.508637 Si / 1000 Ang^3
#
#
#
# Elastic Constant Matrix: (Units=GPa)
#
#
# Indices 1 2 3 4 5 6 
#
# 1 114.7843 52.2274 52.0187 -0.0032 5.0296 0.0594
# 2 52.2274 98.6123 53.6435 0.0036 7.6068 0.0196
# 3 52.0187 53.6435 92.3425 0.0064 4.2167 0.0017
# 4 -0.0032 0.0036 0.0064 34.4753 -0.0031 3.4477
# 5 5.0296 7.6068 4.2167 -0.0031 39.4687 0.0012
# 6 0.0594 0.0196 0.0017 3.4477 0.0012 55.8588
#
#
#
# Elastic Compliance Matrix: (Units=1/GPa)
#
#
# Indices 1 2 3 4 5 6 
#
# 1 0.012775 -0.004144 -0.004775 0.000004 -0.000319 -0.000012
# 2 -0.004144 0.016321 -0.007061 -0.000001 -0.001863 -0.000001
# 3 -0.004775 -0.007061 0.017617 -0.000004 0.000087 0.000007
# 4 0.000004 -0.000001 -0.000004 0.029186 0.000002 -0.001801
# 5 -0.000319 -0.001863 0.000087 0.000002 0.025727 0.000000
# 6 -0.000012 -0.000001 0.000007 -0.001801 0.000000 0.018013
#
#
# Mechanical properties :
#
#
# Convention : Reuss Voigt Hill
#
# Bulk Modulus (GPa) = 67.78471 69.05759 68.42115
# Shear Modulus (GPa) = 31.94526 35.81719 33.88122
#
# Velocity S-wave (km/s) = 4.05098 4.28947 4.17193
# Velocity P-wave (km/s) = 7.53008 7.74648 7.63905
#
# Compressibility (1/GPa) = 0.01475259
#
# Stress axis : x y z
#
# Youngs Moduli (GPa) = 78.27530 61.27248 56.76332
#
# Poissons Ratio (x) = 0.25392 0.27103
# Poissons Ratio (y) = 0.32439 0.40082
# Poissons Ratio (z) = 0.37374 0.43266
#
# Static dielectric constant tensor:
#      x y z
#    x 3.861730 -0.000070 -0.015770 
#    y -0.000070 3.475150 0.000010 
#    z -0.015770 0.000010 3.516540 
# 
# 
# High freq. dielectric constant tensor:
#      x y z
#    x 1.774180 0.000000 0.001550 
#    y 0.000000 1.755660 0.000000 
#    z 0.001550 0.000000 1.768810 
# 
# From -- ./inp_files/378124.got.cif
#   From: 2010.06.25/outbox.cif.g09.slc.cpg/sg12_190_cif.got.tgz:378124.got - 2010.06.28 00:19:55.
