data_PCOD8105454
_publ_section_title
;
Structure prediction by ZEFSAII (Michael W. Deem and Ramdas Pophale) SiO2 
 PCOD8105454
Probable space group: C 2/M
;
_chemical_formula_sum "Si O2"
_cell_formula_units_Z 48
_cell_length_a 14.939232
_cell_length_b 7.616496
_cell_length_c 22.131993
_cell_angle_alpha 90.000000
_cell_angle_beta 68.773863
_cell_angle_gamma 90.000000
_cell_volume 2347.436699
_symmetry_space_group_name_H-M "C 2/M"
_symmetry_group_IT_number 12
_symmetry_cell_setting 'monoclinic'
loop_
_space_group_symop_operation_xyz
x,y,z
-x,y,-z
-x,-y,-z
x,-y,z
1/2+x,1/2+y,z
1/2-x,1/2+y,-z
1/2-x,1/2-y,-z
1/2+x,1/2-y,z
loop_
_atom_site_type_symbol
_atom_site_label
_atom_site_fract_x
_atom_site_fract_y
_atom_site_fract_z
Si Si1 0.565912 0.704686 0.164156
Si Si2 0.207863 0.301829 0.589949
Si Si3 0.359796 0.000000 0.078094
Si Si4 0.076247 0.500000 0.067266
Si Si5 0.597883 0.800694 0.502800
Si Si6 0.752979 0.795813 0.174965
Si Si7 0.636262 0.296909 0.734138
O O1 0.563723 0.500000 0.145276
O O2 0.641778 0.741730 0.198773
O O3 0.464151 0.769749 0.214226
O O4 0.596746 0.822804 0.099749
O O5 0.227445 0.500000 0.564664
O O6 0.312498 0.208750 0.566080
O O7 0.135800 0.215723 0.557221
O O8 0.159888 0.303082 0.667165
O O9 0.310782 0.822453 0.113476
O O10 0.467925 0.000000 0.072628
O O11 0.352433 0.000000 0.007265
O O12 0.500000 0.708573 0.500000
O O13 0.568799 0.000000 0.523025
O O14 0.782942 0.754499 0.236138
O O15 0.772092 0.000000 0.154301
O O16 0.630222 0.500000 0.719365
#
# Coordination Sequence:
#
# PCOD8105454 Si02
#       7
#     8   8   4   4   8   8   8
#     4  11  23  41  63  90 124 162 204 258 310 366
#     4  10  21  34  58  88 112 157 197 241 300 351
#     4  11  24  42  66  91 121 163 203 256 313 365
#     4  11  24  42  66  91 121 165 201 256 315 365
#     4   9  19  38  58  81 120 155 193 243 291 351
#     4  11  23  41  63  89 123 163 204 257 311 366
#     4  10  23  40  60  85 120 159 202 250 303 362
#
# _framework density 20.447834
#
# number of rings (size 3 to 8) (size 9 to 14) (size 15 to 20)
#    0.000    1.667    3.333    0.500    2.333    3.667 
#    0.000    6.667    0.000    0.000    0.000    0.000 
#    0.000    0.000    0.000    0.000    0.000    0.000 
#
# Total GULP energy -297544.213684 kJ/mol
# GULP energy per Si atom -12397.675570 kJ/mol
# Density = 2.040129 g / cm^3
# Si number density = 20.447834 Si / 1000 Ang^3
#
#
#
# Elastic Constant Matrix: (Units=GPa)
#
#
# Indices 1 2 3 4 5 6 
#
# 1 127.1207 21.8651 31.5725 0.0000 19.4322 0.0000
# 2 21.8651 87.2461 40.0403 -0.0001 3.3026 0.0001
# 3 31.5725 40.0403 122.8945 0.0000 15.9150 0.0000
# 4 0.0000 -0.0001 0.0000 30.7611 0.0000 -1.8901
# 5 19.4322 3.3026 15.9150 0.0000 16.3904 0.0000
# 6 0.0000 0.0001 0.0000 -1.8901 0.0000 23.1191
#
#
#
# Elastic Compliance Matrix: (Units=1/GPa)
#
#
# Indices 1 2 3 4 5 6 
#
# 1 0.009992 -0.001837 -0.000552 0.000000 -0.010940 0.000000
# 2 -0.001837 0.013860 -0.004534 0.000000 0.003788 0.000000
# 3 -0.000552 -0.004534 0.010927 0.000000 -0.009042 0.000000
# 4 0.000000 0.000000 0.000000 0.032673 0.000000 0.002671
# 5 -0.010940 0.003788 -0.009042 0.000000 0.081999 0.000000
# 6 0.000000 0.000000 0.000000 0.002671 0.000000 0.043473
#
#
# Mechanical properties :
#
#
# Convention : Reuss Voigt Hill
#
# Bulk Modulus (GPa) = 47.77117 58.24635 53.00876
# Shear Modulus (GPa) = 23.39222 30.30635 26.84928
#
# Velocity S-wave (km/s) = 3.38597 3.85402 3.62755
# Velocity P-wave (km/s) = 6.22090 6.95355 6.59740
#
# Compressibility (1/GPa) = 0.02093313
#
# Stress axis : x y z
#
# Youngs Moduli (GPa) = 100.08109 72.15161 91.51535
#
# Poissons Ratio (x) = 0.13252 0.05050
# Poissons Ratio (y) = 0.18382 0.41496
# Poissons Ratio (z) = 0.05522 0.32716
#
# Static dielectric constant tensor:
#      x y z
#    x 4.069190 0.000000 0.112670 
#    y 0.000000 3.672570 0.000000 
#    z 0.112670 0.000000 3.574470 
# 
# 
# High freq. dielectric constant tensor:
#      x y z
#    x 1.813040 0.000000 0.007090 
#    y 0.000000 1.801550 0.000000 
#    z 0.007090 0.000000 1.782010 
# 
# From -- ./inp_files/308326.got.cif
#   From: 2010.06.25/outbox.cif.g09.slc.cpg/sg12_155_cif.got.tgz:308326.got - 2010.06.28 00:19:55.
