data_PCOD8105805
_publ_section_title
;
Structure prediction by ZEFSAII (Michael W. Deem and Ramdas Pophale) SiO2 
 PCOD8105805
Probable space group: C 2/M
;
_chemical_formula_sum "Si O2"
_cell_formula_units_Z 64
_cell_length_a 12.053657
_cell_length_b 14.558979
_cell_length_c 20.889265
_cell_angle_alpha 90.000000
_cell_angle_beta 119.530300
_cell_angle_gamma 90.000000
_cell_volume 3189.625264
_symmetry_space_group_name_H-M "C 2/M"
_symmetry_group_IT_number 12
_symmetry_cell_setting 'monoclinic'
loop_
_space_group_symop_operation_xyz
x,y,z
-x,y,-z
-x,-y,-z
x,-y,z
1/2+x,1/2+y,z
1/2-x,1/2+y,-z
1/2-x,1/2-y,-z
1/2+x,1/2-y,z
loop_
_atom_site_type_symbol
_atom_site_label
_atom_site_fract_x
_atom_site_fract_y
_atom_site_fract_z
Si Si1 0.955357 0.280540 0.672512
Si Si2 0.643107 0.819359 0.910041
Si Si3 0.721805 0.261051 0.805684
Si Si4 0.533370 0.105017 0.579317
Si Si5 0.097764 0.900810 0.178988
Si Si6 0.093962 0.848580 0.970088
Si Si7 0.395702 0.106697 0.780824
Si Si8 0.169635 0.102617 0.338761
O O1 0.101370 0.255539 0.726482
O O2 0.949430 0.342722 0.607856
O O3 0.890631 0.334943 0.713494
O O4 0.878132 0.187173 0.631403
O O5 0.682042 0.740290 0.868850
O O6 0.591183 0.761258 0.955624
O O7 0.536513 0.886837 0.851531
O O8 0.763771 0.879513 0.968378
O O9 0.817999 0.176020 0.829604
O O10 0.792353 0.353415 0.801793
O O11 0.500000 0.145845 0.500000
O O12 0.682759 0.114804 0.636634
O O13 0.488553 0.000000 0.569778
O O14 0.084108 0.883587 0.250764
O O15 0.956639 0.901061 0.107623
O O16 0.164169 0.000000 0.187494
O O17 0.000000 0.874594 0.000000
O O18 0.364814 0.000000 0.758391
O O19 0.146360 0.000000 0.362018
#
# Coordination Sequence:
#
# PCOD8105805 Si02
#       8
#     8   8   8   8   8   8   8   8
#     4  11  20  36  62  86 114 151 193 229 275 329
#     4  10  21  35  58  74 108 150 185 228 294 346
#     4  11  20  38  55  82 113 143 185 233 290 331
#     4  10  21  37  59  89 123 154 185 227 277 329
#     4  11  20  34  55  77 106 140 181 232 282 331
#     4  11  20  36  54  79 104 143 190 236 285 336
#     4  11  22  36  57  84 112 144 187 237 283 335
#     4  10  21  39  60  85 114 147 189 232 278 334
#
# _framework density 20.065052000000001
#
# number of rings (size 3 to 8) (size 9 to 14) (size 15 to 20)
#    0.000    1.375    5.000    1.125    0.000    3.750 
#    0.000    0.625    0.000    7.500    0.000    0.000 
#    0.000    0.000    0.000    0.000    0.000    0.000 
#
# Total GULP energy -396642.809977 kJ/mol
# GULP energy per Si atom -12395.087812 kJ/mol
# Density = 2.001938 g / cm^3
# Si number density = 20.065052 Si / 1000 Ang^3
#
#
#
# Elastic Constant Matrix: (Units=GPa)
#
#
# Indices 1 2 3 4 5 6 
#
# 1 51.1390 28.4191 14.7779 0.0000 -5.8245 0.0000
# 2 28.4191 115.9977 15.9989 0.0000 -4.3216 0.0000
# 3 14.7779 15.9989 76.0480 0.0000 -5.2813 0.0000
# 4 0.0000 0.0000 0.0000 22.9409 0.0000 -2.9347
# 5 -5.8245 -4.3216 -5.2813 0.0000 15.6444 0.0000
# 6 0.0000 0.0000 0.0000 -2.9347 0.0000 17.0363
#
#
#
# Elastic Compliance Matrix: (Units=1/GPa)
#
#
# Indices 1 2 3 4 5 6 
#
# 1 0.024105 -0.005232 -0.003134 0.000000 0.006471 0.000000
# 2 -0.005232 0.010068 -0.001068 0.000000 0.000472 0.000000
# 3 -0.003134 -0.001068 0.014215 0.000000 0.003337 0.000000
# 4 0.000000 0.000000 0.000000 0.044572 0.000000 0.007678
# 5 0.006471 0.000472 0.003337 0.000000 0.067587 0.000000
# 6 0.000000 0.000000 0.000000 0.007678 0.000000 0.060021
#
#
# Mechanical properties :
#
#
# Convention : Reuss Voigt Hill
#
# Bulk Modulus (GPa) = 33.87736 40.17515 37.02625
# Shear Modulus (GPa) = 20.05802 23.39024 21.72413
#
# Velocity S-wave (km/s) = 3.16515 3.41797 3.29399
# Velocity P-wave (km/s) = 5.50255 5.97014 5.74111
#
# Compressibility (1/GPa) = 0.02951824
#
# Stress axis : x y z
#
# Youngs Moduli (GPa) = 41.48529 99.32725 70.34761
#
# Poissons Ratio (x) = 0.51971 0.22047
# Poissons Ratio (y) = 0.21706 0.07516
# Poissons Ratio (z) = 0.13001 0.10613
#
# Static dielectric constant tensor:
#      x y z
#    x 3.561510 0.000000 0.071920 
#    y 0.000000 3.593900 0.000000 
#    z 0.071920 0.000000 3.669500 
# 
# 
# High freq. dielectric constant tensor:
#      x y z
#    x 1.768360 0.000000 0.007600 
#    y 0.000000 1.772540 0.000000 
#    z 0.007600 0.000000 1.776620 
# 
# From -- ./inp_files/305465.got.cif
#   From: 2010.06.25/outbox.cif.g09.slc.cpg/sg12_153_cif.got.tgz:305465.got - 2010.06.28 00:19:55.
