data_PCOD8105412
_publ_section_title
;
Structure prediction by ZEFSAII (Michael W. Deem and Ramdas Pophale) SiO2 
 PCOD8105412
Probable space group: C 2/M
;
_chemical_formula_sum "Si O2"
_cell_formula_units_Z 64
_cell_length_a 8.983846
_cell_length_b 28.897097
_cell_length_c 18.470430
_cell_angle_alpha 90.000000
_cell_angle_beta 137.650376
_cell_angle_gamma 90.000000
_cell_volume 3230.201962
_symmetry_space_group_name_H-M "C 2/M"
_symmetry_group_IT_number 12
_symmetry_cell_setting 'monoclinic'
loop_
_space_group_symop_operation_xyz
x,y,z
-x,y,-z
-x,-y,-z
x,-y,z
1/2+x,1/2+y,z
1/2-x,1/2+y,-z
1/2-x,1/2-y,-z
1/2+x,1/2-y,z
loop_
_atom_site_type_symbol
_atom_site_label
_atom_site_fract_x
_atom_site_fract_y
_atom_site_fract_z
Si Si1 0.636189 0.311610 0.440393
Si Si2 0.985618 0.410756 0.709713
Si Si3 0.895833 0.906340 0.315888
Si Si4 0.348206 0.052980 0.510310
Si Si5 0.773661 0.739614 0.351228
Si Si6 0.749064 0.054183 0.115107
Si Si7 0.446989 0.552757 0.903871
Si Si8 0.516507 0.811486 0.690689
O O1 0.477150 0.354021 0.360778
O O2 0.772580 0.294171 0.419962
O O3 0.498014 0.269634 0.425691
O O4 0.810890 0.325158 0.564484
O O5 0.790741 0.421591 0.694890
O O6 0.894821 0.416191 0.596471
O O7 0.080067 0.358603 0.754365
O O8 0.186689 0.445384 0.795131
O O9 0.795094 0.912779 0.200031
O O10 0.095155 0.942212 0.396130
O O11 0.500000 0.072067 0.500000
O O12 0.404914 0.000000 0.547915
O O13 0.560435 0.773256 0.277825
O O14 0.772747 0.707628 0.278692
O O15 0.910961 0.074000 0.110747
O O16 0.794511 0.000000 0.150043
O O17 0.500000 0.061496 0.000000
O O18 0.524904 0.500000 0.937390
O O19 0.500000 0.577470 0.000000
#
# Coordination Sequence:
#
# PCOD8105412 Si02
#       8
#     8   8   8   8   8   8   8   8
#     4  11  20  34  53  82 118 158 200 243 284 351
#     4  12  24  36  58  89 123 158 198 242 294 353
#     4  12  24  36  58  89 123 158 198 242 294 353
#     4  11  25  41  55  78 119 164 202 236 290 359
#     4  10  21  34  54  78 115 160 199 242 298 337
#     4  10  22  42  66  90 116 150 198 250 299 349
#     4  10  22  42  66  90 116 150 198 250 299 349
#     4  11  20  34  53  82 118 158 200 243 284 351
#
# _framework density 19.813002999999998
#
# number of rings (size 3 to 8) (size 9 to 14) (size 15 to 20)
#    0.000    1.125    2.500    5.625    3.500    5.500 
#    0.000    0.000    0.000    0.000    0.000    5.250 
#    0.000    0.000    0.000    0.000    0.000    0.000 
#
# Total GULP energy -396795.080513 kJ/mol
# GULP energy per Si atom -12399.846266 kJ/mol
# Density = 1.976791 g / cm^3
# Si number density = 19.813003 Si / 1000 Ang^3
#
#
#
# Elastic Constant Matrix: (Units=GPa)
#
#
# Indices 1 2 3 4 5 6 
#
# 1 186.6112 25.5740 43.0640 0.0000 -1.6092 0.0000
# 2 25.5740 50.5083 14.9189 0.0000 -0.7510 0.0000
# 3 43.0640 14.9189 80.9327 -0.0001 -2.3947 0.0001
# 4 0.0000 0.0000 -0.0001 11.0549 0.0000 7.8831
# 5 -1.6092 -0.7510 -2.3947 0.0000 27.8542 0.0000
# 6 0.0000 0.0000 0.0001 7.8831 0.0000 7.4167
#
#
#
# Elastic Compliance Matrix: (Units=1/GPa)
#
#
# Indices 1 2 3 4 5 6 
#
# 1 0.006362 -0.002349 -0.002951 0.000000 0.000051 0.000000
# 2 -0.002349 0.021808 -0.002764 0.000000 0.000215 0.000000
# 3 -0.002951 -0.002764 0.014465 0.000001 0.000999 -0.000001
# 4 0.000000 0.000000 0.000001 0.373678 0.000001 -0.397175
# 5 0.000051 0.000215 0.000999 0.000001 0.035996 -0.000001
# 6 0.000000 0.000000 -0.000001 -0.397175 -0.000001 0.556980
#
#
# Mechanical properties :
#
#
# Convention : Reuss Voigt Hill
#
# Bulk Modulus (GPa) = 37.72470 53.90733 45.81602
# Shear Modulus (GPa) = 4.83442 24.89819 14.86630
#
# Velocity S-wave (km/s) = 1.56375 3.54878 2.74219
# Velocity P-wave (km/s) = 4.72675 6.63769 5.76199
#
# Compressibility (1/GPa) = 0.02650783
#
# Stress axis : x y z
#
# Youngs Moduli (GPa) = 157.18292 45.85554 69.13237
#
# Poissons Ratio (x) = 0.10771 0.20399
# Poissons Ratio (y) = 0.36922 0.19106
# Poissons Ratio (z) = 0.46380 0.12673
#
# Static dielectric constant tensor:
#      x y z
#    x 4.027190 0.000000 -0.081110 
#    y 0.000000 3.627830 0.000000 
#    z -0.081110 0.000000 3.180160 
# 
# 
# High freq. dielectric constant tensor:
#      x y z
#    x 1.802950 0.000000 -0.001990 
#    y 0.000000 1.769170 0.000000 
#    z -0.001990 0.000000 1.724150 
# 
# From -- ./inp_files/260412.got.cif
#   From: 2010.06.25/outbox.cif.g09.slc.cpg/sg12_131_cif.got.tgz:260412.got - 2010.06.28 00:19:55.
