data_PCOD8105252
_publ_section_title
;
Structure prediction by ZEFSAII (Michael W. Deem and Ramdas Pophale) SiO2 
 PCOD8105252
Probable space group: C 2/M
;
_chemical_formula_sum "Si O2"
_cell_formula_units_Z 64
_cell_length_a 12.394530
_cell_length_b 13.847196
_cell_length_c 21.651330
_cell_angle_alpha 90.000000
_cell_angle_beta 110.806588
_cell_angle_gamma 90.000000
_cell_volume 3473.666673
_symmetry_space_group_name_H-M "C 2/M"
_symmetry_group_IT_number 12
_symmetry_cell_setting 'monoclinic'
loop_
_space_group_symop_operation_xyz
x,y,z
-x,y,-z
-x,-y,-z
x,-y,z
1/2+x,1/2+y,z
1/2-x,1/2+y,-z
1/2-x,1/2-y,-z
1/2+x,1/2-y,z
loop_
_atom_site_type_symbol
_atom_site_label
_atom_site_fract_x
_atom_site_fract_y
_atom_site_fract_z
Si Si1 0.868730 0.387332 0.851147
Si Si2 0.742189 0.110125 0.295405
Si Si3 0.732313 0.387891 0.946839
Si Si4 0.437732 0.193681 0.428821
Si Si5 0.761996 0.888657 0.551188
Si Si6 0.974717 0.891813 0.397421
Si Si7 0.860274 0.385063 0.597471
Si Si8 0.068033 0.725573 0.951991
O O1 0.902986 0.500000 0.853111
O O2 0.811900 0.343231 0.777088
O O3 0.774905 0.373533 0.885703
O O4 0.983304 0.325418 0.886193
O O5 0.882685 0.118928 0.322400
O O6 0.691786 0.155343 0.348803
O O7 0.703932 0.000000 0.286401
O O8 0.705110 0.500000 0.955522
O O9 0.617144 0.324393 0.932769
O O10 0.830675 0.351105 0.013760
O O11 0.500000 0.144145 0.500000
O O12 0.306154 0.157563 0.404497
O O13 0.437716 0.309843 0.438219
O O14 0.509771 0.158917 0.383338
O O15 0.721861 0.846387 0.475746
O O16 0.894740 0.869517 0.595706
O O17 0.733075 0.000000 0.543724
O O18 0.963056 0.000000 0.424587
O O19 0.866175 0.500000 0.599032
O O20 0.000000 0.753704 0.000000
#
# Coordination Sequence:
#
# PCOD8105252 Si02
#       8
#     8   8   8   8   8   8   8   8
#     4   9  17  33  53  72  98 134 173 207 242 290
#     4   9  19  34  51  72  99 132 171 212 253 297
#     4   9  17  30  51  80 109 137 168 206 247 286
#     4  10  21  32  52  72  98 124 164 207 260 315
#     4   9  19  35  53  72  96 127 162 207 264 317
#     4  10  22  35  49  71 100 129 162 208 259 308
#     4   9  18  33  53  75  98 125 164 213 260 307
#     4   9  17  30  51  79 108 135 169 206 243 289
#
# _framework density 18.424336
#
# number of rings (size 3 to 8) (size 9 to 14) (size 15 to 20)
#    0.000    2.750    0.000    0.750    3.500    4.500 
#    2.250    0.000    0.000    0.000    0.000    0.875 
#    0.000    0.000    0.000    0.000    0.000    0.000 
#
# Total GULP energy -396489.248192 kJ/mol
# GULP energy per Si atom -12390.289006 kJ/mol
# Density = 1.838240 g / cm^3
# Si number density = 18.424336 Si / 1000 Ang^3
#
#
#
# Elastic Constant Matrix: (Units=GPa)
#
#
# Indices 1 2 3 4 5 6 
#
# 1 133.1800 55.2012 72.3447 0.0000 9.0621 0.0000
# 2 55.2012 62.3825 45.8147 0.0000 -0.7375 0.0000
# 3 72.3447 45.8147 106.0892 0.0000 13.0397 0.0000
# 4 0.0000 0.0000 0.0000 16.8194 0.0000 2.4439
# 5 9.0621 -0.7375 13.0397 0.0000 18.1142 0.0000
# 6 0.0000 0.0000 0.0000 2.4439 0.0000 30.8443
#
#
#
# Elastic Compliance Matrix: (Units=1/GPa)
#
#
# Indices 1 2 3 4 5 6 
#
# 1 0.014396 -0.008616 -0.005669 0.000000 -0.003472 0.000000
# 2 -0.008616 0.030069 -0.008546 0.000000 0.011687 0.000000
# 3 -0.005669 -0.008546 0.018296 0.000000 -0.010682 0.000000
# 4 0.000000 0.000000 0.000000 0.060148 0.000000 -0.004766
# 5 -0.003472 0.011687 -0.010682 0.000000 0.065107 0.000000
# 6 0.000000 0.000000 0.000000 -0.004766 0.000000 0.032798
#
#
# Mechanical properties :
#
#
# Convention : Reuss Voigt Hill
#
# Bulk Modulus (GPa) = 58.48876 72.04144 65.26510
# Shear Modulus (GPa) = 18.37048 21.70833 20.03940
#
# Velocity S-wave (km/s) = 3.16108 3.43628 3.30155
# Velocity P-wave (km/s) = 6.71845 7.41149 7.07346
#
# Compressibility (1/GPa) = 0.01709730
#
# Stress axis : x y z
#
# Youngs Moduli (GPa) = 69.46569 33.25691 54.65763
#
# Poissons Ratio (x) = 0.28654 0.30987
# Poissons Ratio (y) = 0.59851 0.46712
# Poissons Ratio (z) = 0.39382 0.28423
#
# Static dielectric constant tensor:
#      x y z
#    x 3.518760 0.000000 0.045110 
#    y 0.000000 3.430940 0.000000 
#    z 0.045110 0.000000 3.281680 
# 
# 
# High freq. dielectric constant tensor:
#      x y z
#    x 1.720060 0.000000 0.007770 
#    y 0.000000 1.715650 0.000000 
#    z 0.007770 0.000000 1.674580 
# 
# From -- ./inp_files/305479.got.cif
#   From: 2010.06.25/outbox.cif.g09.slc.cpg/sg12_153_cif.got.tgz:305479.got - 2010.06.28 00:19:55.
