data_PCOD8105765
_publ_section_title
;
Structure prediction by ZEFSAII (Michael W. Deem and Ramdas Pophale) SiO2 
 PCOD8105765
Probable space group: C 2/M
;
_chemical_formula_sum "Si O2"
_cell_formula_units_Z 40
_cell_length_a 14.688348
_cell_length_b 17.305537
_cell_length_c 12.300083
_cell_angle_alpha 90.000000
_cell_angle_beta 39.833978
_cell_angle_gamma 90.000000
_cell_volume 2002.762343
_symmetry_space_group_name_H-M "C 2/M"
_symmetry_group_IT_number 12
_symmetry_cell_setting 'monoclinic'
loop_
_space_group_symop_operation_xyz
x,y,z
-x,y,-z
-x,-y,-z
x,-y,z
1/2+x,1/2+y,z
1/2-x,1/2+y,-z
1/2-x,1/2-y,-z
1/2+x,1/2-y,z
loop_
_atom_site_type_symbol
_atom_site_label
_atom_site_fract_x
_atom_site_fract_y
_atom_site_fract_z
Si Si1 0.233595 0.286583 0.163878
Si Si2 0.486499 0.721331 0.777120
Si Si3 0.632633 0.833217 0.810830
Si Si4 0.697940 0.412065 0.520539
Si Si5 0.160775 0.413796 0.385673
O O1 0.073026 0.277647 0.264015
O O2 0.267168 0.205917 0.191733
O O3 0.253981 0.355347 0.230440
O O4 0.345954 0.308556 0.967394
O O5 0.587770 0.768617 0.764191
O O6 0.568665 0.648142 0.651208
O O7 0.719425 0.899520 0.668980
O O8 0.500000 0.868882 0.000000
O O9 0.638786 0.500000 0.575716
O O10 0.812334 0.398891 0.511617
O O11 0.209099 0.500000 0.309817
O O12 0.000000 0.399513 0.500000
#
# Coordination Sequence:
#
# PCOD8105765 Si02
#       5
#     8   8   8   8   8
#     4  10  21  36  60  85 115 155 193 245 295 339
#     4  10  21  38  58  88 115 150 203 240 287 350
#     4  10  21  38  58  84 116 154 199 240 289 348
#     4  11  23  38  59  87 120 156 194 243 295 349
#     4  10  21  35  56  88 119 152 192 241 302 349
#
# _framework density 19.972415999999999
#
# number of rings (size 3 to 8) (size 9 to 14) (size 15 to 20)
#    0.000    1.800    2.000    1.800    2.800    1.200 
#    0.000    4.000    0.000    7.200    0.000    0.000 
#    0.000    0.000    0.000    0.000    0.000    0.000 
#
# Total GULP energy -247959.028357 kJ/mol
# GULP energy per Si atom -12397.951418 kJ/mol
# Density = 1.992696 g / cm^3
# Si number density = 19.972416 Si / 1000 Ang^3
#
#
#
# Elastic Constant Matrix: (Units=GPa)
#
#
# Indices 1 2 3 4 5 6 
#
# 1 77.3846 14.4909 30.4943 -0.0003 1.1564 0.0001
# 2 14.4909 73.3105 55.3915 0.0001 3.8533 -0.0001
# 3 30.4943 55.3915 104.9451 -0.0008 12.6719 0.0005
# 4 -0.0003 0.0001 -0.0008 19.9229 0.0005 5.8708
# 5 1.1564 3.8533 12.6719 0.0005 29.6487 -0.0003
# 6 0.0001 -0.0001 0.0005 5.8708 -0.0003 27.8434
#
#
#
# Elastic Compliance Matrix: (Units=1/GPa)
#
#
# Indices 1 2 3 4 5 6 
#
# 1 0.014659 0.000622 -0.004755 0.000000 0.001379 0.000000
# 2 0.000622 0.022864 -0.012534 -0.000001 0.002361 0.000001
# 3 -0.004755 -0.012534 0.018248 0.000001 -0.005985 -0.000001
# 4 0.000000 -0.000001 0.000001 0.053519 -0.000001 -0.011284
# 5 0.001379 0.002361 -0.005985 -0.000001 0.035926 0.000001
# 6 0.000000 0.000001 -0.000001 -0.011284 0.000001 0.038295
#
#
# Mechanical properties :
#
#
# Convention : Reuss Voigt Hill
#
# Bulk Modulus (GPa) = 44.56477 50.71040 47.63759
# Shear Modulus (GPa) = 22.28946 25.83391 24.06168
#
# Velocity S-wave (km/s) = 3.34430 3.60040 3.47471
# Velocity P-wave (km/s) = 6.10525 6.53676 6.32468
#
# Compressibility (1/GPa) = 0.02243925
#
# Stress axis : x y z
#
# Youngs Moduli (GPa) = 68.21794 43.73764 54.79912
#
# Poissons Ratio (x) = -0.02722 0.26055
# Poissons Ratio (y) = -0.04246 0.68683
# Poissons Ratio (z) = 0.32435 0.54819
#
# Static dielectric constant tensor:
#      x y z
#    x 3.753910 0.000000 0.151080 
#    y 0.000000 3.450190 0.000000 
#    z 0.151080 0.000000 3.615240 
# 
# 
# High freq. dielectric constant tensor:
#      x y z
#    x 1.789500 0.000000 0.008940 
#    y 0.000000 1.759900 0.000000 
#    z 0.008940 0.000000 1.775860 
# 
# From -- ./inp_files/60816.got.cif
#   From: 2010.06.25/outbox.cif.g09.slc.cpg/sg12_31_cif.got.tgz:60816.got - 2010.06.28 00:19:55.
