data_PCOD8105523
_publ_section_title
;
Structure prediction by ZEFSAII (Michael W. Deem and Ramdas Pophale) SiO2 
 PCOD8105523
Probable space group: C 2/M
;
_chemical_formula_sum "Si O2"
_cell_formula_units_Z 48
_cell_length_a 14.313484
_cell_length_b 9.409331
_cell_length_c 20.205666
_cell_angle_alpha 90.000000
_cell_angle_beta 109.402861
_cell_angle_gamma 90.000000
_cell_volume 2566.751712
_symmetry_space_group_name_H-M "C 2/M"
_symmetry_group_IT_number 12
_symmetry_cell_setting 'monoclinic'
loop_
_space_group_symop_operation_xyz
x,y,z
-x,y,-z
-x,-y,-z
x,-y,z
1/2+x,1/2+y,z
1/2-x,1/2+y,-z
1/2-x,1/2-y,-z
1/2+x,1/2-y,z
loop_
_atom_site_type_symbol
_atom_site_label
_atom_site_fract_x
_atom_site_fract_y
_atom_site_fract_z
Si Si1 0.344364 0.165429 0.497144
Si Si2 0.889533 0.833927 0.990870
Si Si3 0.351667 0.334535 0.261972
Si Si4 0.054191 0.166271 0.377170
Si Si5 0.710929 0.664920 0.897066
Si Si6 0.249963 0.839224 0.343203
O O1 0.250000 0.250000 0.500000
O O2 0.439649 0.241039 0.553319
O O3 0.341848 0.178202 0.416672
O O4 0.339449 0.000000 0.517141
O O5 0.812418 0.752407 0.926082
O O6 0.879015 0.000000 0.972900
O O7 0.865038 0.798745 0.061595
O O8 0.000000 0.780301 0.000000
O O9 0.335072 0.500000 0.268284
O O10 0.458376 0.286523 0.313671
O O11 0.343896 0.291499 0.183413
O O12 0.266016 0.258019 0.283314
O O13 0.147366 0.205150 0.353248
O O14 0.053311 0.000000 0.395972
O O15 0.740120 0.500000 0.904929
O O16 0.243112 0.000000 0.316206
#
# Coordination Sequence:
#
# PCOD8105523 Si02
#       6
#     8   8   8   8   8   8
#     4   9  17  31  51  73  98 130 170 217 262 301
#     4   9  18  34  58  82 101 130 169 203 242 295
#     4  10  21  35  51  73 104 139 169 202 250 304
#     4   9  19  35  52  72 100 135 172 211 257 304
#     4   9  19  35  52  76 109 135 162 205 249 293
#     4   9  19  34  51  72  99 132 172 216 257 298
#
# _framework density 18.700679000000001
#
# number of rings (size 3 to 8) (size 9 to 14) (size 15 to 20)
#    0.000    2.833    0.000    1.500    0.000    7.000 
#    0.000    6.667    0.000    0.000    0.000    0.000 
#    0.000    0.000    0.000    0.000    0.000    0.000 
#
# Total GULP energy -297537.886425 kJ/mol
# GULP energy per Si atom -12397.411934 kJ/mol
# Density = 1.865812 g / cm^3
# Si number density = 18.700679 Si / 1000 Ang^3
#
#
#
# Elastic Constant Matrix: (Units=GPa)
#
#
# Indices 1 2 3 4 5 6 
#
# 1 79.1936 23.4513 27.2526 0.0000 4.3760 0.0000
# 2 23.4513 51.9068 35.5952 0.0000 0.8949 0.0000
# 3 27.2526 35.5952 91.0535 0.0000 2.2973 0.0000
# 4 0.0000 0.0000 0.0000 32.7375 0.0000 -0.1738
# 5 4.3760 0.8949 2.2973 0.0000 23.6921 0.0000
# 6 0.0000 0.0000 0.0000 -0.1738 0.0000 26.5625
#
#
#
# Elastic Compliance Matrix: (Units=1/GPa)
#
#
# Indices 1 2 3 4 5 6 
#
# 1 0.015117 -0.005092 -0.002474 0.000000 -0.002360 0.000000
# 2 -0.005092 0.028037 -0.009456 0.000000 0.000798 0.000000
# 3 -0.002474 -0.009456 0.015437 0.000000 -0.000683 0.000000
# 4 0.000000 0.000000 0.000000 0.030547 0.000000 0.000200
# 5 -0.002360 0.000798 -0.000683 0.000000 0.042680 0.000000
# 6 0.000000 0.000000 0.000000 0.000200 0.000000 0.037648
#
#
# Mechanical properties :
#
#
# Convention : Reuss Voigt Hill
#
# Bulk Modulus (GPa) = 40.74144 43.86135 42.30140
# Shear Modulus (GPa) = 23.61893 25.65541 24.63717
#
# Velocity S-wave (km/s) = 3.55772 3.70793 3.63360
# Velocity P-wave (km/s) = 6.22173 6.46815 6.34614
#
# Compressibility (1/GPa) = 0.02454503
#
# Stress axis : x y z
#
# Youngs Moduli (GPa) = 66.14999 35.66714 64.77910
#
# Poissons Ratio (x) = 0.18163 0.16028
# Poissons Ratio (y) = 0.33687 0.61257
# Poissons Ratio (z) = 0.16368 0.33728
#
# Static dielectric constant tensor:
#      x y z
#    x 3.290060 0.000000 0.105370 
#    y 0.000000 3.432320 0.000000 
#    z 0.105370 0.000000 3.693600 
# 
# 
# High freq. dielectric constant tensor:
#      x y z
#    x 1.716250 0.000000 0.002530 
#    y 0.000000 1.722530 0.000000 
#    z 0.002530 0.000000 1.724650 
# 
# From -- ./inp_files/308320.got.cif
#   From: 2010.06.25/outbox.cif.g09.slc.cpg/sg12_155_cif.got.tgz:308320.got - 2010.06.28 00:19:55.
