data_PCOD8105731
_publ_section_title
;
Structure prediction by ZEFSAII (Michael W. Deem and Ramdas Pophale) SiO2 
 PCOD8105731
Probable space group: C 2/M
;
_chemical_formula_sum "Si O2"
_cell_formula_units_Z 40
_cell_length_a 8.438512
_cell_length_b 18.269039
_cell_length_c 23.849404
_cell_angle_alpha 90.000000
_cell_angle_beta 148.627767
_cell_angle_gamma 90.000000
_cell_volume 1914.079025
_symmetry_space_group_name_H-M "C 2/M"
_symmetry_group_IT_number 12
_symmetry_cell_setting 'monoclinic'
loop_
_space_group_symop_operation_xyz
x,y,z
-x,y,-z
-x,-y,-z
x,-y,z
1/2+x,1/2+y,z
1/2-x,1/2+y,-z
1/2-x,1/2-y,-z
1/2+x,1/2-y,z
loop_
_atom_site_type_symbol
_atom_site_label
_atom_site_fract_x
_atom_site_fract_y
_atom_site_fract_z
Si Si1 0.576732 0.688055 0.782838
Si Si2 0.297088 0.314469 0.383281
Si Si3 0.192085 0.285690 0.923371
Si Si4 0.760488 0.919003 0.536452
Si Si5 0.126612 0.579960 0.687953
O O1 0.317101 0.736798 0.674108
O O2 0.669228 0.723282 0.869549
O O3 0.433961 0.608863 0.751739
O O4 0.869820 0.671980 0.831203
O O5 0.500000 0.300543 0.500000
O O6 0.480697 0.356534 0.389140
O O7 0.994586 0.362911 0.302548
O O8 0.500000 0.332904 0.000000
O O9 0.250000 0.250000 0.000000
O O10 0.500000 0.891207 0.500000
O O11 0.637613 0.928565 0.437008
O O12 0.882477 0.000000 0.592576
O O13 0.192273 0.500000 0.734643
#
# Coordination Sequence:
#
# PCOD8105731 Si02
#       5
#     8   8   8   8   8
#     4  11  20  36  60  92 110 150 192 239 284 337
#     4  10  21  35  55  85 122 157 192 232 270 339
#     4   9  20  38  61  86 110 140 189 247 295 340
#     4   9  19  33  50  76 118 165 195 227 275 328
#     4  10  21  36  54  81 120 159 191 224 279 346
#
# _framework density 20.897777999999999
#
# number of rings (size 3 to 8) (size 9 to 14) (size 15 to 20)
#    0.000    2.200    2.000    0.600    2.800    6.400 
#    0.000    0.000    0.000    6.000    0.000    0.000 
#    0.000    0.000    0.000    0.000    0.000    0.000 
#
# Total GULP energy -247779.927480 kJ/mol
# GULP energy per Si atom -12388.996374 kJ/mol
# Density = 2.085021 g / cm^3
# Si number density = 20.897778 Si / 1000 Ang^3
#
#
#
# Elastic Constant Matrix: (Units=GPa)
#
#
# Indices 1 2 3 4 5 6 
#
# 1 106.7586 22.4001 37.5720 -0.0006 33.4520 0.0001
# 2 22.4001 63.8114 27.9864 -0.0004 12.4982 0.0001
# 3 37.5720 27.9864 79.6524 0.0019 20.7416 -0.0016
# 4 -0.0006 -0.0004 0.0019 -0.7029 -0.0011 -0.5557
# 5 33.4520 12.4982 20.7416 -0.0011 53.3488 0.0006
# 6 0.0001 0.0001 -0.0016 -0.5557 0.0006 19.7404
#
#
#
# Elastic Compliance Matrix: (Units=1/GPa)
#
#
# Indices 1 2 3 4 5 6 
#
# 1 0.013067 -0.001621 -0.003960 -0.000011 -0.006274 -0.000001
# 2 -0.001621 0.018924 -0.005557 -0.000022 -0.001256 -0.000001
# 3 -0.003960 -0.005557 0.017123 0.000056 -0.002872 0.000003
# 4 -0.000011 -0.000022 0.000056 -1.391633 -0.000037 -0.039175
# 5 -0.006274 -0.001256 -0.002872 -0.000037 0.024090 -0.000002
# 6 -0.000001 -0.000001 0.000003 -0.039175 -0.000002 0.049555
#
#
# Mechanical properties :
#
#
# Convention : Reuss Voigt Hill
#
# Bulk Modulus (GPa) = 37.26299 47.34881 42.30590
# Shear Modulus (GPa) = -4.03990 25.29485 10.62748
#
# Velocity S-wave (km/s) = -1.39189 3.48287 2.25754
# Velocity P-wave (km/s) = 3.90981 6.23541 5.20418
#
# Compressibility (1/GPa) = 0.02683628
#
# Stress axis : x y z
#
# Youngs Moduli (GPa) = 76.53051 52.84429 58.40091
#
# Poissons Ratio (x) = 0.08567 0.23128
# Poissons Ratio (y) = 0.12407 0.32454
# Poissons Ratio (z) = 0.30308 0.29366
#
# Static dielectric constant tensor:
#      x y z
#    x 4.281290 0.000000 0.460130 
#    y 0.000000 3.692980 0.000000 
#    z 0.460130 0.000000 3.990800 
# 
# 
# High freq. dielectric constant tensor:
#      x y z
#    x 1.841400 0.000000 0.016930 
#    y 0.000000 1.782500 0.000000 
#    z 0.016930 0.000000 1.797880 
# 
# From -- ./inp_files/118942.got.cif
#   From: 2010.06.25/outbox.cif.g09.slc.cpg/sg12_60_cif.got.tgz:118942.got - 2010.06.28 00:19:55.
