data_PCOD8105458
_publ_section_title
;
Structure prediction by ZEFSAII (Michael W. Deem and Ramdas Pophale) SiO2 
 PCOD8105458
Probable space group: C 2/M
;
_chemical_formula_sum "Si O2"
_cell_formula_units_Z 48
_cell_length_a 30.090981
_cell_length_b 13.775109
_cell_length_c 14.877758
_cell_angle_alpha 90.000000
_cell_angle_beta 159.729885
_cell_angle_gamma 90.000000
_cell_volume 2136.510076
_symmetry_space_group_name_H-M "C 2/M"
_symmetry_group_IT_number 12
_symmetry_cell_setting 'monoclinic'
loop_
_space_group_symop_operation_xyz
x,y,z
-x,y,-z
-x,-y,-z
x,-y,z
1/2+x,1/2+y,z
1/2-x,1/2+y,-z
1/2-x,1/2-y,-z
1/2+x,1/2-y,z
loop_
_atom_site_type_symbol
_atom_site_label
_atom_site_fract_x
_atom_site_fract_y
_atom_site_fract_z
Si Si1 0.646324 0.885653 0.254459
Si Si2 0.139064 0.393017 0.589919
Si Si3 0.802911 0.254357 0.812526
Si Si4 0.627114 0.392750 0.183752
Si Si5 0.683214 0.606851 0.907036
Si Si6 0.608367 0.802646 0.823003
O O1 0.704635 0.841630 0.273152
O O2 0.746619 0.855261 0.522766
O O3 0.646551 0.000000 0.240456
O O4 0.500000 0.849662 0.000000
O O5 0.114979 0.500000 0.499373
O O6 0.169671 0.307499 0.575576
O O7 0.256266 0.401002 0.880040
O O8 0.021474 0.362586 0.430260
O O9 0.898714 0.174930 0.951009
O O10 0.856123 0.296744 0.005147
O O11 0.654294 0.500000 0.198887
O O12 0.500000 0.389740 0.000000
O O13 0.622267 0.500000 0.768381
O O14 0.782352 0.635075 0.017649
O O15 0.584007 0.696867 0.729776
#
# Coordination Sequence:
#
# PCOD8105458 Si02
#       6
#     8   8   8   8   8   8
#     4  10  23  41  61  88 125 167 210 259 316 373
#     4  10  21  37  61  90 120 157 201 249 305 372
#     4  11  23  36  58  89 121 153 199 256 311 361
#     4  10  22  40  63  87 118 167 215 254 309 378
#     4   9  19  39  60  84 119 159 203 247 302 369
#     4  10  21  34  59  91 117 155 200 251 303 368
#
# _framework density 22.466545
#
# number of rings (size 3 to 8) (size 9 to 14) (size 15 to 20)
#    0.000    2.000    0.000    2.500    4.667    3.333 
#    0.000    0.833    0.000   14.000    0.000    0.000 
#    0.000    0.000    0.000    0.000    0.000    0.000 
#
# Total GULP energy -297315.212274 kJ/mol
# GULP energy per Si atom -12388.133845 kJ/mol
# Density = 2.241541 g / cm^3
# Si number density = 22.466545 Si / 1000 Ang^3
#
#
#
# Elastic Constant Matrix: (Units=GPa)
#
#
# Indices 1 2 3 4 5 6 
#
# 1 106.0120 33.2347 9.9364 0.0000 5.2805 0.0000
# 2 33.2347 122.2072 12.8340 0.0000 4.7851 0.0000
# 3 9.9364 12.8340 67.2643 0.0000 16.2569 0.0000
# 4 0.0000 0.0000 0.0000 11.6043 0.0000 2.7710
# 5 5.2805 4.7851 16.2569 0.0000 25.2506 0.0000
# 6 0.0000 0.0000 0.0000 2.7710 0.0000 32.3384
#
#
#
# Elastic Compliance Matrix: (Units=1/GPa)
#
#
# Indices 1 2 3 4 5 6 
#
# 1 0.010410 -0.002707 -0.000733 0.000000 -0.001192 0.000000
# 2 -0.002707 0.009064 -0.001245 0.000000 -0.000350 0.000000
# 3 -0.000733 -0.001245 0.017904 0.000000 -0.011138 0.000000
# 4 0.000000 0.000000 0.000000 0.087975 0.000000 -0.007538
# 5 -0.001192 -0.000350 -0.011138 0.000000 0.047090 0.000000
# 6 0.000000 0.000000 0.000000 -0.007538 0.000000 0.031569
#
#
# Mechanical properties :
#
#
# Convention : Reuss Voigt Hill
#
# Bulk Modulus (GPa) = 35.70510 45.27711 40.49110
# Shear Modulus (GPa) = 22.44998 29.80388 26.12693
#
# Velocity S-wave (km/s) = 3.16454 3.64619 3.41387
# Velocity P-wave (km/s) = 5.41105 6.15818 5.79666
#
# Compressibility (1/GPa) = 0.02800720
#
# Stress axis : x y z
#
# Youngs Moduli (GPa) = 96.06411 110.33246 55.85204
#
# Poissons Ratio (x) = 0.29870 0.04095
# Poissons Ratio (y) = 0.26007 0.06952
# Poissons Ratio (z) = 0.07043 0.13734
#
# Static dielectric constant tensor:
#      x y z
#    x 4.115620 0.000000 0.146240 
#    y 0.000000 4.739230 0.000000 
#    z 0.146240 0.000000 3.782620 
# 
# 
# High freq. dielectric constant tensor:
#      x y z
#    x 1.896260 0.000000 0.007880 
#    y 0.000000 1.908820 0.000000 
#    z 0.007880 0.000000 1.849290 
# 
# From -- ./inp_files/204381.got.cif
#   From: 2010.06.25/outbox.cif.g09.slc.cpg/sg12_103_cif.got.tgz:204381.got - 2010.06.28 00:19:55.
