data_PCOD8105968
_publ_section_title
;
Structure prediction by ZEFSAII (Michael W. Deem and Ramdas Pophale) SiO2 
 PCOD8105968
Probable space group: C 2/M
;
_chemical_formula_sum "Si O2"
_cell_formula_units_Z 32
_cell_length_a 27.171848
_cell_length_b 9.172614
_cell_length_c 21.735945
_cell_angle_alpha 90.000000
_cell_angle_beta 18.126093
_cell_angle_gamma 90.000000
_cell_volume 1685.403043
_symmetry_space_group_name_H-M "C 2/M"
_symmetry_group_IT_number 12
_symmetry_cell_setting 'monoclinic'
loop_
_space_group_symop_operation_xyz
x,y,z
-x,y,-z
-x,-y,-z
x,-y,z
1/2+x,1/2+y,z
1/2-x,1/2+y,-z
1/2-x,1/2-y,-z
1/2+x,1/2-y,z
loop_
_atom_site_type_symbol
_atom_site_label
_atom_site_fract_x
_atom_site_fract_y
_atom_site_fract_z
Si Si1 0.606311 0.830139 0.094668
Si Si2 0.470456 0.332532 0.935409
Si Si3 0.462688 0.330095 0.702542
Si Si4 0.743919 0.832683 0.314479
O O1 0.534724 0.772470 0.116519
O O2 0.517983 0.750702 0.255466
O O3 0.569510 0.000000 0.144324
O O4 0.792754 0.796468 0.874764
O O5 0.455059 0.500000 0.932483
O O6 0.636559 0.305460 0.771417
O O7 0.327856 0.292335 0.150761
O O8 0.488946 0.500000 0.682600
O O9 0.592476 0.270483 0.500943
O O10 0.688059 0.000000 0.380273
#
# Coordination Sequence:
#
# PCOD8105968 Si02
#       4
#     8   8   8   8
#     4  10  21  36  54  77 105 137 174 215 258 306
#     4   9  19  36  56  78 105 137 173 212 255 306
#     4  10  21  36  54  77 105 137 174 215 258 306
#     4   9  19  36  56  78 105 137 173 212 255 306
#
# _framework density 18.986556
#
# number of rings (size 3 to 8) (size 9 to 14) (size 15 to 20)
#    0.000    2.500    0.000    3.000    0.000    7.000 
#    0.000    7.500    0.000    0.000    0.000    0.000 
#    0.000    0.000    0.000    0.000    0.000    0.000 
#
# Total GULP energy -198463.802034 kJ/mol
# GULP energy per Si atom -12403.987627 kJ/mol
# Density = 1.894334 g / cm^3
# Si number density = 18.986556 Si / 1000 Ang^3
#
#
#
# Elastic Constant Matrix: (Units=GPa)
#
#
# Indices 1 2 3 4 5 6 
#
# 1 45.4682 6.7621 -28.7576 -0.0014 4.9582 0.0003
# 2 6.7621 65.8741 10.4218 -0.0044 0.3923 0.0014
# 3 -28.7576 10.4218 50.3924 -0.0032 0.4320 0.0010
# 4 -0.0014 -0.0044 -0.0032 37.0881 -0.0003 1.1787
# 5 4.9582 0.3923 0.4320 -0.0003 12.8347 0.0002
# 6 0.0003 0.0014 0.0010 1.1787 0.0002 34.2896
#
#
#
# Elastic Compliance Matrix: (Units=1/GPa)
#
#
# Indices 1 2 3 4 5 6 
#
# 1 0.040884 -0.008077 0.025143 0.000003 -0.016394 -0.000001
# 2 -0.008077 0.017291 -0.008210 0.000001 0.002868 0.000000
# 3 0.025143 -0.008210 0.035982 0.000003 -0.010673 -0.000001
# 4 0.000003 0.000001 0.000003 0.026992 -0.000001 -0.000928
# 5 -0.016394 0.002868 -0.010673 -0.000001 0.084519 0.000000
# 6 -0.000001 0.000000 -0.000001 -0.000928 0.000000 0.029195
#
#
# Mechanical properties :
#
#
# Convention : Reuss Voigt Hill
#
# Bulk Modulus (GPa) = 8.93903 15.39860 12.16882
# Shear Modulus (GPa) = 19.65082 28.39637 24.02359
#
# Velocity S-wave (km/s) = 3.22061 3.87150 3.56096
# Velocity P-wave (km/s) = 4.30675 5.30213 4.83015
#
# Compressibility (1/GPa) = 0.11186892
#
# Stress axis : x y z
#
# Youngs Moduli (GPa) = 24.45917 57.83215 27.79175
#
# Poissons Ratio (x) = 0.46711 -0.69876
# Poissons Ratio (y) = 0.19756 0.22817
# Poissons Ratio (z) = -0.61497 0.47480
#
# Static dielectric constant tensor:
#      x y z
#    x 3.301260 0.000000 0.041350 
#    y 0.000000 3.407230 0.000000 
#    z 0.041350 0.000000 3.441450 
# 
# 
# High freq. dielectric constant tensor:
#      x y z
#    x 1.731640 0.000000 0.004750 
#    y 0.000000 1.740180 0.000000 
#    z 0.004750 0.000000 1.739590 
# 
# From -- ./inp_files/37535.got.cif
#   From: 2010.06.25/outbox.cif.g09.slc.cpg/sg12_19_cif.got.tgz:37535.got - 2010.06.28 00:19:55.
