data_PCOD8105362
_publ_section_title
;
Structure prediction by ZEFSAII (Michael W. Deem and Ramdas Pophale) SiO2 
 PCOD8105362
Probable space group: C 2/M
;
_chemical_formula_sum "Si O2"
_cell_formula_units_Z 56
_cell_length_a 9.543957
_cell_length_b 26.229184
_cell_length_c 15.032171
_cell_angle_alpha 90.000000
_cell_angle_beta 59.784527
_cell_angle_gamma 90.000000
_cell_volume 3251.760346
_symmetry_space_group_name_H-M "C 2/M"
_symmetry_group_IT_number 12
_symmetry_cell_setting 'monoclinic'
loop_
_space_group_symop_operation_xyz
x,y,z
-x,y,-z
-x,-y,-z
x,-y,z
1/2+x,1/2+y,z
1/2-x,1/2+y,-z
1/2-x,1/2-y,-z
1/2+x,1/2-y,z
loop_
_atom_site_type_symbol
_atom_site_label
_atom_site_fract_x
_atom_site_fract_y
_atom_site_fract_z
Si Si1 0.843707 0.219285 0.895555
Si Si2 0.081229 0.678908 0.208988
Si Si3 0.657454 0.872286 0.996259
Si Si4 0.376714 0.351076 0.220578
Si Si5 0.047197 0.057036 0.086627
Si Si6 0.086796 0.804203 0.608752
Si Si7 0.245954 0.201945 0.380019
O O1 0.887061 0.259605 0.804929
O O2 0.012202 0.190560 0.869682
O O3 0.750000 0.250000 0.000000
O O4 0.724306 0.172497 0.908420
O O5 0.128491 0.650697 0.103246
O O6 0.190029 0.657930 0.254732
O O7 0.892274 0.668474 0.291651
O O8 0.500000 0.894430 0.000000
O O9 0.773801 0.920297 0.963626
O O10 0.420573 0.408689 0.181224
O O11 0.408328 0.346863 0.316103
O O12 0.045037 0.000000 0.127407
O O13 0.000000 0.056337 0.000000
O O14 0.178767 0.824770 0.491352
O O15 0.183439 0.756637 0.617388
O O16 0.899683 0.791403 0.644303
#
# Coordination Sequence:
#
# PCOD8105362 Si02
#       7
#     8   8   8   8   8   8   8
#     4   9  21  29  45  69 112 144 173 206 251 309
#     4  11  21  32  49  76 111 147 178 211 259 317
#     4  10  22  33  50  79 109 139 179 216 264 322
#     4  11  21  34  54  80 101 143 186 219 262 324
#     4  10  21  41  59  76 106 141 179 229 275 319
#     4  10  21  35  50  75 109 144 191 214 260 315
#     4  10  21  34  50  74 110 153 177 221 257 310
#
# _framework density 17.221440999999999
#
# number of rings (size 3 to 8) (size 9 to 14) (size 15 to 20)
#    0.000    1.857    2.857    0.857    8.000    2.000 
#    0.000    0.000    0.000    0.000    0.000    5.000 
#    0.000    0.000    0.000    0.000    0.000    0.000 
#
# Total GULP energy -346975.339047 kJ/mol
# GULP energy per Si atom -12391.976395 kJ/mol
# Density = 1.718224 g / cm^3
# Si number density = 17.221441 Si / 1000 Ang^3
#
#
#
# Elastic Constant Matrix: (Units=GPa)
#
#
# Indices 1 2 3 4 5 6 
#
# 1 136.5366 44.9331 37.4299 0.0000 -7.4756 0.0000
# 2 44.9331 107.0529 36.6021 0.0000 -2.3940 0.0000
# 3 37.4299 36.6021 87.3508 0.0000 -7.1793 0.0000
# 4 0.0000 0.0000 0.0000 -23.4414 0.0000 19.8064
# 5 -7.4756 -2.3940 -7.1793 0.0000 31.1270 0.0000
# 6 0.0000 0.0000 0.0000 19.8064 0.0000 6.8370
#
#
#
# Elastic Compliance Matrix: (Units=1/GPa)
#
#
# Indices 1 2 3 4 5 6 
#
# 1 0.009052 -0.002896 -0.002553 0.000000 0.001362 0.000000
# 2 -0.002896 0.011831 -0.003771 0.000000 -0.000655 0.000000
# 3 -0.002553 -0.003771 0.014319 0.000000 0.002399 0.000000
# 4 0.000000 0.000000 0.000000 -0.012373 0.000000 0.035845
# 5 0.001362 -0.000655 0.002399 0.000000 0.032957 0.000000
# 6 0.000000 0.000000 0.000000 0.035845 0.000000 0.042423
#
#
# Mechanical properties :
#
#
# Convention : Reuss Voigt Hill
#
# Bulk Modulus (GPa) = 59.65553 63.20784 61.43168
# Shear Modulus (GPa) = 40.90477 17.03620 28.97049
#
# Velocity S-wave (km/s) = 4.87891 3.14864 4.10595
# Velocity P-wave (km/s) = 8.15192 7.07115 7.63070
#
# Compressibility (1/GPa) = 0.01676291
#
# Stress axis : x y z
#
# Youngs Moduli (GPa) = 110.47849 84.52279 69.83574
#
# Poissons Ratio (x) = 0.24476 0.17831
# Poissons Ratio (y) = 0.31992 0.26332
# Poissons Ratio (z) = 0.28208 0.31870
#
# Static dielectric constant tensor:
#      x y z
#    x 3.296860 0.000000 -0.174200 
#    y 0.000000 3.049890 0.000000 
#    z -0.174200 0.000000 3.523020 
# 
# 
# High freq. dielectric constant tensor:
#      x y z
#    x 1.676710 0.000000 -0.010190 
#    y 0.000000 1.615080 0.000000 
#    z -0.010190 0.000000 1.666650 
# 
# From -- ./inp_files/199716.got.cif
#   From: 2010.06.25/outbox.cif.g09.slc.cpg/sg12_100_cif.got.tgz:199716.got - 2010.06.28 00:19:55.
