data_PCOD8105707
_publ_section_title
;
Structure prediction by ZEFSAII (Michael W. Deem and Ramdas Pophale) SiO2 
 PCOD8105707
Probable space group: C 2/M
;
_chemical_formula_sum "Si O2"
_cell_formula_units_Z 40
_cell_length_a 13.773983
_cell_length_b 14.765599
_cell_length_c 10.320356
_cell_angle_alpha 90.000000
_cell_angle_beta 78.582638
_cell_angle_gamma 90.000000
_cell_volume 2057.429520
_symmetry_space_group_name_H-M "C 2/M"
_symmetry_group_IT_number 12
_symmetry_cell_setting 'monoclinic'
loop_
_space_group_symop_operation_xyz
x,y,z
-x,y,-z
-x,-y,-z
x,-y,z
1/2+x,1/2+y,z
1/2-x,1/2+y,-z
1/2-x,1/2-y,-z
1/2+x,1/2-y,z
loop_
_atom_site_type_symbol
_atom_site_label
_atom_site_fract_x
_atom_site_fract_y
_atom_site_fract_z
Si Si1 0.116016 0.403406 0.467032
Si Si2 0.589681 0.267181 0.076519
Si Si3 0.773868 0.608578 0.024737
Si Si4 0.761457 0.397366 0.322522
Si Si5 0.415189 0.272827 0.630847
O O1 0.165532 0.500000 0.412572
O O2 0.149744 0.375069 0.602791
O O3 0.142813 0.324076 0.359714
O O4 0.000000 0.416847 0.500000
O O5 0.667195 0.347230 0.017819
O O6 0.546876 0.287206 0.232258
O O7 0.500000 0.270570 0.000000
O O8 0.640543 0.167198 0.067992
O O9 0.777467 0.500000 0.989582
O O10 0.796710 0.627680 0.169552
O O11 0.728379 0.500000 0.336640
O O12 0.662865 0.346844 0.391862
O O13 0.500000 0.274364 0.500000
#
# Coordination Sequence:
#
# PCOD8105707 Si02
#       5
#     8   8   8   8   8
#     4   9  18  31  50  78 108 139 178 222 271 324
#     4  10  22  38  59  87 114 146 193 235 275 339
#     4   9  20  39  61  83 113 150 189 234 285 333
#     4   9  18  35  57  80 109 144 182 227 274 326
#     4  10  21  35  55  81 111 147 180 222 278 327
#
# _framework density 19.441735999999999
#
# number of rings (size 3 to 8) (size 9 to 14) (size 15 to 20)
#    0.000    2.600    0.000    0.600    5.600    2.000 
#    3.600    0.000    0.000    0.000    0.000    0.000 
#    0.000    0.000    0.000    0.000    0.000    0.000 
#
# Total GULP energy -247772.733428 kJ/mol
# GULP energy per Si atom -12388.636671 kJ/mol
# Density = 1.939749 g / cm^3
# Si number density = 19.441736 Si / 1000 Ang^3
#
#
#
# Elastic Constant Matrix: (Units=GPa)
#
#
# Indices 1 2 3 4 5 6 
#
# 1 106.2511 40.1275 67.0882 0.0000 22.3964 0.0000
# 2 40.1275 88.3845 29.6247 0.0000 7.1526 0.0000
# 3 67.0882 29.6247 91.1659 0.0000 11.8669 0.0000
# 4 0.0000 0.0000 0.0000 28.8310 0.0000 3.1646
# 5 22.3964 7.1526 11.8669 0.0000 32.9459 0.0000
# 6 0.0000 0.0000 0.0000 3.1646 0.0000 23.3415
#
#
#
# Elastic Compliance Matrix: (Units=1/GPa)
#
#
# Indices 1 2 3 4 5 6 
#
# 1 0.021143 -0.004555 -0.012944 0.000000 -0.008722 0.000000
# 2 -0.004555 0.013734 -0.001181 0.000000 0.000540 0.000000
# 3 -0.012944 -0.001181 0.020668 0.000000 0.001611 0.000000
# 4 0.000000 0.000000 0.000000 0.035209 0.000000 -0.004774
# 5 -0.008722 0.000540 0.001611 0.000000 0.035584 0.000000
# 6 0.000000 0.000000 0.000000 -0.004774 0.000000 0.043489
#
#
# Mechanical properties :
#
#
# Convention : Reuss Voigt Hill
#
# Bulk Modulus (GPa) = 54.98741 62.16468 58.57605
# Shear Modulus (GPa) = 23.44662 26.95442 25.20052
#
# Velocity S-wave (km/s) = 3.47651 3.72751 3.60419
# Velocity P-wave (km/s) = 6.66779 7.11126 6.89309
#
# Compressibility (1/GPa) = 0.01818598
#
# Stress axis : x y z
#
# Youngs Moduli (GPa) = 47.29677 72.80947 48.38320
#
# Poissons Ratio (x) = 0.33164 0.62625
# Poissons Ratio (y) = 0.21543 0.05716
# Poissons Ratio (z) = 0.61219 0.08602
#
# Static dielectric constant tensor:
#      x y z
#    x 3.331300 0.000000 0.295460 
#    y 0.000000 4.312660 0.000000 
#    z 0.295460 0.000000 3.601150 
# 
# 
# High freq. dielectric constant tensor:
#      x y z
#    x 1.737510 0.000000 0.020590 
#    y 0.000000 1.773560 0.000000 
#    z 0.020590 0.000000 1.751310 
# 
# From -- ./inp_files/59078.got.cif
#   From: 2010.06.25/outbox.cif.g09.slc.cpg/sg12_30_cif.got.tgz:59078.got - 2010.06.28 00:19:55.
