data_PCOD8105754
_publ_section_title
;
Structure prediction by ZEFSAII (Michael W. Deem and Ramdas Pophale) SiO2 
 PCOD8105754
Probable space group: C 2/M
;
_chemical_formula_sum "Si O2"
_cell_formula_units_Z 64
_cell_length_a 29.212212
_cell_length_b 9.124454
_cell_length_c 14.729959
_cell_angle_alpha 90.000000
_cell_angle_beta 60.614044
_cell_angle_gamma 90.000000
_cell_volume 3421.035530
_symmetry_space_group_name_H-M "C 2/M"
_symmetry_group_IT_number 12
_symmetry_cell_setting 'monoclinic'
loop_
_space_group_symop_operation_xyz
x,y,z
-x,y,-z
-x,-y,-z
x,-y,z
1/2+x,1/2+y,z
1/2-x,1/2+y,-z
1/2-x,1/2-y,-z
1/2+x,1/2-y,z
loop_
_atom_site_type_symbol
_atom_site_label
_atom_site_fract_x
_atom_site_fract_y
_atom_site_fract_z
Si Si1 0.028441 0.670085 0.701014
Si Si2 0.115678 0.331957 0.754145
Si Si3 0.216108 0.831802 0.606381
Si Si4 0.250372 0.669471 0.222474
Si Si5 0.447322 0.327369 0.501687
Si Si6 0.144179 0.173695 0.272898
Si Si7 0.590584 0.171450 0.161582
Si Si8 0.146937 0.331064 0.922063
O O1 0.029166 0.500000 0.675233
O O2 0.058996 0.700784 0.765420
O O3 0.057492 0.754039 0.591691
O O4 0.969209 0.726541 0.771385
O O5 0.132323 0.500000 0.722230
O O6 0.157769 0.232177 0.662177
O O7 0.114002 0.295159 0.862842
O O8 0.250000 0.750000 0.500000
O O9 0.243336 0.808880 0.676602
O O10 0.212308 0.000000 0.582240
O O11 0.243539 0.500000 0.202347
O O12 0.200178 0.759718 0.241009
O O13 0.301221 0.731855 0.121267
O O14 0.500000 0.270741 0.500000
O O15 0.449461 0.500000 0.485570
O O16 0.397352 0.278795 0.609639
O O17 0.126356 0.235775 0.193915
O O18 0.148795 0.000000 0.261493
O O19 0.595999 0.000000 0.179349
O O20 0.608895 0.206354 0.042016
O O21 0.165020 0.500000 0.905964
#
# Coordination Sequence:
#
# PCOD8105754 Si02
#       8
#     8   8   8   8   8   8   8   8
#     4  10  21  35  56  86 116 147 185 228 277 329
#     4   9  19  36  56  82 114 147 184 226 274 329
#     4  10  21  36  55  80 110 145 185 229 276 329
#     4  10  22  39  58  82 112 144 185 234 280 330
#     4  10  21  38  56  78 111 149 187 228 277 331
#     4  11  23  38  58  83 112 149 189 230 280 336
#     4  10  21  37  58  85 113 147 189 232 278 328
#     4   9  19  38  61  82 112 149 186 230 278 330
#
# _framework density 18.707785000000001
#
# number of rings (size 3 to 8) (size 9 to 14) (size 15 to 20)
#    0.000    2.125    1.250    1.125    1.750    4.750 
#    0.000    2.500    0.000    0.000    0.000    5.250 
#    0.000    0.000    0.000    0.000    0.000    0.000 
#
# Total GULP energy -396919.201750 kJ/mol
# GULP energy per Si atom -12403.725055 kJ/mol
# Density = 1.866521 g / cm^3
# Si number density = 18.707785 Si / 1000 Ang^3
#
#
#
# Elastic Constant Matrix: (Units=GPa)
#
#
# Indices 1 2 3 4 5 6 
#
# 1 106.8942 35.3842 30.4147 0.0000 3.5541 0.0000
# 2 35.3842 67.5969 40.0368 0.0000 2.9429 0.0000
# 3 30.4147 40.0368 108.8072 0.0000 4.9809 0.0000
# 4 0.0000 0.0000 0.0000 27.0050 0.0000 1.8990
# 5 3.5541 2.9429 4.9809 0.0000 15.0389 0.0000
# 6 0.0000 0.0000 0.0000 1.8990 0.0000 25.9927
#
#
#
# Elastic Compliance Matrix: (Units=1/GPa)
#
#
# Indices 1 2 3 4 5 6 
#
# 1 0.011476 -0.005225 -0.001227 0.000000 -0.001283 0.000000
# 2 -0.005225 0.021325 -0.006348 0.000000 -0.000836 0.000000
# 3 -0.001227 -0.006348 0.011981 0.000000 -0.002436 0.000000
# 4 0.000000 0.000000 0.000000 0.037221 0.000000 -0.002719
# 5 -0.001283 -0.000836 -0.002436 0.000000 0.067768 0.000000
# 6 0.000000 0.000000 0.000000 -0.002719 0.000000 0.038671
#
#
# Mechanical properties :
#
#
# Convention : Reuss Voigt Hill
#
# Bulk Modulus (GPa) = 52.12993 54.99665 53.56329
# Shear Modulus (GPa) = 22.68235 25.43814 24.06025
#
# Velocity S-wave (km/s) = 3.48581 3.69150 3.59013
# Velocity P-wave (km/s) = 6.64282 6.90153 6.77341
#
# Compressibility (1/GPa) = 0.01918284
#
# Stress axis : x y z
#
# Youngs Moduli (GPa) = 87.13607 46.89369 83.46731
#
# Poissons Ratio (x) = 0.24502 0.10238
# Poissons Ratio (y) = 0.45529 0.52984
# Poissons Ratio (z) = 0.10688 0.29768
#
# Static dielectric constant tensor:
#      x y z
#    x 3.547500 0.000000 -0.023760 
#    y 0.000000 3.542170 0.000000 
#    z -0.023760 0.000000 3.551850 
# 
# 
# High freq. dielectric constant tensor:
#      x y z
#    x 1.731770 0.000000 0.001370 
#    y 0.000000 1.726480 0.000000 
#    z 0.001370 0.000000 1.727860 
# 
# From -- ./inp_files/249123.got.cif
#   From: 2010.06.25/outbox.cif.g09.slc.cpg/sg12_125_cif.got.tgz:249123.got - 2010.06.28 00:19:55.
