data_PCOD8105826
_publ_section_title
;
Structure prediction by ZEFSAII (Michael W. Deem and Ramdas Pophale) SiO2 
 PCOD8105826
Probable space group: C 2/M
;
_chemical_formula_sum "Si O2"
_cell_formula_units_Z 64
_cell_length_a 17.826112
_cell_length_b 14.806146
_cell_length_c 18.641182
_cell_angle_alpha 90.000000
_cell_angle_beta 141.140211
_cell_angle_gamma 90.000000
_cell_volume 3086.940038
_symmetry_space_group_name_H-M "C 2/M"
_symmetry_group_IT_number 12
_symmetry_cell_setting 'monoclinic'
loop_
_space_group_symop_operation_xyz
x,y,z
-x,y,-z
-x,-y,-z
x,-y,z
1/2+x,1/2+y,z
1/2-x,1/2+y,-z
1/2-x,1/2-y,-z
1/2+x,1/2-y,z
loop_
_atom_site_type_symbol
_atom_site_label
_atom_site_fract_x
_atom_site_fract_y
_atom_site_fract_z
Si Si1 0.770257 0.895942 0.660794
Si Si2 0.041477 0.601926 0.400048
Si Si3 0.962031 0.653561 0.195442
Si Si4 0.031809 0.858382 0.803668
Si Si5 0.448909 0.102843 0.033864
Si Si6 0.785254 0.899322 0.938146
Si Si7 0.306092 0.791825 0.259466
Si Si8 0.688648 0.598725 0.794631
O O1 0.667676 0.870727 0.527505
O O2 0.894138 0.882259 0.711914
O O3 0.759943 0.824977 0.718023
O O4 0.758993 0.000000 0.678936
O O5 0.007105 0.500000 0.395655
O O6 0.051065 0.610226 0.320545
O O7 0.937817 0.665208 0.354326
O O8 0.834264 0.603716 0.102981
O O9 0.945839 0.756743 0.204088
O O10 0.010122 0.646483 0.149953
O O11 0.081147 0.911701 0.771634
O O12 0.099699 0.879260 0.928105
O O13 0.306911 0.114207 0.930238
O O14 0.491780 0.000000 0.065750
O O15 0.500000 0.150974 0.000000
O O16 0.775580 0.826035 0.867494
O O17 0.797911 0.000000 0.914823
O O18 0.321347 0.682384 0.268827
O O19 0.695638 0.500000 0.759683
#
# Coordination Sequence:
#
# PCOD8105826 Si02
#       8
#     8   8   8   8   8   8   8   8
#     4  11  25  42  64  94 126 162 206 265 326 373
#     4  10  21  41  68  92 118 160 215 268 315 365
#     4  11  20  36  59  93 123 163 210 256 304 367
#     4  12  23  39  60  92 129 169 205 250 315 388
#     4  10  21  35  58  90 127 167 208 256 309 363
#     4  11  20  35  62  93 127 164 206 253 312 381
#     4  11  22  40  63  95 124 163 209 261 315 370
#     4  11  22  40  62  90 129 170 208 247 307 388
#
# _framework density 20.732503999999999
#
# number of rings (size 3 to 8) (size 9 to 14) (size 15 to 20)
#    0.000    1.125    3.750    5.625    1.750    2.000 
#    0.000    1.250    0.000    1.500    0.000    0.000 
#    0.000    0.000    0.000    0.000    0.000    0.000 
#
# Total GULP energy -396718.538700 kJ/mol
# GULP energy per Si atom -12397.454334 kJ/mol
# Density = 2.068532 g / cm^3
# Si number density = 20.732504 Si / 1000 Ang^3
#
#
#
# Elastic Constant Matrix: (Units=GPa)
#
#
# Indices 1 2 3 4 5 6 
#
# 1 102.6814 23.1168 29.3639 -0.0001 -4.7741 -0.0001
# 2 23.1168 136.6267 30.9509 0.0000 3.0715 0.0000
# 3 29.3639 30.9509 79.1152 -0.0001 8.7929 -0.0001
# 4 -0.0001 0.0000 -0.0001 9.8034 0.0000 -12.0260
# 5 -4.7741 3.0715 8.7929 0.0000 27.8145 0.0000
# 6 -0.0001 0.0000 -0.0001 -12.0260 0.0000 -47.8132
#
#
#
# Elastic Compliance Matrix: (Units=1/GPa)
#
#
# Indices 1 2 3 4 5 6 
#
# 1 0.011324 -0.001048 -0.004168 0.000000 0.003377 0.000000
# 2 -0.001048 0.008128 -0.002769 0.000000 -0.000202 0.000000
# 3 -0.004168 -0.002769 0.015873 0.000000 -0.005428 0.000000
# 4 0.000000 0.000000 0.000000 0.077953 0.000000 -0.019607
# 5 0.003377 -0.000202 -0.005428 0.000000 0.038270 0.000000
# 6 0.000000 0.000000 0.000000 -0.019607 0.000000 -0.015983
#
#
# Mechanical properties :
#
#
# Convention : Reuss Voigt Hill
#
# Bulk Modulus (GPa) = 51.66312 53.92071 52.79191
# Shear Modulus (GPa) = 31.64831 13.62708 22.63770
#
# Velocity S-wave (km/s) = 3.91129 2.56653 3.30797
# Velocity P-wave (km/s) = 6.73577 5.90314 6.33315
#
# Compressibility (1/GPa) = 0.01935617
#
# Stress axis : x y z
#
# Youngs Moduli (GPa) = 88.31006 123.02872 62.99917
#
# Poissons Ratio (x) = 0.12888 0.26260
# Poissons Ratio (y) = 0.09251 0.17442
# Poissons Ratio (z) = 0.36811 0.34061
#
# Static dielectric constant tensor:
#      x y z
#    x 3.630850 0.000000 -0.055670 
#    y 0.000000 3.922260 0.000000 
#    z -0.055670 0.000000 3.637080 
# 
# 
# High freq. dielectric constant tensor:
#      x y z
#    x 1.797840 0.000000 -0.001720 
#    y 0.000000 1.823050 0.000000 
#    z -0.001720 0.000000 1.791010 
# 
# From -- ./inp_files/278171.got.cif
#   From: 2010.06.25/outbox.cif.g09.slc.cpg/sg12_140_cif.got.tgz:278171.got - 2010.06.28 00:19:55.
