data_PCOD8105871
_publ_section_title
;
Structure prediction by ZEFSAII (Michael W. Deem and Ramdas Pophale) SiO2 
 PCOD8105871
Probable space group: C 2/M
;
_chemical_formula_sum "Si O2"
_cell_formula_units_Z 44
_cell_length_a 14.738986
_cell_length_b 21.818092
_cell_length_c 7.988072
_cell_angle_alpha 90.000000
_cell_angle_beta 132.480890
_cell_angle_gamma 90.000000
_cell_volume 1894.479531
_symmetry_space_group_name_H-M "C 2/M"
_symmetry_group_IT_number 12
_symmetry_cell_setting 'monoclinic'
loop_
_space_group_symop_operation_xyz
x,y,z
-x,y,-z
-x,-y,-z
x,-y,z
1/2+x,1/2+y,z
1/2-x,1/2+y,-z
1/2-x,1/2-y,-z
1/2+x,1/2-y,z
loop_
_atom_site_type_symbol
_atom_site_label
_atom_site_fract_x
_atom_site_fract_y
_atom_site_fract_z
Si Si1 0.500000 0.874131 0.000000
Si Si2 0.011295 0.841184 0.201832
Si Si3 0.339642 0.430998 0.171413
Si Si4 0.108023 0.743158 0.761647
Si Si5 0.758009 0.172298 0.304540
Si Si6 0.412065 0.099647 0.237893
O O1 0.616640 0.830092 0.188201
O O2 0.474584 0.915799 0.134722
O O3 0.151187 0.820865 0.423672
O O4 0.960116 0.897783 0.248439
O O5 0.923729 0.781889 0.112152
O O6 0.000000 0.864388 0.000000
O O7 0.378116 0.500000 0.266688
O O8 0.292388 0.394016 0.273079
O O9 0.219223 0.433431 0.898115
O O10 0.229663 0.772789 0.822054
O O11 0.117361 0.671753 0.806953
O O12 0.000000 0.760462 0.500000
O O13 0.500000 0.080466 0.500000
#
# Coordination Sequence:
#
# PCOD8105871 Si02
#       6
#     4   8   8   8   8   8
#     4  10  22  36  61  90 118 164 205 238 306 376
#     4  10  21  35  62  94 123 154 200 257 308 364
#     4  10  22  40  62  85 115 166 211 251 310 356
#     4   8  17  38  59  87 122 162 199 248 309 365
#     4   9  20  40  60  88 126 154 208 247 305 380
#     4  10  22  40  63  88 128 164 205 256 307 367
#
# _framework density 23.225375
#
# number of rings (size 3 to 8) (size 9 to 14) (size 15 to 20)
#    0.000    2.545    0.000    1.636    3.818    8.727 
#    0.000   10.000    0.000    0.000    0.000    0.000 
#    0.000    0.000    0.000    0.000    0.000    0.000 
#
# Total GULP energy -272666.890605 kJ/mol
# GULP energy per Si atom -12393.949573 kJ/mol
# Density = 2.317251 g / cm^3
# Si number density = 23.225375 Si / 1000 Ang^3
#
#
#
# Elastic Constant Matrix: (Units=GPa)
#
#
# Indices 1 2 3 4 5 6 
#
# 1 103.5757 11.0326 41.5175 0.0000 15.2760 0.0000
# 2 11.0326 108.1449 -8.1389 0.0000 -1.2484 0.0000
# 3 41.5175 -8.1389 102.2075 0.0000 14.7900 0.0000
# 4 0.0000 0.0000 0.0000 15.2616 0.0000 3.7709
# 5 15.2760 -1.2484 14.7900 0.0000 47.5767 0.0000
# 6 0.0000 0.0000 0.0000 3.7709 0.0000 18.9149
#
#
#
# Elastic Compliance Matrix: (Units=1/GPa)
#
#
# Indices 1 2 3 4 5 6 
#
# 1 0.012062 -0.001611 -0.004672 0.000000 -0.002463 0.000000
# 2 -0.001611 0.009518 0.001362 0.000000 0.000343 0.000000
# 3 -0.004672 0.001362 0.012113 0.000000 -0.002230 0.000000
# 4 0.000000 0.000000 0.000000 0.068919 0.000000 -0.013740
# 5 -0.002463 0.000343 -0.002230 0.000000 0.022512 0.000000
# 6 0.000000 0.000000 0.000000 -0.013740 0.000000 0.055608
#
#
# Mechanical properties :
#
#
# Convention : Reuss Voigt Hill
#
# Bulk Modulus (GPa) = 41.92308 44.75005 43.33656
# Shear Modulus (GPa) = 25.18625 34.31843 29.75234
#
# Velocity S-wave (km/s) = 3.29664 3.84816 3.58303
# Velocity P-wave (km/s) = 5.70790 6.24932 5.98474
#
# Compressibility (1/GPa) = 0.02385321
#
# Stress axis : x y z
#
# Youngs Moduli (GPa) = 82.90398 105.06784 82.55730
#
# Poissons Ratio (x) = 0.16922 0.38567
# Poissons Ratio (y) = 0.13352 -0.11248
# Poissons Ratio (z) = 0.38729 -0.14315
#
# Static dielectric constant tensor:
#      x y z
#    x 4.190210 0.000000 0.386730 
#    y 0.000000 3.777350 0.000000 
#    z 0.386730 0.000000 4.736610 
# 
# 
# High freq. dielectric constant tensor:
#      x y z
#    x 1.902550 0.000000 0.024860 
#    y 0.000000 1.888140 0.000000 
#    z 0.024860 0.000000 1.950230 
# 
# From -- ./inp_files/65567.got.cif
#   From: 2010.06.25/outbox.cif.g09.slc.cpg/sg12_33_cif.got.tgz:65567.got - 2010.06.28 00:19:55.
