data_PCOD8105081
_publ_section_title
;
Structure prediction by ZEFSAII (Michael W. Deem and Ramdas Pophale) SiO2 
 PCOD8105081
Probable space group: C 2/M
;
_chemical_formula_sum "Si O2"
_cell_formula_units_Z 52
_cell_length_a 16.725091
_cell_length_b 14.521305
_cell_length_c 16.304820
_cell_angle_alpha 90.000000
_cell_angle_beta 140.570703
_cell_angle_gamma 90.000000
_cell_volume 2515.067993
_symmetry_space_group_name_H-M "C 2/M"
_symmetry_group_IT_number 12
_symmetry_cell_setting 'monoclinic'
loop_
_space_group_symop_operation_xyz
x,y,z
-x,y,-z
-x,-y,-z
x,-y,z
1/2+x,1/2+y,z
1/2-x,1/2+y,-z
1/2-x,1/2-y,-z
1/2+x,1/2-y,z
loop_
_atom_site_type_symbol
_atom_site_label
_atom_site_fract_x
_atom_site_fract_y
_atom_site_fract_z
Si Si1 0.000000 0.679012 0.500000
Si Si2 0.053505 0.267830 0.241518
Si Si3 0.202244 0.100941 0.797566
Si Si4 0.310117 0.664396 0.387580
Si Si5 0.097462 0.392479 0.747067
Si Si6 0.186753 0.231737 0.035590
Si Si7 0.928862 0.898713 0.642354
O O1 0.116509 0.739374 0.560503
O O2 0.044435 0.618025 0.612709
O O3 0.160837 0.322287 0.278785
O O4 0.123416 0.182748 0.342233
O O5 0.985522 0.335537 0.252932
O O6 0.961399 0.221046 0.100457
O O7 0.164089 0.105053 0.672630
O O8 0.303334 0.178366 0.899023
O O9 0.077683 0.119834 0.751988
O O10 0.257580 0.000000 0.861972
O O11 0.360196 0.603460 0.501330
O O12 0.096632 0.500000 0.770342
O O13 0.242535 0.354830 0.865510
O O14 0.250000 0.250000 0.000000
O O15 0.904362 0.000000 0.661416
#
# Coordination Sequence:
#
# PCOD8105081 Si02
#       7
#     4   8   8   8   8   8   8
#     4  12  21  42  63  88 118 166 209 242 313 362
#     4  11  24  40  62  93 126 165 202 254 309 361
#     4  11  21  38  66  92 118 158 205 254 309 373
#     4  12  21  40  64  88 130 159 197 258 311 369
#     4  11  23  41  65  90 122 162 209 256 300 365
#     4  10  20  41  60  88 120 162 207 240 307 365
#     4  11  21  38  64  93 122 160 208 254 304 366
#
# _framework density 20.675384999999999
#
# number of rings (size 3 to 8) (size 9 to 14) (size 15 to 20)
#    0.000    0.923    7.692    1.154    0.000    6.154 
#    0.000    1.538    0.000    0.923    0.000    0.000 
#    0.000    0.000    0.000    0.000    0.000    0.000 
#
# Total GULP energy -322321.174687 kJ/mol
# GULP energy per Si atom -12396.968257 kJ/mol
# Density = 2.062833 g / cm^3
# Si number density = 20.675385 Si / 1000 Ang^3
#
#
#
# Elastic Constant Matrix: (Units=GPa)
#
#
# Indices 1 2 3 4 5 6 
#
# 1 29.9361 23.8944 12.6313 0.0000 11.0191 0.0000
# 2 23.8944 133.1598 32.9716 0.0000 2.0534 0.0000
# 3 12.6313 32.9716 97.8889 0.0000 -4.6748 0.0000
# 4 0.0000 0.0000 0.0000 14.7126 0.0000 -0.7069
# 5 11.0191 2.0534 -4.6748 0.0000 22.4885 0.0000
# 6 0.0000 0.0000 0.0000 -0.7069 0.0000 11.7596
#
#
#
# Elastic Compliance Matrix: (Units=1/GPa)
#
#
# Indices 1 2 3 4 5 6 
#
# 1 0.050899 -0.007437 -0.005274 0.000000 -0.025357 0.000000
# 2 -0.007437 0.009319 -0.002067 0.000000 0.002363 0.000000
# 3 -0.005274 -0.002067 0.011842 0.000000 0.005235 0.000000
# 4 0.000000 0.000000 0.000000 0.068166 0.000000 0.004098
# 5 -0.025357 0.002363 0.005235 0.000000 0.057764 0.000000
# 6 0.000000 0.000000 0.000000 0.004098 0.000000 0.085283
#
#
# Mechanical properties :
#
#
# Convention : Reuss Voigt Hill
#
# Bulk Modulus (GPa) = 23.52570 44.44217 33.98393
# Shear Modulus (GPa) = 15.29064 22.55799 18.92431
#
# Velocity S-wave (km/s) = 2.72243 3.30670 3.02869
# Velocity P-wave (km/s) = 4.61362 6.01006 5.35753
#
# Compressibility (1/GPa) = 0.04250670
#
# Stress axis : x y z
#
# Youngs Moduli (GPa) = 19.64661 107.30235 84.44319
#
# Poissons Ratio (x) = 0.79796 0.44536
# Poissons Ratio (y) = 0.14610 0.17451
# Poissons Ratio (z) = 0.10362 0.22175
#
# Static dielectric constant tensor:
#      x y z
#    x 3.630050 0.000000 -0.136470 
#    y 0.000000 3.718540 0.000000 
#    z -0.136470 0.000000 4.528420 
# 
# 
# High freq. dielectric constant tensor:
#      x y z
#    x 1.778840 0.000000 -0.005900 
#    y 0.000000 1.804250 0.000000 
#    z -0.005900 0.000000 1.821790 
# 
# From -- ./inp_files/225788.got.cif
#   From: 2010.06.25/outbox.cif.g09.slc.cpg/sg12_113_cif.got.tgz:225788.got - 2010.06.28 00:19:55.
