data_PCOD8105768
_publ_section_title
;
Structure prediction by ZEFSAII (Michael W. Deem and Ramdas Pophale) SiO2 
 PCOD8105768
Probable space group: C 2/M
;
_chemical_formula_sum "Si O2"
_cell_formula_units_Z 64
_cell_length_a 18.827794
_cell_length_b 28.769716
_cell_length_c 9.974752
_cell_angle_alpha 90.000000
_cell_angle_beta 35.769581
_cell_angle_gamma 90.000000
_cell_volume 3158.214972
_symmetry_space_group_name_H-M "C 2/M"
_symmetry_group_IT_number 12
_symmetry_cell_setting 'monoclinic'
loop_
_space_group_symop_operation_xyz
x,y,z
-x,y,-z
-x,-y,-z
x,-y,z
1/2+x,1/2+y,z
1/2-x,1/2+y,-z
1/2-x,1/2-y,-z
1/2+x,1/2-y,z
loop_
_atom_site_type_symbol
_atom_site_label
_atom_site_fract_x
_atom_site_fract_y
_atom_site_fract_z
Si Si1 0.847576 0.135892 0.505986
Si Si2 0.955720 0.799897 0.718383
Si Si3 0.844587 0.449903 0.446667
Si Si4 0.639646 0.947116 0.276730
Si Si5 0.525178 0.804591 0.302719
Si Si6 0.403562 0.854782 0.260888
Si Si7 0.246892 0.134714 0.056472
Si Si8 0.577607 0.449148 0.751884
O O1 0.733436 0.147306 0.585671
O O2 0.814846 0.124094 0.708176
O O3 0.934560 0.092411 0.334588
O O4 0.934555 0.180550 0.359816
O O5 0.931142 0.747264 0.803232
O O6 0.836597 0.832657 0.911409
O O7 0.000000 0.797679 0.500000
O O8 0.913344 0.500000 0.324588
O O9 0.805082 0.442954 0.660594
O O10 0.930953 0.408255 0.263238
O O11 0.720629 0.451307 0.556857
O O12 0.500000 0.929985 0.500000
O O13 0.645893 0.000000 0.211305
O O14 0.721882 0.914406 0.058560
O O15 0.500000 0.810207 0.500000
O O16 0.413478 0.820983 0.376902
O O17 0.631526 0.838228 0.095611
O O18 0.500000 0.839701 0.000000
O O19 0.534157 0.500000 0.764156
O O20 0.500000 0.435571 0.000000
#
# Coordination Sequence:
#
# PCOD8105768 Si02
#       8
#     8   8   8   8   8   8   8   8
#     4  10  22  39  58  88 123 150 195 252 304 349
#     4   9  22  40  59  85 117 155 201 247 295 357
#     4   9  19  35  54  83 117 152 196 236 282 351
#     4  10  21  35  56  89 123 155 198 243 286 344
#     4  11  22  40  64  87 113 160 205 243 297 361
#     4  11  21  37  62  88 120 156 191 250 306 349
#     4  11  20  37  63  86 120 161 197 243 297 357
#     4   9  19  36  59  81 112 156 195 235 287 356
#
# _framework density 20.264610999999999
#
# number of rings (size 3 to 8) (size 9 to 14) (size 15 to 20)
#    0.000    2.000    1.250    2.250    1.750    1.250 
#    0.000    0.625    0.000    2.250    0.000    0.000 
#    0.000    0.000    0.000    0.000    0.000    0.000 
#
# Total GULP energy -396602.931681 kJ/mol
# GULP energy per Si atom -12393.841615 kJ/mol
# Density = 2.021849 g / cm^3
# Si number density = 20.264611 Si / 1000 Ang^3
#
#
#
# Elastic Constant Matrix: (Units=GPa)
#
#
# Indices 1 2 3 4 5 6 
#
# 1 84.5806 46.6908 11.8309 -0.0003 2.1997 -0.0004
# 2 46.6908 135.2393 35.7124 0.0000 8.8891 -0.0001
# 3 11.8309 35.7124 54.3317 -0.0003 8.3214 -0.0004
# 4 -0.0003 0.0000 -0.0003 6.6567 0.0002 -21.4365
# 5 2.1997 8.8891 8.3214 0.0002 27.5430 0.0003
# 6 -0.0004 -0.0001 -0.0004 -21.4365 0.0003 -1.8721
#
#
#
# Elastic Compliance Matrix: (Units=1/GPa)
#
#
# Indices 1 2 3 4 5 6 
#
# 1 0.014613 -0.005102 0.000103 0.000000 0.000448 0.000000
# 2 -0.005102 0.010764 -0.005761 0.000000 -0.001326 0.000000
# 3 0.000103 -0.005761 0.022948 0.000000 -0.005082 0.000000
# 4 0.000000 0.000000 0.000000 0.003966 0.000001 -0.045418
# 5 0.000448 -0.001326 -0.005082 0.000001 0.038234 0.000001
# 6 0.000000 0.000000 0.000000 -0.045418 0.000001 -0.014104
#
#
# Mechanical properties :
#
#
# Convention : Reuss Voigt Hill
#
# Bulk Modulus (GPa) = 37.30644 51.40219 44.35431
# Shear Modulus (GPa) = 46.78189 18.46004 32.62096
#
# Velocity S-wave (km/s) = 4.80995 3.02147 4.01652
# Velocity P-wave (km/s) = 7.02119 6.13131 6.59128
#
# Compressibility (1/GPa) = 0.02680502
#
# Stress axis : x y z
#
# Youngs Moduli (GPa) = 68.43059 92.90050 43.57594
#
# Poissons Ratio (x) = 0.47396 -0.00447
# Poissons Ratio (y) = 0.34912 0.25106
# Poissons Ratio (z) = -0.00702 0.53523
#
# Static dielectric constant tensor:
#      x y z
#    x 3.700980 0.000000 -0.081970 
#    y 0.000000 4.220380 0.000000 
#    z -0.081970 0.000000 3.490390 
# 
# 
# High freq. dielectric constant tensor:
#      x y z
#    x 1.786460 0.000000 -0.007800 
#    y 0.000000 1.803430 0.000000 
#    z -0.007800 0.000000 1.772360 
# 
# From -- ./inp_files/170594.got.cif
#   From: 2010.06.25/outbox.cif.g09.slc.cpg/sg12_86_cif.got.tgz:170594.got - 2010.06.28 00:19:55.
