data_PCOD8105475
_publ_section_title
;
Structure prediction by ZEFSAII (Michael W. Deem and Ramdas Pophale) SiO2 
 PCOD8105475
Probable space group: C 2/M
;
_chemical_formula_sum "Si O2"
_cell_formula_units_Z 48
_cell_length_a 17.858900
_cell_length_b 9.856649
_cell_length_c 15.606053
_cell_angle_alpha 90.000000
_cell_angle_beta 94.532135
_cell_angle_gamma 90.000000
_cell_volume 2738.526721
_symmetry_space_group_name_H-M "C 2/M"
_symmetry_group_IT_number 12
_symmetry_cell_setting 'monoclinic'
loop_
_space_group_symop_operation_xyz
x,y,z
-x,y,-z
-x,-y,-z
x,-y,z
1/2+x,1/2+y,z
1/2-x,1/2+y,-z
1/2-x,1/2-y,-z
1/2+x,1/2-y,z
loop_
_atom_site_type_symbol
_atom_site_label
_atom_site_fract_x
_atom_site_fract_y
_atom_site_fract_z
Si Si1 0.425003 0.155342 0.656200
Si Si2 0.320532 0.156924 0.488893
Si Si3 0.903615 0.152591 0.171018
Si Si4 0.916751 0.847499 0.804860
Si Si5 0.598761 0.843703 0.678790
Si Si6 0.417972 0.339284 0.988998
O O1 0.384490 0.189059 0.563901
O O2 0.388932 0.247200 0.727901
O O3 0.512286 0.189289 0.650118
O O4 0.413315 0.000000 0.682687
O O5 0.250000 0.250000 0.500000
O O6 0.353011 0.195092 0.399395
O O7 0.296104 0.000000 0.490871
O O8 0.870956 0.253677 0.239529
O O9 0.993630 0.157034 0.177853
O O10 0.875890 0.000000 0.189589
O O11 0.874037 0.200435 0.073209
O O12 0.880456 0.799669 0.893624
O O13 0.890300 0.000000 0.779025
O O14 0.609155 0.000000 0.705343
O O15 0.428056 0.500000 0.990439
O O16 0.500000 0.269777 0.000000
#
# Coordination Sequence:
#
# PCOD8105475 Si02
#       6
#     8   8   8   8   8   8
#     4   9  17  30  47  66  89 117 147 179 218 263
#     4  10  21  35  49  65  87 116 148 182 222 266
#     4   8  13  22  38  61  88 117 147 177 210 251
#     4   8  13  22  38  61  88 117 147 177 210 251
#     4   9  17  30  47  66  89 117 147 179 218 263
#     4   7  10  18  33  55  86 119 144 169 207 253
#
# _framework density 17.527671999999999
#
# number of rings (size 3 to 8) (size 9 to 14) (size 15 to 20)
#    0.000    3.500    0.000    2.500    0.000    3.333 
#    0.000    0.833    0.000   10.000    0.000    1.167 
#    0.000    0.000    0.000    0.000    0.000    0.000 
#
# Total GULP energy -297327.884183 kJ/mol
# GULP energy per Si atom -12388.661841 kJ/mol
# Density = 1.748778 g / cm^3
# Si number density = 17.527672 Si / 1000 Ang^3
#
#
#
# Elastic Constant Matrix: (Units=GPa)
#
#
# Indices 1 2 3 4 5 6 
#
# 1 34.7794 29.6476 35.5873 0.0000 -11.3272 0.0000
# 2 29.6476 79.2966 82.1279 0.0000 -15.0018 0.0000
# 3 35.5873 82.1279 175.7839 0.0000 -30.1901 0.0000
# 4 0.0000 0.0000 0.0000 32.7678 0.0000 -1.3449
# 5 -11.3272 -15.0018 -30.1901 0.0000 7.5675 0.0000
# 6 0.0000 0.0000 0.0000 -1.3449 0.0000 18.0574
#
#
#
# Elastic Compliance Matrix: (Units=1/GPa)
#
#
# Indices 1 2 3 4 5 6 
#
# 1 0.076070 -0.020725 0.021542 0.000000 0.158718 0.000000
# 2 -0.020725 0.030284 -0.015787 0.000000 -0.033970 0.000000
# 3 0.021542 -0.015787 0.028162 0.000000 0.113300 0.000000
# 4 0.000000 0.000000 0.000000 0.030611 0.000000 0.002280
# 5 0.158718 -0.033970 0.113300 0.000000 0.754379 0.000000
# 6 0.000000 0.000000 0.000000 0.002280 0.000000 0.055549
#
#
# Mechanical properties :
#
#
# Convention : Reuss Voigt Hill
#
# Bulk Modulus (GPa) = 9.56251 64.95395 37.25823
# Shear Modulus (GPa) = 4.80836 21.17836 12.99336
#
# Velocity S-wave (km/s) = 1.65809 3.47980 2.72565
# Velocity P-wave (km/s) = 3.02211 7.29957 5.58646
#
# Compressibility (1/GPa) = 0.10457510
#
# Stress axis : x y z
#
# Youngs Moduli (GPa) = 13.14580 33.02056 35.50823
#
# Poissons Ratio (x) = 0.68435 -0.76491
# Poissons Ratio (y) = 0.27245 0.56058
# Poissons Ratio (z) = -0.28318 0.52131
#
# Static dielectric constant tensor:
#      x y z
#    x 2.697540 0.000000 -0.086500 
#    y 0.000000 3.193770 0.000000 
#    z -0.086500 0.000000 3.804660 
# 
# 
# High freq. dielectric constant tensor:
#      x y z
#    x 1.613750 0.000000 -0.006520 
#    y 0.000000 1.658910 0.000000 
#    z -0.006520 0.000000 1.701280 
# 
# From -- ./inp_files/222053.got.cif
#   From: 2010.06.25/outbox.cif.g09.slc.cpg/sg12_112_cif.got.tgz:222053.got - 2010.06.28 00:19:55.
