data_PCOD8105381
_publ_section_title
;
Structure prediction by ZEFSAII (Michael W. Deem and Ramdas Pophale) SiO2 
 PCOD8105381
Probable space group: C 2/M
;
_chemical_formula_sum "Si O2"
_cell_formula_units_Z 64
_cell_length_a 25.843351
_cell_length_b 13.675423
_cell_length_c 10.072093
_cell_angle_alpha 90.000000
_cell_angle_beta 89.970056
_cell_angle_gamma 90.000000
_cell_volume 3559.666099
_symmetry_space_group_name_H-M "C 2/M"
_symmetry_group_IT_number 12
_symmetry_cell_setting 'monoclinic'
loop_
_space_group_symop_operation_xyz
x,y,z
-x,y,-z
-x,-y,-z
x,-y,z
1/2+x,1/2+y,z
1/2-x,1/2+y,-z
1/2-x,1/2-y,-z
1/2+x,1/2-y,z
loop_
_atom_site_type_symbol
_atom_site_label
_atom_site_fract_x
_atom_site_fract_y
_atom_site_fract_z
Si Si1 0.307034 0.613745 0.634643
Si Si2 0.536706 0.387461 0.117080
Si Si3 0.305204 0.886736 0.472917
Si Si4 0.192342 0.888328 0.851120
Si Si5 0.852285 0.797302 0.889515
Si Si6 0.860897 0.204982 0.395618
Si Si7 0.467722 0.388164 0.371975
Si Si8 0.808840 0.390240 0.783497
O O1 0.315950 0.500000 0.620479
O O2 0.249675 0.643632 0.589664
O O3 0.316019 0.644619 0.786413
O O4 0.349721 0.664136 0.542220
O O5 0.552706 0.500000 0.093356
O O6 0.587967 0.323582 0.123796
O O7 0.505911 0.372564 0.251178
O O8 0.500000 0.349273 0.000000
O O9 0.348603 0.821222 0.398960
O O10 0.303287 0.861691 0.628955
O O11 0.318372 0.000000 0.446581
O O12 0.174916 0.851327 0.707965
O O13 0.253970 0.881785 0.856800
O O14 0.173494 0.000000 0.871045
O O15 0.167477 0.820522 0.963384
O O16 0.847936 0.681814 0.859170
O O17 0.920369 0.186847 0.358161
O O18 0.500000 0.359814 0.500000
O O19 0.447035 0.500000 0.378046
O O20 0.830900 0.500000 0.796712
#
# Coordination Sequence:
#
# PCOD8105381 Si02
#       8
#     8   8   8   8   8   8   8   8
#     4  11  20  32  55  85 114 144 185 228 270 333
#     4  10  21  38  56  77 111 146 179 224 282 338
#     4  10  21  37  56  82 115 150 189 231 274 324
#     4  11  22  35  54  85 120 148 180 223 277 338
#     4  12  22  36  58  85 112 151 190 227 274 332
#     4  12  20  35  58  78 107 152 190 221 277 336
#     4  10  21  34  51  79 109 136 176 233 282 325
#     4  10  21  38  56  81 116 151 188 230 273 324
#
# _framework density 17.979213999999999
#
# number of rings (size 3 to 8) (size 9 to 14) (size 15 to 20)
#    0.000    1.250    2.500    5.250    0.000    2.000 
#    0.000    1.875    0.000    1.500    0.000    0.000 
#    0.000    0.000    0.000    0.000    0.000    0.000 
#
# Total GULP energy -396935.401725 kJ/mol
# GULP energy per Si atom -12404.231304 kJ/mol
# Density = 1.793829 g / cm^3
# Si number density = 17.979214 Si / 1000 Ang^3
#
#
#
# Elastic Constant Matrix: (Units=GPa)
#
#
# Indices 1 2 3 4 5 6 
#
# 1 85.1770 60.8161 19.8655 0.0000 -0.0606 0.0000
# 2 60.8161 97.9519 28.9595 0.0000 7.5080 0.0000
# 3 19.8655 28.9595 72.6125 0.0000 7.3510 0.0000
# 4 0.0000 0.0000 0.0000 29.5358 0.0000 -0.2373
# 5 -0.0606 7.5080 7.3510 0.0000 14.0138 0.0000
# 6 0.0000 0.0000 0.0000 -0.2373 0.0000 32.7513
#
#
#
# Elastic Compliance Matrix: (Units=1/GPa)
#
#
# Indices 1 2 3 4 5 6 
#
# 1 0.021959 -0.013878 -0.001304 0.000000 0.008214 0.000000
# 2 -0.013878 0.020560 -0.003466 0.000000 -0.009257 0.000000
# 3 -0.001304 -0.003466 0.016183 0.000000 -0.006638 0.000000
# 4 0.000000 0.000000 0.000000 0.033859 0.000000 0.000245
# 5 0.008214 -0.009257 -0.006638 0.000000 0.079835 0.000000
# 6 0.000000 0.000000 0.000000 0.000245 0.000000 0.030535
#
#
# Mechanical properties :
#
#
# Convention : Reuss Voigt Hill
#
# Bulk Modulus (GPa) = 46.71701 52.78041 49.74871
# Shear Modulus (GPa) = 20.21328 25.00019 22.60673
#
# Velocity S-wave (km/s) = 3.35663 3.73299 3.54980
# Velocity P-wave (km/s) = 6.40804 6.92823 6.67321
#
# Compressibility (1/GPa) = 0.02140548
#
# Stress axis : x y z
#
# Youngs Moduli (GPa) = 45.53926 48.63866 61.79394
#
# Poissons Ratio (x) = 0.67500 0.08060
# Poissons Ratio (y) = 0.63199 0.21417
# Poissons Ratio (z) = 0.05940 0.16857
#
# Static dielectric constant tensor:
#      x y z
#    x 3.169190 0.000000 0.036990 
#    y 0.000000 3.398070 0.000000 
#    z 0.036990 0.000000 3.402130 
# 
# 
# High freq. dielectric constant tensor:
#      x y z
#    x 1.680210 0.000000 0.000780 
#    y 0.000000 1.688210 0.000000 
#    z 0.000780 0.000000 1.707360 
# 
# From -- ./inp_files/96864.got.cif
#   From: 2010.06.25/outbox.cif.g09.slc.cpg/sg12_49_cif.got.tgz:96864.got - 2010.06.28 00:19:55.
