data_PCOD8105441
_publ_section_title
;
Structure prediction by ZEFSAII (Michael W. Deem and Ramdas Pophale) SiO2 
 PCOD8105441
Probable space group: C 2/M
;
_chemical_formula_sum "Si O2"
_cell_formula_units_Z 52
_cell_length_a 25.725673
_cell_length_b 16.453914
_cell_length_c 11.210532
_cell_angle_alpha 90.000000
_cell_angle_beta 32.817934
_cell_angle_gamma 90.000000
_cell_volume 2571.807566
_symmetry_space_group_name_H-M "C 2/M"
_symmetry_group_IT_number 12
_symmetry_cell_setting 'monoclinic'
loop_
_space_group_symop_operation_xyz
x,y,z
-x,y,-z
-x,-y,-z
x,-y,z
1/2+x,1/2+y,z
1/2-x,1/2+y,-z
1/2-x,1/2-y,-z
1/2+x,1/2-y,z
loop_
_atom_site_type_symbol
_atom_site_label
_atom_site_fract_x
_atom_site_fract_y
_atom_site_fract_z
Si Si1 0.000000 0.642987 0.500000
Si Si2 0.189392 0.087123 0.242318
Si Si3 0.607291 0.088097 0.520087
Si Si4 0.489428 0.766427 0.157439
Si Si5 0.691393 0.614900 0.966901
Si Si6 0.483181 0.407635 0.264975
Si Si7 0.851374 0.710104 0.962795
O O1 0.948403 0.589601 0.498826
O O2 0.920522 0.698637 0.716303
O O3 0.188785 0.077286 0.102224
O O4 0.083516 0.112032 0.491991
O O5 0.214477 0.000000 0.249369
O O6 0.273646 0.141303 0.132141
O O7 0.585078 0.167948 0.642572
O O8 0.578550 0.000000 0.634562
O O9 0.720750 0.081767 0.279373
O O10 0.460146 0.670055 0.223144
O O11 0.590589 0.780700 0.026626
O O12 0.500000 0.789400 0.000000
O O13 0.593593 0.593337 0.088748
O O14 0.708514 0.710100 0.950388
O O15 0.462313 0.500000 0.252586
#
# Coordination Sequence:
#
# PCOD8105441 Si02
#       7
#     4   8   8   8   8   8   8
#     4  10  21  34  56  88 119 160 193 244 302 352
#     4  11  21  34  56  88 126 159 190 237 297 364
#     4  11  22  37  60  89 122 158 200 243 296 359
#     4  10  24  44  63  85 116 159 207 254 301 346
#     4  11  21  34  59  90 127 160 190 237 300 365
#     4  10  22  39  61  89 121 158 201 247 299 357
#     4  10  22  35  59  86 120 157 199 246 292 360
#
# _framework density 20.219242999999999
#
# number of rings (size 3 to 8) (size 9 to 14) (size 15 to 20)
#    0.000    1.538    1.538    3.462    6.462    4.308 
#    0.000    6.923    0.000    3.692    0.000    0.000 
#    0.000    0.000    0.000    0.000    0.000    0.000 
#
# Total GULP energy -322138.664181 kJ/mol
# GULP energy per Si atom -12389.948622 kJ/mol
# Density = 2.017322 g / cm^3
# Si number density = 20.219243 Si / 1000 Ang^3
#
#
#
# Elastic Constant Matrix: (Units=GPa)
#
#
# Indices 1 2 3 4 5 6 
#
# 1 50.5930 36.9031 43.2067 0.0000 13.0695 0.0000
# 2 36.9031 155.3776 52.9578 0.0000 3.4288 0.0000
# 3 43.2067 52.9578 111.8998 0.0000 -3.8106 0.0000
# 4 0.0000 0.0000 0.0000 24.6527 0.0000 -2.3387
# 5 13.0695 3.4288 -3.8106 0.0000 26.1398 0.0000
# 6 0.0000 0.0000 0.0000 -2.3387 0.0000 10.1386
#
#
#
# Elastic Compliance Matrix: (Units=1/GPa)
#
#
# Indices 1 2 3 4 5 6 
#
# 1 0.041043 -0.004296 -0.014566 0.000000 -0.022081 0.000000
# 2 -0.004296 0.008186 -0.002190 0.000000 0.000755 0.000000
# 3 -0.014566 -0.002190 0.015934 0.000000 0.009893 0.000000
# 4 0.000000 0.000000 0.000000 0.041471 0.000000 0.009566
# 5 -0.022081 0.000755 0.009893 0.000000 0.050639 0.000000
# 6 0.000000 0.000000 0.000000 0.009566 0.000000 0.100840
#
#
# Mechanical properties :
#
#
# Convention : Reuss Voigt Hill
#
# Bulk Modulus (GPa) = 43.36695 64.88953 54.12824
# Shear Modulus (GPa) = 16.23894 24.50641 20.37267
#
# Velocity S-wave (km/s) = 2.83705 3.48520 3.17770
# Velocity P-wave (km/s) = 5.67686 6.95400 6.34763
#
# Compressibility (1/GPa) = 0.02305903
#
# Stress axis : x y z
#
# Youngs Moduli (GPa) = 24.36489 122.16166 62.75889
#
# Poissons Ratio (x) = 0.52480 0.91416
# Poissons Ratio (y) = 0.10467 0.13742
# Poissons Ratio (z) = 0.35490 0.26748
#
# Static dielectric constant tensor:
#      x y z
#    x 3.289440 0.000000 -0.156340 
#    y 0.000000 4.185310 0.000000 
#    z -0.156340 0.000000 3.669610 
# 
# 
# High freq. dielectric constant tensor:
#      x y z
#    x 1.747330 0.000000 -0.019640 
#    y 0.000000 1.820520 0.000000 
#    z -0.019640 0.000000 1.789020 
# 
# From -- ./inp_files/184298.got.cif
#   From: 2010.06.25/outbox.cif.g09.slc.cpg/sg12_93_cif.got.tgz:184298.got - 2010.06.28 00:19:55.
