data_PCOD8105697
_publ_section_title
;
Structure prediction by ZEFSAII (Michael W. Deem and Ramdas Pophale) SiO2 
 PCOD8105697
Probable space group: C 2/M
;
_chemical_formula_sum "Si O2"
_cell_formula_units_Z 56
_cell_length_a 11.435080
_cell_length_b 16.403040
_cell_length_c 19.135926
_cell_angle_alpha 90.000000
_cell_angle_beta 133.004079
_cell_angle_gamma 90.000000
_cell_volume 2624.893359
_symmetry_space_group_name_H-M "C 2/M"
_symmetry_group_IT_number 12
_symmetry_cell_setting 'monoclinic'
loop_
_space_group_symop_operation_xyz
x,y,z
-x,y,-z
-x,-y,-z
x,-y,z
1/2+x,1/2+y,z
1/2-x,1/2+y,-z
1/2-x,1/2-y,-z
1/2+x,1/2-y,z
loop_
_atom_site_type_symbol
_atom_site_label
_atom_site_fract_x
_atom_site_fract_y
_atom_site_fract_z
Si Si1 0.509200 0.405265 0.312938
Si Si2 0.869489 0.826753 0.390650
Si Si3 0.426840 0.403101 0.124602
Si Si4 0.256306 0.091409 0.212446
Si Si5 0.158070 0.635398 0.602106
Si Si6 0.923649 0.403085 0.040001
Si Si7 0.960533 0.403048 0.764112
O O1 0.472725 0.500000 0.313435
O O2 0.424984 0.350771 0.336409
O O3 0.436714 0.376652 0.209422
O O4 0.697770 0.387326 0.391010
O O5 0.848940 0.730847 0.385818
O O6 0.697631 0.866911 0.335942
O O7 0.000000 0.858218 0.500000
O O8 0.442272 0.500000 0.127418
O O9 0.578903 0.366209 0.142848
O O10 0.259098 0.371266 0.025284
O O11 0.325158 0.087748 0.318715
O O12 0.384114 0.134196 0.212942
O O13 0.235178 0.000000 0.175514
O O14 0.000000 0.603561 0.500000
O O15 0.919494 0.500000 0.032641
O O16 0.000000 0.366730 0.000000
O O17 0.026108 0.375932 0.149146
O O18 0.953358 0.500000 0.753585
#
# Coordination Sequence:
#
# PCOD8105697 Si02
#       7
#     8   8   8   8   8   8   8
#     4  10  21  38  60  86 113 150 197 239 287 345
#     4  11  25  38  56  81 118 155 190 237 297 348
#     4   8  15  31  54  82 112 145 188 233 282 338
#     4   9  19  35  56  83 115 146 185 240 289 335
#     4  10  23  38  59  81 110 153 202 236 283 349
#     4   9  16  28  52  83 115 148 185 232 280 338
#     4  10  21  35  54  86 117 145 189 239 287 339
#
# _framework density 21.334201
#
# number of rings (size 3 to 8) (size 9 to 14) (size 15 to 20)
#    0.000    2.429    0.000    2.571    4.000    6.286 
#    0.000    2.857    0.000    3.429    7.429    0.000 
#    0.000    0.000    0.000    0.000    0.000    0.000 
#
# Total GULP energy -347092.827198 kJ/mol
# GULP energy per Si atom -12396.172400 kJ/mol
# Density = 2.128564 g / cm^3
# Si number density = 21.334201 Si / 1000 Ang^3
#
#
#
# Elastic Constant Matrix: (Units=GPa)
#
#
# Indices 1 2 3 4 5 6 
#
# 1 141.4668 6.2271 45.5571 0.0000 6.2915 0.0000
# 2 6.2271 24.3295 11.5842 0.0000 -1.5959 0.0000
# 3 45.5571 11.5842 98.3440 0.0000 28.7484 0.0000
# 4 0.0000 0.0000 0.0000 9.5600 0.0000 -4.0656
# 5 6.2915 -1.5959 28.7484 0.0000 35.6558 0.0000
# 6 0.0000 0.0000 0.0000 -4.0656 0.0000 24.4538
#
#
#
# Elastic Compliance Matrix: (Units=1/GPa)
#
#
# Indices 1 2 3 4 5 6 
#
# 1 0.008436 0.000162 -0.004571 0.000000 0.002205 0.000000
# 2 0.000162 0.045346 -0.007852 0.000000 0.008332 0.000000
# 3 -0.004571 -0.007852 0.017111 0.000000 -0.013341 0.000000
# 4 0.000000 0.000000 0.000000 0.112561 0.000000 0.018714
# 5 0.002205 0.008332 -0.013341 0.000000 0.038786 0.000000
# 6 0.000000 0.000000 0.000000 0.018714 0.000000 0.044005
#
#
# Mechanical properties :
#
#
# Convention : Reuss Voigt Hill
#
# Bulk Modulus (GPa) = 21.56576 43.43078 32.49827
# Shear Modulus (GPa) = 16.32790 27.31871 21.82330
#
# Velocity S-wave (km/s) = 2.76948 3.58231 3.20179
# Velocity P-wave (km/s) = 4.51189 6.12471 5.37909
#
# Compressibility (1/GPa) = 0.04636981
#
# Stress axis : x y z
#
# Youngs Moduli (GPa) = 118.54322 22.05265 58.44254
#
# Poissons Ratio (x) = -0.00357 0.26716
# Poissons Ratio (y) = -0.01921 0.45890
# Poissons Ratio (z) = 0.54190 0.17316
#
# Static dielectric constant tensor:
#      x y z
#    x 4.195280 0.000000 0.243730 
#    y 0.000000 3.341230 0.000000 
#    z 0.243730 0.000000 3.970630 
# 
# 
# High freq. dielectric constant tensor:
#      x y z
#    x 1.854260 0.000000 0.012480 
#    y 0.000000 1.791790 0.000000 
#    z 0.012480 0.000000 1.835360 
# 
# From -- ./inp_files/264331.got.cif
#   From: 2010.06.25/outbox.cif.g09.slc.cpg/sg12_133_cif.got.tgz:264331.got - 2010.06.28 00:19:55.
