data_PCOD8105404
_publ_section_title
;
Structure prediction by ZEFSAII (Michael W. Deem and Ramdas Pophale) SiO2 
 PCOD8105404
Probable space group: C 2/M
;
_chemical_formula_sum "Si O2"
_cell_formula_units_Z 56
_cell_length_a 29.055594
_cell_length_b 20.232322
_cell_length_c 9.309505
_cell_angle_alpha 90.000000
_cell_angle_beta 30.421367
_cell_angle_gamma 90.000000
_cell_volume 2771.133867
_symmetry_space_group_name_H-M "C 2/M"
_symmetry_group_IT_number 12
_symmetry_cell_setting 'monoclinic'
loop_
_space_group_symop_operation_xyz
x,y,z
-x,y,-z
-x,-y,-z
x,-y,z
1/2+x,1/2+y,z
1/2-x,1/2+y,-z
1/2-x,1/2-y,-z
1/2+x,1/2-y,z
loop_
_atom_site_type_symbol
_atom_site_label
_atom_site_fract_x
_atom_site_fract_y
_atom_site_fract_z
Si Si1 0.245271 0.074507 0.948323
Si Si2 0.274603 0.426823 0.677395
Si Si3 0.418414 0.353543 0.118513
Si Si4 0.919831 0.923409 0.812750
Si Si5 0.513689 0.787826 0.118159
Si Si6 0.160901 0.294943 0.245605
Si Si7 0.087969 0.363318 0.182345
O O1 0.194910 0.080031 0.238327
O O2 0.175089 0.089260 0.010725
O O3 0.286765 0.000000 0.820027
O O4 0.321666 0.131371 0.736516
O O5 0.299035 0.500000 0.553676
O O6 0.323958 0.371361 0.450480
O O7 0.165696 0.418284 0.958747
O O8 0.500000 0.379291 0.000000
O O9 0.421353 0.388154 0.959134
O O10 0.422727 0.275324 0.082310
O O11 0.000000 0.893011 0.500000
O O12 0.938045 0.000000 0.791357
O O13 0.417149 0.763087 0.444578
O O14 0.563145 0.838330 0.090748
O O15 0.500000 0.823130 0.000000
O O16 0.124491 0.301816 0.180470
O O17 0.250000 0.250000 0.000000
O O18 0.000000 0.394210 0.500000
#
# Coordination Sequence:
#
# PCOD8105404 Si02
#       7
#     8   8   8   8   8   8   8
#     4   9  20  38  60  87 118 152 200 249 297 355
#     4  10  21  39  63  89 118 156 198 241 299 363
#     4  11  24  36  56  83 123 159 196 244 299 357
#     4  10  21  34  53  81 115 158 200 238 291 355
#     4  10  24  40  56  86 123 156 198 250 300 352
#     4  10  22  37  64  89 117 158 207 248 296 355
#     4   9  21  41  61  88 118 153 200 247 299 349
#
# _framework density 20.208335000000002
#
# number of rings (size 3 to 8) (size 9 to 14) (size 15 to 20)
#    0.000    2.143    0.000    1.286   12.000    4.857 
#    0.000    2.143    0.000    0.857    0.000    0.000 
#    0.000    0.000    0.000    0.000    0.000    0.000 
#
# Total GULP energy -347151.736881 kJ/mol
# GULP energy per Si atom -12398.276317 kJ/mol
# Density = 2.016234 g / cm^3
# Si number density = 20.208335 Si / 1000 Ang^3
#
#
#
# Elastic Constant Matrix: (Units=GPa)
#
#
# Indices 1 2 3 4 5 6 
#
# 1 142.4975 30.6896 24.6806 0.0000 19.8586 0.0000
# 2 30.6896 75.4208 27.0994 0.0000 2.3479 0.0000
# 3 24.6806 27.0994 79.1973 0.0000 1.2960 0.0000
# 4 0.0000 0.0000 0.0000 27.1342 0.0000 -0.2218
# 5 19.8586 2.3479 1.2960 0.0000 32.8983 0.0000
# 6 0.0000 0.0000 0.0000 -0.2218 0.0000 23.1772
#
#
#
# Elastic Compliance Matrix: (Units=1/GPa)
#
#
# Indices 1 2 3 4 5 6 
#
# 1 0.008581 -0.002744 -0.001655 0.000000 -0.004919 0.000000
# 2 -0.002744 0.016020 -0.004638 0.000000 0.000696 0.000000
# 3 -0.001655 -0.004638 0.014717 0.000000 0.000750 0.000000
# 4 0.000000 0.000000 0.000000 0.036857 0.000000 0.000353
# 5 -0.004919 0.000696 0.000750 0.000000 0.033287 0.000000
# 6 0.000000 0.000000 0.000000 0.000353 0.000000 0.043149
#
#
# Mechanical properties :
#
#
# Convention : Reuss Voigt Hill
#
# Bulk Modulus (GPa) = 47.07023 51.33942 49.20483
# Shear Modulus (GPa) = 28.12697 30.95169 29.53933
#
# Velocity S-wave (km/s) = 3.73480 3.91785 3.82742
# Velocity P-wave (km/s) = 6.47621 6.77689 6.62826
#
# Compressibility (1/GPa) = 0.02124485
#
# Stress axis : x y z
#
# Youngs Moduli (GPa) = 116.54104 62.42084 67.94830
#
# Poissons Ratio (x) = 0.17128 0.11243
# Poissons Ratio (y) = 0.31978 0.31515
# Poissons Ratio (z) = 0.19283 0.28951
#
# Static dielectric constant tensor:
#      x y z
#    x 3.851360 0.000000 0.037820 
#    y 0.000000 3.512810 0.000000 
#    z 0.037820 0.000000 3.631540 
# 
# 
# High freq. dielectric constant tensor:
#      x y z
#    x 1.803340 0.000000 0.003690 
#    y 0.000000 1.772110 0.000000 
#    z 0.003690 0.000000 1.780670 
# 
# From -- ./inp_files/113332.got.cif
#   From: 2010.06.25/outbox.cif.g09.slc.cpg/sg12_57_cif.got.tgz:113332.got - 2010.06.28 00:19:55.
