data_PCOD8105422
_publ_section_title
;
Structure prediction by ZEFSAII (Michael W. Deem and Ramdas Pophale) SiO2 
 PCOD8105422
Probable space group: C 2/M
;
_chemical_formula_sum "Si O2"
_cell_formula_units_Z 56
_cell_length_a 10.162792
_cell_length_b 22.506249
_cell_length_c 18.841189
_cell_angle_alpha 90.000000
_cell_angle_beta 37.140451
_cell_angle_gamma 90.000000
_cell_volume 2601.936327
_symmetry_space_group_name_H-M "C 2/M"
_symmetry_group_IT_number 12
_symmetry_cell_setting 'monoclinic'
loop_
_space_group_symop_operation_xyz
x,y,z
-x,y,-z
-x,-y,-z
x,-y,z
1/2+x,1/2+y,z
1/2-x,1/2+y,-z
1/2-x,1/2-y,-z
1/2+x,1/2-y,z
loop_
_atom_site_type_symbol
_atom_site_label
_atom_site_fract_x
_atom_site_fract_y
_atom_site_fract_z
Si Si1 0.344795 0.929508 0.770122
Si Si2 0.433602 0.738633 0.363830
Si Si3 0.113374 0.754310 0.775975
Si Si4 0.447925 0.396293 0.706794
Si Si5 0.571832 0.380722 0.123422
Si Si6 0.397209 0.066436 0.474216
Si Si7 0.514128 0.124042 0.143382
O O1 0.510684 0.905059 0.637854
O O2 0.405243 0.893431 0.813929
O O3 0.100199 0.912354 0.853963
O O4 0.363640 0.000000 0.775908
O O5 0.250000 0.750000 0.500000
O O6 0.654595 0.772631 0.290272
O O7 0.353966 0.759776 0.321249
O O8 0.483584 0.669672 0.341248
O O9 0.954613 0.809382 0.859975
O O10 0.015661 0.694934 0.852793
O O11 0.446992 0.409597 0.790906
O O12 0.634698 0.435717 0.589271
O O13 0.211442 0.410565 0.775834
O O14 0.809496 0.395280 0.990727
O O15 0.500000 0.099477 0.500000
O O16 0.491580 0.000000 0.433499
#
# Coordination Sequence:
#
# PCOD8105422 Si02
#       7
#     8   8   8   8   8   8   8
#     4  11  25  43  67  97 126 167 216 265 323 374
#     4  10  21  34  54  86 124 156 199 260 315 374
#     4  10  22  38  58  89 121 170 215 248 316 379
#     4  10  23  38  62  90 121 161 206 258 319 374
#     4  11  22  41  66  88 125 173 220 260 304 378
#     4  10  21  41  67  89 118 159 211 261 307 385
#     4  11  24  41  60  93 133 165 209 267 318 378
#
# _framework density 21.522431999999998
#
# number of rings (size 3 to 8) (size 9 to 14) (size 15 to 20)
#    0.000    1.571    1.429    2.571    4.000    2.286 
#    0.000    5.714    0.000    2.571    0.000    0.000 
#    0.000    0.000    0.000    0.000    0.000    0.000 
#
# Total GULP energy -347249.665878 kJ/mol
# GULP energy per Si atom -12401.773781 kJ/mol
# Density = 2.147345 g / cm^3
# Si number density = 21.522432 Si / 1000 Ang^3
#
#
#
# Elastic Constant Matrix: (Units=GPa)
#
#
# Indices 1 2 3 4 5 6 
#
# 1 111.1868 4.4973 32.7319 0.0066 -10.4632 0.0015
# 2 4.4973 34.8066 10.3676 0.0026 -2.3056 -0.0001
# 3 32.7319 10.3676 148.5533 0.0051 -12.1965 0.0013
# 4 0.0066 0.0026 0.0051 25.7170 0.0032 -5.2193
# 5 -10.4632 -2.3056 -12.1965 0.0032 33.7370 0.0006
# 6 0.0015 -0.0001 0.0013 -5.2193 0.0006 23.3146
#
#
#
# Elastic Compliance Matrix: (Units=1/GPa)
#
#
# Indices 1 2 3 4 5 6 
#
# 1 0.009802 -0.000538 -0.001933 -0.000003 0.002304 -0.000001
# 2 -0.000538 0.029425 -0.001838 -0.000003 0.001180 0.000000
# 3 -0.001933 -0.001838 0.007447 -0.000001 0.001967 -0.000001
# 4 -0.000003 -0.000003 -0.000001 0.040735 -0.000005 0.009119
# 5 0.002304 0.001180 0.001967 -0.000005 0.031148 -0.000002
# 6 -0.000001 0.000000 -0.000001 0.009119 -0.000002 0.044933
#
#
# Mechanical properties :
#
#
# Convention : Reuss Voigt Hill
#
# Bulk Modulus (GPa) = 26.27716 43.30448 34.79082
# Shear Modulus (GPa) = 27.05717 33.01704 30.03710
#
# Velocity S-wave (km/s) = 3.54949 3.92098 3.73985
# Velocity P-wave (km/s) = 5.38834 6.37676 5.90327
#
# Compressibility (1/GPa) = 0.03805586
#
# Stress axis : x y z
#
# Youngs Moduli (GPa) = 102.02517 33.98423 134.27718
#
# Poissons Ratio (x) = 0.01829 0.25954
# Poissons Ratio (y) = 0.05490 0.24683
# Poissons Ratio (z) = 0.19720 0.06247
#
# Static dielectric constant tensor:
#      x y z
#    x 4.118820 -0.000010 -0.040930 
#    y -0.000010 3.718960 0.000010 
#    z -0.040930 0.000010 4.022840 
# 
# 
# High freq. dielectric constant tensor:
#      x y z
#    x 1.850040 0.000000 0.000110 
#    y 0.000000 1.831320 0.000000 
#    z 0.000110 0.000000 1.852700 
# 
# From -- ./inp_files/124347.got.cif
#   From: 2010.06.25/outbox.cif.g09.slc.cpg/sg12_63_cif.got.tgz:124347.got - 2010.06.28 00:19:55.
