data_PCOD8105131
_publ_section_title
;
Structure prediction by ZEFSAII (Michael W. Deem and Ramdas Pophale) SiO2 
 PCOD8105131
Probable space group: C 2/M
;
_chemical_formula_sum "Si O2"
_cell_formula_units_Z 64
_cell_length_a 22.796331
_cell_length_b 20.971693
_cell_length_c 16.593542
_cell_angle_alpha 90.000000
_cell_angle_beta 158.320421
_cell_angle_gamma 90.000000
_cell_volume 2930.574392
_symmetry_space_group_name_H-M "C 2/M"
_symmetry_group_IT_number 12
_symmetry_cell_setting 'monoclinic'
loop_
_space_group_symop_operation_xyz
x,y,z
-x,y,-z
-x,-y,-z
x,-y,z
1/2+x,1/2+y,z
1/2-x,1/2+y,-z
1/2-x,1/2-y,-z
1/2+x,1/2-y,z
loop_
_atom_site_type_symbol
_atom_site_label
_atom_site_fract_x
_atom_site_fract_y
_atom_site_fract_z
Si Si1 0.659698 0.072794 0.579807
Si Si2 0.317207 0.070482 0.783957
Si Si3 0.356548 0.134812 0.126977
Si Si4 0.386549 0.572167 0.729025
Si Si5 0.158888 0.927149 0.741666
Si Si6 0.512707 0.760304 0.821210
Si Si7 0.294541 0.354575 0.891471
Si Si8 0.749809 0.834967 0.433893
O O1 0.511287 0.089809 0.332517
O O2 0.826966 0.077817 0.745370
O O3 0.664601 0.124633 0.658770
O O4 0.637763 0.000000 0.583585
O O5 0.298576 0.082797 0.855172
O O6 0.232253 0.127073 0.626860
O O7 0.246158 0.000000 0.671456
O O8 0.500000 0.071905 0.000000
O O9 0.400352 0.199901 0.137183
O O10 0.285302 0.145629 0.123693
O O11 0.213645 0.103522 0.894644
O O12 0.373150 0.500000 0.681630
O O13 0.263133 0.614337 0.522124
O O14 0.565715 0.594163 0.942409
O O15 0.000000 0.895745 0.500000
O O16 0.121519 0.000000 0.714215
O O17 0.421835 0.802039 0.772699
O O18 0.389202 0.716669 0.614240
O O19 0.635960 0.716979 0.030143
#
# Coordination Sequence:
#
# PCOD8105131 Si02
#       8
#     8   8   8   8   8   8   8   8
#     4  11  24  44  71 102 136 173 222 283 341 397
#     4  10  21  38  65  99 129 158 214 272 326 394
#     4  12  24  46  67  96 136 177 222 269 337 398
#     4  10  21  39  69 100 132 167 216 281 341 395
#     4  10  24  43  64  97 133 167 209 268 334 396
#     4  10  23  43  64  92 133 174 227 273 318 392
#     4  11  25  42  66  97 135 178 224 273 326 402
#     4  10  20  41  66  94 126 175 222 270 329 386
#
# _framework density 21.838722000000001
#
# number of rings (size 3 to 8) (size 9 to 14) (size 15 to 20)
#    0.000    1.500    1.250    3.000    3.500    3.500 
#    4.500    1.250    0.000    0.000    0.000    0.000 
#    0.000    0.000    0.000    0.000    0.000    0.000 
#
# Total GULP energy -396728.484252 kJ/mol
# GULP energy per Si atom -12397.765133 kJ/mol
# Density = 2.178902 g / cm^3
# Si number density = 21.838722 Si / 1000 Ang^3
#
#
#
# Elastic Constant Matrix: (Units=GPa)
#
#
# Indices 1 2 3 4 5 6 
#
# 1 74.8676 36.7157 27.7709 0.0000 -0.4093 0.0000
# 2 36.7157 121.9563 38.9960 0.0000 -9.5723 0.0000
# 3 27.7709 38.9960 97.8960 0.0000 -4.6905 0.0000
# 4 0.0000 0.0000 0.0000 40.8627 0.0000 -14.4174
# 5 -0.4093 -9.5723 -4.6905 0.0000 36.5469 0.0000
# 6 0.0000 0.0000 0.0000 -14.4174 0.0000 41.2020
#
#
#
# Elastic Compliance Matrix: (Units=1/GPa)
#
#
# Indices 1 2 3 4 5 6 
#
# 1 0.016504 -0.004071 -0.003122 0.000000 -0.001282 0.000000
# 2 -0.004071 0.010547 -0.002934 0.000000 0.002340 0.000000
# 3 -0.003122 -0.002934 0.012307 0.000000 0.000776 0.000000
# 4 0.000000 0.000000 0.000000 0.027919 0.000000 0.009769
# 5 -0.001282 0.002340 0.000776 0.000000 0.028060 0.000000
# 6 0.000000 0.000000 0.000000 0.009769 0.000000 0.027689
#
#
# Mechanical properties :
#
#
# Convention : Reuss Voigt Hill
#
# Bulk Modulus (GPa) = 52.34571 55.74277 54.04424
# Shear Modulus (GPa) = 33.41148 36.47148 34.94148
#
# Velocity S-wave (km/s) = 3.91566 4.09104 4.00431
# Velocity P-wave (km/s) = 6.66817 6.92067 6.79559
#
# Compressibility (1/GPa) = 0.01910376
#
# Stress axis : x y z
#
# Youngs Moduli (GPa) = 60.58998 94.81099 81.25780
#
# Poissons Ratio (x) = 0.38600 0.25365
# Poissons Ratio (y) = 0.24668 0.23844
# Poissons Ratio (z) = 0.18914 0.27821
#
# Static dielectric constant tensor:
#      x y z
#    x 3.914440 0.000000 -0.017100 
#    y 0.000000 4.142020 0.000000 
#    z -0.017100 0.000000 4.043750 
# 
# 
# High freq. dielectric constant tensor:
#      x y z
#    x 1.857750 0.000000 0.012000 
#    y 0.000000 1.861290 0.000000 
#    z 0.012000 0.000000 1.856090 
# 
# From -- ./inp_files/290946.got.cif
#   From: 2010.06.25/outbox.cif.g09.slc.cpg/sg12_146_cif.got.tgz:290946.got - 2010.06.28 00:19:55.
