data_PCOD8105062
_publ_section_title
;
Structure prediction by ZEFSAII (Michael W. Deem and Ramdas Pophale) SiO2 
 PCOD8105062
Probable space group: C 2/M
;
_chemical_formula_sum "Si O2"
_cell_formula_units_Z 64
_cell_length_a 11.961263
_cell_length_b 14.618468
_cell_length_c 25.870938
_cell_angle_alpha 90.000000
_cell_angle_beta 39.218680
_cell_angle_gamma 90.000000
_cell_volume 2860.235820
_symmetry_space_group_name_H-M "C 2/M"
_symmetry_group_IT_number 12
_symmetry_cell_setting 'monoclinic'
loop_
_space_group_symop_operation_xyz
x,y,z
-x,y,-z
-x,-y,-z
x,-y,z
1/2+x,1/2+y,z
1/2-x,1/2+y,-z
1/2-x,1/2-y,-z
1/2+x,1/2-y,z
loop_
_atom_site_type_symbol
_atom_site_label
_atom_site_fract_x
_atom_site_fract_y
_atom_site_fract_z
Si Si1 0.010996 0.604880 0.902203
Si Si2 0.880802 0.897542 0.390602
Si Si3 0.368537 0.605744 0.918899
Si Si4 0.274518 0.897123 0.273732
Si Si5 0.673057 0.606296 0.470850
Si Si6 0.808846 0.222358 0.844451
Si Si7 0.358928 0.402727 0.093433
Si Si8 0.364337 0.231831 0.333539
O O1 0.045788 0.500000 0.906545
O O2 0.061283 0.617705 0.824035
O O3 0.129427 0.670152 0.894985
O O4 0.807684 0.632591 0.985609
O O5 0.844471 0.869074 0.462817
O O6 0.783512 0.827828 0.385254
O O7 0.092693 0.892498 0.306759
O O8 0.811037 0.000000 0.403769
O O9 0.359472 0.500000 0.905977
O O10 0.402119 0.666100 0.856267
O O11 0.541467 0.627713 0.890181
O O12 0.274548 0.814850 0.315558
O O13 0.286196 0.000000 0.295106
O O14 0.500000 0.638114 0.500000
O O15 0.705289 0.500000 0.451071
O O16 0.845032 0.659011 0.387020
O O17 0.770300 0.323942 0.879279
O O18 0.934472 0.240005 0.750437
O O19 0.255873 0.500000 0.138945
O O20 0.500000 0.423386 0.000000
#
# Coordination Sequence:
#
# PCOD8105062 Si02
#       8
#     8   8   8   8   8   8   8   8
#     4  10  21  40  65  91 122 161 215 268 307 355
#     4  10  21  41  66  92 126 164 199 245 306 370
#     4  10  23  43  65  87 119 169 217 259 309 363
#     4  10  21  39  62  91 125 162 208 258 306 362
#     4  10  20  40  69  96 122 157 204 255 301 361
#     4  12  25  36  62  93 128 158 204 257 317 367
#     4  10  24  43  59  81 119 165 209 256 311 367
#     4  12  24  36  63  99 126 159 202 254 308 370
#
# _framework density 22.375775999999998
#
# number of rings (size 3 to 8) (size 9 to 14) (size 15 to 20)
#    0.000    1.500    2.500    2.250    3.500    3.500 
#    0.000    0.000    0.000    1.875    0.000    0.000 
#    0.000    0.000    0.000    0.000    0.000    0.000 
#
# Total GULP energy -396544.239059 kJ/mol
# GULP energy per Si atom -12392.007471 kJ/mol
# Density = 2.232485 g / cm^3
# Si number density = 22.375776 Si / 1000 Ang^3
#
#
#
# Elastic Constant Matrix: (Units=GPa)
#
#
# Indices 1 2 3 4 5 6 
#
# 1 55.2643 58.7242 -2.3054 0.0002 13.9739 -0.0002
# 2 58.7242 134.9503 39.1741 0.0002 18.1300 -0.0002
# 3 -2.3054 39.1741 94.8405 0.0038 12.1686 -0.0016
# 4 0.0002 0.0002 0.0038 33.7755 -0.0004 9.5717
# 5 13.9739 18.1300 12.1686 -0.0004 19.6953 0.0002
# 6 -0.0002 -0.0002 -0.0016 9.5717 0.0002 30.7056
#
#
#
# Elastic Compliance Matrix: (Units=1/GPa)
#
#
# Indices 1 2 3 4 5 6 
#
# 1 0.046117 -0.020829 0.012449 -0.000002 -0.021239 0.000002
# 2 -0.020829 0.018556 -0.008554 0.000001 0.002981 -0.000001
# 3 0.012449 -0.008554 0.015751 -0.000002 -0.010691 0.000002
# 4 -0.000002 0.000001 -0.000002 0.032476 0.000003 -0.010124
# 5 -0.021239 0.002981 -0.010691 0.000003 0.069704 -0.000002
# 6 0.000002 -0.000001 0.000002 -0.010124 -0.000002 0.035723
#
#
# Mechanical properties :
#
#
# Convention : Reuss Voigt Hill
#
# Bulk Modulus (GPa) = 21.47796 52.91563 37.19680
# Shear Modulus (GPa) = 18.67672 29.46609 24.07140
#
# Velocity S-wave (km/s) = 2.89223 3.63281 3.28347
# Velocity P-wave (km/s) = 4.55773 6.42623 5.57087
#
# Compressibility (1/GPa) = 0.04655935
#
# Stress axis : x y z
#
# Youngs Moduli (GPa) = 21.68390 53.89021 63.48633
#
# Poissons Ratio (x) = 1.12246 -0.79037
# Poissons Ratio (y) = 0.45165 0.54303
# Poissons Ratio (z) = -0.26995 0.46095
#
# Static dielectric constant tensor:
#      x y z
#    x 3.780850 0.000000 0.122610 
#    y 0.000000 4.456920 0.000000 
#    z 0.122610 0.000000 4.070230 
# 
# 
# High freq. dielectric constant tensor:
#      x y z
#    x 1.849350 0.000000 0.020530 
#    y 0.000000 1.902040 0.000000 
#    z 0.020530 0.000000 1.874840 
# 
# From -- ./inp_files/358437.got.cif
#   From: 2010.06.25/outbox.cif.g09.slc.cpg/sg12_180_cif.got.tgz:358437.got - 2010.06.28 00:19:55.
