data_PCOD8105218
_publ_section_title
;
Structure prediction by ZEFSAII (Michael W. Deem and Ramdas Pophale) SiO2 
 PCOD8105218
Probable space group: C 2/M
;
_chemical_formula_sum "Si O2"
_cell_formula_units_Z 48
_cell_length_a 9.981740
_cell_length_b 23.238618
_cell_length_c 12.295764
_cell_angle_alpha 90.000000
_cell_angle_beta 123.563553
_cell_angle_gamma 90.000000
_cell_volume 2376.618257
_symmetry_space_group_name_H-M "C 2/M"
_symmetry_group_IT_number 12
_symmetry_cell_setting 'monoclinic'
loop_
_space_group_symop_operation_xyz
x,y,z
-x,y,-z
-x,-y,-z
x,-y,z
1/2+x,1/2+y,z
1/2-x,1/2+y,-z
1/2-x,1/2-y,-z
1/2+x,1/2-y,z
loop_
_atom_site_type_symbol
_atom_site_label
_atom_site_fract_x
_atom_site_fract_y
_atom_site_fract_z
Si Si1 0.156443 0.000000 0.368719
Si Si2 0.862571 0.596977 0.684146
Si Si3 0.966889 0.500000 0.613231
Si Si4 0.500000 0.794052 0.500000
Si Si5 0.716221 0.626286 0.395285
Si Si6 0.143650 0.000000 0.651262
Si Si7 0.962566 0.218578 0.281552
Si Si8 0.086182 0.297029 0.152787
O O1 0.264284 0.000000 0.531415
O O2 0.213740 0.061177 0.340017
O O3 0.965280 0.000000 0.287940
O O4 0.010277 0.558580 0.695984
O O5 0.760046 0.625891 0.542348
O O6 0.748742 0.557634 0.707395
O O7 0.944519 0.644059 0.796335
O O8 0.000000 0.500000 0.500000
O O9 0.649880 0.834388 0.603465
O O10 0.544600 0.754977 0.416074
O O11 0.540456 0.654997 0.310416
O O12 0.000000 0.000000 0.500000
O O13 0.774247 0.214325 0.220091
O O14 0.001174 0.246914 0.182972
O O15 0.000000 0.301704 0.000000
#
# Coordination Sequence:
#
# PCOD8105218 Si02
#       8
#     4   8   4   4   8   4   8   8
#     4  10  21  29  54  85 125 158 186 233 315 401
#     4  10  21  34  60  87 127 156 203 252 316 390
#     4   9  19  32  54  92 127 159 185 242 320 385
#     4  12  22  37  62  99 128 156 202 268 352 388
#     4  11  21  36  60  95 126 158 194 264 334 392
#     4  11  16  34  52  90 120 155 194 247 318 392
#     4  12  24  42  63  90 126 165 214 273 332 390
#     4  12  26  43  61  85 123 178 227 265 308 377
#
# _framework density 20.196764000000002
#
# number of rings (size 3 to 8) (size 9 to 14) (size 15 to 20)
#    0.000    1.000    6.667    3.000    4.667    0.000 
#    0.000    1.667    0.000    0.000    0.000    0.583 
#    0.000    0.167    0.000    0.000    0.000    0.000 
#
# Total GULP energy -297332.557309 kJ/mol
# GULP energy per Si atom -12388.856555 kJ/mol
# Density = 2.015079 g / cm^3
# Si number density = 20.196764 Si / 1000 Ang^3
#
#
#
# Elastic Constant Matrix: (Units=GPa)
#
#
# Indices 1 2 3 4 5 6 
#
# 1 87.7024 36.1712 20.3138 0.0000 -4.1048 0.0000
# 2 36.1712 150.8645 45.7724 0.0000 -8.4454 0.0000
# 3 20.3138 45.7724 78.2940 0.0000 -17.6481 0.0000
# 4 0.0000 0.0000 0.0000 13.1375 0.0000 -1.9937
# 5 -4.1048 -8.4454 -17.6481 0.0000 20.6108 0.0000
# 6 0.0000 0.0000 0.0000 -1.9937 0.0000 22.8208
#
#
#
# Elastic Compliance Matrix: (Units=1/GPa)
#
#
# Indices 1 2 3 4 5 6 
#
# 1 0.012874 -0.002519 -0.001886 0.000000 -0.000083 0.000000
# 2 -0.002519 0.008564 -0.004554 0.000000 -0.000892 0.000000
# 3 -0.001886 -0.004554 0.019107 0.000000 0.014118 0.000000
# 4 0.000000 0.000000 0.000000 0.077140 0.000000 0.006739
# 5 -0.000083 -0.000892 0.014118 0.000000 0.060225 0.000000
# 6 0.000000 0.000000 0.000000 0.006739 0.000000 0.044409
#
#
# Mechanical properties :
#
#
# Convention : Reuss Voigt Hill
#
# Bulk Modulus (GPa) = 44.19770 57.93064 51.06417
# Shear Modulus (GPa) = 20.17913 25.62071 22.89992
#
# Velocity S-wave (km/s) = 3.16433 3.56554 3.37091
# Velocity P-wave (km/s) = 5.93984 6.75990 6.36309
#
# Compressibility (1/GPa) = 0.02262561
#
# Stress axis : x y z
#
# Youngs Moduli (GPa) = 77.67498 116.76384 52.33738
#
# Poissons Ratio (x) = 0.29413 0.09873
# Poissons Ratio (y) = 0.19567 0.23837
# Poissons Ratio (z) = 0.14652 0.53179
#
# Static dielectric constant tensor:
#      x y z
#    x 4.326650 0.000000 0.028000 
#    y 0.000000 4.193170 0.000000 
#    z 0.028000 0.000000 3.089250 
# 
# 
# High freq. dielectric constant tensor:
#      x y z
#    x 1.805940 0.000000 -0.003050 
#    y 0.000000 1.815750 0.000000 
#    z -0.003050 0.000000 1.709100 
# 
# From -- ./inp_files/135588.got.cif
#   From: 2010.06.25/outbox.cif.g09.slc.cpg/sg12_68_cif.got.tgz:135588.got - 2010.06.28 00:19:55.
