data_PCOD8105846
_publ_section_title
;
Structure prediction by ZEFSAII (Michael W. Deem and Ramdas Pophale) SiO2 
 PCOD8105846
Probable space group: C 2/M
;
_chemical_formula_sum "Si O2"
_cell_formula_units_Z 48
_cell_length_a 7.874100
_cell_length_b 26.917585
_cell_length_c 11.566008
_cell_angle_alpha 90.000000
_cell_angle_beta 103.865263
_cell_angle_gamma 90.000000
_cell_volume 2380.005644
_symmetry_space_group_name_H-M "C 2/M"
_symmetry_group_IT_number 12
_symmetry_cell_setting 'monoclinic'
loop_
_space_group_symop_operation_xyz
x,y,z
-x,y,-z
-x,-y,-z
x,-y,z
1/2+x,1/2+y,z
1/2-x,1/2+y,-z
1/2-x,1/2-y,-z
1/2+x,1/2-y,z
loop_
_atom_site_type_symbol
_atom_site_label
_atom_site_fract_x
_atom_site_fract_y
_atom_site_fract_z
Si Si1 0.369053 0.276414 0.870916
Si Si2 0.660428 0.678781 0.796013
Si Si3 0.835568 0.056865 0.607969
Si Si4 0.406645 0.942382 0.218095
Si Si5 0.324439 0.142295 0.034887
Si Si6 0.711875 0.591392 0.648760
O O1 0.465357 0.298997 0.773538
O O2 0.298015 0.223138 0.824780
O O3 0.213100 0.313936 0.879227
O O4 0.500000 0.270213 0.000000
O O5 0.694344 0.648903 0.683776
O O6 0.678668 0.641157 0.909581
O O7 0.711558 0.073792 0.692193
O O8 0.785331 0.090305 0.489549
O O9 0.041423 0.062709 0.671487
O O10 0.796908 0.000000 0.568367
O O11 0.338561 0.911160 0.097845
O O12 0.611212 0.932493 0.273127
O O13 0.378011 0.000000 0.183967
O O14 0.500000 0.157365 0.000000
#
# Coordination Sequence:
#
# PCOD8105846 Si02
#       6
#     8   8   8   8   8   8
#     4  10  21  35  60  84 119 158 200 243 279 355
#     4  11  21  36  59  91 117 154 199 240 302 344
#     4  10  22  42  62  86 115 156 209 247 283 348
#     4  11  23  38  62  90 121 158 196 242 299 353
#     4  11  20  37  56  87 123 151 194 237 292 354
#     4  11  21  37  64  88 116 151 198 250 295 345
#
# _framework density 20.168021
#
# number of rings (size 3 to 8) (size 9 to 14) (size 15 to 20)
#    0.000    1.333    1.667    7.000    0.000    1.667 
#    0.000    0.000    0.000   15.500    0.000    0.000 
#    0.000    0.000    0.000    0.000    0.000    0.000 
#
# Total GULP energy -297558.790772 kJ/mol
# GULP energy per Si atom -12398.282949 kJ/mol
# Density = 2.012212 g / cm^3
# Si number density = 20.168021 Si / 1000 Ang^3
#
#
#
# Elastic Constant Matrix: (Units=GPa)
#
#
# Indices 1 2 3 4 5 6 
#
# 1 120.5823 56.2776 47.6881 0.0000 -22.3205 0.0000
# 2 56.2776 130.9509 67.9246 0.0000 -9.0682 0.0000
# 3 47.6881 67.9246 79.6069 0.0000 -6.6666 0.0000
# 4 0.0000 0.0000 0.0000 35.2639 0.0000 -8.1606
# 5 -22.3205 -9.0682 -6.6666 0.0000 22.1375 0.0000
# 6 0.0000 0.0000 0.0000 -8.1606 0.0000 22.6033
#
#
#
# Elastic Compliance Matrix: (Units=1/GPa)
#
#
# Indices 1 2 3 4 5 6 
#
# 1 0.013474 -0.002365 -0.005127 0.000000 0.011073 0.000000
# 2 -0.002365 0.014215 -0.010694 0.000000 0.000218 0.000000
# 3 -0.005127 -0.010694 0.024577 0.000000 -0.002148 0.000000
# 4 0.000000 0.000000 0.000000 0.030943 0.000000 0.011171
# 5 0.011073 0.000218 -0.002148 0.000000 0.055779 0.000000
# 6 0.000000 0.000000 0.000000 0.011171 0.000000 0.048275
#
#
# Mechanical properties :
#
#
# Convention : Reuss Voigt Hill
#
# Bulk Modulus (GPa) = 62.90956 74.99119 68.95038
# Shear Modulus (GPa) = 21.84063 26.61760 24.22912
#
# Velocity S-wave (km/s) = 3.29437 3.63684 3.46983
# Velocity P-wave (km/s) = 6.76246 7.40941 7.09332
#
# Compressibility (1/GPa) = 0.01589583
#
# Stress axis : x y z
#
# Youngs Moduli (GPa) = 74.21849 70.34942 40.68764
#
# Poissons Ratio (x) = 0.16635 0.20859
# Poissons Ratio (y) = 0.17550 0.43511
# Poissons Ratio (z) = 0.38048 0.75232
#
# Static dielectric constant tensor:
#      x y z
#    x 4.097200 0.000000 -0.136610 
#    y 0.000000 3.644170 0.000000 
#    z -0.136610 0.000000 3.472240 
# 
# 
# High freq. dielectric constant tensor:
#      x y z
#    x 1.810740 0.000000 -0.013510 
#    y 0.000000 1.786200 0.000000 
#    z -0.013510 0.000000 1.751280 
# 
# From -- ./inp_files/122015.got.cif
#   From: 2010.06.25/outbox.cif.g09.slc.cpg/sg12_62_cif.got.tgz:122015.got - 2010.06.28 00:19:55.
