data_PCOD8105369
_publ_section_title
;
Structure prediction by ZEFSAII (Michael W. Deem and Ramdas Pophale) SiO2 
 PCOD8105369
Probable space group: C 2/M
;
_chemical_formula_sum "Si O2"
_cell_formula_units_Z 56
_cell_length_a 24.445575
_cell_length_b 8.985102
_cell_length_c 16.078081
_cell_angle_alpha 90.000000
_cell_angle_beta 56.881355
_cell_angle_gamma 90.000000
_cell_volume 2957.764126
_symmetry_space_group_name_H-M "C 2/M"
_symmetry_group_IT_number 12
_symmetry_cell_setting 'monoclinic'
loop_
_space_group_symop_operation_xyz
x,y,z
-x,y,-z
-x,-y,-z
x,-y,z
1/2+x,1/2+y,z
1/2-x,1/2+y,-z
1/2-x,1/2-y,-z
1/2+x,1/2-y,z
loop_
_atom_site_type_symbol
_atom_site_label
_atom_site_fract_x
_atom_site_fract_y
_atom_site_fract_z
Si Si1 0.745544 0.674390 0.375894
Si Si2 0.529480 0.827826 0.064625
Si Si3 0.148319 0.325603 0.577127
Si Si4 0.624303 0.670485 0.206769
Si Si5 0.273452 0.828461 0.777820
Si Si6 0.017903 0.825470 0.735773
Si Si7 0.156896 0.169799 0.995593
O O1 0.731347 0.500000 0.384830
O O2 0.811460 0.709988 0.372255
O O3 0.683859 0.754105 0.468714
O O4 0.754989 0.736962 0.275823
O O5 0.488829 0.733175 0.164936
O O6 0.524173 0.000000 0.093925
O O7 0.500000 0.794365 0.000000
O O8 0.604727 0.779888 0.997955
O O9 0.142229 0.500000 0.566634
O O10 0.076860 0.255961 0.641167
O O11 0.633057 0.500000 0.226343
O O12 0.655184 0.771144 0.253746
O O13 0.548020 0.710769 0.260526
O O14 0.662287 0.703257 0.089136
O O15 0.225945 0.801627 0.895255
O O16 0.278399 0.000000 0.748047
O O17 0.032015 0.000000 0.727535
O O18 0.132673 0.000000 0.002835
#
# Coordination Sequence:
#
# PCOD8105369 Si02
#       7
#     8   8   8   8   8   8   8
#     4  10  22  39  59  84 114 147 183 227 280 334
#     4  10  21  34  50  78 113 146 188 233 272 323
#     4  10  21  39  62  86 113 143 183 230 280 334
#     4   9  19  37  56  79 112 150 190 228 273 332
#     4  11  22  35  56  85 114 146 189 235 279 327
#     4  10  21  37  59  82 110 149 186 224 280 338
#     4   9  20  36  53  78 111 150 190 227 278 333
#
# _framework density 18.933221
#
# number of rings (size 3 to 8) (size 9 to 14) (size 15 to 20)
#    0.000    2.143    0.000    3.429    2.000    6.857 
#    0.000    0.714    0.000    4.286    0.000    0.000 
#    0.000    0.000    0.000    0.000    0.000    0.000 
#
# Total GULP energy -347301.593649 kJ/mol
# GULP energy per Si atom -12403.628345 kJ/mol
# Density = 1.889013 g / cm^3
# Si number density = 18.933221 Si / 1000 Ang^3
#
#
#
# Elastic Constant Matrix: (Units=GPa)
#
#
# Indices 1 2 3 4 5 6 
#
# 1 64.0930 30.2527 32.0059 0.0000 -5.4829 0.0000
# 2 30.2527 75.6748 32.4182 0.0001 -4.1318 0.0001
# 3 32.0059 32.4182 65.2936 0.0000 -12.0778 0.0000
# 4 0.0000 0.0001 0.0000 34.3186 0.0000 1.1899
# 5 -5.4829 -4.1318 -12.0778 0.0000 27.8297 0.0000
# 6 0.0000 0.0001 0.0000 1.1899 0.0000 33.9354
#
#
#
# Elastic Compliance Matrix: (Units=1/GPa)
#
#
# Indices 1 2 3 4 5 6 
#
# 1 0.022251 -0.005364 -0.008242 0.000000 0.000010 0.000000
# 2 -0.005364 0.018116 -0.006592 0.000000 -0.001228 0.000000
# 3 -0.008242 -0.006592 0.024080 0.000000 0.007848 0.000000
# 4 0.000000 0.000000 0.000000 0.029174 0.000000 -0.001023
# 5 0.000010 -0.001228 0.007848 0.000000 0.039159 0.000000
# 6 0.000000 0.000000 0.000000 -0.001023 0.000000 0.029504
#
#
# Mechanical properties :
#
#
# Convention : Reuss Voigt Hill
#
# Bulk Modulus (GPa) = 41.57904 43.82388 42.70146
# Shear Modulus (GPa) = 23.73084 26.57573 25.15328
#
# Velocity S-wave (km/s) = 3.54418 3.75060 3.64885
# Velocity P-wave (km/s) = 6.22550 6.47710 6.35254
#
# Compressibility (1/GPa) = 0.02405058
#
# Stress axis : x y z
#
# Youngs Moduli (GPa) = 44.94224 55.20032 41.52784
#
# Poissons Ratio (x) = 0.29609 0.34226
# Poissons Ratio (y) = 0.24107 0.27377
# Poissons Ratio (z) = 0.37041 0.36390
#
# Static dielectric constant tensor:
#      x y z
#    x 3.392700 0.000000 -0.073530 
#    y 0.000000 3.559550 0.000000 
#    z -0.073530 0.000000 3.358450 
# 
# 
# High freq. dielectric constant tensor:
#      x y z
#    x 1.734270 0.000000 -0.003260 
#    y 0.000000 1.747920 0.000000 
#    z -0.003260 0.000000 1.725220 
# 
# From -- ./inp_files/238381.got.cif
#   From: 2010.06.25/outbox.cif.g09.slc.cpg/sg12_120_cif.got.tgz:238381.got - 2010.06.28 00:19:55.
