data_PCOD8105810
_publ_section_title
;
Structure prediction by ZEFSAII (Michael W. Deem and Ramdas Pophale) SiO2 
 PCOD8105810
Probable space group: C 2/M
;
_chemical_formula_sum "Si O2"
_cell_formula_units_Z 56
_cell_length_a 29.771661
_cell_length_b 18.416680
_cell_length_c 9.040509
_cell_angle_alpha 90.000000
_cell_angle_beta 141.947509
_cell_angle_gamma 90.000000
_cell_volume 3055.329441
_symmetry_space_group_name_H-M "C 2/M"
_symmetry_group_IT_number 12
_symmetry_cell_setting 'monoclinic'
loop_
_space_group_symop_operation_xyz
x,y,z
-x,y,-z
-x,-y,-z
x,-y,z
1/2+x,1/2+y,z
1/2-x,1/2+y,-z
1/2-x,1/2-y,-z
1/2+x,1/2-y,z
loop_
_atom_site_type_symbol
_atom_site_label
_atom_site_fract_x
_atom_site_fract_y
_atom_site_fract_z
Si Si1 0.710878 0.811234 0.992143
Si Si2 0.298349 0.704001 0.514396
Si Si3 0.584875 0.422197 0.700841
Si Si4 0.429551 0.730324 0.419001
Si Si5 0.317828 0.914405 0.338589
Si Si6 0.427404 0.201588 0.720848
Si Si7 0.310095 0.418352 0.769247
O O1 0.628528 0.783965 0.808062
O O2 0.708513 0.885389 0.890349
O O3 0.750000 0.750000 0.000000
O O4 0.752406 0.821314 0.253050
O O5 0.250000 0.750000 0.500000
O O6 0.370129 0.749292 0.661081
O O7 0.320969 0.630288 0.653584
O O8 0.500000 0.429389 0.500000
O O9 0.615360 0.500000 0.714467
O O10 0.604250 0.351645 0.652380
O O11 0.616708 0.410652 0.946708
O O12 0.500000 0.728692 0.500000
O O13 0.451927 0.755542 0.639004
O O14 0.391811 0.875136 0.582472
O O15 0.257138 0.893537 0.301960
O O16 0.331786 0.000000 0.362542
O O17 0.500000 0.184783 0.000000
O O18 0.297012 0.500000 0.679398
#
# Coordination Sequence:
#
# PCOD8105810 Si02
#       7
#     8   8   8   8   8   8   8
#     4  11  20  38  59  87 116 151 202 244 295 350
#     4  12  22  37  63  86 122 158 196 252 300 355
#     4   9  18  32  53  78 111 154 197 234 285 351
#     4  10  21  35  58  84 113 149 199 246 289 348
#     4  10  21  41  64  87 119 158 203 252 301 359
#     4  11  25  39  58  92 120 156 203 248 305 360
#     4  10  21  36  58  88 118 154 200 244 306 370
#
# _framework density 18.328628999999999
#
# number of rings (size 3 to 8) (size 9 to 14) (size 15 to 20)
#    0.000    1.571    4.286    1.714    6.000    0.857 
#    0.000    0.714    0.000    7.714    0.000    0.000 
#    0.000    0.000    0.000    0.000    0.000    0.000 
#
# Total GULP energy -347100.835950 kJ/mol
# GULP energy per Si atom -12396.458427 kJ/mol
# Density = 1.828691 g / cm^3
# Si number density = 18.328629 Si / 1000 Ang^3
#
#
#
# Elastic Constant Matrix: (Units=GPa)
#
#
# Indices 1 2 3 4 5 6 
#
# 1 90.3751 52.0451 45.1834 0.0000 -5.6505 0.0000
# 2 52.0451 132.4074 56.6703 0.0000 -13.4363 0.0000
# 3 45.1834 56.6703 149.2539 0.0000 -13.7760 0.0000
# 4 0.0000 0.0000 0.0000 -0.7892 0.0000 -23.1125
# 5 -5.6505 -13.4363 -13.7760 0.0000 25.5165 0.0000
# 6 0.0000 0.0000 0.0000 -23.1125 0.0000 22.2133
#
#
#
# Elastic Compliance Matrix: (Units=1/GPa)
#
#
# Indices 1 2 3 4 5 6 
#
# 1 0.015228 -0.004844 -0.002836 0.000000 -0.000710 0.000000
# 2 -0.004844 0.010790 -0.002321 0.000000 0.003356 0.000000
# 3 -0.002836 -0.002321 0.008703 0.000000 0.002848 0.000000
# 4 0.000000 0.000000 0.000000 -0.040262 0.000000 -0.041892
# 5 -0.000710 0.003356 0.002848 0.000000 0.042338 0.000000
# 6 0.000000 0.000000 0.000000 -0.041892 0.000000 0.001430
#
#
# Mechanical properties :
#
#
# Convention : Reuss Voigt Hill
#
# Bulk Modulus (GPa) = 67.93847 75.53712 71.73779
# Shear Modulus (GPa) = 79.19427 23.93063 51.56245
#
# Velocity S-wave (km/s) = 6.58041 3.61729 5.30973
# Velocity P-wave (km/s) = 9.74079 7.66475 8.76446
#
# Compressibility (1/GPa) = 0.01471920
#
# Stress axis : x y z
#
# Youngs Moduli (GPa) = 65.66819 92.67612 114.90638
#
# Poissons Ratio (x) = 0.44890 0.32592
# Poissons Ratio (y) = 0.31808 0.26668
# Poissons Ratio (z) = 0.18626 0.21509
#
# Static dielectric constant tensor:
#      x y z
#    x 3.347200 0.000000 -0.101620 
#    y 0.000000 3.839750 0.000000 
#    z -0.101620 0.000000 3.304990 
# 
# 
# High freq. dielectric constant tensor:
#      x y z
#    x 1.693280 0.000000 0.005060 
#    y 0.000000 1.719220 0.000000 
#    z 0.005060 0.000000 1.721550 
# 
# From -- ./inp_files/75895.got.cif
#   From: 2010.06.25/outbox.cif.g09.slc.cpg/sg12_38_cif.got.tgz:75895.got - 2010.06.28 00:19:55.
