data_PCOD8105170
_publ_section_title
;
Structure prediction by ZEFSAII (Michael W. Deem and Ramdas Pophale) SiO2 
 PCOD8105170
Probable space group: C 2/M
;
_chemical_formula_sum "Si O2"
_cell_formula_units_Z 40
_cell_length_a 10.114227
_cell_length_b 24.808185
_cell_length_c 16.649527
_cell_angle_alpha 90.000000
_cell_angle_beta 29.221336
_cell_angle_gamma 90.000000
_cell_volume 2039.453187
_symmetry_space_group_name_H-M "C 2/M"
_symmetry_group_IT_number 12
_symmetry_cell_setting 'monoclinic'
loop_
_space_group_symop_operation_xyz
x,y,z
-x,y,-z
-x,-y,-z
x,-y,z
1/2+x,1/2+y,z
1/2-x,1/2+y,-z
1/2-x,1/2-y,-z
1/2+x,1/2-y,z
loop_
_atom_site_type_symbol
_atom_site_label
_atom_site_fract_x
_atom_site_fract_y
_atom_site_fract_z
Si Si1 0.761822 0.000000 0.689816
Si Si2 0.478127 0.683432 0.106146
Si Si3 0.959848 0.109203 0.615357
Si Si4 0.971623 0.692736 0.108602
Si Si5 0.201340 0.500000 0.192375
Si Si6 0.966229 0.599466 0.610691
O O1 0.799585 0.946227 0.724739
O O2 0.482009 0.000000 0.789974
O O3 0.000000 0.000000 0.500000
O O4 0.428762 0.745380 0.156800
O O5 0.235730 0.649906 0.274218
O O6 0.500000 0.673793 0.000000
O O7 0.766425 0.665566 0.989421
O O8 0.792879 0.161715 0.724545
O O9 0.000000 0.108197 0.500000
O O10 0.241269 0.115327 0.511702
O O11 0.000000 0.687259 0.000000
O O12 0.153819 0.551384 0.273147
O O13 0.500000 0.500000 0.000000
O O14 0.000000 0.582421 0.500000
#
# Coordination Sequence:
#
# PCOD8105170 Si02
#       6
#     4   8   8   8   4   8
#     4  10  20  42  62  88 121 157 206 244 301 367
#     4  10  22  40  61  88 125 162 206 248 300 369
#     4  11  21  39  65  84 121 165 203 249 304 368
#     4  10  22  40  60  88 125 162 200 257 306 352
#     4  12  25  42  66  92 121 166 207 248 306 376
#     4  12  24  39  62  94 126 155 201 262 303 353
#
# _framework density 19.613101
#
# number of rings (size 3 to 8) (size 9 to 14) (size 15 to 20)
#    0.000    1.200    4.000    3.300    2.800    1.600 
#    0.000    0.500    0.000    0.000    0.000    0.000 
#    0.000    0.000    0.000    0.000    0.000    0.000 
#
# Total GULP energy -248021.173004 kJ/mol
# GULP energy per Si atom -12401.058650 kJ/mol
# Density = 1.956846 g / cm^3
# Si number density = 19.613101 Si / 1000 Ang^3
#
#
#
# Elastic Constant Matrix: (Units=GPa)
#
#
# Indices 1 2 3 4 5 6 
#
# 1 123.7501 35.6213 61.1887 0.0150 -37.0013 -0.0109
# 2 35.6213 104.4531 65.9953 -0.0158 -14.5162 -0.0203
# 3 61.1887 65.9953 123.1622 0.0920 -31.8477 0.0027
# 4 0.0150 -0.0158 0.0920 75.1301 -0.0410 29.1033
# 5 -37.0013 -14.5162 -31.8477 -0.0410 34.7513 -0.0221
# 6 -0.0109 -0.0203 0.0027 29.1033 -0.0221 72.8463
#
#
#
# Elastic Compliance Matrix: (Units=1/GPa)
#
#
# Indices 1 2 3 4 5 6 
#
# 1 0.013142 -0.000930 -0.003294 0.000006 0.010586 0.000003
# 2 -0.000930 0.014591 -0.007911 0.000012 -0.002145 -0.000001
# 3 -0.003294 -0.007911 0.016033 -0.000019 0.007882 0.000007
# 4 0.000006 0.000012 -0.000019 0.015747 0.000009 -0.006291
# 5 0.010586 -0.002145 0.007882 0.000009 0.046375 0.000011
# 6 0.000003 -0.000001 0.000007 -0.006291 0.000011 0.016241
#
#
# Mechanical properties :
#
#
# Convention : Reuss Voigt Hill
#
# Bulk Modulus (GPa) = 51.28964 75.21956 63.25460
# Shear Modulus (GPa) = 32.70146 49.11621 40.90884
#
# Velocity S-wave (km/s) = 4.08772 5.00968 4.57200
# Velocity P-wave (km/s) = 6.96324 8.47924 7.75836
#
# Compressibility (1/GPa) = 0.01949711
#
# Stress axis : x y z
#
# Youngs Moduli (GPa) = 76.09013 68.53471 62.37096
#
# Poissons Ratio (x) = 0.06371 0.20543
# Poissons Ratio (y) = 0.07074 0.49344
# Poissons Ratio (z) = 0.25062 0.54221
#
# Static dielectric constant tensor:
#      x y z
#    x 3.723280 0.000060 -0.156540 
#    y 0.000060 4.862890 0.000130 
#    z -0.156540 0.000130 3.427510 
# 
# 
# High freq. dielectric constant tensor:
#      x y z
#    x 1.778360 0.000000 -0.015500 
#    y 0.000000 1.776350 0.000010 
#    z -0.015500 0.000010 1.757130 
# 
# From -- ./inp_files/201138.got.cif
#   From: 2010.06.25/outbox.cif.g09.slc.cpg/sg12_101_cif.got.tgz:201138.got - 2010.06.28 00:19:55.
