data_PCOD8105103
_publ_section_title
;
Structure prediction by ZEFSAII (Michael W. Deem and Ramdas Pophale) SiO2 
 PCOD8105103
Probable space group: C 2/M
;
_chemical_formula_sum "Si O2"
_cell_formula_units_Z 56
_cell_length_a 24.112446
_cell_length_b 14.169712
_cell_length_c 19.802490
_cell_angle_alpha 90.000000
_cell_angle_beta 23.031472
_cell_angle_gamma 90.000000
_cell_volume 2647.047131
_symmetry_space_group_name_H-M "C 2/M"
_symmetry_group_IT_number 12
_symmetry_cell_setting 'monoclinic'
loop_
_space_group_symop_operation_xyz
x,y,z
-x,y,-z
-x,-y,-z
x,-y,z
1/2+x,1/2+y,z
1/2-x,1/2+y,-z
1/2-x,1/2-y,-z
1/2+x,1/2-y,z
loop_
_atom_site_type_symbol
_atom_site_label
_atom_site_fract_x
_atom_site_fract_y
_atom_site_fract_z
Si Si1 0.464704 0.605683 0.627001
Si Si2 0.934918 0.319509 0.364362
Si Si3 0.825539 0.604303 0.805204
Si Si4 0.638087 0.665965 0.122842
Si Si5 0.262818 0.221025 0.180588
Si Si6 0.251362 0.208644 0.342427
Si Si7 0.517731 0.891828 0.832082
O O1 0.506360 0.500000 0.560886
O O2 0.359897 0.608284 0.809444
O O3 0.373433 0.650183 0.667434
O O4 0.600801 0.664183 0.494374
O O5 0.781319 0.299739 0.572310
O O6 0.928476 0.385718 0.305821
O O7 0.037510 0.364324 0.305656
O O8 0.986922 0.216195 0.279766
O O9 0.852057 0.500000 0.744634
O O10 0.792822 0.678260 0.782984
O O11 0.685836 0.597061 0.009327
O O12 0.750000 0.750000 0.000000
O O13 0.318827 0.236507 0.194224
O O14 0.387926 0.178712 0.993743
O O15 0.351858 0.133780 0.265815
O O16 0.472945 0.000000 0.896977
#
# Coordination Sequence:
#
# PCOD8105103 Si02
#       7
#     8   8   8   8   8   8   8
#     4  11  21  35  61  91 123 164 209 258 316 379
#     4  10  20  41  64  90 125 170 210 264 322 368
#     4  11  20  36  65  97 125 160 216 268 316 373
#     4   9  15  32  55  87 121 152 197 254 313 357
#     4  12  23  41  63  94 130 171 206 266 321 377
#     4  11  25  41  62  87 137 169 209 255 323 384
#     4  12  25  42  67  97 129 172 218 260 318 389
#
# _framework density 21.155650999999999
#
# number of rings (size 3 to 8) (size 9 to 14) (size 15 to 20)
#    0.000    1.143    5.714    3.857    0.000    3.429 
#    0.000    2.143    0.000    2.571    0.000    0.000 
#    0.000    0.000    0.000    0.000    0.000    0.000 
#
# Total GULP energy -347014.834711 kJ/mol
# GULP energy per Si atom -12393.386954 kJ/mol
# Density = 2.110750 g / cm^3
# Si number density = 21.155651 Si / 1000 Ang^3
#
#
#
# Elastic Constant Matrix: (Units=GPa)
#
#
# Indices 1 2 3 4 5 6 
#
# 1 112.6856 32.6354 24.6284 -0.0021 12.4285 0.0010
# 2 32.6354 111.8911 13.5281 -0.0022 5.8616 0.0014
# 3 24.6284 13.5281 44.3398 -0.0025 3.6894 0.0016
# 4 -0.0021 -0.0022 -0.0025 14.3762 0.0019 -5.3102
# 5 12.4285 5.8616 3.6894 0.0019 28.1789 -0.0012
# 6 0.0010 0.0014 0.0016 -5.3102 -0.0012 18.0063
#
#
#
# Elastic Compliance Matrix: (Units=1/GPa)
#
#
# Indices 1 2 3 4 5 6 
#
# 1 0.011106 -0.002425 -0.005119 0.000001 -0.003724 0.000000
# 2 -0.002425 0.009879 -0.001602 0.000001 -0.000775 0.000000
# 3 -0.005119 -0.001602 0.025953 0.000003 -0.000807 -0.000001
# 4 0.000001 0.000001 0.000003 0.078063 -0.000005 0.023021
# 5 -0.003724 -0.000775 -0.000807 -0.000005 0.037397 0.000001
# 6 0.000000 0.000000 -0.000001 0.023021 0.000001 0.062325
#
#
# Mechanical properties :
#
#
# Convention : Reuss Voigt Hill
#
# Bulk Modulus (GPa) = 34.91130 45.61113 40.26122
# Shear Modulus (GPa) = 19.79694 25.32059 22.55877
#
# Velocity S-wave (km/s) = 3.06236 3.46334 3.26900
# Velocity P-wave (km/s) = 5.38907 6.13184 5.77242
#
# Compressibility (1/GPa) = 0.02864402
#
# Stress axis : x y z
#
# Youngs Moduli (GPa) = 90.03986 101.22453 38.53192
#
# Poissons Ratio (x) = 0.24551 0.19725
# Poissons Ratio (y) = 0.21838 0.06174
# Poissons Ratio (z) = 0.46092 0.16220
#
# Static dielectric constant tensor:
#      x y z
#    x 3.916550 0.000000 0.427540 
#    y 0.000000 3.733120 0.000000 
#    z 0.427540 0.000000 4.289510 
# 
# 
# High freq. dielectric constant tensor:
#      x y z
#    x 1.824930 0.000000 0.019080 
#    y 0.000000 1.808150 0.000000 
#    z 0.019080 0.000000 1.828930 
# 
# From -- ./inp_files/284499.got.cif
#   From: 2010.06.25/outbox.cif.g09.slc.cpg/sg12_143_cif.got.tgz:284499.got - 2010.06.28 00:19:55.
