data_PCOD8105177
_publ_section_title
;
Structure prediction by ZEFSAII (Michael W. Deem and Ramdas Pophale) SiO2 
 PCOD8105177
Probable space group: C 2/M
;
_chemical_formula_sum "Si O2"
_cell_formula_units_Z 64
_cell_length_a 31.629425
_cell_length_b 22.685358
_cell_length_c 9.685846
_cell_angle_alpha 90.000000
_cell_angle_beta 26.517462
_cell_angle_gamma 90.000000
_cell_volume 3102.896592
_symmetry_space_group_name_H-M "C 2/M"
_symmetry_group_IT_number 12
_symmetry_cell_setting 'monoclinic'
loop_
_space_group_symop_operation_xyz
x,y,z
-x,y,-z
-x,-y,-z
x,-y,z
1/2+x,1/2+y,z
1/2-x,1/2+y,-z
1/2-x,1/2-y,-z
1/2+x,1/2-y,z
loop_
_atom_site_type_symbol
_atom_site_label
_atom_site_fract_x
_atom_site_fract_y
_atom_site_fract_z
Si Si1 0.694704 0.607115 0.916090
Si Si2 0.293427 0.638085 0.570116
Si Si3 0.749108 0.272420 0.688900
Si Si4 0.462576 0.258153 0.761004
Si Si5 0.170559 0.568168 0.713101
Si Si6 0.644909 0.434351 0.357200
Si Si7 0.060346 0.330398 0.960049
Si Si8 0.545735 0.377564 0.120178
O O1 0.727118 0.674550 0.862309
O O2 0.769072 0.572593 0.603111
O O3 0.684009 0.572668 0.088731
O O4 0.598513 0.605598 0.107786
O O5 0.271029 0.706371 0.674703
O O6 0.212701 0.604703 0.719115
O O7 0.302015 0.608711 0.693707
O O8 0.389307 0.631352 0.203560
O O9 0.836020 0.299249 0.347631
O O10 0.651139 0.269355 0.888698
O O11 0.500000 0.245067 0.500000
O O12 0.511050 0.316636 0.682564
O O13 0.495865 0.202361 0.753499
O O14 0.154881 0.500000 0.799703
O O15 0.071095 0.600596 0.967981
O O16 0.666394 0.500000 0.345327
O O17 0.531638 0.426229 0.690077
O O18 0.000000 0.321946 0.000000
#
# Coordination Sequence:
#
# PCOD8105177 Si02
#       8
#     8   8   8   8   8   8   8   8
#     4   9  21  38  62  86 119 166 207 263 320 369
#     4  11  22  37  63  86 120 168 211 257 308 375
#     4  10  20  42  64  91 126 161 208 258 319 370
#     4  11  21  39  64  94 128 156 205 255 320 380
#     4  10  21  41  64  85 114 165 217 252 306 379
#     4  12  25  38  53  90 135 168 209 259 311 379
#     4  11  23  39  64  94 122 164 204 263 318 371
#     4  10  21  36  58  87 122 169 204 250 309 375
#
# _framework density 20.625889999999998
#
# number of rings (size 3 to 8) (size 9 to 14) (size 15 to 20)
#    0.000    1.500    2.500    4.125    1.750    4.750 
#    4.500    0.000    0.000    0.375    0.000    0.000 
#    0.000    0.000    0.000    0.000    0.000    0.000 
#
# Total GULP energy -396444.744545 kJ/mol
# GULP energy per Si atom -12388.898267 kJ/mol
# Density = 2.057894 g / cm^3
# Si number density = 20.625890 Si / 1000 Ang^3
#
#
#
# Elastic Constant Matrix: (Units=GPa)
#
#
# Indices 1 2 3 4 5 6 
#
# 1 80.1087 28.4185 21.4191 0.0000 8.8375 0.0000
# 2 28.4185 146.4802 5.6411 0.0000 -1.8114 0.0000
# 3 21.4191 5.6411 26.6983 0.0000 -2.0550 0.0000
# 4 0.0000 0.0000 0.0000 24.6587 0.0000 0.3202
# 5 8.8375 -1.8114 -2.0550 0.0000 9.4482 0.0000
# 6 0.0000 0.0000 0.0000 0.3202 0.0000 28.1800
#
#
#
# Elastic Compliance Matrix: (Units=1/GPa)
#
#
# Indices 1 2 3 4 5 6 
#
# 1 0.021448 -0.003762 -0.018318 0.000000 -0.024767 0.000000
# 2 -0.003762 0.007552 0.001835 0.000000 0.005366 0.000000
# 3 -0.018318 0.001835 0.054014 0.000000 0.029234 0.000000
# 4 0.000000 0.000000 0.000000 0.040560 0.000000 -0.000461
# 5 -0.024767 0.005366 0.029234 0.000000 0.136394 0.000000
# 6 0.000000 0.000000 0.000000 -0.000461 0.000000 0.035491
#
#
# Mechanical properties :
#
#
# Convention : Reuss Voigt Hill
#
# Bulk Modulus (GPa) = 23.51584 40.47161 31.99373
# Shear Modulus (GPa) = 14.28066 25.64460 19.96263
#
# Velocity S-wave (km/s) = 2.63414 3.52990 3.11439
# Velocity P-wave (km/s) = 4.54725 6.02312 5.33645
#
# Compressibility (1/GPa) = 0.04252453
#
# Stress axis : x y z
#
# Youngs Moduli (GPa) = 46.62515 132.40869 18.51369
#
# Poissons Ratio (x) = 0.49810 0.33914
# Poissons Ratio (y) = 0.17540 -0.03398
# Poissons Ratio (z) = 0.85409 -0.24301
#
# Static dielectric constant tensor:
#      x y z
#    x 3.539390 0.000000 -0.038130 
#    y 0.000000 3.967050 0.000000 
#    z -0.038130 0.000000 3.550430 
# 
# 
# High freq. dielectric constant tensor:
#      x y z
#    x 1.793700 0.000000 0.007970 
#    y 0.000000 1.817190 0.000000 
#    z 0.007970 0.000000 1.781120 
# 
# From -- ./inp_files/113614.got.cif
#   From: 2010.06.25/outbox.cif.g09.slc.cpg/sg12_57_cif.got.tgz:113614.got - 2010.06.28 00:19:55.
