data_PCOD8105676
_publ_section_title
;
Structure prediction by ZEFSAII (Michael W. Deem and Ramdas Pophale) SiO2 
 PCOD8105676
Probable space group: C 2/M
;
_chemical_formula_sum "Si O2"
_cell_formula_units_Z 52
_cell_length_a 15.620437
_cell_length_b 20.980580
_cell_length_c 10.457633
_cell_angle_alpha 90.000000
_cell_angle_beta 128.107501
_cell_angle_gamma 90.000000
_cell_volume 2696.735502
_symmetry_space_group_name_H-M "C 2/M"
_symmetry_group_IT_number 12
_symmetry_cell_setting 'monoclinic'
loop_
_space_group_symop_operation_xyz
x,y,z
-x,y,-z
-x,-y,-z
x,-y,z
1/2+x,1/2+y,z
1/2-x,1/2+y,-z
1/2-x,1/2-y,-z
1/2+x,1/2-y,z
loop_
_atom_site_type_symbol
_atom_site_label
_atom_site_fract_x
_atom_site_fract_y
_atom_site_fract_z
Si Si1 0.777429 0.377624 0.286068
Si Si2 0.157726 0.000000 0.236923
Si Si3 0.929528 0.000000 0.129602
Si Si4 0.883897 0.658941 0.932405
Si Si5 0.706299 0.617044 0.935651
Si Si6 0.668479 0.261903 0.310893
Si Si7 0.938889 0.240716 0.198557
Si Si8 0.000000 0.679276 0.500000
O O1 0.731747 0.437431 0.323957
O O2 0.770964 0.389706 0.128604
O O3 0.706705 0.315242 0.247861
O O4 0.900562 0.366594 0.448719
O O5 0.061153 0.000000 0.253295
O O6 0.107514 0.000000 0.050335
O O7 0.883961 0.062061 0.160277
O O8 0.839960 0.694135 0.766489
O O9 0.795494 0.608146 0.903570
O O10 0.894780 0.710000 0.055124
O O11 0.000000 0.626925 0.000000
O O12 0.647620 0.684658 0.864417
O O13 0.750000 0.250000 0.500000
O O14 0.553358 0.287291 0.256561
O O15 0.955595 0.276076 0.347468
#
# Coordination Sequence:
#
# PCOD8105676 Si02
#       8
#     8   4   4   8   8   8   8   4
#     4  11  21  36  57  83 120 147 190 236 290 346
#     4   9  20  37  58  85 114 149 182 242 291 335
#     4   9  20  36  61  88 105 144 202 237 277 343
#     4  10  21  35  54  81 116 151 184 234 296 342
#     4  11  20  37  60  83 113 151 192 239 285 343
#     4  11  21  34  53  86 118 146 186 239 294 341
#     4  11  21  33  56  84 117 150 186 236 292 344
#     4  12  22  33  54  89 116 152 190 234 288 352
#
# _framework density 19.282574
#
# number of rings (size 3 to 8) (size 9 to 14) (size 15 to 20)
#    0.000    1.385    4.615    2.308    0.000    1.538 
#    0.000    0.385    0.000    1.385    0.000    0.000 
#    0.000    0.000    0.000    0.000    0.000    0.000 
#
# Total GULP energy -322396.066332 kJ/mol
# GULP energy per Si atom -12399.848705 kJ/mol
# Density = 1.923869 g / cm^3
# Si number density = 19.282574 Si / 1000 Ang^3
#
#
#
# Elastic Constant Matrix: (Units=GPa)
#
#
# Indices 1 2 3 4 5 6 
#
# 1 153.1101 49.4563 22.5971 0.0000 27.2777 0.0000
# 2 49.4563 74.5065 16.4869 0.0000 16.1552 0.0000
# 3 22.5971 16.4869 74.8680 0.0000 2.3372 0.0000
# 4 0.0000 0.0000 0.0000 17.5565 0.0000 2.9373
# 5 27.2777 16.1552 2.3372 0.0000 35.1193 0.0000
# 6 0.0000 0.0000 0.0000 2.9373 0.0000 28.3028
#
#
#
# Elastic Compliance Matrix: (Units=1/GPa)
#
#
# Indices 1 2 3 4 5 6 
#
# 1 0.009133 -0.004663 -0.001579 0.000000 -0.004844 0.000000
# 2 -0.004663 0.018031 -0.002422 0.000000 -0.004511 0.000000
# 3 -0.001579 -0.002422 0.014323 0.000000 0.001387 0.000000
# 4 0.000000 0.000000 0.000000 0.057966 0.000000 -0.006016
# 5 -0.004844 -0.004511 0.001387 0.000000 0.034220 0.000000
# 6 0.000000 0.000000 0.000000 -0.006016 0.000000 0.035956
#
#
# Mechanical properties :
#
#
# Convention : Reuss Voigt Hill
#
# Bulk Modulus (GPa) = 41.39091 53.28501 47.33796
# Shear Modulus (GPa) = 25.63954 30.45867 28.04911
#
# Velocity S-wave (km/s) = 3.65043 3.97872 3.81811
# Velocity P-wave (km/s) = 6.26734 6.98575 6.63627
#
# Compressibility (1/GPa) = 0.02415989
#
# Stress axis : x y z
#
# Youngs Moduli (GPa) = 109.48793 55.45964 69.81549
#
# Poissons Ratio (x) = 0.25861 0.11021
# Poissons Ratio (y) = 0.51054 0.16912
# Poissons Ratio (z) = 0.17284 0.13435
#
# Static dielectric constant tensor:
#      x y z
#    x 3.795180 0.000000 0.317090 
#    y 0.000000 2.920780 0.000000 
#    z 0.317090 0.000000 3.412710 
# 
# 
# High freq. dielectric constant tensor:
#      x y z
#    x 1.770510 0.000000 0.017520 
#    y 0.000000 1.719910 0.000000 
#    z 0.017520 0.000000 1.736330 
# 
# From -- ./inp_files/147756.got.cif
#   From: 2010.06.25/outbox.cif.g09.slc.cpg/sg12_74_cif.got.tgz:147756.got - 2010.06.28 00:19:55.
