data_PCOD8105547
_publ_section_title
;
Structure prediction by ZEFSAII (Michael W. Deem and Ramdas Pophale) SiO2 
 PCOD8105547
Probable space group: C 2/M
;
_chemical_formula_sum "Si O2"
_cell_formula_units_Z 64
_cell_length_a 28.918066
_cell_length_b 8.759992
_cell_length_c 18.918687
_cell_angle_alpha 90.000000
_cell_angle_beta 41.030204
_cell_angle_gamma 90.000000
_cell_volume 3146.082384
_symmetry_space_group_name_H-M "C 2/M"
_symmetry_group_IT_number 12
_symmetry_cell_setting 'monoclinic'
loop_
_space_group_symop_operation_xyz
x,y,z
-x,y,-z
-x,-y,-z
x,-y,z
1/2+x,1/2+y,z
1/2-x,1/2+y,-z
1/2-x,1/2-y,-z
1/2+x,1/2-y,z
loop_
_atom_site_type_symbol
_atom_site_label
_atom_site_fract_x
_atom_site_fract_y
_atom_site_fract_z
Si Si1 0.097650 0.823112 0.622812
Si Si2 0.636664 0.327334 0.959842
Si Si3 0.549207 0.178917 0.172070
Si Si4 0.705077 0.677415 0.383400
Si Si5 0.780559 0.820709 0.790892
Si Si6 0.573005 0.326701 0.886150
Si Si7 0.318658 0.179073 0.884703
Si Si8 0.833168 0.321133 0.328919
O O1 0.129626 0.796423 0.507568
O O2 0.158277 0.766506 0.606931
O O3 0.025976 0.729186 0.710986
O O4 0.082067 0.000000 0.654818
O O5 0.652370 0.500000 0.966856
O O6 0.700798 0.216972 0.906434
O O7 0.629275 0.321781 0.884245
O O8 0.565898 0.266162 0.079520
O O9 0.610440 0.225228 0.156087
O O10 0.546678 0.000000 0.160377
O O11 0.723628 0.500000 0.354183
O O12 0.703235 0.747428 0.306258
O O13 0.766930 0.747470 0.361547
O O14 0.830265 0.740914 0.791485
O O15 0.793557 0.000000 0.778931
O O16 0.564284 0.500000 0.867152
O O17 0.596356 0.214154 0.796972
O O18 0.500000 0.263385 0.000000
O O19 0.307569 0.000000 0.895773
O O20 0.250000 0.250000 0.000000
O O21 0.826165 0.500000 0.352179
#
# Coordination Sequence:
#
# PCOD8105547 Si02
#       8
#     8   8   8   8   8   8   8   8
#     4  11  23  41  62  86 119 159 205 252 298 355
#     4  11  21  34  57  87 121 157 195 241 298 356
#     4  11  24  41  61  88 122 158 197 247 304 361
#     4   9  21  40  62  88 120 160 204 250 297 350
#     4  11  21  38  62  89 121 155 196 245 295 353
#     4  10  21  35  51  79 118 158 198 242 293 352
#     4  11  23  39  62  92 123 155 197 244 302 366
#     4  11  21  37  60  87 119 156 202 249 298 354
#
# _framework density 20.342759999999998
#
# number of rings (size 3 to 8) (size 9 to 14) (size 15 to 20)
#    0.000    1.375    2.500    3.375    0.000    3.250 
#    0.000    5.000    0.000    3.750    0.000    0.000 
#    0.000    0.000    0.000    0.000    0.000    0.000 
#
# Total GULP energy -396859.310855 kJ/mol
# GULP energy per Si atom -12401.853464 kJ/mol
# Density = 2.029646 g / cm^3
# Si number density = 20.342760 Si / 1000 Ang^3
#
#
#
# Elastic Constant Matrix: (Units=GPa)
#
#
# Indices 1 2 3 4 5 6 
#
# 1 78.1131 24.4124 26.8152 -0.0084 14.7778 0.0024
# 2 24.4124 69.1061 20.0553 -0.0137 7.7783 0.0081
# 3 26.8152 20.0553 96.2959 -0.0118 12.6917 0.0059
# 4 -0.0084 -0.0137 -0.0118 27.4948 0.0021 -0.1833
# 5 14.7778 7.7783 12.6917 0.0021 27.3150 -0.0001
# 6 0.0024 0.0081 0.0059 -0.1833 -0.0001 30.9507
#
#
#
# Elastic Compliance Matrix: (Units=1/GPa)
#
#
# Indices 1 2 3 4 5 6 
#
# 1 0.016282 -0.004224 -0.002825 0.000002 -0.006294 0.000000
# 2 -0.004224 0.016745 -0.002113 0.000006 -0.001501 -0.000004
# 3 -0.002825 -0.002113 0.012070 0.000004 -0.003478 -0.000002
# 4 0.000002 0.000006 0.000004 0.036372 -0.000007 0.000215
# 5 -0.006294 -0.001501 -0.003478 -0.000007 0.042058 0.000002
# 6 0.000000 -0.000004 -0.000002 0.000215 0.000002 0.032311
#
#
# Mechanical properties :
#
#
# Convention : Reuss Voigt Hill
#
# Bulk Modulus (GPa) = 37.35096 42.89787 40.12442
# Shear Modulus (GPa) = 27.30944 28.63421 27.97183
#
# Velocity S-wave (km/s) = 3.66794 3.75585 3.71216
# Velocity P-wave (km/s) = 6.02819 6.31996 6.17580
#
# Compressibility (1/GPa) = 0.02677308
#
# Stress axis : x y z
#
# Youngs Moduli (GPa) = 61.41597 59.71979 82.85093
#
# Poissons Ratio (x) = 0.25224 0.23405
# Poissons Ratio (y) = 0.25940 0.17510
# Poissons Ratio (z) = 0.17350 0.12621
#
# Static dielectric constant tensor:
#      x y z
#    x 3.860120 -0.000020 0.182570 
#    y -0.000020 3.549840 0.000030 
#    z 0.182570 0.000030 3.630580 
# 
# 
# High freq. dielectric constant tensor:
#      x y z
#    x 1.793930 0.000000 0.010220 
#    y 0.000000 1.787450 0.000000 
#    z 0.010220 0.000000 1.792170 
# 
# From -- ./inp_files/295519.got.cif
#   From: 2010.06.25/outbox.cif.g09.slc.cpg/sg12_148_cif.got.tgz:295519.got - 2010.06.28 00:19:55.
