data_PCOD8105786
_publ_section_title
;
Structure prediction by ZEFSAII (Michael W. Deem and Ramdas Pophale) SiO2 
 PCOD8105786
Probable space group: C 2/M
;
_chemical_formula_sum "Si O2"
_cell_formula_units_Z 52
_cell_length_a 8.534293
_cell_length_b 21.135654
_cell_length_c 20.019887
_cell_angle_alpha 90.000000
_cell_angle_beta 47.556766
_cell_angle_gamma 90.000000
_cell_volume 2664.830755
_symmetry_space_group_name_H-M "C 2/M"
_symmetry_group_IT_number 12
_symmetry_cell_setting 'monoclinic'
loop_
_space_group_symop_operation_xyz
x,y,z
-x,y,-z
-x,-y,-z
x,-y,z
1/2+x,1/2+y,z
1/2-x,1/2+y,-z
1/2-x,1/2-y,-z
1/2+x,1/2-y,z
loop_
_atom_site_type_symbol
_atom_site_label
_atom_site_fract_x
_atom_site_fract_y
_atom_site_fract_z
Si Si1 0.248143 0.929745 0.930707
Si Si2 0.500000 0.852050 0.500000
Si Si3 0.580543 0.806206 0.049744
Si Si4 0.230828 0.308834 0.746557
Si Si5 0.176770 0.245090 0.631832
Si Si6 0.914518 0.570837 0.269825
Si Si7 0.257228 0.624844 0.551094
O O1 0.329072 0.873351 0.953483
O O2 0.343957 0.923776 0.827870
O O3 0.308211 0.000000 0.942080
O O4 0.000000 0.921665 0.000000
O O5 0.643104 0.808030 0.410977
O O6 0.341382 0.891648 0.494791
O O7 0.379159 0.786706 0.153406
O O8 0.500000 0.818146 0.000000
O O9 0.750000 0.750000 0.000000
O O10 0.103954 0.275585 0.722819
O O11 0.470773 0.289924 0.664367
O O12 0.227307 0.384701 0.737470
O O13 0.253422 0.299032 0.558040
O O14 0.825332 0.500000 0.288761
O O15 0.903148 0.592358 0.350111
O O16 0.500000 0.601793 0.500000
#
# Coordination Sequence:
#
# PCOD8105786 Si02
#       7
#     8   4   8   8   8   8   8
#     4   9  19  39  65  84 107 153 202 240 289 359
#     4  12  20  34  55  86 117 146 190 250 288 346
#     4  11  22  36  54  86 125 152 186 242 300 357
#     4  10  21  35  57  85 108 155 189 231 294 346
#     4  11  19  35  54  81 115 142 193 238 289 348
#     4   9  20  39  59  81 113 152 196 234 282 353
#     4  11  22  35  57  87 118 155 195 241 302 352
#
# _framework density 19.513432999999999
#
# number of rings (size 3 to 8) (size 9 to 14) (size 15 to 20)
#    0.000    1.692    2.308    3.692    0.000    3.077 
#    2.769    0.385    0.000    0.923    0.000    0.000 
#    0.000    0.000    0.000    0.000    0.000    0.000 
#
# Total GULP energy -322126.215269 kJ/mol
# GULP energy per Si atom -12389.469818 kJ/mol
# Density = 1.946902 g / cm^3
# Si number density = 19.513433 Si / 1000 Ang^3
#
#
#
# Elastic Constant Matrix: (Units=GPa)
#
#
# Indices 1 2 3 4 5 6 
#
# 1 109.7703 38.4059 48.6547 0.0000 6.9913 0.0000
# 2 38.4059 98.4063 40.5126 0.0000 -2.0383 0.0000
# 3 48.6547 40.5126 106.8217 0.0000 4.1847 0.0000
# 4 0.0000 0.0000 0.0000 27.3881 0.0000 0.3809
# 5 6.9913 -2.0383 4.1847 0.0000 34.2761 0.0000
# 6 0.0000 0.0000 0.0000 0.3809 0.0000 15.2745
#
#
#
# Elastic Compliance Matrix: (Units=1/GPa)
#
#
# Indices 1 2 3 4 5 6 
#
# 1 0.012229 -0.003032 -0.004336 0.000000 -0.002145 0.000000
# 2 -0.003032 0.012850 -0.003564 0.000000 0.001818 0.000000
# 3 -0.004336 -0.003564 0.012722 0.000000 -0.000881 0.000000
# 4 0.000000 0.000000 0.000000 0.036525 0.000000 -0.000911
# 5 -0.002145 0.001818 -0.000881 0.000000 0.029828 0.000000
# 6 0.000000 0.000000 0.000000 -0.000911 0.000000 0.065491
#
#
# Mechanical properties :
#
#
# Convention : Reuss Voigt Hill
#
# Bulk Modulus (GPa) = 62.74295 63.34940 63.04618
# Shear Modulus (GPa) = 25.40359 27.88276 26.64317
#
# Velocity S-wave (km/s) = 3.61203 3.78418 3.69911
# Velocity P-wave (km/s) = 7.04409 7.18529 7.11504
#
# Compressibility (1/GPa) = 0.01593805
#
# Stress axis : x y z
#
# Youngs Moduli (GPa) = 81.76990 77.82062 78.60136
#
# Poissons Ratio (x) = 0.23597 0.34083
# Poissons Ratio (y) = 0.24794 0.28010
# Poissons Ratio (z) = 0.35457 0.27732
#
# Static dielectric constant tensor:
#      x y z
#    x 3.342080 0.000000 0.030540 
#    y 0.000000 3.714440 0.000000 
#    z 0.030540 0.000000 3.774050 
# 
# 
# High freq. dielectric constant tensor:
#      x y z
#    x 1.736520 0.000000 -0.001730 
#    y 0.000000 1.750390 0.000000 
#    z -0.001730 0.000000 1.778140 
# 
# From -- ./inp_files/302272.got.cif
#   From: 2010.06.25/outbox.cif.g09.slc.cpg/sg12_152_cif.got.tgz:302272.got - 2010.06.28 00:19:55.
