data_PCOD8105525
_publ_section_title
;
Structure prediction by ZEFSAII (Michael W. Deem and Ramdas Pophale) SiO2 
 PCOD8105525
Probable space group: C 2/M
;
_chemical_formula_sum "Si O2"
_cell_formula_units_Z 56
_cell_length_a 18.751589
_cell_length_b 8.937146
_cell_length_c 20.357489
_cell_angle_alpha 90.000000
_cell_angle_beta 61.962467
_cell_angle_gamma 90.000000
_cell_volume 3011.235180
_symmetry_space_group_name_H-M "C 2/M"
_symmetry_group_IT_number 12
_symmetry_cell_setting 'monoclinic'
loop_
_space_group_symop_operation_xyz
x,y,z
-x,y,-z
-x,-y,-z
x,-y,z
1/2+x,1/2+y,z
1/2-x,1/2+y,-z
1/2-x,1/2-y,-z
1/2+x,1/2-y,z
loop_
_atom_site_type_symbol
_atom_site_label
_atom_site_fract_x
_atom_site_fract_y
_atom_site_fract_z
Si Si1 0.181563 0.175792 0.300616
Si Si2 0.991028 0.324059 0.841649
Si Si3 0.580513 0.177259 0.996871
Si Si4 0.978613 0.825308 0.708880
Si Si5 0.864774 0.675032 0.410604
Si Si6 0.714861 0.175062 0.417790
Si Si7 0.340647 0.176377 0.162586
O O1 0.106068 0.213718 0.287770
O O2 0.168903 0.257905 0.375259
O O3 0.261228 0.245196 0.230881
O O4 0.189776 0.000000 0.310485
O O5 0.987730 0.500000 0.826222
O O6 0.973375 0.227428 0.785769
O O7 0.079228 0.280354 0.831420
O O8 0.920459 0.278635 0.925439
O O9 0.653087 0.232984 0.917097
O O10 0.575959 0.000000 0.994489
O O11 0.500000 0.245584 0.000000
O O12 0.046685 0.738707 0.639121
O O13 0.998217 0.000000 0.698112
O O14 0.864355 0.500000 0.396133
O O15 0.802685 0.749900 0.386624
O O16 0.840124 0.713179 0.495615
O O17 0.727813 0.000000 0.403520
O O18 0.329900 0.000000 0.166717
#
# Coordination Sequence:
#
# PCOD8105525 Si02
#       7
#     8   8   8   8   8   8   8
#     4  10  21  35  51  73 105 145 180 210 252 305
#     4   9  16  29  53  78  97 126 171 221 268 312
#     4   7  11  22  45  76  99 118 160 218 263 305
#     4  11  23  35  48  72 107 143 178 216 255 298
#     4  10  21  38  59  80 103 133 168 207 256 312
#     4  10  21  37  59  84 105 127 163 213 260 305
#     4   8  14  28  51  75  97 126 169 216 259 308
#
# _framework density 18.597021000000002
#
# number of rings (size 3 to 8) (size 9 to 14) (size 15 to 20)
#    0.000    2.714    0.000    3.857    0.000    4.571 
#    0.000    3.571    0.000    4.714    0.000    0.000 
#    0.000    0.000    0.000    0.000    0.000    0.000 
#
# Total GULP energy -347000.295279 kJ/mol
# GULP energy per Si atom -12392.867689 kJ/mol
# Density = 1.855469 g / cm^3
# Si number density = 18.597021 Si / 1000 Ang^3
#
#
#
# Elastic Constant Matrix: (Units=GPa)
#
#
# Indices 1 2 3 4 5 6 
#
# 1 85.8718 36.1098 61.3085 -0.0001 8.6047 -0.0002
# 2 36.1098 48.9154 40.5598 -0.0002 4.3718 -0.0006
# 3 61.3085 40.5598 128.6500 0.0000 12.1029 0.0000
# 4 -0.0001 -0.0002 0.0000 23.1750 0.0000 4.2907
# 5 8.6047 4.3718 12.1029 0.0000 10.0113 -0.0001
# 6 -0.0002 -0.0006 0.0000 4.2907 -0.0001 25.0129
#
#
#
# Elastic Compliance Matrix: (Units=1/GPa)
#
#
# Indices 1 2 3 4 5 6 
#
# 1 0.020786 -0.009562 -0.006322 0.000000 -0.006047 0.000000
# 2 -0.009562 0.032104 -0.005663 0.000000 0.001045 0.000001
# 3 -0.006322 -0.005663 0.013345 0.000000 -0.008226 0.000000
# 4 0.000000 0.000000 0.000000 0.044565 0.000000 -0.007645
# 5 -0.006047 0.001045 -0.008226 0.000000 0.114574 0.000001
# 6 0.000000 0.000001 0.000000 -0.007645 0.000001 0.041291
#
#
# Mechanical properties :
#
#
# Convention : Reuss Voigt Hill
#
# Bulk Modulus (GPa) = 43.21275 59.93260 51.57267
# Shear Modulus (GPa) = 15.74939 20.00377 17.87658
#
# Velocity S-wave (km/s) = 2.91327 3.28326 3.10378
# Velocity P-wave (km/s) = 5.88243 6.83154 6.37468
#
# Compressibility (1/GPa) = 0.02314132
#
# Stress axis : x y z
#
# Youngs Moduli (GPa) = 48.11035 31.14832 74.93314
#
# Poissons Ratio (x) = 0.29783 0.47373
# Poissons Ratio (y) = 0.46001 0.42437
# Poissons Ratio (z) = 0.30416 0.17640
#
# Static dielectric constant tensor:
#      x y z
#    x 3.233160 0.000000 -0.089350 
#    y 0.000000 3.127550 0.000000 
#    z -0.089350 0.000000 3.955810 
# 
# 
# High freq. dielectric constant tensor:
#      x y z
#    x 1.695990 0.000000 0.003300 
#    y 0.000000 1.693970 0.000000 
#    z 0.003300 0.000000 1.746870 
# 
# From -- ./inp_files/313665.got.cif
#   From: 2010.06.25/outbox.cif.g09.slc.cpg/sg12_157_cif.got.tgz:313665.got - 2010.06.28 00:19:55.
