data_PCOD8105541
_publ_section_title
;
Structure prediction by ZEFSAII (Michael W. Deem and Ramdas Pophale) SiO2 
 PCOD8105541
Probable space group: C 2/M
;
_chemical_formula_sum "Si O2"
_cell_formula_units_Z 56
_cell_length_a 18.733826
_cell_length_b 8.929719
_cell_length_c 29.245287
_cell_angle_alpha 90.000000
_cell_angle_beta 142.894831
_cell_angle_gamma 90.000000
_cell_volume 2951.474581
_symmetry_space_group_name_H-M "C 2/M"
_symmetry_group_IT_number 12
_symmetry_cell_setting 'monoclinic'
loop_
_space_group_symop_operation_xyz
x,y,z
-x,y,-z
-x,-y,-z
x,-y,z
1/2+x,1/2+y,z
1/2-x,1/2+y,-z
1/2-x,1/2-y,-z
1/2+x,1/2-y,z
loop_
_atom_site_type_symbol
_atom_site_label
_atom_site_fract_x
_atom_site_fract_y
_atom_site_fract_z
Si Si1 0.757785 0.176678 0.368122
Si Si2 0.133092 0.322750 0.070893
Si Si3 0.208237 0.828962 0.199747
Si Si4 0.590051 0.826707 0.628181
Si Si5 0.940629 0.173698 0.789402
Si Si6 0.817679 0.676003 0.493206
Si Si7 0.289297 0.676402 0.066711
O O1 0.866816 0.227899 0.392275
O O2 0.632905 0.224406 0.282792
O O3 0.767643 0.254244 0.421727
O O4 0.761683 0.000000 0.376310
O O5 0.130680 0.500000 0.068625
O O6 0.195977 0.274584 0.149573
O O7 0.207639 0.261297 0.065960
O O8 0.000000 0.257135 0.000000
O O9 0.332886 0.790047 0.287524
O O10 0.101296 0.795535 0.180149
O O11 0.205162 0.000000 0.181736
O O12 0.455639 0.786257 0.570081
O O13 0.607064 0.000000 0.622842
O O14 0.076239 0.221341 0.853597
O O15 0.918773 0.000000 0.765830
O O16 0.794436 0.500000 0.480871
O O17 0.750000 0.750000 0.500000
O O18 0.276324 0.500000 0.054421
O O19 0.250000 0.750000 0.000000
#
# Coordination Sequence:
#
# PCOD8105541 Si02
#       7
#     8   8   8   8   8   8   8
#     4  11  22  36  58  86 112 143 187 232 276 332
#     4  10  21  35  51  76 110 141 171 214 269 322
#     4   9  18  34  56  79 102 133 177 221 261 314
#     4   9  20  39  60  82 111 147 183 224 277 333
#     4   9  19  37  57  78 107 143 183 225 272 327
#     4  11  23  39  58  81 114 151 186 229 280 331
#     4  10  21  36  55  79 107 142 182 224 272 327
#
# _framework density 18.973568
#
# number of rings (size 3 to 8) (size 9 to 14) (size 15 to 20)
#    0.000    2.143    0.000    3.857    0.000    7.714 
#    0.000    2.857    0.000    0.000    0.000    0.000 
#    0.000    0.000    0.000    0.000    0.000    0.000 
#
# Total GULP energy -347301.378536 kJ/mol
# GULP energy per Si atom -12403.620662 kJ/mol
# Density = 1.893038 g / cm^3
# Si number density = 18.973568 Si / 1000 Ang^3
#
#
#
# Elastic Constant Matrix: (Units=GPa)
#
#
# Indices 1 2 3 4 5 6 
#
# 1 162.6386 57.4544 97.4642 0.0000 3.3682 -0.0001
# 2 57.4544 72.1505 51.8547 0.0001 1.0041 -0.0004
# 3 97.4642 51.8547 115.4502 0.0000 -0.3168 0.0000
# 4 0.0000 0.0001 0.0000 30.7822 0.0000 -9.2636
# 5 3.3682 1.0041 -0.3168 0.0000 36.5474 0.0000
# 6 -0.0001 -0.0004 0.0000 -9.2636 0.0000 29.2523
#
#
#
# Elastic Compliance Matrix: (Units=1/GPa)
#
#
# Indices 1 2 3 4 5 6 
#
# 1 0.013118 -0.003645 -0.009441 0.000000 -0.001191 0.000000
# 2 -0.003645 0.021494 -0.006578 0.000000 -0.000312 0.000000
# 3 -0.009441 -0.006578 0.019590 0.000000 0.001221 0.000000
# 4 0.000000 0.000000 0.000000 0.035908 0.000000 0.011372
# 5 -0.001191 -0.000312 0.001221 0.000000 0.027491 0.000000
# 6 0.000000 0.000000 0.000000 0.011372 0.000000 0.037786
#
#
# Mechanical properties :
#
#
# Convention : Reuss Voigt Hill
#
# Bulk Modulus (GPa) = 67.22712 84.86511 76.04611
# Shear Modulus (GPa) = 25.04075 28.88078 26.96077
#
# Velocity S-wave (km/s) = 3.63681 3.90572 3.77366
# Velocity P-wave (km/s) = 7.29000 8.07246 7.69119
#
# Compressibility (1/GPa) = 0.01487495
#
# Stress axis : x y z
#
# Youngs Moduli (GPa) = 76.22828 46.52394 51.04640
#
# Poissons Ratio (x) = 0.16956 0.48193
# Poissons Ratio (y) = 0.27782 0.33580
# Poissons Ratio (z) = 0.71968 0.30605
#
# Static dielectric constant tensor:
#      x y z
#    x 3.539410 0.000000 0.231910 
#    y 0.000000 3.374160 0.000000 
#    z 0.231910 0.000000 3.975160 
# 
# 
# High freq. dielectric constant tensor:
#      x y z
#    x 1.740180 0.000000 0.002720 
#    y 0.000000 1.730400 0.000000 
#    z 0.002720 0.000000 1.749130 
# 
# From -- ./inp_files/377735.got.cif
#   From: 2010.06.25/outbox.cif.g09.slc.cpg/sg12_189_cif.got.tgz:377735.got - 2010.06.28 00:19:55.
