data_PCOD8105682
_publ_section_title
;
Structure prediction by ZEFSAII (Michael W. Deem and Ramdas Pophale) SiO2 
 PCOD8105682
Probable space group: C 2/M
;
_chemical_formula_sum "Si O2"
_cell_formula_units_Z 56
_cell_length_a 15.442333
_cell_length_b 15.147042
_cell_length_c 24.147813
_cell_angle_alpha 90.000000
_cell_angle_beta 30.021803
_cell_angle_gamma 90.000000
_cell_volume 2826.016356
_symmetry_space_group_name_H-M "C 2/M"
_symmetry_group_IT_number 12
_symmetry_cell_setting 'monoclinic'
loop_
_space_group_symop_operation_xyz
x,y,z
-x,y,-z
-x,-y,-z
x,-y,z
1/2+x,1/2+y,z
1/2-x,1/2+y,-z
1/2-x,1/2-y,-z
1/2+x,1/2-y,z
loop_
_atom_site_type_symbol
_atom_site_label
_atom_site_fract_x
_atom_site_fract_y
_atom_site_fract_z
Si Si1 0.438216 0.898122 0.592519
Si Si2 0.431245 0.397136 0.478748
Si Si3 0.439631 0.600401 0.170467
Si Si4 0.705560 0.401589 0.116119
Si Si5 0.623174 0.823620 0.591381
Si Si6 0.983767 0.254529 0.945504
Si Si7 0.145334 0.186186 0.261319
O O1 0.500000 0.853655 0.500000
O O2 0.253421 0.859640 0.714844
O O3 0.578391 0.885184 0.563439
O O4 0.407282 0.000000 0.597790
O O5 0.500000 0.362421 0.500000
O O6 0.466646 0.500000 0.453968
O O7 0.225033 0.377789 0.583168
O O8 0.540388 0.348042 0.371747
O O9 0.437754 0.500000 0.147339
O O10 0.527841 0.601918 0.181266
O O11 0.551466 0.663957 0.068239
O O12 0.789332 0.500000 0.065168
O O13 0.653013 0.385558 0.208562
O O14 0.835911 0.328166 0.019750
O O15 0.750000 0.750000 0.500000
O O16 0.448051 0.775807 0.710469
O O17 0.161551 0.295644 0.824970
O O18 0.000000 0.226822 0.000000
#
# Coordination Sequence:
#
# PCOD8105682 Si02
#       7
#     8   8   8   8   8   8   8
#     4  10  21  36  59  88 119 154 196 244 294 352
#     4  10  22  38  56  81 117 158 196 235 286 353
#     4  10  21  38  60  89 121 153 196 242 296 358
#     4  10  22  38  62  90 115 151 198 251 302 349
#     4  10  21  35  54  82 116 153 190 235 287 353
#     4  10  21  39  61  85 116 152 197 244 299 356
#     4  10  21  37  58  85 116 151 195 243 295 349
#
# _framework density 19.815878999999999
#
# number of rings (size 3 to 8) (size 9 to 14) (size 15 to 20)
#    0.000    2.000    1.429    1.286    4.000    6.857 
#    0.000    0.000    0.000    3.429    0.000    0.000 
#    0.000    0.000    0.000    0.000    0.000    0.000 
#
# Total GULP energy -347057.759278 kJ/mol
# GULP energy per Si atom -12394.919974 kJ/mol
# Density = 1.977078 g / cm^3
# Si number density = 19.815879 Si / 1000 Ang^3
#
#
#
# Elastic Constant Matrix: (Units=GPa)
#
#
# Indices 1 2 3 4 5 6 
#
# 1 128.1391 43.1645 39.5439 0.0006 -10.2025 -0.0004
# 2 43.1645 81.6675 40.5562 -0.0021 14.3799 0.0003
# 3 39.5439 40.5562 92.7074 -0.0116 -3.5367 0.0010
# 4 0.0006 -0.0021 -0.0116 26.5162 -0.0004 -0.0627
# 5 -10.2025 14.3799 -3.5367 -0.0004 24.0646 0.0008
# 6 -0.0004 0.0003 0.0010 -0.0627 0.0008 30.3150
#
#
#
# Elastic Compliance Matrix: (Units=1/GPa)
#
#
# Indices 1 2 3 4 5 6 
#
# 1 0.011195 -0.006645 -0.001544 -0.000001 0.008490 0.000000
# 2 -0.006645 0.022697 -0.007763 -0.000002 -0.017521 0.000000
# 3 -0.001544 -0.007763 0.015078 0.000006 0.006200 -0.000001
# 4 -0.000001 -0.000002 0.000006 0.037713 0.000002 0.000078
# 5 0.008490 -0.017521 0.006200 0.000002 0.056535 -0.000001
# 6 0.000000 0.000000 -0.000001 0.000078 -0.000001 0.032987
#
#
# Mechanical properties :
#
#
# Convention : Reuss Voigt Hill
#
# Bulk Modulus (GPa) = 58.59913 61.00479 59.80196
# Shear Modulus (GPa) = 23.38644 28.12913 25.75779
#
# Velocity S-wave (km/s) = 3.43911 3.77175 3.60926
# Velocity P-wave (km/s) = 6.73840 7.05838 6.90024
#
# Compressibility (1/GPa) = 0.01706510
#
# Stress axis : x y z
#
# Youngs Moduli (GPa) = 89.32558 44.05825 66.32165
#
# Poissons Ratio (x) = 0.29277 0.10242
# Poissons Ratio (y) = 0.59357 0.51487
# Poissons Ratio (z) = 0.13795 0.34204
#
# Static dielectric constant tensor:
#      x y z
#    x 4.213940 -0.000160 -0.311950 
#    y -0.000160 3.738420 -0.000080 
#    z -0.311950 -0.000080 3.775570 
# 
# 
# High freq. dielectric constant tensor:
#      x y z
#    x 1.775550 0.000000 -0.014240 
#    y 0.000000 1.776550 0.000000 
#    z -0.014240 0.000000 1.760930 
# 
# From -- ./inp_files/340299.got.cif
#   From: 2010.06.25/outbox.cif.g09.slc.cpg/sg12_171_cif.got.tgz:340299.got - 2010.06.28 00:19:55.
