data_PCOD8105556
_publ_section_title
;
Structure prediction by ZEFSAII (Michael W. Deem and Ramdas Pophale) SiO2 
 PCOD8105556
Probable space group: C 2/M
;
_chemical_formula_sum "Si O2"
_cell_formula_units_Z 56
_cell_length_a 14.644964
_cell_length_b 9.350975
_cell_length_c 28.299368
_cell_angle_alpha 90.000000
_cell_angle_beta 129.953793
_cell_angle_gamma 90.000000
_cell_volume 2970.773599
_symmetry_space_group_name_H-M "C 2/M"
_symmetry_group_IT_number 12
_symmetry_cell_setting 'monoclinic'
loop_
_space_group_symop_operation_xyz
x,y,z
-x,y,-z
-x,-y,-z
x,-y,z
1/2+x,1/2+y,z
1/2-x,1/2+y,-z
1/2-x,1/2-y,-z
1/2+x,1/2-y,z
loop_
_atom_site_type_symbol
_atom_site_label
_atom_site_fract_x
_atom_site_fract_y
_atom_site_fract_z
Si Si1 0.784435 0.834603 0.825178
Si Si2 0.048351 0.340314 0.068164
Si Si3 0.904620 0.833030 0.507948
Si Si4 0.488663 0.166090 0.271933
Si Si5 0.140587 0.835305 0.943093
Si Si6 0.130304 0.332968 0.410055
Si Si7 0.473475 0.663475 0.807609
O O1 0.819537 0.726935 0.880543
O O2 0.649794 0.799859 0.766397
O O3 0.865468 0.797220 0.806810
O O4 0.800089 0.000000 0.846000
O O5 0.041207 0.500000 0.088748
O O6 0.973137 0.216193 0.066765
O O7 0.000000 0.355392 0.000000
O O8 0.924790 0.748844 0.563374
O O9 0.769567 0.800565 0.446474
O O10 0.000000 0.780933 0.500000
O O11 0.923756 0.000000 0.524578
O O12 0.559303 0.223472 0.340864
O O13 0.539823 0.240367 0.242530
O O14 0.513032 0.000000 0.272859
O O15 0.103606 0.810772 0.875974
O O16 0.167561 0.000000 0.962189
O O17 0.250000 0.750000 0.000000
O O18 0.108608 0.500000 0.411911
O O19 0.463001 0.500000 0.788300
#
# Coordination Sequence:
#
# PCOD8105556 Si02
#       7
#     8   8   8   8   8   8   8
#     4   9  20  38  54  73 103 140 178 220 273 335
#     4  10  21  35  52  76 103 131 171 224 276 330
#     4   9  18  34  56  81 113 149 183 222 268 316
#     4  10  21  36  56  80 108 144 183 223 273 326
#     4  10  21  36  54  76 104 136 174 223 279 336
#     4   9  19  35  53  80 114 144 182 228 265 316
#     4   9  20  37  53  73 104 137 174 221 271 325
#
# _framework density 18.850308999999999
#
# number of rings (size 3 to 8) (size 9 to 14) (size 15 to 20)
#    0.000    2.571    0.000    1.714    2.000    6.571 
#    0.000    0.000    0.000    0.000    0.000    0.000 
#    0.000    0.000    0.000    0.000    0.000    0.000 
#
# Total GULP energy -346978.927580 kJ/mol
# GULP energy per Si atom -12392.104556 kJ/mol
# Density = 1.880741 g / cm^3
# Si number density = 18.850309 Si / 1000 Ang^3
#
#
#
# Elastic Constant Matrix: (Units=GPa)
#
#
# Indices 1 2 3 4 5 6 
#
# 1 92.6428 34.4661 47.3930 0.0000 -5.1028 0.0000
# 2 34.4661 68.3435 59.6249 0.0000 -7.3555 0.0000
# 3 47.3930 59.6249 139.3557 0.0000 -4.7262 0.0000
# 4 0.0000 0.0000 0.0000 -411.8065 0.0000 -162.0505
# 5 -5.1028 -7.3555 -4.7262 0.0000 23.8788 0.0000
# 6 0.0000 0.0000 0.0000 -162.0505 0.0000 -25.3814
#
#
#
# Elastic Compliance Matrix: (Units=1/GPa)
#
#
# Indices 1 2 3 4 5 6 
#
# 1 0.013948 -0.004490 -0.002787 0.000000 0.001046 0.000000
# 2 -0.004490 0.025465 -0.009197 0.000000 0.005064 0.000000
# 3 -0.002787 -0.009197 0.012023 0.000000 -0.001049 0.000000
# 4 0.000000 0.000000 0.000000 0.001606 0.000000 -0.010251
# 5 0.001046 0.005064 -0.001049 0.000000 0.043454 0.000000
# 6 0.000000 0.000000 0.000000 -0.010251 0.000000 0.026050
#
#
# Mechanical properties :
#
#
# Convention : Reuss Voigt Hill
#
# Bulk Modulus (GPa) = 54.08777 64.81221 59.44999
# Shear Modulus (GPa) = 30.92994 -72.07128 -20.57067
#
# Velocity S-wave (km/s) = 4.05510 -6.19003 -3.30701
# Velocity P-wave (km/s) = 7.11904 4.07816 4.12609
#
# Compressibility (1/GPa) = 0.01848847
#
# Stress axis : x y z
#
# Youngs Moduli (GPa) = 71.69546 39.26989 83.17411
#
# Poissons Ratio (x) = 0.17633 0.23180
# Poissons Ratio (y) = 0.32192 0.76492
# Poissons Ratio (z) = 0.19981 0.36115
#
# Static dielectric constant tensor:
#      x y z
#    x 3.496850 0.000000 0.635120 
#    y 0.000000 3.569260 0.000000 
#    z 0.635120 0.000000 5.312540 
# 
# 
# High freq. dielectric constant tensor:
#      x y z
#    x 1.721880 0.000000 0.007650 
#    y 0.000000 1.734560 0.000000 
#    z 0.007650 0.000000 1.735330 
# 
# From -- ./inp_files/375123.got.cif
#   From: 2010.06.25/outbox.cif.g09.slc.cpg/sg12_188_cif.got.tgz:375123.got - 2010.06.28 00:19:55.
