data_PCOD8105091
_publ_section_title
;
Structure prediction by ZEFSAII (Michael W. Deem and Ramdas Pophale) SiO2 
 PCOD8105091
Probable space group: C 2/M
;
_chemical_formula_sum "Si O2"
_cell_formula_units_Z 48
_cell_length_a 11.496531
_cell_length_b 22.817220
_cell_length_c 9.477161
_cell_angle_alpha 90.000000
_cell_angle_beta 103.863577
_cell_angle_gamma 90.000000
_cell_volume 2413.617448
_symmetry_space_group_name_H-M "C 2/M"
_symmetry_group_IT_number 12
_symmetry_cell_setting 'monoclinic'
loop_
_space_group_symop_operation_xyz
x,y,z
-x,y,-z
-x,-y,-z
x,-y,z
1/2+x,1/2+y,z
1/2-x,1/2+y,-z
1/2-x,1/2-y,-z
1/2+x,1/2-y,z
loop_
_atom_site_type_symbol
_atom_site_label
_atom_site_fract_x
_atom_site_fract_y
_atom_site_fract_z
Si Si1 0.032699 0.727726 0.170044
Si Si2 0.199443 0.372215 0.206764
Si Si3 0.051836 0.067534 0.670216
Si Si4 0.573268 0.646005 0.161547
Si Si5 0.663824 0.134435 0.867801
Si Si6 0.010099 0.567363 0.347501
O O1 0.162481 0.695672 0.226531
O O2 0.037788 0.793610 0.234525
O O3 0.927136 0.687251 0.201231
O O4 0.000000 0.739098 0.000000
O O5 0.337012 0.388089 0.275622
O O6 0.122036 0.411509 0.288320
O O7 0.166828 0.382583 0.033296
O O8 0.000000 0.071934 0.500000
O O9 0.947146 0.090579 0.742538
O O10 0.085742 0.000000 0.716916
O O11 0.709948 0.652568 0.156735
O O12 0.500000 0.633523 0.000000
O O13 0.613680 0.077649 0.772441
O O14 0.033324 0.500000 0.377617
O O15 0.000000 0.597498 0.500000
#
# Coordination Sequence:
#
# PCOD8105091 Si02
#       6
#     8   8   8   8   8   8
#     4   8  19  35  65  92 120 150 192 251 306 360
#     4  10  20  41  63  89 117 157 203 250 298 357
#     4  11  26  43  59  83 125 172 206 243 301 365
#     4  11  22  39  64  93 120 158 199 250 301 362
#     4  10  21  38  61  94 120 152 200 248 299 356
#     4  10  22  38  60  86 117 159 200 248 304 352
#
# _framework density 19.887160999999999
#
# number of rings (size 3 to 8) (size 9 to 14) (size 15 to 20)
#    0.000    2.000    1.667    2.000    4.667    5.000 
#    0.000    4.167    0.000    0.000    0.000    0.000 
#    0.000    0.000    0.000    0.000    0.000    0.000 
#
# Total GULP energy -297406.273523 kJ/mol
# GULP energy per Si atom -12391.928063 kJ/mol
# Density = 1.984190 g / cm^3
# Si number density = 19.887161 Si / 1000 Ang^3
#
#
#
# Elastic Constant Matrix: (Units=GPa)
#
#
# Indices 1 2 3 4 5 6 
#
# 1 97.2320 25.3642 37.5027 0.0000 -16.9838 0.0000
# 2 25.3642 89.7489 43.3148 0.0000 -10.3285 0.0000
# 3 37.5027 43.3148 99.5136 0.0000 -9.5765 0.0000
# 4 0.0000 0.0000 0.0000 -71.3804 0.0000 -47.2468
# 5 -16.9838 -10.3285 -9.5765 0.0000 25.7917 0.0000
# 6 0.0000 0.0000 0.0000 -47.2468 0.0000 1.3277
#
#
#
# Elastic Compliance Matrix: (Units=1/GPa)
#
#
# Indices 1 2 3 4 5 6 
#
# 1 0.013257 -0.001095 -0.003860 0.000000 0.006858 0.000000
# 2 -0.001095 0.014506 -0.005612 0.000000 0.003004 0.000000
# 3 -0.003860 -0.005612 0.013985 0.000000 0.000404 0.000000
# 4 0.000000 0.000000 0.000000 -0.000571 0.000000 -0.020304
# 5 0.006858 0.003004 0.000404 0.000000 0.044641 0.000000
# 6 0.000000 0.000000 0.000000 -0.020304 0.000000 0.030675
#
#
# Mechanical properties :
#
#
# Convention : Reuss Voigt Hill
#
# Bulk Modulus (GPa) = 48.50853 55.42865 51.96859
# Shear Modulus (GPa) = 34.60269 3.16866 18.88568
#
# Velocity S-wave (km/s) = 4.17580 1.26364 3.08497
# Velocity P-wave (km/s) = 6.90612 5.48280 6.23521
#
# Compressibility (1/GPa) = 0.02061493
#
# Stress axis : x y z
#
# Youngs Moduli (GPa) = 75.43300 68.93746 71.50485
#
# Poissons Ratio (x) = 0.07546 0.27598
# Poissons Ratio (y) = 0.08257 0.40131
# Poissons Ratio (z) = 0.29114 0.38690
#
# Static dielectric constant tensor:
#      x y z
#    x 4.326170 0.000000 -0.103260 
#    y 0.000000 3.814450 0.000000 
#    z -0.103260 0.000000 3.662470 
# 
# 
# High freq. dielectric constant tensor:
#      x y z
#    x 1.781150 0.000000 -0.003750 
#    y 0.000000 1.775480 0.000000 
#    z -0.003750 0.000000 1.762220 
# 
# From -- ./inp_files/50784.got.cif
#   From: 2010.06.25/outbox.cif.g09.slc.cpg/sg12_26_cif.got.tgz:50784.got - 2010.06.28 00:19:55.
