data_PCOD8105358
_publ_section_title
;
Structure prediction by ZEFSAII (Michael W. Deem and Ramdas Pophale) SiO2 
 PCOD8105358
Probable space group: C 2/M
;
_chemical_formula_sum "Si O2"
_cell_formula_units_Z 40
_cell_length_a 13.733937
_cell_length_b 24.278249
_cell_length_c 8.105325
_cell_angle_alpha 90.000000
_cell_angle_beta 133.584357
_cell_angle_gamma 90.000000
_cell_volume 1957.660486
_symmetry_space_group_name_H-M "C 2/M"
_symmetry_group_IT_number 12
_symmetry_cell_setting 'monoclinic'
loop_
_space_group_symop_operation_xyz
x,y,z
-x,y,-z
-x,-y,-z
x,-y,z
1/2+x,1/2+y,z
1/2-x,1/2+y,-z
1/2-x,1/2-y,-z
1/2+x,1/2-y,z
loop_
_atom_site_type_symbol
_atom_site_label
_atom_site_fract_x
_atom_site_fract_y
_atom_site_fract_z
Si Si1 0.698033 0.939561 0.853720
Si Si2 0.708631 0.828759 0.455589
Si Si3 0.954945 0.768312 0.629727
Si Si4 0.413540 0.060827 0.644395
Si Si5 0.123741 0.152676 0.036385
O O1 0.644495 0.939441 0.605836
O O2 0.572959 0.926326 0.828221
O O3 0.817315 0.895265 0.012949
O O4 0.756540 0.000000 0.964718
O O5 0.826825 0.809720 0.470575
O O6 0.584026 0.786129 0.310948
O O7 0.659845 0.889746 0.342094
O O8 0.761422 0.826314 0.705987
O O9 0.000000 0.751971 0.500000
O O10 0.077929 0.796775 0.869021
O O11 0.387877 0.000000 0.695031
O O12 0.000000 0.128679 0.000000
#
# Coordination Sequence:
#
# PCOD8105358 Si02
#       5
#     8   8   8   8   8
#     4   8  14  25  46  76 100 123 161 208 254 292
#     4   9  19  35  52  75 103 128 165 210 245 292
#     4  10  21  34  50  72 105 136 168 198 244 296
#     4   8  14  27  50  76  98 122 159 210 259 289
#     4   9  18  32  49  72 102 130 167 205 244 298
#
# _framework density 20.432552000000001
#
# number of rings (size 3 to 8) (size 9 to 14) (size 15 to 20)
#    0.000    3.200    0.000    1.200    5.600    1.200 
#    0.000    3.000    0.000    2.400    0.000    2.800 
#    0.000    0.000    0.000    0.000    0.000    0.000 
#
# Total GULP energy -247858.665920 kJ/mol
# GULP energy per Si atom -12392.933296 kJ/mol
# Density = 2.038605 g / cm^3
# Si number density = 20.432552 Si / 1000 Ang^3
#
#
#
# Elastic Constant Matrix: (Units=GPa)
#
#
# Indices 1 2 3 4 5 6 
#
# 1 50.9832 32.8844 6.4022 0.0000 10.6669 0.0000
# 2 32.8844 144.9373 26.5092 0.0000 27.0939 0.0000
# 3 6.4022 26.5092 44.0955 0.0000 13.6173 0.0000
# 4 0.0000 0.0000 0.0000 26.9560 0.0000 16.4665
# 5 10.6669 27.0939 13.6173 0.0000 18.7293 0.0000
# 6 0.0000 0.0000 0.0000 16.4665 0.0000 36.6776
#
#
#
# Elastic Compliance Matrix: (Units=1/GPa)
#
#
# Indices 1 2 3 4 5 6 
#
# 1 0.023897 -0.004057 0.001754 0.000000 -0.009016 0.000000
# 2 -0.004057 0.010269 -0.002206 0.000000 -0.010940 0.000000
# 3 0.001754 -0.002206 0.029753 0.000000 -0.019440 0.000000
# 4 0.000000 0.000000 0.000000 0.051116 0.000000 -0.022949
# 5 -0.009016 -0.010940 -0.019440 0.000000 0.088487 0.000000
# 6 0.000000 0.000000 0.000000 -0.022949 0.000000 0.037568
#
#
# Mechanical properties :
#
#
# Convention : Reuss Voigt Hill
#
# Bulk Modulus (GPa) = 18.21479 41.28972 29.75226
# Shear Modulus (GPa) = 18.62831 28.08726 23.35778
#
# Velocity S-wave (km/s) = 3.02271 3.71163 3.38474
# Velocity P-wave (km/s) = 4.59525 6.21449 5.46517
#
# Compressibility (1/GPa) = 0.05490044
#
# Stress axis : x y z
#
# Youngs Moduli (GPa) = 41.84542 97.38396 33.61027
#
# Poissons Ratio (x) = 0.39512 -0.05895
# Poissons Ratio (y) = 0.16978 0.07413
# Poissons Ratio (z) = -0.07339 0.21480
#
# Static dielectric constant tensor:
#      x y z
#    x 3.581190 0.000000 0.362530 
#    y 0.000000 4.186760 0.000000 
#    z 0.362530 0.000000 3.352640 
# 
# 
# High freq. dielectric constant tensor:
#      x y z
#    x 1.777050 0.000000 0.025380 
#    y 0.000000 1.807420 0.000000 
#    z 0.025380 0.000000 1.758110 
# 
# From -- ./inp_files/52338.got.cif
#   From: 2010.06.25/outbox.cif.g09.slc.cpg/sg12_27_cif.got.tgz:52338.got - 2010.06.28 00:19:55.
