data_PCOD8105213
_publ_section_title
;
Structure prediction by ZEFSAII (Michael W. Deem and Ramdas Pophale) SiO2 
 PCOD8105213
Probable space group: C 2/M
;
_chemical_formula_sum "Si O2"
_cell_formula_units_Z 36
_cell_length_a 14.700711
_cell_length_b 9.919698
_cell_length_c 20.936941
_cell_angle_alpha 90.000000
_cell_angle_beta 37.536773
_cell_angle_gamma 90.000000
_cell_volume 1860.202228
_symmetry_space_group_name_H-M "C 2/M"
_symmetry_group_IT_number 12
_symmetry_cell_setting 'monoclinic'
loop_
_space_group_symop_operation_xyz
x,y,z
-x,y,-z
-x,-y,-z
x,-y,z
1/2+x,1/2+y,z
1/2-x,1/2+y,-z
1/2-x,1/2-y,-z
1/2+x,1/2-y,z
loop_
_atom_site_type_symbol
_atom_site_label
_atom_site_fract_x
_atom_site_fract_y
_atom_site_fract_z
Si Si1 0.877004 0.351616 0.251140
Si Si2 0.379079 0.838131 0.397257
Si Si3 0.820022 0.500000 0.097098
Si Si4 0.173226 0.000000 0.910995
Si Si5 0.296217 0.755816 0.764435
Si Si6 0.347503 0.000000 0.938499
O O1 0.798781 0.500000 0.291049
O O2 0.880792 0.301808 0.321530
O O3 0.785384 0.246030 0.259094
O O4 0.047830 0.367093 0.130180
O O5 0.250000 0.750000 0.500000
O O6 0.529118 0.779146 0.345455
O O7 0.362509 0.000000 0.418220
O O8 0.745608 0.623386 0.173990
O O9 0.772533 0.500000 0.049637
O O10 0.000000 0.500000 0.000000
O O11 0.241415 0.126678 0.839224
O O12 0.212747 0.000000 0.963625
O O13 0.000000 0.000000 0.000000
#
# Coordination Sequence:
#
# PCOD8105213 Si02
#       6
#     8   8   4   4   8   4
#     4   9  19  41  70  88 125 177 213 265 325 391
#     4  11  25  47  69  94 132 174 218 280 341 389
#     4  12  22  36  70 102 127 174 234 257 309 406
#     4  12  26  38  63  94 143 176 201 269 346 367
#     4  12  22  43  65 100 133 167 225 276 313 399
#     4  10  20  44  63  93 139 180 215 261 317 407
#
# _framework density 19.352734000000002
#
# number of rings (size 3 to 8) (size 9 to 14) (size 15 to 20)
#    0.667    0.444    6.667    0.667    1.556    3.556 
#    2.000    3.333    0.000    0.000    0.000    0.000 
#    0.000    0.000    0.000    0.000    0.000    0.000 
#
# Total GULP energy -223110.065825 kJ/mol
# GULP energy per Si atom -12395.003657 kJ/mol
# Density = 1.930869 g / cm^3
# Si number density = 19.352734 Si / 1000 Ang^3
#
#
#
# Elastic Constant Matrix: (Units=GPa)
#
#
# Indices 1 2 3 4 5 6 
#
# 1 146.1105 24.5049 28.1436 0.0000 -8.0315 0.0000
# 2 24.5049 98.7205 28.6552 0.0000 -10.2862 0.0000
# 3 28.1436 28.6552 84.8054 -0.0001 -21.5063 0.0000
# 4 0.0000 0.0000 -0.0001 30.9157 0.0000 -2.1614
# 5 -8.0315 -10.2862 -21.5063 0.0000 41.9639 0.0000
# 6 0.0000 0.0000 0.0000 -2.1614 0.0000 32.5523
#
#
#
# Elastic Compliance Matrix: (Units=1/GPa)
#
#
# Indices 1 2 3 4 5 6 
#
# 1 0.007449 -0.001252 -0.002029 0.000000 0.000079 0.000000
# 2 -0.001252 0.011473 -0.003228 0.000000 0.000918 0.000000
# 3 -0.002029 -0.003228 0.015237 0.000000 0.006629 0.000000
# 4 0.000000 0.000000 0.000000 0.032497 0.000000 0.002158
# 5 0.000079 0.000918 0.006629 0.000000 0.027468 0.000000
# 6 0.000000 0.000000 0.000000 0.002158 0.000000 0.030863
#
#
# Mechanical properties :
#
#
# Convention : Reuss Voigt Hill
#
# Bulk Modulus (GPa) = 47.30212 54.69376 50.99794
# Shear Modulus (GPa) = 34.47023 37.64190 36.05606
#
# Velocity S-wave (km/s) = 4.22495 4.41505 4.32105
# Velocity P-wave (km/s) = 6.94949 7.36974 7.16270
#
# Compressibility (1/GPa) = 0.02114070
#
# Stress axis : x y z
#
# Youngs Moduli (GPa) = 134.24121 87.16030 65.62937
#
# Poissons Ratio (x) = 0.10912 0.13317
# Poissons Ratio (y) = 0.16806 0.21188
# Poissons Ratio (z) = 0.27239 0.28139
#
# Static dielectric constant tensor:
#      x y z
#    x 3.483700 0.000000 0.288890 
#    y 0.000000 3.296540 0.000000 
#    z 0.288890 0.000000 3.205830 
# 
# 
# High freq. dielectric constant tensor:
#      x y z
#    x 1.766630 0.000000 0.006340 
#    y 0.000000 1.745370 0.000000 
#    z 0.006340 0.000000 1.744370 
# 
# From -- ./inp_files/308872.got.cif
#   From: 2010.06.25/outbox.cif.g09.slc.cpg/sg12_155_cif.got.tgz:308872.got - 2010.06.28 00:19:55.
