data_PCOD8105631
_publ_section_title
;
Structure prediction by ZEFSAII (Michael W. Deem and Ramdas Pophale) SiO2 
 PCOD8105631
Probable space group: C 2/M
;
_chemical_formula_sum "Si O2"
_cell_formula_units_Z 56
_cell_length_a 26.952096
_cell_length_b 9.414738
_cell_length_c 15.157940
_cell_angle_alpha 90.000000
_cell_angle_beta 51.745144
_cell_angle_gamma 90.000000
_cell_volume 3020.347470
_symmetry_space_group_name_H-M "C 2/M"
_symmetry_group_IT_number 12
_symmetry_cell_setting 'monoclinic'
loop_
_space_group_symop_operation_xyz
x,y,z
-x,y,-z
-x,-y,-z
x,-y,z
1/2+x,1/2+y,z
1/2-x,1/2+y,-z
1/2-x,1/2-y,-z
1/2+x,1/2-y,z
loop_
_atom_site_type_symbol
_atom_site_label
_atom_site_fract_x
_atom_site_fract_y
_atom_site_fract_z
Si Si1 0.207617 0.835837 0.939525
Si Si2 0.807196 0.152736 0.416115
Si Si3 0.152373 0.154694 0.815732
Si Si4 0.480403 0.833887 0.622085
Si Si5 0.551654 0.669695 0.694241
Si Si6 0.543806 0.839740 0.868419
Si Si7 0.845075 0.334511 0.849394
O O1 0.192328 0.799185 0.856021
O O2 0.280986 0.791011 0.868845
O O3 0.198375 0.000000 0.973575
O O4 0.158028 0.749921 0.054937
O O5 0.750000 0.250000 0.500000
O O6 0.801955 0.134587 0.317080
O O7 0.874561 0.211701 0.376889
O O8 0.796850 0.000000 0.473195
O O9 0.107967 0.282560 0.838175
O O10 0.118325 0.000000 0.869965
O O11 0.500000 0.797881 0.500000
O O12 0.524630 0.737225 0.634897
O O13 0.406884 0.794095 0.723060
O O14 0.492626 0.000000 0.628452
O O15 0.540929 0.500000 0.707824
O O16 0.517618 0.741257 0.817062
O O17 0.552239 0.000000 0.823252
O O18 0.500000 0.834101 0.000000
O O19 0.846746 0.500000 0.870589
#
# Coordination Sequence:
#
# PCOD8105631 Si02
#       7
#     8   8   8   8   8   8   8
#     4   9  18  34  55  79 107 143 183 226 280 333
#     4   9  19  35  54  78 107 141 179 223 273 326
#     4   9  19  34  52  78 109 139 178 222 269 330
#     4  10  22  39  59  83 112 150 192 234 284 336
#     4  10  22  39  57  80 112 146 183 229 276 328
#     4  10  21  35  53  80 111 143 179 220 271 331
#     4   9  19  35  54  78 110 143 183 232 277 330
#
# _framework density 18.540913
#
# number of rings (size 3 to 8) (size 9 to 14) (size 15 to 20)
#    0.000    2.571    0.000    1.714    2.000    6.571 
#    0.000    2.857    0.000    3.429    0.000    0.000 
#    0.000    0.000    0.000    0.000    0.000    0.000 
#
# Total GULP energy -346945.438099 kJ/mol
# GULP energy per Si atom -12390.908504 kJ/mol
# Density = 1.849871 g / cm^3
# Si number density = 18.540913 Si / 1000 Ang^3
#
#
#
# Elastic Constant Matrix: (Units=GPa)
#
#
# Indices 1 2 3 4 5 6 
#
# 1 102.9641 54.6050 72.8322 0.0000 21.8015 0.0000
# 2 54.6050 96.4074 63.1158 -0.0001 6.7817 0.0000
# 3 72.8322 63.1158 109.5724 0.0000 -1.8202 0.0000
# 4 0.0000 -0.0001 0.0000 31.4925 0.0000 2.3001
# 5 21.8015 6.7817 -1.8202 0.0000 29.3343 0.0000
# 6 0.0000 0.0000 0.0000 2.3001 0.0000 31.8127
#
#
#
# Elastic Compliance Matrix: (Units=1/GPa)
#
#
# Indices 1 2 3 4 5 6 
#
# 1 0.027970 -0.003138 -0.017134 0.000000 -0.021125 0.000000
# 2 -0.003138 0.017606 -0.008092 0.000000 -0.002240 0.000000
# 3 -0.017134 -0.008092 0.025446 0.000000 0.016184 0.000000
# 4 0.000000 0.000000 0.000000 0.031922 0.000000 -0.002308
# 5 -0.021125 -0.002240 0.016184 0.000000 0.051312 0.000000
# 6 0.000000 0.000000 0.000000 -0.002308 0.000000 0.031601
#
#
# Mechanical properties :
#
#
# Convention : Reuss Voigt Hill
#
# Bulk Modulus (GPa) = 69.97549 76.67220 73.32385
# Shear Modulus (GPa) = 20.21431 26.42063 23.31747
#
# Velocity S-wave (km/s) = 3.30548 3.77900 3.55014
# Velocity P-wave (km/s) = 7.23819 7.77714 7.51250
#
# Compressibility (1/GPa) = 0.01429072
#
# Stress axis : x y z
#
# Youngs Moduli (GPa) = 35.75315 56.79992 39.29945
#
# Poissons Ratio (x) = 0.17826 0.67337
# Poissons Ratio (y) = 0.11221 0.31802
# Poissons Ratio (z) = 0.61261 0.45964
#
# Static dielectric constant tensor:
#      x y z
#    x 3.394280 0.000000 -0.008910 
#    y 0.000000 3.752080 0.000000 
#    z -0.008910 0.000000 3.270270 
# 
# 
# High freq. dielectric constant tensor:
#      x y z
#    x 1.715630 0.000000 0.006500 
#    y 0.000000 1.725120 0.000000 
#    z 0.006500 0.000000 1.713150 
# 
# From -- ./inp_files/248904.got.cif
#   From: 2010.06.25/outbox.cif.g09.slc.cpg/sg12_125_cif.got.tgz:248904.got - 2010.06.28 00:19:55.
