data_PCOD8105097
_publ_section_title
;
Structure prediction by ZEFSAII (Michael W. Deem and Ramdas Pophale) SiO2 
 PCOD8105097
Probable space group: C 2/M
;
_chemical_formula_sum "Si O2"
_cell_formula_units_Z 56
_cell_length_a 19.536800
_cell_length_b 8.874391
_cell_length_c 18.721394
_cell_angle_alpha 90.000000
_cell_angle_beta 115.202959
_cell_angle_gamma 90.000000
_cell_volume 2936.873193
_symmetry_space_group_name_H-M "C 2/M"
_symmetry_group_IT_number 12
_symmetry_cell_setting 'monoclinic'
loop_
_space_group_symop_operation_xyz
x,y,z
-x,y,-z
-x,-y,-z
x,-y,z
1/2+x,1/2+y,z
1/2-x,1/2+y,-z
1/2-x,1/2-y,-z
1/2+x,1/2-y,z
loop_
_atom_site_type_symbol
_atom_site_label
_atom_site_fract_x
_atom_site_fract_y
_atom_site_fract_z
Si Si1 0.980467 0.825756 0.071072
Si Si2 0.904739 0.322155 0.773024
Si Si3 0.690573 0.673323 0.024237
Si Si4 0.725559 0.678624 0.197578
Si Si5 0.375189 0.320466 0.315382
Si Si6 0.043713 0.820413 0.348796
Si Si7 0.086347 0.163919 0.517181
O O1 0.025284 0.724619 0.146470
O O2 0.004096 0.000000 0.092696
O O3 0.892018 0.799438 0.045402
O O4 0.000000 0.773977 0.000000
O O5 0.897186 0.500000 0.769222
O O6 0.826486 0.252187 0.765262
O O7 0.918446 0.263866 0.699745
O O8 0.712070 0.500000 0.035758
O O9 0.694936 0.734778 0.107085
O O10 0.750000 0.750000 0.000000
O O11 0.721635 0.500000 0.203821
O O12 0.811094 0.735606 0.242774
O O13 0.362128 0.500000 0.309050
O O14 0.454745 0.280536 0.313325
O O15 0.372987 0.256265 0.396876
O O16 0.087374 0.756829 0.439604
O O17 0.053858 0.000000 0.346316
O O18 0.000000 0.140270 0.500000
O O19 0.124286 0.000000 0.524940
#
# Coordination Sequence:
#
# PCOD8105097 Si02
#       7
#     8   8   8   8   8   8   8
#     4  10  20  41  64  80 105 147 190 226 275 333
#     4  12  25  38  56  84 115 147 189 238 278 326
#     4  10  23  40  60  83 111 145 183 229 275 329
#     4  11  23  41  58  79 114 153 188 227 281 337
#     4   9  18  34  59  89 115 144 185 232 278 329
#     4   9  18  35  60  86 114 150 186 225 277 336
#     4   7  12  28  55  84 112 143 183 226 271 327
#
# _framework density 19.067898
#
# number of rings (size 3 to 8) (size 9 to 14) (size 15 to 20)
#    0.000    2.286    1.429    3.429    2.000    2.571 
#    0.000    1.429    0.000    2.571    0.000    0.000 
#    0.000    0.000    0.000    0.000    0.000    0.000 
#
# Total GULP energy -347044.786515 kJ/mol
# GULP energy per Si atom -12394.456661 kJ/mol
# Density = 1.902450 g / cm^3
# Si number density = 19.067898 Si / 1000 Ang^3
#
#
#
# Elastic Constant Matrix: (Units=GPa)
#
#
# Indices 1 2 3 4 5 6 
#
# 1 88.2079 35.3874 21.4610 0.0000 -20.2190 0.0000
# 2 35.3874 63.1320 25.0854 0.0000 -8.9304 0.0000
# 3 21.4610 25.0854 61.9406 0.0000 -16.6517 0.0000
# 4 0.0000 0.0000 0.0000 17.7583 0.0000 0.1554
# 5 -20.2190 -8.9304 -16.6517 0.0000 33.7576 0.0000
# 6 0.0000 0.0000 0.0000 0.1554 0.0000 29.3858
#
#
#
# Elastic Compliance Matrix: (Units=1/GPa)
#
#
# Indices 1 2 3 4 5 6 
#
# 1 0.016336 -0.007924 -0.000443 0.000000 0.007470 0.000000
# 2 -0.007924 0.022780 -0.007074 0.000000 -0.002209 0.000000
# 3 -0.000443 -0.007074 0.021430 0.000000 0.008434 0.000000
# 4 0.000000 0.000000 0.000000 0.056314 0.000000 -0.000298
# 5 0.007470 -0.002209 0.008434 0.000000 0.037673 0.000000
# 6 0.000000 0.000000 0.000000 -0.000298 0.000000 0.034032
#
#
# Mechanical properties :
#
#
# Convention : Reuss Voigt Hill
#
# Bulk Modulus (GPa) = 33.71073 41.90536 37.80804
# Shear Modulus (GPa) = 21.80219 24.93678 23.36949
#
# Velocity S-wave (km/s) = 3.38509 3.62026 3.50465
# Velocity P-wave (km/s) = 5.74422 6.28488 6.02062
#
# Compressibility (1/GPa) = 0.02966414
#
# Stress axis : x y z
#
# Youngs Moduli (GPa) = 61.21530 43.89831 46.66299
#
# Poissons Ratio (x) = 0.34786 0.02066
# Poissons Ratio (y) = 0.48508 0.33010
# Poissons Ratio (z) = 0.02710 0.31054
#
# Static dielectric constant tensor:
#      x y z
#    x 3.362240 0.000000 -0.089910 
#    y 0.000000 3.224080 0.000000 
#    z -0.089910 0.000000 3.849220 
# 
# 
# High freq. dielectric constant tensor:
#      x y z
#    x 1.733260 0.000000 -0.006180 
#    y 0.000000 1.714400 0.000000 
#    z -0.006180 0.000000 1.756730 
# 
# From -- ./inp_files/281596.got.cif
#   From: 2010.06.25/outbox.cif.g09.slc.cpg/sg12_141_cif.got.tgz:281596.got - 2010.06.28 00:19:55.
