data_PCOD8105832
_publ_section_title
;
Structure prediction by ZEFSAII (Michael W. Deem and Ramdas Pophale) SiO2 
 PCOD8105832
Probable space group: C 2/M
;
_chemical_formula_sum "Si O2"
_cell_formula_units_Z 56
_cell_length_a 7.828326
_cell_length_b 27.326564
_cell_length_c 14.167381
_cell_angle_alpha 90.000000
_cell_angle_beta 77.418037
_cell_angle_gamma 90.000000
_cell_volume 2957.922690
_symmetry_space_group_name_H-M "C 2/M"
_symmetry_group_IT_number 12
_symmetry_cell_setting 'monoclinic'
loop_
_space_group_symop_operation_xyz
x,y,z
-x,y,-z
-x,-y,-z
x,-y,z
1/2+x,1/2+y,z
1/2-x,1/2+y,-z
1/2-x,1/2-y,-z
1/2+x,1/2-y,z
loop_
_atom_site_type_symbol
_atom_site_label
_atom_site_fract_x
_atom_site_fract_y
_atom_site_fract_z
Si Si1 0.371917 0.779202 0.104740
Si Si2 0.678674 0.358950 0.025313
Si Si3 0.343036 0.942297 0.310677
Si Si4 0.294965 0.946155 0.519626
Si Si5 0.229567 0.403928 0.282315
Si Si6 0.829050 0.318641 0.833485
Si Si7 0.405811 0.442586 0.829981
O O1 0.219912 0.818095 0.099608
O O2 0.299216 0.726510 0.137736
O O3 0.472399 0.798805 0.186236
O O4 0.500000 0.773749 0.000000
O O5 0.666758 0.413130 0.070994
O O6 0.500000 0.342246 0.000000
O O7 0.818115 0.357516 0.922683
O O8 0.256336 0.923461 0.420371
O O9 0.542512 0.925044 0.271162
O O10 0.213638 0.925285 0.243568
O O11 0.351952 0.000000 0.316871
O O12 0.500000 0.954037 0.500000
O O13 0.234430 0.909761 0.610117
O O14 0.205479 0.000000 0.545241
O O15 0.221450 0.346300 0.257201
O O16 0.389863 0.430126 0.209386
O O17 0.384506 0.500000 0.853133
#
# Coordination Sequence:
#
# PCOD8105832 Si02
#       7
#     8   8   8   8   8   8   8
#     4  10  21  35  59  76 103 139 185 237 282 304
#     4  11  20  37  52  75 112 142 182 220 266 319
#     4   9  19  37  55  78 111 145 184 230 266 310
#     4   8  15  31  55  79 108 141 179 225 269 312
#     4  11  20  33  55  83 110 141 180 221 273 330
#     4  11  21  35  55  81 108 140 180 234 274 322
#     4  11  23  35  54  81 116 151 182 217 264 328
#
# _framework density 18.932205
#
# number of rings (size 3 to 8) (size 9 to 14) (size 15 to 20)
#    0.000    1.857    1.429    6.000    0.000    0.857 
#    0.000    2.143    0.000    5.571    0.000   16.000 
#    0.000    0.000    0.000    0.000    0.000    0.000 
#
# Total GULP energy -346967.933144 kJ/mol
# GULP energy per Si atom -12391.711898 kJ/mol
# Density = 1.888911 g / cm^3
# Si number density = 18.932205 Si / 1000 Ang^3
#
#
#
# Elastic Constant Matrix: (Units=GPa)
#
#
# Indices 1 2 3 4 5 6 
#
# 1 100.0983 46.8211 31.8713 0.0000 13.9725 0.0000
# 2 46.8211 104.9251 60.2576 0.0000 6.6523 0.0000
# 3 31.8713 60.2576 78.8266 0.0000 7.0590 0.0000
# 4 0.0000 0.0000 0.0000 26.6768 0.0000 7.6195
# 5 13.9725 6.6523 7.0590 0.0000 16.7741 0.0000
# 6 0.0000 0.0000 0.0000 7.6195 0.0000 15.3930
#
#
#
# Elastic Compliance Matrix: (Units=1/GPa)
#
#
# Indices 1 2 3 4 5 6 
#
# 1 0.013963 -0.005130 -0.000898 0.000000 -0.009218 0.000000
# 2 -0.005130 0.018902 -0.012560 0.000000 0.002063 0.000000
# 3 -0.000898 -0.012560 0.023004 0.000000 -0.003952 0.000000
# 4 0.000000 0.000000 0.000000 0.043658 0.000000 -0.021611
# 5 -0.009218 0.002063 -0.003952 0.000000 0.068139 0.000000
# 6 0.000000 0.000000 0.000000 -0.021611 0.000000 0.075662
#
#
# Mechanical properties :
#
#
# Convention : Reuss Voigt Hill
#
# Bulk Modulus (GPa) = 53.49764 62.41666 57.95715
# Shear Modulus (GPa) = 17.43764 21.42877 19.43320
#
# Velocity S-wave (km/s) = 3.03818 3.36798 3.20732
# Velocity P-wave (km/s) = 6.37387 6.94006 6.66298
#
# Compressibility (1/GPa) = 0.01869241
#
# Stress axis : x y z
#
# Youngs Moduli (GPa) = 71.61991 52.90388 43.47027
#
# Poissons Ratio (x) = 0.27142 0.03904
# Poissons Ratio (y) = 0.36744 0.54598
# Poissons Ratio (z) = 0.06432 0.66447
#
# Static dielectric constant tensor:
#      x y z
#    x 3.790800 0.000000 0.253920 
#    y 0.000000 3.376170 0.000000 
#    z 0.253920 0.000000 3.756150 
# 
# 
# High freq. dielectric constant tensor:
#      x y z
#    x 1.748940 0.000000 0.009060 
#    y 0.000000 1.718140 0.000000 
#    z 0.009060 0.000000 1.706960 
# 
# From -- ./inp_files/199322.got.cif
#   From: 2010.06.25/outbox.cif.g09.slc.cpg/sg12_100_cif.got.tgz:199322.got - 2010.06.28 00:19:55.
