data_PCOD8105003
_publ_section_title
;
Structure prediction by ZEFSAII (Michael W. Deem and Ramdas Pophale) SiO2 
 PCOD8105003
Probable space group: C 2/M
;
_chemical_formula_sum "Si O2"
_cell_formula_units_Z 44
_cell_length_a 27.885482
_cell_length_b 9.722374
_cell_length_c 24.510268
_cell_angle_alpha 90.000000
_cell_angle_beta 159.990277
_cell_angle_gamma 90.000000
_cell_volume 2273.802066
_symmetry_space_group_name_H-M "C 2/M"
_symmetry_group_IT_number 12
_symmetry_cell_setting 'monoclinic'
loop_
_space_group_symop_operation_xyz
x,y,z
-x,y,-z
-x,-y,-z
x,-y,z
1/2+x,1/2+y,z
1/2-x,1/2+y,-z
1/2-x,1/2-y,-z
1/2+x,1/2-y,z
loop_
_atom_site_type_symbol
_atom_site_label
_atom_site_fract_x
_atom_site_fract_y
_atom_site_fract_z
Si Si1 0.654130 0.500000 0.935850
Si Si2 0.713520 0.500000 0.879889
Si Si3 0.579918 0.500000 0.392602
Si Si4 0.501024 0.342993 0.064362
Si Si5 0.537288 0.157068 0.478846
Si Si6 0.240664 0.787114 0.115579
Si Si7 0.254142 0.844646 0.651293
O O1 0.751239 0.500000 0.985204
O O2 0.681720 0.364904 0.999933
O O3 0.487854 0.500000 0.740115
O O4 0.544491 0.500000 0.694601
O O5 0.779280 0.627944 0.918786
O O6 0.673890 0.363787 0.506818
O O7 0.552347 0.500000 0.126786
O O8 0.602667 0.238780 0.205397
O O9 0.500000 0.301287 0.000000
O O10 0.345420 0.326871 0.922345
O O11 0.500000 0.200731 0.500000
O O12 0.401611 0.172006 0.295600
O O13 0.661361 0.256969 0.593743
O O14 0.591748 0.000000 0.534263
O O15 0.281829 0.000000 0.704580
#
# Coordination Sequence:
#
# PCOD8105003 Si02
#       7
#     4   4   4   8   8   8   8
#     4  10  20  40  66  88 123 156 202 256 314 354
#     4  10  22  37  64  94 126 143 200 269 305 356
#     4   8  20  39  60  88 122 151 190 263 301 356
#     4  11  24  42  62  89 127 167 207 247 294 366
#     4  11  21  36  59  89 121 158 205 249 300 366
#     4  12  21  40  64  95 118 162 203 252 310 362
#     4  10  21  40  58  83 124 161 192 253 306 354
#
# _framework density 19.350850000000001
#
# number of rings (size 3 to 8) (size 9 to 14) (size 15 to 20)
#    1.091    0.364    3.636    2.182    1.273    3.636 
#    3.273    0.909    2.000    0.000    0.000    0.000 
#    0.000    0.000    0.000    0.000    0.000    0.000 
#
# Total GULP energy -272675.799291 kJ/mol
# GULP energy per Si atom -12394.354513 kJ/mol
# Density = 1.930681 g / cm^3
# Si number density = 19.350850 Si / 1000 Ang^3
#
#
#
# Elastic Constant Matrix: (Units=GPa)
#
#
# Indices 1 2 3 4 5 6 
#
# 1 56.7050 14.8426 4.3387 0.0002 -3.2563 0.0000
# 2 14.8426 124.4913 27.3381 0.0010 -2.1744 0.0005
# 3 4.3387 27.3381 68.7228 0.0005 -3.9009 0.0005
# 4 0.0002 0.0010 0.0005 22.5979 0.0003 15.1451
# 5 -3.2563 -2.1744 -3.9009 0.0003 32.6001 0.0002
# 6 0.0000 0.0005 0.0005 15.1451 0.0002 20.6594
#
#
#
# Elastic Compliance Matrix: (Units=1/GPa)
#
#
# Indices 1 2 3 4 5 6 
#
# 1 0.018298 -0.002103 -0.000224 0.000000 0.001661 0.000000
# 2 -0.002103 0.009044 -0.003466 0.000000 -0.000022 0.000000
# 3 -0.000224 -0.003466 0.016039 0.000000 0.001666 0.000000
# 4 0.000000 0.000000 0.000000 0.086993 -0.000001 -0.063773
# 5 0.001661 -0.000022 0.001666 -0.000001 0.031038 0.000000
# 6 0.000000 0.000000 0.000000 -0.063773 0.000000 0.095155
#
#
# Mechanical properties :
#
#
# Convention : Reuss Voigt Hill
#
# Bulk Modulus (GPa) = 31.45295 38.10642 34.77968
# Shear Modulus (GPa) = 17.93699 28.73146 23.33423
#
# Velocity S-wave (km/s) = 3.04786 3.85744 3.47630
# Velocity P-wave (km/s) = 5.35493 6.29086 5.84167
#
# Compressibility (1/GPa) = 0.03179352
#
# Stress axis : x y z
#
# Youngs Moduli (GPa) = 54.65017 110.56716 62.34878
#
# Poissons Ratio (x) = 0.23256 0.01398
# Poissons Ratio (y) = 0.11495 0.21612
# Poissons Ratio (z) = 0.01226 0.38326
#
# Static dielectric constant tensor:
#      x y z
#    x 3.243740 0.000000 -0.024120 
#    y 0.000000 3.561150 0.000000 
#    z -0.024120 0.000000 3.524540 
# 
# 
# High freq. dielectric constant tensor:
#      x y z
#    x 1.727740 0.000000 -0.003100 
#    y 0.000000 1.762130 0.000000 
#    z -0.003100 0.000000 1.753020 
# 
# From -- ./inp_files/370629.got.cif
#   From: 2010.06.25/outbox.cif.g09.slc.cpg/sg12_186_cif.got.tgz:370629.got - 2010.06.28 00:19:55.
