data_PCOD8105596
_publ_section_title
;
Structure prediction by ZEFSAII (Michael W. Deem and Ramdas Pophale) SiO2 
 PCOD8105596
Probable space group: C 2/M
;
_chemical_formula_sum "Si O2"
_cell_formula_units_Z 56
_cell_length_a 23.179619
_cell_length_b 13.437795
_cell_length_c 8.716271
_cell_angle_alpha 90.000000
_cell_angle_beta 85.757864
_cell_angle_gamma 90.000000
_cell_volume 2707.531889
_symmetry_space_group_name_H-M "C 2/M"
_symmetry_group_IT_number 12
_symmetry_cell_setting 'monoclinic'
loop_
_space_group_symop_operation_xyz
x,y,z
-x,y,-z
-x,-y,-z
x,-y,z
1/2+x,1/2+y,z
1/2-x,1/2+y,-z
1/2-x,1/2-y,-z
1/2+x,1/2-y,z
loop_
_atom_site_type_symbol
_atom_site_label
_atom_site_fract_x
_atom_site_fract_y
_atom_site_fract_z
Si Si1 0.438311 0.884015 0.441318
Si Si2 0.169772 0.722350 0.382705
Si Si3 0.937447 0.608824 0.083434
Si Si4 0.885206 0.886250 0.183025
Si Si5 0.603574 0.282930 0.116619
Si Si6 0.498601 0.616709 0.682185
Si Si7 0.783998 0.883989 0.409436
O O1 0.500000 0.851305 0.500000
O O2 0.388078 0.817550 0.525283
O O3 0.440009 0.861905 0.260802
O O4 0.426549 0.000000 0.480228
O O5 0.157379 0.753378 0.210724
O O6 0.196191 0.823005 0.446465
O O7 0.217795 0.636152 0.377081
O O8 0.907587 0.500000 0.071375
O O9 0.902891 0.689922 0.995854
O O10 0.000000 0.603062 0.000000
O O11 0.825690 0.844392 0.265178
O O12 0.942372 0.841054 0.253626
O O13 0.888217 0.000000 0.226095
O O14 0.883654 0.874063 0.000032
O O15 0.550126 0.313735 0.233763
O O16 0.500000 0.634325 0.500000
O O17 0.487114 0.500000 0.721532
O O18 0.791218 0.000000 0.445851
#
# Coordination Sequence:
#
# PCOD8105596 Si02
#       7
#     8   8   8   8   8   8   8
#     4  10  21  39  63  90 122 159 199 244 293 346
#     4  11  24  39  63  91 115 151 199 247 295 352
#     4  10  21  35  52  80 119 159 195 233 282 341
#     4  10  21  38  60  86 120 159 194 234 290 352
#     4  12  23  35  58  89 123 152 188 240 298 353
#     4  10  21  37  59  90 124 157 194 236 288 351
#     4  10  23  44  64  83 113 154 201 249 293 345
#
# _framework density 20.683043000000001
#
# number of rings (size 3 to 8) (size 9 to 14) (size 15 to 20)
#    0.000    1.571    0.000    4.714    0.000    9.143 
#    0.000    0.000    0.000    4.286    0.000    0.000 
#    0.000    0.000    0.000    0.000    0.000    0.000 
#
# Total GULP energy -347132.008482 kJ/mol
# GULP energy per Si atom -12397.571732 kJ/mol
# Density = 2.063597 g / cm^3
# Si number density = 20.683043 Si / 1000 Ang^3
#
#
#
# Elastic Constant Matrix: (Units=GPa)
#
#
# Indices 1 2 3 4 5 6 
#
# 1 119.2697 37.2948 53.2940 0.0000 17.5842 0.0000
# 2 37.2948 77.1212 27.0429 0.0000 9.6507 0.0000
# 3 53.2940 27.0429 145.3643 0.0000 21.3563 0.0000
# 4 0.0000 0.0000 0.0000 35.8485 0.0000 -4.5195
# 5 17.5842 9.6507 21.3563 0.0000 28.6692 0.0000
# 6 0.0000 0.0000 0.0000 -4.5195 0.0000 20.4336
#
#
#
# Elastic Compliance Matrix: (Units=1/GPa)
#
#
# Indices 1 2 3 4 5 6 
#
# 1 0.011490 -0.004090 -0.002940 0.000000 -0.003480 0.000000
# 2 -0.004090 0.015575 -0.001119 0.000000 -0.001901 0.000000
# 3 -0.002940 -0.001119 0.008809 0.000000 -0.004382 0.000000
# 4 0.000000 0.000000 0.000000 0.028695 0.000000 0.006347
# 5 -0.003480 -0.001901 -0.004382 0.000000 0.040920 0.000000
# 6 0.000000 0.000000 0.000000 0.006347 0.000000 0.050343
#
#
# Mechanical properties :
#
#
# Convention : Reuss Voigt Hill
#
# Bulk Modulus (GPa) = 51.08299 64.11316 57.59808
# Shear Modulus (GPa) = 27.98687 31.93182 29.95934
#
# Velocity S-wave (km/s) = 3.68248 3.93347 3.81004
# Velocity P-wave (km/s) = 6.54466 7.18991 6.87486
#
# Compressibility (1/GPa) = 0.01957599
#
# Stress axis : x y z
#
# Youngs Moduli (GPa) = 87.03023 64.20716 113.51761
#
# Poissons Ratio (x) = 0.26260 0.33379
# Poissons Ratio (y) = 0.35595 0.12699
# Poissons Ratio (z) = 0.25590 0.07183
#
# Static dielectric constant tensor:
#      x y z
#    x 3.794840 0.000000 0.006490 
#    y 0.000000 4.100680 0.000000 
#    z 0.006490 0.000000 3.817470 
# 
# 
# High freq. dielectric constant tensor:
#      x y z
#    x 1.793600 0.000000 -0.001280 
#    y 0.000000 1.829020 0.000000 
#    z -0.001280 0.000000 1.815390 
# 
# From -- ./inp_files/86327.got.cif
#   From: 2010.06.25/outbox.cif.g09.slc.cpg/sg12_44_cif.got.tgz:86327.got - 2010.06.28 00:19:55.
