data_PCOD8105552
_publ_section_title
;
Structure prediction by ZEFSAII (Michael W. Deem and Ramdas Pophale) SiO2 
 PCOD8105552
Probable space group: C 2/M
;
_chemical_formula_sum "Si O2"
_cell_formula_units_Z 56
_cell_length_a 33.325676
_cell_length_b 9.375429
_cell_length_c 24.760817
_cell_angle_alpha 90.000000
_cell_angle_beta 157.679395
_cell_angle_gamma 90.000000
_cell_volume 2938.172660
_symmetry_space_group_name_H-M "C 2/M"
_symmetry_group_IT_number 12
_symmetry_cell_setting 'monoclinic'
loop_
_space_group_symop_operation_xyz
x,y,z
-x,y,-z
-x,-y,-z
x,-y,z
1/2+x,1/2+y,z
1/2-x,1/2+y,-z
1/2-x,1/2-y,-z
1/2+x,1/2-y,z
loop_
_atom_site_type_symbol
_atom_site_label
_atom_site_fract_x
_atom_site_fract_y
_atom_site_fract_z
Si Si1 0.698823 0.665148 0.098427
Si Si2 0.331791 0.334372 0.426607
Si Si3 0.100056 0.669752 0.588545
Si Si4 0.945394 0.168085 0.674501
Si Si5 0.097368 0.334234 0.157893
Si Si6 0.678549 0.664973 0.951183
Si Si7 0.462465 0.330150 0.814869
O O1 0.695968 0.500000 0.108475
O O2 0.794326 0.732655 0.251638
O O3 0.724812 0.690346 0.068299
O O4 0.583670 0.726442 0.970457
O O5 0.360259 0.500000 0.453620
O O6 0.402758 0.242861 0.473752
O O7 0.360345 0.286323 0.523576
O O8 0.206954 0.306407 0.262628
O O9 0.100959 0.500000 0.582120
O O10 0.000000 0.716751 0.500000
O O11 0.915448 0.219901 0.697953
O O12 0.060032 0.227873 0.800203
O O13 0.958225 0.000000 0.695056
O O14 0.084099 0.500000 0.155963
O O15 0.103858 0.246179 0.221276
O O16 0.000000 0.279947 0.000000
O O17 0.681862 0.500000 0.939050
O O18 0.750000 0.750000 0.000000
O O19 0.455129 0.500000 0.813099
#
# Coordination Sequence:
#
# PCOD8105552 Si02
#       7
#     8   8   8   8   8   8   8
#     4   8  16  32  50  70  99 132 163 202 256 304
#     4  10  21  37  54  73 104 141 171 206 256 313
#     4  10  21  35  52  75 103 134 169 214 259 298
#     4   8  17  34  52  73 103 136 169 207 253 304
#     4  10  21  35  52  77 108 137 167 212 263 301
#     4   9  17  30  50  72  96 128 166 207 249 296
#     4   9  17  33  57  77  97 133 176 211 248 305
#
# _framework density 19.059464999999999
#
# number of rings (size 3 to 8) (size 9 to 14) (size 15 to 20)
#    0.000    2.857    0.000    2.571    2.000    1.714 
#    0.000    4.286    0.000    0.000    0.000    0.000 
#    0.000    0.000    0.000    0.000    0.000    0.000 
#
# Total GULP energy -347066.546742 kJ/mol
# GULP energy per Si atom -12395.233812 kJ/mol
# Density = 1.901608 g / cm^3
# Si number density = 19.059465 Si / 1000 Ang^3
#
#
#
# Elastic Constant Matrix: (Units=GPa)
#
#
# Indices 1 2 3 4 5 6 
#
# 1 119.0851 44.0277 36.8275 0.0000 2.1083 0.0000
# 2 44.0277 38.3785 19.3497 0.0000 -0.5231 0.0000
# 3 36.8275 19.3497 90.7626 0.0000 -11.9954 0.0000
# 4 0.0000 0.0000 0.0000 16.3887 0.0000 -0.4881
# 5 2.1083 -0.5231 -11.9954 0.0000 23.7274 0.0000
# 6 0.0000 0.0000 0.0000 -0.4881 0.0000 37.8316
#
#
#
# Elastic Compliance Matrix: (Units=1/GPa)
#
#
# Indices 1 2 3 4 5 6 
#
# 1 0.015414 -0.016079 -0.003273 0.000000 -0.003379 0.000000
# 2 -0.016079 0.046127 -0.003200 0.000000 0.000828 0.000000
# 3 -0.003273 -0.003200 0.013992 0.000000 0.007294 0.000000
# 4 0.000000 0.000000 0.000000 0.061041 0.000000 0.000788
# 5 -0.003379 0.000828 0.007294 0.000000 0.046151 0.000000
# 6 0.000000 0.000000 0.000000 0.000788 0.000000 0.026443
#
#
# Mechanical properties :
#
#
# Convention : Reuss Voigt Hill
#
# Bulk Modulus (GPa) = 32.86392 49.84844 41.35618
# Shear Modulus (GPa) = 18.90968 25.45763 22.18365
#
# Velocity S-wave (km/s) = 3.15324 3.65868 3.41533
# Velocity P-wave (km/s) = 5.52608 6.63769 6.10723
#
# Compressibility (1/GPa) = 0.03042850
#
# Stress axis : x y z
#
# Youngs Moduli (GPa) = 64.87639 21.67949 71.46917
#
# Poissons Ratio (x) = 0.34858 0.23392
# Poissons Ratio (y) = 1.04313 0.22872
# Poissons Ratio (z) = 0.21234 0.06938
#
# Static dielectric constant tensor:
#      x y z
#    x 3.416250 0.000000 -0.084110 
#    y 0.000000 3.060740 0.000000 
#    z -0.084110 0.000000 3.494540 
# 
# 
# High freq. dielectric constant tensor:
#      x y z
#    x 1.745480 0.000000 -0.004760 
#    y 0.000000 1.700020 0.000000 
#    z -0.004760 0.000000 1.746420 
# 
# From -- ./inp_files/327622.got.cif
#   From: 2010.06.25/outbox.cif.g09.slc.cpg/sg12_164_cif.got.tgz:327622.got - 2010.06.28 00:19:55.
