data_PCOD8105982
_publ_section_title
;
Structure prediction by ZEFSAII (Michael W. Deem and Ramdas Pophale) SiO2 
 PCOD8105982
Probable space group: C 2/M
;
_chemical_formula_sum "Si O2"
_cell_formula_units_Z 56
_cell_length_a 10.110104
_cell_length_b 9.512904
_cell_length_c 31.881858
_cell_angle_alpha 90.000000
_cell_angle_beta 103.041472
_cell_angle_gamma 90.000000
_cell_volume 2987.195176
_symmetry_space_group_name_H-M "C 2/M"
_symmetry_group_IT_number 12
_symmetry_cell_setting 'monoclinic'
loop_
_space_group_symop_operation_xyz
x,y,z
-x,y,-z
-x,-y,-z
x,-y,z
1/2+x,1/2+y,z
1/2-x,1/2+y,-z
1/2-x,1/2-y,-z
1/2+x,1/2-y,z
loop_
_atom_site_type_symbol
_atom_site_label
_atom_site_fract_x
_atom_site_fract_y
_atom_site_fract_z
Si Si1 0.025850 0.836109 0.878375
Si Si2 0.715009 0.836831 0.737263
Si Si3 0.411036 0.163915 0.693748
Si Si4 0.379957 0.336104 0.022433
Si Si5 0.667304 0.163494 0.405078
Si Si6 0.722327 0.163300 0.834970
Si Si7 0.472998 0.336426 0.450560
O O1 0.077842 0.793131 0.927827
O O2 0.106647 0.751042 0.849399
O O3 0.867772 0.796074 0.864554
O O4 0.047201 0.000000 0.870567
O O5 0.569320 0.797196 0.707631
O O6 0.830606 0.748542 0.722960
O O7 0.718284 0.796147 0.786088
O O8 0.748603 0.000000 0.732902
O O9 0.357319 0.209134 0.644447
O O10 0.387210 0.000000 0.700897
O O11 0.345549 0.500000 0.016350
O O12 0.500000 0.293241 0.000000
O O13 0.250000 0.250000 0.000000
O O14 0.570177 0.250175 0.427781
O O15 0.820058 0.201590 0.427859
O O16 0.635050 0.000000 0.409448
O O17 0.689582 0.000000 0.839553
O O18 0.500000 0.289730 0.500000
O O19 0.504672 0.500000 0.446234
#
# Coordination Sequence:
#
# PCOD8105982 Si02
#       7
#     8   8   8   8   8   8   8
#     4  10  21  36  55  80 107 138 177 216 259 312
#     4  10  21  36  55  80 107 138 177 216 259 313
#     4  10  21  36  54  79 109 139 175 218 262 312
#     4  10  21  37  56  79 108 140 175 217 262 309
#     4  10  21  36  54  78 107 139 176 217 263 315
#     4  10  21  37  56  79 108 140 175 217 262 309
#     4  10  21  36  54  78 106 137 177 221 264 314
#
# _framework density 18.746682
#
# number of rings (size 3 to 8) (size 9 to 14) (size 15 to 20)
#    0.000    2.000    0.000    3.000    0.000    5.143 
#    0.000    0.000    0.000    0.000    0.000    0.000 
#    0.000    0.000    0.000    0.000    0.000    0.000 
#
# Total GULP energy -347361.005042 kJ/mol
# GULP energy per Si atom -12405.750180 kJ/mol
# Density = 1.870401 g / cm^3
# Si number density = 18.746682 Si / 1000 Ang^3
#
#
#
# Elastic Constant Matrix: (Units=GPa)
#
#
# Indices 1 2 3 4 5 6 
#
# 1 74.4444 42.2783 31.9054 0.0000 -11.8865 0.0000
# 2 42.2783 50.3608 31.3809 0.0000 -13.3309 0.0000
# 3 31.9054 31.3809 99.7746 0.0000 6.1101 0.0000
# 4 0.0000 0.0000 0.0000 28.8595 0.0000 -14.2991
# 5 -11.8865 -13.3309 6.1101 0.0000 39.3291 0.0000
# 6 0.0000 0.0000 0.0000 -14.2991 0.0000 49.3247
#
#
#
# Elastic Compliance Matrix: (Units=1/GPa)
#
#
# Indices 1 2 3 4 5 6 
#
# 1 0.025988 -0.020195 -0.002040 0.000000 0.001326 0.000000
# 2 -0.020195 0.044663 -0.008221 0.000000 0.010313 0.000000
# 3 -0.002040 -0.008221 0.013598 0.000000 -0.005516 0.000000
# 4 0.000000 0.000000 0.000000 0.040463 0.000000 0.011730
# 5 0.001326 0.010313 -0.005516 0.000000 0.030180 0.000000
# 6 0.000000 0.000000 0.000000 0.011730 0.000000 0.023674
#
#
# Mechanical properties :
#
#
# Convention : Reuss Voigt Hill
#
# Bulk Modulus (GPa) = 42.84921 48.41210 45.63066
# Shear Modulus (GPa) = 20.22193 31.43700 25.82946
#
# Velocity S-wave (km/s) = 3.28791 4.09948 3.71592
# Velocity P-wave (km/s) = 6.10904 6.94897 6.54250
#
# Compressibility (1/GPa) = 0.02333765
#
# Stress axis : x y z
#
# Youngs Moduli (GPa) = 38.47953 22.38992 73.53859
#
# Poissons Ratio (x) = 0.45216 0.15000
# Poissons Ratio (y) = 0.77709 0.60456
# Poissons Ratio (z) = 0.07849 0.18407
#
# Static dielectric constant tensor:
#      x y z
#    x 3.387170 0.000000 0.141520 
#    y 0.000000 3.364490 0.000000 
#    z 0.141520 0.000000 3.644620 
# 
# 
# High freq. dielectric constant tensor:
#      x y z
#    x 1.738230 0.000000 0.006290 
#    y 0.000000 1.721800 0.000000 
#    z 0.006290 0.000000 1.749170 
# 
# From -- ./inp_files/357527.got.cif
#   From: 2010.06.25/outbox.cif.g09.slc.cpg/sg12_179_cif.got.tgz:357527.got - 2010.06.28 00:19:55.
