data_PCOD8105950
_publ_section_title
;
Structure prediction by ZEFSAII (Michael W. Deem and Ramdas Pophale) SiO2 
 PCOD8105950
Probable space group: C 2/M
;
_chemical_formula_sum "Si O2"
_cell_formula_units_Z 48
_cell_length_a 13.235879
_cell_length_b 13.694479
_cell_length_c 13.781553
_cell_angle_alpha 90.000000
_cell_angle_beta 100.576008
_cell_angle_gamma 90.000000
_cell_volume 2455.587478
_symmetry_space_group_name_H-M "C 2/M"
_symmetry_group_IT_number 12
_symmetry_cell_setting 'monoclinic'
loop_
_space_group_symop_operation_xyz
x,y,z
-x,y,-z
-x,-y,-z
x,-y,z
1/2+x,1/2+y,z
1/2-x,1/2+y,-z
1/2-x,1/2-y,-z
1/2+x,1/2-y,z
loop_
_atom_site_type_symbol
_atom_site_label
_atom_site_fract_x
_atom_site_fract_y
_atom_site_fract_z
Si Si1 0.227561 0.303345 0.326849
Si Si2 0.124109 0.384450 0.126298
Si Si3 0.821272 0.389438 0.280259
Si Si4 0.939813 0.105957 0.389737
Si Si5 0.605522 0.114209 0.909898
Si Si6 0.982664 0.696961 0.611566
O O1 0.203949 0.334076 0.212769
O O2 0.254141 0.187338 0.330083
O O3 0.320777 0.366121 0.386964
O O4 0.134079 0.327216 0.382626
O O5 0.134255 0.500000 0.141919
O O6 0.009330 0.343881 0.129488
O O7 0.152269 0.350353 0.021132
O O8 0.781561 0.500000 0.292287
O O9 0.817171 0.361871 0.164836
O O10 0.941534 0.384439 0.331639
O O11 0.000000 0.095846 0.500000
O O12 0.989456 0.195654 0.337781
O O13 0.946142 0.000000 0.336944
O O14 0.587362 0.000000 0.916491
O O15 0.000000 0.700713 0.500000
#
# Coordination Sequence:
#
# PCOD8105950 Si02
#       6
#     8   8   8   8   8   8
#     4  11  21  34  57  82 103 140 184 217 258 316
#     4   9  16  29  55  83 106 136 174 215 260 313
#     4  10  21  36  53  79 113 139 170 221 270 309
#     4   9  20  37  55  75 103 137 173 219 266 312
#     4   8  15  30  52  80 110 136 166 215 268 308
#     4  10  22  38  54  76 106 139 180 224 264 312
#
# _framework density 19.547257999999999
#
# number of rings (size 3 to 8) (size 9 to 14) (size 15 to 20)
#    0.000    2.500    1.667    1.500    0.000    8.333 
#    0.000    3.333    0.000    0.000    0.000    2.333 
#    0.000    0.000    0.000    0.000    0.000    0.000 
#
# Total GULP energy -297368.789717 kJ/mol
# GULP energy per Si atom -12390.366238 kJ/mol
# Density = 1.950277 g / cm^3
# Si number density = 19.547258 Si / 1000 Ang^3
#
#
#
# Elastic Constant Matrix: (Units=GPa)
#
#
# Indices 1 2 3 4 5 6 
#
# 1 79.1828 4.8122 37.0979 0.0000 15.4399 0.0000
# 2 4.8122 70.9253 25.1116 0.0000 9.0543 0.0000
# 3 37.0979 25.1116 84.4308 0.0000 8.3141 0.0000
# 4 0.0000 0.0000 0.0000 25.4091 0.0000 6.9686
# 5 15.4399 9.0543 8.3141 0.0000 25.4712 0.0000
# 6 0.0000 0.0000 0.0000 6.9686 0.0000 20.1213
#
#
#
# Elastic Compliance Matrix: (Units=1/GPa)
#
#
# Indices 1 2 3 4 5 6 
#
# 1 0.017913 0.002720 -0.007765 0.000000 -0.009291 0.000000
# 2 0.002720 0.016621 -0.005573 0.000000 -0.005738 0.000000
# 3 -0.007765 -0.005573 0.016795 0.000000 0.001206 0.000000
# 4 0.000000 0.000000 0.000000 0.043487 0.000000 -0.015061
# 5 -0.009291 -0.005738 0.001206 0.000000 0.046538 0.000000
# 6 0.000000 0.000000 0.000000 -0.015061 0.000000 0.054915
#
#
# Mechanical properties :
#
#
# Convention : Reuss Voigt Hill
#
# Bulk Modulus (GPa) = 33.23181 40.95358 37.09269
# Shear Modulus (GPa) = 21.97466 25.36813 23.67140
#
# Velocity S-wave (km/s) = 3.35652 3.60639 3.48369
# Velocity P-wave (km/s) = 5.66209 6.19176 5.93284
#
# Compressibility (1/GPa) = 0.03009165
#
# Stress axis : x y z
#
# Youngs Moduli (GPa) = 55.82455 60.16638 59.54246
#
# Poissons Ratio (x) = -0.16365 0.46234
# Poissons Ratio (y) = -0.15184 0.33186
# Poissons Ratio (z) = 0.43347 0.33533
#
# Static dielectric constant tensor:
#      x y z
#    x 3.340830 0.000000 0.121510 
#    y 0.000000 3.737420 0.000000 
#    z 0.121510 0.000000 3.666070 
# 
# 
# High freq. dielectric constant tensor:
#      x y z
#    x 1.740240 0.000000 0.012430 
#    y 0.000000 1.750110 0.000000 
#    z 0.012430 0.000000 1.756570 
# 
# From -- ./inp_files/204503.got.cif
#   From: 2010.06.25/outbox.cif.g09.slc.cpg/sg12_103_cif.got.tgz:204503.got - 2010.06.28 00:19:55.
