data_PCOD8105569
_publ_section_title
;
Structure prediction by ZEFSAII (Michael W. Deem and Ramdas Pophale) SiO2 
 PCOD8105569
Probable space group: C 2/M
;
_chemical_formula_sum "Si O2"
_cell_formula_units_Z 56
_cell_length_a 28.342076
_cell_length_b 8.854535
_cell_length_c 12.224127
_cell_angle_alpha 90.000000
_cell_angle_beta 102.283601
_cell_angle_gamma 90.000000
_cell_volume 2997.486088
_symmetry_space_group_name_H-M "C 2/M"
_symmetry_group_IT_number 12
_symmetry_cell_setting 'monoclinic'
loop_
_space_group_symop_operation_xyz
x,y,z
-x,y,-z
-x,-y,-z
x,-y,z
1/2+x,1/2+y,z
1/2-x,1/2+y,-z
1/2-x,1/2-y,-z
1/2+x,1/2-y,z
loop_
_atom_site_type_symbol
_atom_site_label
_atom_site_fract_x
_atom_site_fract_y
_atom_site_fract_z
Si Si1 0.062065 0.821304 0.129064
Si Si2 0.622809 0.177499 0.776221
Si Si3 0.644701 0.320101 0.330898
Si Si4 0.716490 0.671809 0.896349
Si Si5 0.158145 0.678492 0.556967
Si Si6 0.044766 0.178766 0.878352
Si Si7 0.745979 0.826379 0.327849
O O1 0.105722 0.758007 0.224043
O O2 0.010907 0.767688 0.153725
O O3 0.062336 0.000000 0.129672
O O4 0.067431 0.767584 0.005850
O O5 0.664735 0.248210 0.871030
O O6 0.629892 0.224818 0.653184
O O7 0.571686 0.239531 0.791980
O O8 0.625139 0.000000 0.791474
O O9 0.645191 0.500000 0.336029
O O10 0.629798 0.253347 0.441738
O O11 0.696403 0.259276 0.321563
O O12 0.707950 0.500000 0.927149
O O13 0.742228 0.685943 0.793327
O O14 0.750000 0.750000 0.000000
O O15 0.161110 0.500000 0.543987
O O16 0.212379 0.744499 0.582184
O O17 0.049648 0.000000 0.865835
O O18 0.741962 0.000000 0.364411
#
# Coordination Sequence:
#
# PCOD8105569 Si02
#       7
#     8   8   8   8   8   8   8
#     4   8  18  35  56  83 109 137 176 221 269 325
#     4  10  21  36  55  79 107 141 181 221 271 323
#     4  11  21  34  55  81 109 141 181 225 268 319
#     4  10  21  35  52  77 110 144 180 220 262 317
#     4  10  21  38  55  75 107 146 183 223 265 317
#     4   9  17  36  61  81 106 140 178 219 270 327
#     4  10  21  36  53  77 108 144 181 219 266 318
#
# _framework density 18.682323
#
# number of rings (size 3 to 8) (size 9 to 14) (size 15 to 20)
#    0.000    2.286    0.000    3.429    2.000    3.429 
#    0.000    4.286    0.000    4.286    0.000    0.000 
#    0.000    0.000    0.000    0.000    0.000    0.000 
#
# Total GULP energy -347234.985051 kJ/mol
# GULP energy per Si atom -12401.249466 kJ/mol
# Density = 1.863980 g / cm^3
# Si number density = 18.682323 Si / 1000 Ang^3
#
#
#
# Elastic Constant Matrix: (Units=GPa)
#
#
# Indices 1 2 3 4 5 6 
#
# 1 110.9537 33.9124 52.7743 0.0000 -6.6451 0.0000
# 2 33.9124 77.9370 34.6083 0.0000 0.9137 0.0000
# 3 52.7743 34.6083 93.5397 0.0000 15.7033 0.0000
# 4 0.0000 0.0000 0.0000 29.3806 0.0000 -3.8473
# 5 -6.6451 0.9137 15.7033 0.0000 23.1610 0.0000
# 6 0.0000 0.0000 0.0000 -3.8473 0.0000 30.7022
#
#
#
# Elastic Compliance Matrix: (Units=1/GPa)
#
#
# Indices 1 2 3 4 5 6 
#
# 1 0.014775 -0.002469 -0.009198 0.000000 0.010573 0.000000
# 2 -0.002469 0.016046 -0.004873 0.000000 0.001963 0.000000
# 3 -0.009198 -0.004873 0.020418 0.000000 -0.016290 0.000000
# 4 0.000000 0.000000 0.000000 0.034604 0.000000 0.004336
# 5 0.010573 0.001963 -0.016290 0.000000 0.057176 0.000000
# 6 0.000000 0.000000 0.000000 0.004336 0.000000 0.033114
#
#
# Mechanical properties :
#
#
# Convention : Reuss Voigt Hill
#
# Bulk Modulus (GPa) = 55.06790 58.33560 56.70175
# Shear Modulus (GPa) = 23.22699 27.39113 25.30906
#
# Velocity S-wave (km/s) = 3.52981 3.83319 3.68463
# Velocity P-wave (km/s) = 6.79358 7.13330 6.96551
#
# Compressibility (1/GPa) = 0.01815940
#
# Stress axis : x y z
#
# Youngs Moduli (GPa) = 67.68044 62.31998 48.97719
#
# Poissons Ratio (x) = 0.15386 0.45047
# Poissons Ratio (y) = 0.16709 0.23869
# Poissons Ratio (z) = 0.62250 0.30371
#
# Static dielectric constant tensor:
#      x y z
#    x 3.476100 0.000000 0.024320 
#    y 0.000000 3.372730 0.000000 
#    z 0.024320 0.000000 3.711120 
# 
# 
# High freq. dielectric constant tensor:
#      x y z
#    x 1.720910 0.000000 -0.007470 
#    y 0.000000 1.721700 0.000000 
#    z -0.007470 0.000000 1.729600 
# 
# From -- ./inp_files/186850.got.cif
#   From: 2010.06.25/outbox.cif.g09.slc.cpg/sg12_94_cif.got.tgz:186850.got - 2010.06.28 00:19:55.
