data_PCOD8105460
_publ_section_title
;
Structure prediction by ZEFSAII (Michael W. Deem and Ramdas Pophale) SiO2 
 PCOD8105460
Probable space group: C 2/M
;
_chemical_formula_sum "Si O2"
_cell_formula_units_Z 64
_cell_length_a 20.578816
_cell_length_b 17.956029
_cell_length_c 12.636429
_cell_angle_alpha 90.000000
_cell_angle_beta 133.808069
_cell_angle_gamma 90.000000
_cell_volume 3369.685199
_symmetry_space_group_name_H-M "C 2/M"
_symmetry_group_IT_number 12
_symmetry_cell_setting 'monoclinic'
loop_
_space_group_symop_operation_xyz
x,y,z
-x,y,-z
-x,-y,-z
x,-y,z
1/2+x,1/2+y,z
1/2-x,1/2+y,-z
1/2-x,1/2-y,-z
1/2+x,1/2-y,z
loop_
_atom_site_type_symbol
_atom_site_label
_atom_site_fract_x
_atom_site_fract_y
_atom_site_fract_z
Si Si1 0.008708 0.316997 0.289949
Si Si2 0.769412 0.306014 0.244491
Si Si3 0.313632 0.582352 0.447569
Si Si4 0.079054 0.730085 0.011033
Si Si5 0.920897 0.797689 0.474298
Si Si6 0.674353 0.917442 0.107108
Si Si7 0.791384 0.329357 0.510026
Si Si8 0.653829 0.085771 0.846350
O O1 0.028935 0.272521 0.418782
O O2 0.103523 0.336880 0.341380
O O3 0.950434 0.389006 0.258022
O O4 0.953844 0.265184 0.146796
O O5 0.666173 0.282000 0.116795
O O6 0.835253 0.233629 0.310776
O O7 0.779126 0.342061 0.371405
O O8 0.793794 0.365246 0.181420
O O9 0.353352 0.500000 0.510075
O O10 0.391943 0.643623 0.531126
O O11 0.262953 0.587118 0.278430
O O12 0.252431 0.601926 0.478518
O O13 0.103312 0.644241 0.066541
O O14 0.000000 0.757996 0.000000
O O15 0.000000 0.839279 0.500000
O O16 0.630368 0.000000 0.068567
O O17 0.701971 0.903766 0.015137
O O18 0.750000 0.250000 0.500000
O O19 0.655314 0.000000 0.810916
#
# Coordination Sequence:
#
# PCOD8105460 Si02
#       8
#     8   8   8   8   8   8   8   8
#     4  10  21  34  60  88 117 154 196 244 295 352
#     4  11  22  37  63  87 115 159 196 247 300 347
#     4  11  22  37  60  86 119 160 199 237 296 355
#     4  11  21  34  57  91 113 152 201 238 289 360
#     4  11  21  38  59  87 118 151 196 248 291 338
#     4   9  19  36  57  86 122 154 187 242 298 351
#     4  11  20  37  60  84 122 156 193 248 294 344
#     4  10  22  39  58  87 123 151 194 249 303 354
#
# _framework density 18.992871999999998
#
# number of rings (size 3 to 8) (size 9 to 14) (size 15 to 20)
#    0.000    1.500    5.000    1.500    0.000    4.500 
#    0.000    6.875    0.000    1.125    0.000    0.000 
#    0.000    0.000    0.000    0.000    0.000    0.000 
#
# Total GULP energy -396623.133846 kJ/mol
# GULP energy per Si atom -12394.472933 kJ/mol
# Density = 1.894964 g / cm^3
# Si number density = 18.992872 Si / 1000 Ang^3
#
#
#
# Elastic Constant Matrix: (Units=GPa)
#
#
# Indices 1 2 3 4 5 6 
#
# 1 137.2570 56.8228 35.5799 0.0000 7.0385 0.0000
# 2 56.8228 102.7716 22.7673 0.0000 1.9748 0.0000
# 3 35.5799 22.7673 74.9878 0.0000 -0.1504 0.0000
# 4 0.0000 0.0000 0.0000 17.4126 0.0000 -1.2878
# 5 7.0385 1.9748 -0.1504 0.0000 29.6025 0.0000
# 6 0.0000 0.0000 0.0000 -1.2878 0.0000 28.4740
#
#
#
# Elastic Compliance Matrix: (Units=1/GPa)
#
#
# Indices 1 2 3 4 5 6 
#
# 1 0.010309 -0.004904 -0.003407 0.000000 -0.002141 0.000000
# 2 -0.004904 0.012780 -0.001553 0.000000 0.000306 0.000000
# 3 -0.003407 -0.001553 0.015425 0.000000 0.000992 0.000000
# 4 0.000000 0.000000 0.000000 0.057622 0.000000 0.002606
# 5 -0.002141 0.000306 0.000992 0.000000 0.034275 0.000000
# 6 0.000000 0.000000 0.000000 0.002606 0.000000 0.035238
#
#
# Mechanical properties :
#
#
# Convention : Reuss Voigt Hill
#
# Bulk Modulus (GPa) = 53.22752 60.59514 56.91133
# Shear Modulus (GPa) = 26.09097 28.42093 27.25595
#
# Velocity S-wave (km/s) = 3.71040 3.87253 3.79233
# Velocity P-wave (km/s) = 6.81483 7.20893 7.01465
#
# Compressibility (1/GPa) = 0.01878728
#
# Stress axis : x y z
#
# Youngs Moduli (GPa) = 97.00638 78.24864 64.82867
#
# Poissons Ratio (x) = 0.38372 0.22085
# Poissons Ratio (y) = 0.47570 0.10066
# Poissons Ratio (z) = 0.33046 0.12150
#
# Static dielectric constant tensor:
#      x y z
#    x 3.606250 0.000000 0.033300 
#    y 0.000000 3.402680 0.000000 
#    z 0.033300 0.000000 3.623540 
# 
# 
# High freq. dielectric constant tensor:
#      x y z
#    x 1.741450 0.000000 -0.006820 
#    y 0.000000 1.719800 0.000000 
#    z -0.006820 0.000000 1.737060 
# 
# From -- ./inp_files/168834.got.cif
#   From: 2010.06.25/outbox.cif.g09.slc.cpg/sg12_85_cif.got.tgz:168834.got - 2010.06.28 00:19:55.
