data_PCOD8105990
_publ_section_title
;
Structure prediction by ZEFSAII (Michael W. Deem and Ramdas Pophale) SiO2 
 PCOD8105990
Probable space group: C 2/M
;
_chemical_formula_sum "Si O2"
_cell_formula_units_Z 64
_cell_length_a 10.103037
_cell_length_b 9.534980
_cell_length_c 35.235119
_cell_angle_alpha 90.000000
_cell_angle_beta 89.468768
_cell_angle_gamma 90.000000
_cell_volume 3394.132600
_symmetry_space_group_name_H-M "C 2/M"
_symmetry_group_IT_number 12
_symmetry_cell_setting 'monoclinic'
loop_
_space_group_symop_operation_xyz
x,y,z
-x,y,-z
-x,-y,-z
x,-y,z
1/2+x,1/2+y,z
1/2-x,1/2+y,-z
1/2-x,1/2-y,-z
1/2+x,1/2-y,z
loop_
_atom_site_type_symbol
_atom_site_label
_atom_site_fract_x
_atom_site_fract_y
_atom_site_fract_z
Si Si1 0.898801 0.664351 0.731658
Si Si2 0.133704 0.336309 0.354991
Si Si3 0.864093 0.837130 0.480383
Si Si4 0.831903 0.339304 0.143726
Si Si5 0.671245 0.839408 0.768546
Si Si6 0.393894 0.835913 0.892861
Si Si7 0.093891 0.837238 0.606529
Si Si8 0.864298 0.336597 0.980239
O O1 0.873665 0.500000 0.737390
O O2 0.880993 0.711223 0.688358
O O3 0.795214 0.744136 0.758120
O O4 0.045659 0.707619 0.744009
O O5 0.102816 0.500000 0.360473
O O6 0.282060 0.299229 0.367288
O O7 0.031930 0.251993 0.380954
O O8 0.750000 0.750000 0.500000
O O9 0.870064 0.796590 0.436349
O O10 0.000000 0.794823 0.500000
O O11 0.831743 0.000000 0.486176
O O12 0.795697 0.500000 0.134719
O O13 0.866330 0.318072 0.187600
O O14 0.707999 0.245122 0.133233
O O15 0.958404 0.290728 0.119117
O O16 0.709090 0.000000 0.759765
O O17 0.372467 0.793683 0.936392
O O18 0.372569 0.000000 0.885762
O O19 0.055493 0.000000 0.610011
O O20 0.833154 0.500000 0.985544
O O21 0.750000 0.250000 0.000000
O O22 0.000000 0.294758 0.000000
#
# Coordination Sequence:
#
# PCOD8105990 Si02
#       8
#     8   8   8   8   8   8   8   8
#     4  10  21  37  56  79 108 140 176 219 264 314
#     4  10  21  36  55  80 107 138 177 218 264 317
#     4  10  21  36  54  78 107 140 179 220 264 316
#     4  10  21  37  56  79 108 140 176 219 263 311
#     4  10  21  36  55  80 107 138 177 217 261 314
#     4  10  21  37  57  81 109 142 179 219 265 315
#     4  10  21  36  54  79 109 139 176 221 266 316
#     4  10  21  37  57  81 109 142 179 219 265 315
#
# _framework density 18.856068
#
# number of rings (size 3 to 8) (size 9 to 14) (size 15 to 20)
#    0.000    2.000    0.000    3.000    0.000    6.000 
#    0.000    0.000    0.000    0.000    0.000    0.000 
#    0.000    0.000    0.000    0.000    0.000    0.000 
#
# Total GULP energy -396992.516686 kJ/mol
# GULP energy per Si atom -12406.016146 kJ/mol
# Density = 1.881315 g / cm^3
# Si number density = 18.856068 Si / 1000 Ang^3
#
#
#
# Elastic Constant Matrix: (Units=GPa)
#
#
# Indices 1 2 3 4 5 6 
#
# 1 85.8703 43.7251 25.7879 0.0000 -7.5511 0.0000
# 2 43.7251 49.7888 25.9833 0.0000 -9.7028 0.0000
# 3 25.7879 25.9833 77.5084 0.0000 3.8109 0.0000
# 4 0.0000 0.0000 0.0000 28.5463 0.0000 -6.0976
# 5 -7.5511 -9.7028 3.8109 0.0000 41.0914 0.0000
# 6 0.0000 0.0000 0.0000 -6.0976 0.0000 37.0749
#
#
#
# Elastic Compliance Matrix: (Units=1/GPa)
#
#
# Indices 1 2 3 4 5 6 
#
# 1 0.021131 -0.018128 -0.000938 0.000000 -0.000311 0.000000
# 2 -0.018128 0.041778 -0.008333 0.000000 0.007306 0.000000
# 3 -0.000938 -0.008333 0.016186 0.000000 -0.003641 0.000000
# 4 0.000000 0.000000 0.000000 0.036306 0.000000 0.005971
# 5 -0.000311 0.007306 -0.003641 0.000000 0.026342 0.000000
# 6 0.000000 0.000000 0.000000 0.005971 0.000000 0.027954
#
#
# Mechanical properties :
#
#
# Convention : Reuss Voigt Hill
#
# Bulk Modulus (GPa) = 41.15823 44.90666 43.03245
# Shear Modulus (GPa) = 21.49658 29.18726 25.34192
#
# Velocity S-wave (km/s) = 3.38010 3.93860 3.66999
# Velocity P-wave (km/s) = 6.09167 6.67463 6.38980
#
# Compressibility (1/GPa) = 0.02429648
#
# Stress axis : x y z
#
# Youngs Moduli (GPa) = 47.32440 23.93611 61.78005
#
# Poissons Ratio (x) = 0.43392 0.05795
# Poissons Ratio (y) = 0.85791 0.51482
# Poissons Ratio (z) = 0.04439 0.19946
#
# Static dielectric constant tensor:
#      x y z
#    x 3.403210 0.000000 0.080870 
#    y 0.000000 3.384690 0.000000 
#    z 0.080870 0.000000 3.623550 
# 
# 
# High freq. dielectric constant tensor:
#      x y z
#    x 1.741150 0.000000 0.004200 
#    y 0.000000 1.726200 0.000000 
#    z 0.004200 0.000000 1.751010 
# 
# From -- ./inp_files/373609.got.cif
#   From: 2010.06.25/outbox.cif.g09.slc.cpg/sg12_187_cif.got.tgz:373609.got - 2010.06.28 00:19:55.
