data_PCOD8105971
_publ_section_title
;
Structure prediction by ZEFSAII (Michael W. Deem and Ramdas Pophale) SiO2 
 PCOD8105971
Probable space group: C 2/M
;
_chemical_formula_sum "Si O2"
_cell_formula_units_Z 40
_cell_length_a 19.192613
_cell_length_b 9.055966
_cell_length_c 27.397007
_cell_angle_alpha 90.000000
_cell_angle_beta 152.594019
_cell_angle_gamma 90.000000
_cell_volume 2191.824973
_symmetry_space_group_name_H-M "C 2/M"
_symmetry_group_IT_number 12
_symmetry_cell_setting 'monoclinic'
loop_
_space_group_symop_operation_xyz
x,y,z
-x,y,-z
-x,-y,-z
x,-y,z
1/2+x,1/2+y,z
1/2-x,1/2+y,-z
1/2-x,1/2-y,-z
1/2+x,1/2-y,z
loop_
_atom_site_type_symbol
_atom_site_label
_atom_site_fract_x
_atom_site_fract_y
_atom_site_fract_z
Si Si1 0.707058 0.670640 0.757435
Si Si2 0.650798 0.828381 0.623691
Si Si3 0.549911 0.832314 0.946894
Si Si4 0.325660 0.826989 0.164928
Si Si5 0.941864 0.671314 0.774039
O O1 0.661256 0.500000 0.727805
O O2 0.635679 0.746154 0.665703
O O3 0.636268 0.745003 0.761177
O O4 0.887738 0.690889 0.871256
O O5 0.500000 0.797372 0.500000
O O6 0.790220 0.767466 0.678606
O O7 0.677328 0.000000 0.650407
O O8 0.539224 0.794328 0.882991
O O9 0.606647 0.000000 0.990261
O O10 0.665369 0.721120 0.043443
O O11 0.458827 0.784320 0.210598
O O12 0.318918 0.000000 0.170560
O O13 0.894312 0.500000 0.744470
#
# Coordination Sequence:
#
# PCOD8105971 Si02
#       5
#     8   8   8   8   8
#     4  10  21  36  54  77 106 141 178 213 255 309
#     4  10  21  38  60  82 101 126 168 220 267 314
#     4   9  18  33  51  73 105 145 183 213 249 303
#     4  11  21  32  50  79 112 142 175 215 256 300
#     4   9  20  36  53  77 108 141 176 213 255 308
#
# _framework density 18.249632999999999
#
# number of rings (size 3 to 8) (size 9 to 14) (size 15 to 20)
#    0.000    2.200    0.000    4.200    0.000    9.600 
#    0.000    1.000    0.000    0.000    0.000    0.000 
#    0.000    0.000    0.000    0.000    0.000    0.000 
#
# Total GULP energy -248087.612650 kJ/mol
# GULP energy per Si atom -12404.380632 kJ/mol
# Density = 1.820810 g / cm^3
# Si number density = 18.249633 Si / 1000 Ang^3
#
#
#
# Elastic Constant Matrix: (Units=GPa)
#
#
# Indices 1 2 3 4 5 6 
#
# 1 143.8717 64.8155 42.0989 -0.0003 -12.9125 -0.0001
# 2 64.8155 102.6586 50.7803 -0.0010 -9.9294 -0.0001
# 3 42.0989 50.7803 75.3687 -0.0011 -9.8508 -0.0001
# 4 -0.0003 -0.0010 -0.0011 31.3939 -0.0004 -1.1690
# 5 -12.9125 -9.9294 -9.8508 -0.0004 12.0464 -0.0001
# 6 -0.0001 -0.0001 -0.0001 -1.1690 -0.0001 34.7665
#
#
#
# Elastic Compliance Matrix: (Units=1/GPa)
#
#
# Indices 1 2 3 4 5 6 
#
# 1 0.010212 -0.005176 -0.001504 0.000000 0.005449 0.000000
# 2 -0.005176 0.017452 -0.008635 0.000000 0.001776 0.000000
# 3 -0.001504 -0.008635 0.021033 0.000001 0.008470 0.000000
# 4 0.000000 0.000000 0.000001 0.031893 0.000002 0.001072
# 5 0.005449 0.001776 0.008470 0.000002 0.097243 0.000000
# 6 0.000000 0.000000 0.000000 0.001072 0.000000 0.028799
#
#
# Mechanical properties :
#
#
# Convention : Reuss Voigt Hill
#
# Bulk Modulus (GPa) = 55.35261 70.80983 63.08122
# Shear Modulus (GPa) = 20.55186 26.58832 23.57009
#
# Velocity S-wave (km/s) = 3.35946 3.82111 3.59770
# Velocity P-wave (km/s) = 6.74126 7.63890 7.20407
#
# Compressibility (1/GPa) = 0.01806600
#
# Stress axis : x y z
#
# Youngs Moduli (GPa) = 97.92556 57.29880 47.54330
#
# Poissons Ratio (x) = 0.29659 0.07152
# Poissons Ratio (y) = 0.50689 0.41055
# Poissons Ratio (z) = 0.14730 0.49479
#
# Static dielectric constant tensor:
#      x y z
#    x 3.604110 0.000000 -0.033070 
#    y 0.000000 3.430700 0.000000 
#    z -0.033070 0.000000 3.090030 
# 
# 
# High freq. dielectric constant tensor:
#      x y z
#    x 1.717000 0.000000 -0.006950 
#    y 0.000000 1.717630 0.000000 
#    z -0.006950 0.000000 1.685810 
# 
# From -- ./inp_files/151723.got.cif
#   From: 2010.06.25/outbox.cif.g09.slc.cpg/sg12_76_cif.got.tgz:151723.got - 2010.06.28 00:19:55.
