data_PCOD8105645
_publ_section_title
;
Structure prediction by ZEFSAII (Michael W. Deem and Ramdas Pophale) SiO2 
 PCOD8105645
Probable space group: C 2/M
;
_chemical_formula_sum "Si O2"
_cell_formula_units_Z 64
_cell_length_a 24.636495
_cell_length_b 8.774481
_cell_length_c 28.481840
_cell_angle_alpha 90.000000
_cell_angle_beta 149.305785
_cell_angle_gamma 90.000000
_cell_volume 3142.872756
_symmetry_space_group_name_H-M "C 2/M"
_symmetry_group_IT_number 12
_symmetry_cell_setting 'monoclinic'
loop_
_space_group_symop_operation_xyz
x,y,z
-x,y,-z
-x,-y,-z
x,-y,z
1/2+x,1/2+y,z
1/2-x,1/2+y,-z
1/2-x,1/2-y,-z
1/2+x,1/2-y,z
loop_
_atom_site_type_symbol
_atom_site_label
_atom_site_fract_x
_atom_site_fract_y
_atom_site_fract_z
Si Si1 0.897008 0.818961 0.202502
Si Si2 0.316382 0.321562 0.724179
Si Si3 0.824258 0.824879 0.993704
Si Si4 0.106336 0.826995 0.054755
Si Si5 0.986304 0.679975 0.182021
Si Si6 0.418044 0.820162 0.478179
Si Si7 0.038444 0.173298 0.646446
Si Si8 0.764173 0.671329 0.777725
O O1 0.987394 0.765035 0.233104
O O2 0.934002 0.760893 0.281462
O O3 0.881518 0.000000 0.190625
O O4 0.788632 0.738862 0.106099
O O5 0.336014 0.500000 0.730937
O O6 0.408634 0.229331 0.767224
O O7 0.202071 0.263989 0.620480
O O8 0.318310 0.285322 0.780989
O O9 0.877063 0.727794 0.074448
O O10 0.811784 0.000000 0.000871
O O11 0.904171 0.812424 0.008975
O O12 0.198982 0.717440 0.142577
O O13 0.132555 0.000000 0.088910
O O14 0.000000 0.767854 0.000000
O O15 0.986255 0.500000 0.189129
O O16 0.500000 0.752829 0.500000
O O17 0.446165 0.767552 0.551967
O O18 0.422378 0.000000 0.479049
O O19 0.137596 0.185735 0.684694
O O20 0.000104 0.000000 0.623507
O O21 0.799758 0.500000 0.792221
#
# Coordination Sequence:
#
# PCOD8105645 Si02
#       8
#     8   8   8   8   8   8   8   8
#     4  11  23  43  65  89 124 165 209 256 305 359
#     4  11  23  41  63  90 125 163 202 249 308 369
#     4  11  22  38  62  91 123 163 209 256 304 358
#     4  10  21  35  53  81 119 162 204 246 298 359
#     4  12  26  43  63  90 121 160 209 259 309 361
#     4  10  21  38  63  94 124 159 201 246 300 366
#     4  10  22  38  61  92 124 157 197 248 303 355
#     4  11  21  35  57  88 122 159 198 244 302 358
#
# _framework density 20.363536
#
# number of rings (size 3 to 8) (size 9 to 14) (size 15 to 20)
#    0.000    1.250    2.500    3.750    0.000    4.500 
#    0.000    0.625    0.000    0.000    0.000    0.000 
#    0.000    0.000    0.000    0.000    0.000    0.000 
#
# Total GULP energy -396860.353737 kJ/mol
# GULP energy per Si atom -12401.886054 kJ/mol
# Density = 2.031719 g / cm^3
# Si number density = 20.363536 Si / 1000 Ang^3
#
#
#
# Elastic Constant Matrix: (Units=GPa)
#
#
# Indices 1 2 3 4 5 6 
#
# 1 96.1812 15.4375 21.0048 -0.0001 -15.5137 -0.0001
# 2 15.4375 58.6988 21.4449 -0.0003 -4.1142 -0.0005
# 3 21.0048 21.4449 81.4871 -0.0004 -17.2446 -0.0001
# 4 -0.0001 -0.0003 -0.0004 34.1738 0.0000 -3.0251
# 5 -15.5137 -4.1142 -17.2446 0.0000 23.6383 0.0000
# 6 -0.0001 -0.0005 -0.0001 -3.0251 0.0000 30.5338
#
#
#
# Elastic Compliance Matrix: (Units=1/GPa)
#
#
# Indices 1 2 3 4 5 6 
#
# 1 0.012092 -0.002313 -0.001081 0.000000 0.006745 0.000000
# 2 -0.002313 0.019294 -0.004839 0.000000 -0.001690 0.000000
# 3 -0.001081 -0.004839 0.015960 0.000000 0.010091 0.000000
# 4 0.000000 0.000000 0.000000 0.029521 0.000000 0.002925
# 5 0.006745 -0.001690 0.010091 0.000000 0.053798 0.000000
# 6 0.000000 0.000000 0.000000 0.002925 0.000000 0.033040
#
#
# Mechanical properties :
#
#
# Convention : Reuss Voigt Hill
#
# Bulk Modulus (GPa) = 32.38301 39.12683 35.75492
# Shear Modulus (GPa) = 26.25168 29.56784 27.90976
#
# Velocity S-wave (km/s) = 3.59437 3.81464 3.70614
# Velocity P-wave (km/s) = 5.75873 6.21755 5.99253
#
# Compressibility (1/GPa) = 0.03088039
#
# Stress axis : x y z
#
# Youngs Moduli (GPa) = 82.69773 51.83022 62.65848
#
# Poissons Ratio (x) = 0.11986 0.06774
# Poissons Ratio (y) = 0.19124 0.30321
# Poissons Ratio (z) = 0.08940 0.25081
#
# Static dielectric constant tensor:
#      x y z
#    x 3.882840 0.000000 -0.049740 
#    y 0.000000 3.588040 0.000000 
#    z -0.049740 0.000000 3.662950 
# 
# 
# High freq. dielectric constant tensor:
#      x y z
#    x 1.800340 0.000000 -0.006000 
#    y 0.000000 1.794560 0.000000 
#    z -0.006000 0.000000 1.788240 
# 
# From -- ./inp_files/382543.got.cif
#   From: 2010.06.25/outbox.cif.g09.slc.cpg/sg12_192_cif.got.tgz:382543.got - 2010.06.28 00:19:55.
