data_PCOD8105757
_publ_section_title
;
Structure prediction by ZEFSAII (Michael W. Deem and Ramdas Pophale) SiO2 
 PCOD8105757
Probable space group: C 2/M
;
_chemical_formula_sum "Si O2"
_cell_formula_units_Z 64
_cell_length_a 26.453958
_cell_length_b 14.014752
_cell_length_c 9.361718
_cell_angle_alpha 90.000000
_cell_angle_beta 67.515121
_cell_angle_gamma 90.000000
_cell_volume 3206.966586
_symmetry_space_group_name_H-M "C 2/M"
_symmetry_group_IT_number 12
_symmetry_cell_setting 'monoclinic'
loop_
_space_group_symop_operation_xyz
x,y,z
-x,y,-z
-x,-y,-z
x,-y,z
1/2+x,1/2+y,z
1/2-x,1/2+y,-z
1/2-x,1/2-y,-z
1/2+x,1/2-y,z
loop_
_atom_site_type_symbol
_atom_site_label
_atom_site_fract_x
_atom_site_fract_y
_atom_site_fract_z
Si Si1 0.761370 0.608289 0.389458
Si Si2 0.560151 0.887483 0.748377
Si Si3 0.205328 0.819061 0.979442
Si Si4 0.396946 0.792362 0.583486
Si Si5 0.558346 0.104743 0.213013
Si Si6 0.137293 0.334600 0.901563
Si Si7 0.160388 0.889793 0.316793
Si Si8 0.787097 0.609100 0.672483
O O1 0.746044 0.500000 0.437040
O O2 0.813424 0.611880 0.229655
O O3 0.709807 0.652348 0.361313
O O4 0.772000 0.656148 0.533347
O O5 0.582723 0.841370 0.580568
O O6 0.494833 0.874272 0.826803
O O7 0.587430 0.824813 0.843662
O O8 0.576452 0.000000 0.741691
O O9 0.157708 0.765759 0.942186
O O10 0.235385 0.887172 0.833543
O O11 0.250000 0.750000 0.000000
O O12 0.176801 0.881660 0.132768
O O13 0.439088 0.818177 0.663758
O O14 0.391664 0.676849 0.586281
O O15 0.337082 0.833266 0.688850
O O16 0.552819 0.000000 0.289097
O O17 0.613170 0.104570 0.058650
O O18 0.145877 0.000000 0.364955
O O19 0.805699 0.500000 0.631580
#
# Coordination Sequence:
#
# PCOD8105757 Si02
#       8
#     8   8   8   8   8   8   8   8
#     4  10  21  35  56  86 122 159 192 231 286 353
#     4  11  24  40  60  91 126 156 192 243 301 359
#     4  12  22  38  55  87 120 161 204 240 291 346
#     4  12  22  38  62  88 117 160 199 244 297 355
#     4  11  23  39  60  88 123 157 195 241 296 363
#     4  12  21  36  60  85 122 163 198 231 285 354
#     4  11  24  42  60  86 121 158 202 251 297 348
#     4  11  22  36  58  89 125 161 197 239 293 359
#
# _framework density 19.956554000000001
#
# number of rings (size 3 to 8) (size 9 to 14) (size 15 to 20)
#    0.000    0.750    5.000    3.375    1.750    3.000 
#    0.000    0.000    0.000    1.500    0.000    0.875 
#    0.000    0.000    0.000    0.000    0.000    0.000 
#
# Total GULP energy -396751.041152 kJ/mol
# GULP energy per Si atom -12398.470036 kJ/mol
# Density = 1.991113 g / cm^3
# Si number density = 19.956554 Si / 1000 Ang^3
#
#
#
# Elastic Constant Matrix: (Units=GPa)
#
#
# Indices 1 2 3 4 5 6 
#
# 1 87.5057 38.9756 13.7467 0.0000 19.1688 0.0000
# 2 38.9756 68.6905 11.1834 0.0000 7.9047 0.0000
# 3 13.7467 11.1834 66.7330 0.0000 12.1488 0.0000
# 4 0.0000 0.0000 0.0000 29.5116 0.0000 -0.5450
# 5 19.1688 7.9047 12.1488 0.0000 35.3695 0.0000
# 6 0.0000 0.0000 0.0000 -0.5450 0.0000 30.8037
#
#
#
# Elastic Compliance Matrix: (Units=1/GPa)
#
#
# Indices 1 2 3 4 5 6 
#
# 1 0.016947 -0.008688 -0.000764 0.000000 -0.006980 0.000000
# 2 -0.008688 0.019657 -0.001666 0.000000 0.000888 0.000000
# 3 -0.000764 -0.001666 0.016298 0.000000 -0.004811 0.000000
# 4 0.000000 0.000000 0.000000 0.033896 0.000000 0.000600
# 5 -0.006980 0.000888 -0.004811 0.000000 0.033510 0.000000
# 6 0.000000 0.000000 0.000000 0.000600 0.000000 0.032474
#
#
# Mechanical properties :
#
#
# Convention : Reuss Voigt Hill
#
# Bulk Modulus (GPa) = 32.61100 38.97118 35.79109
# Shear Modulus (GPa) = 26.99207 29.73852 28.36530
#
# Velocity S-wave (km/s) = 3.68168 3.86445 3.77417
# Velocity P-wave (km/s) = 5.86937 6.28350 6.07996
#
# Compressibility (1/GPa) = 0.03066450
#
# Stress axis : x y z
#
# Youngs Moduli (GPa) = 59.00881 50.87307 61.35855
#
# Poissons Ratio (x) = 0.44198 0.04689
# Poissons Ratio (y) = 0.51267 0.10223
# Poissons Ratio (z) = 0.04509 0.08476
#
# Static dielectric constant tensor:
#      x y z
#    x 3.829790 0.000000 0.197260 
#    y 0.000000 3.444030 0.000000 
#    z 0.197260 0.000000 3.808720 
# 
# 
# High freq. dielectric constant tensor:
#      x y z
#    x 1.771130 0.000000 0.016410 
#    y 0.000000 1.755660 0.000000 
#    z 0.016410 0.000000 1.789380 
# 
# From -- ./inp_files/104542.got.cif
#   From: 2010.06.25/outbox.cif.g09.slc.cpg/sg12_53_cif.got.tgz:104542.got - 2010.06.28 00:19:55.
