data_PCOD8105657
_publ_section_title
;
Structure prediction by ZEFSAII (Michael W. Deem and Ramdas Pophale) SiO2 
 PCOD8105657
Probable space group: C 2/M
;
_chemical_formula_sum "Si O2"
_cell_formula_units_Z 56
_cell_length_a 19.493584
_cell_length_b 8.967197
_cell_length_c 20.557617
_cell_angle_alpha 90.000000
_cell_angle_beta 56.363332
_cell_angle_gamma 90.000000
_cell_volume 2991.853490
_symmetry_space_group_name_H-M "C 2/M"
_symmetry_group_IT_number 12
_symmetry_cell_setting 'monoclinic'
loop_
_space_group_symop_operation_xyz
x,y,z
-x,y,-z
-x,-y,-z
x,-y,z
1/2+x,1/2+y,z
1/2-x,1/2+y,-z
1/2-x,1/2-y,-z
1/2+x,1/2-y,z
loop_
_atom_site_type_symbol
_atom_site_label
_atom_site_fract_x
_atom_site_fract_y
_atom_site_fract_z
Si Si1 0.557133 0.178260 0.816594
Si Si2 0.835019 0.328936 0.469896
Si Si3 0.311271 0.177951 0.147355
Si Si4 0.088610 0.669840 0.433485
Si Si5 0.569472 0.837033 0.017615
Si Si6 0.365661 0.675364 0.720873
Si Si7 0.462861 0.676213 0.309876
O O1 0.637224 0.226821 0.815999
O O2 0.473732 0.240295 0.896926
O O3 0.565239 0.256659 0.743450
O O4 0.553187 0.000000 0.810505
O O5 0.831990 0.500000 0.447930
O O6 0.750000 0.250000 0.500000
O O7 0.848774 0.318746 0.539624
O O8 0.908858 0.245733 0.395259
O O9 0.218006 0.237988 0.202127
O O10 0.314994 0.000000 0.139684
O O11 0.353028 0.245655 0.058686
O O12 0.075855 0.500000 0.416990
O O13 0.127357 0.760952 0.354706
O O14 0.000000 0.737895 0.500000
O O15 0.599165 0.000000 0.025186
O O16 0.500000 0.856510 0.000000
O O17 0.359177 0.500000 0.716071
O O18 0.442415 0.720454 0.725823
O O19 0.449428 0.500000 0.316284
#
# Coordination Sequence:
#
# PCOD8105657 Si02
#       7
#     8   8   8   8   8   8   8
#     4   9  17  31  55  81 103 136 179 224 269 314
#     4  11  24  41  60  81 107 138 174 219 266 317
#     4   8  15  30  53  81 104 130 176 226 266 310
#     4  10  21  39  59  78 103 138 176 217 264 310
#     4   7  11  24  49  78 104 129 169 222 267 310
#     4  10  21  35  54  78 106 142 181 220 261 312
#     4  11  23  37  51  75 112 147 176 215 267 318
#
# _framework density 18.717493999999999
#
# number of rings (size 3 to 8) (size 9 to 14) (size 15 to 20)
#    0.000    2.571    1.429    2.571    2.000    2.000 
#    0.000    0.714    0.000    4.714    0.000    0.000 
#    0.000    0.000    0.000    0.000    0.000    0.000 
#
# Total GULP energy -346998.404541 kJ/mol
# GULP energy per Si atom -12392.800162 kJ/mol
# Density = 1.867489 g / cm^3
# Si number density = 18.717494 Si / 1000 Ang^3
#
#
#
# Elastic Constant Matrix: (Units=GPa)
#
#
# Indices 1 2 3 4 5 6 
#
# 1 80.8571 29.1159 20.0450 0.0000 -20.9363 -0.0003
# 2 29.1159 41.4454 20.2189 0.0000 -5.3387 -0.0006
# 3 20.0450 20.2189 69.5367 -0.0001 -23.9439 0.0000
# 4 0.0000 0.0000 -0.0001 17.5997 0.0000 1.2235
# 5 -20.9363 -5.3387 -23.9439 0.0000 37.3189 0.0000
# 6 -0.0003 -0.0006 0.0000 1.2235 0.0000 21.1329
#
#
#
# Elastic Compliance Matrix: (Units=1/GPa)
#
#
# Indices 1 2 3 4 5 6 
#
# 1 0.019241 -0.013056 0.001699 0.000000 0.010017 0.000000
# 2 -0.013056 0.037047 -0.009891 0.000000 -0.008371 0.000001
# 3 0.001699 -0.009891 0.021318 0.000000 0.013216 0.000000
# 4 0.000000 0.000000 0.000000 0.057049 0.000000 -0.003303
# 5 0.010017 -0.008371 0.013216 0.000000 0.039697 0.000000
# 6 0.000000 0.000001 0.000000 -0.003303 0.000000 0.047511
#
#
# Mechanical properties :
#
#
# Convention : Reuss Voigt Hill
#
# Bulk Modulus (GPa) = 28.48165 36.73323 32.60744
# Shear Modulus (GPa) = 18.11190 23.37425 20.74308
#
# Velocity S-wave (km/s) = 3.11408 3.53766 3.33260
# Velocity P-wave (km/s) = 5.30844 6.02946 5.68040
#
# Compressibility (1/GPa) = 0.03511033
#
# Stress axis : x y z
#
# Youngs Moduli (GPa) = 51.97174 26.99287 46.90932
#
# Poissons Ratio (x) = 0.35241 -0.07968
# Poissons Ratio (y) = 0.67852 0.46397
# Poissons Ratio (z) = -0.08828 0.26698
#
# Static dielectric constant tensor:
#      x y z
#    x 3.329090 0.000000 -0.160650 
#    y 0.000000 3.140070 0.000000 
#    z -0.160650 0.000000 3.762860 
# 
# 
# High freq. dielectric constant tensor:
#      x y z
#    x 1.716150 0.000000 -0.009690 
#    y 0.000000 1.691660 0.000000 
#    z -0.009690 0.000000 1.742690 
# 
# From -- ./inp_files/313716.got.cif
#   From: 2010.06.25/outbox.cif.g09.slc.cpg/sg12_157_cif.got.tgz:313716.got - 2010.06.28 00:19:55.
