data_PCOD8105981
_publ_section_title
;
Structure prediction by ZEFSAII (Michael W. Deem and Ramdas Pophale) SiO2 
 PCOD8105981
Probable space group: C 2/M
;
_chemical_formula_sum "Si O2"
_cell_formula_units_Z 32
_cell_length_a 16.651494
_cell_length_b 10.443160
_cell_length_c 8.551230
_cell_angle_alpha 90.000000
_cell_angle_beta 97.335289
_cell_angle_gamma 90.000000
_cell_volume 1474.839744
_symmetry_space_group_name_H-M "C 2/M"
_symmetry_group_IT_number 12
_symmetry_cell_setting 'monoclinic'
loop_
_space_group_symop_operation_xyz
x,y,z
-x,y,-z
-x,-y,-z
x,-y,z
1/2+x,1/2+y,z
1/2-x,1/2+y,-z
1/2-x,1/2-y,-z
1/2+x,1/2-y,z
loop_
_atom_site_type_symbol
_atom_site_label
_atom_site_fract_x
_atom_site_fract_y
_atom_site_fract_z
Si Si1 0.613922 0.355469 0.851876
Si Si2 0.408706 0.861166 0.922727
Si Si3 0.693705 0.640205 0.551808
Si Si4 0.957754 0.235515 0.640772
O O1 0.619863 0.500000 0.920862
O O2 0.679751 0.333852 0.732296
O O3 0.522939 0.337311 0.764318
O O4 0.635353 0.253035 0.993211
O O5 0.408783 0.836451 0.735956
O O6 0.366056 0.000000 0.941905
O O7 0.500000 0.870774 0.000000
O O8 0.733600 0.500000 0.537939
O O9 0.750000 0.750000 0.500000
O O10 0.607237 0.635735 0.443063
O O11 0.000000 0.303946 0.500000
#
# Coordination Sequence:
#
# PCOD8105981 Si02
#       4
#     8   8   8   8
#     4   9  18  34  56  79 104 136 174 214 256 306
#     4   9  18  31  50  80 111 135 166 212 264 311
#     4  10  21  36  54  78 106 137 174 215 260 309
#     4   9  18  33  55  80 104 134 175 218 256 301
#
# _framework density 21.697272000000002
#
# number of rings (size 3 to 8) (size 9 to 14) (size 15 to 20)
#    0.000    2.750    0.000    0.750    0.000   11.000 
#    0.000    6.250    0.000    0.000    0.000    0.000 
#    0.000    0.000    0.000    0.000    0.000    0.000 
#
# Total GULP energy -198261.605956 kJ/mol
# GULP energy per Si atom -12391.350372 kJ/mol
# Density = 2.164789 g / cm^3
# Si number density = 21.697272 Si / 1000 Ang^3
#
#
#
# Elastic Constant Matrix: (Units=GPa)
#
#
# Indices 1 2 3 4 5 6 
#
# 1 43.9169 42.9926 21.5967 0.0000 -21.7824 0.0000
# 2 42.9926 214.3084 92.2629 0.0000 -42.7316 0.0000
# 3 21.5967 92.2629 136.6965 0.0000 -28.8545 0.0000
# 4 0.0000 0.0000 0.0000 27.1265 0.0000 -15.2126
# 5 -21.7824 -42.7316 -28.8545 0.0000 26.6469 0.0000
# 6 0.0000 0.0000 0.0000 -15.2126 0.0000 13.4534
#
#
#
# Elastic Compliance Matrix: (Units=1/GPa)
#
#
# Indices 1 2 3 4 5 6 
#
# 1 0.039310 -0.002792 0.001960 0.000000 0.029778 0.000000
# 2 -0.002792 0.008152 -0.003608 0.000000 0.006884 0.000000
# 3 0.001960 -0.003608 0.011094 0.000000 0.007829 0.000000
# 4 0.000000 0.000000 0.000000 0.100760 0.000000 0.113936
# 5 0.029778 0.006884 0.007829 0.000000 0.081386 0.000000
# 6 0.000000 0.000000 0.000000 0.113936 0.000000 0.203166
#
#
# Mechanical properties :
#
#
# Convention : Reuss Voigt Hill
#
# Bulk Modulus (GPa) = 20.13107 78.73623 49.43365
# Shear Modulus (GPa) = 10.65402 29.31665 19.98534
#
# Velocity S-wave (km/s) = 2.21832 3.67981 3.03825
# Velocity P-wave (km/s) = 3.98241 7.37713 5.92797
#
# Compressibility (1/GPa) = 0.04967445
#
# Stress axis : x y z
#
# Youngs Moduli (GPa) = 25.43904 122.66628 90.14150
#
# Poissons Ratio (x) = 0.34249 -0.17665
# Poissons Ratio (y) = 0.07103 0.32525
# Poissons Ratio (z) = -0.04985 0.44260
#
# Static dielectric constant tensor:
#      x y z
#    x 3.572760 0.000000 -0.135350 
#    y 0.000000 4.063090 0.000000 
#    z -0.135350 0.000000 4.221800 
# 
# 
# High freq. dielectric constant tensor:
#      x y z
#    x 1.823770 0.000000 -0.007860 
#    y 0.000000 1.843220 0.000000 
#    z -0.007860 0.000000 1.855510 
# 
# From -- ./inp_files/56487.got.cif
#   From: 2010.06.25/outbox.cif.g09.slc.cpg/sg12_29_cif.got.tgz:56487.got - 2010.06.28 00:19:55.
