data_PCOD8105187
_publ_section_title
;
Structure prediction by ZEFSAII (Michael W. Deem and Ramdas Pophale) SiO2 
 PCOD8105187
Probable space group: C 2/M
;
_chemical_formula_sum "Si O2"
_cell_formula_units_Z 44
_cell_length_a 27.665253
_cell_length_b 11.834708
_cell_length_c 16.459453
_cell_angle_alpha 90.000000
_cell_angle_beta 156.280637
_cell_angle_gamma 90.000000
_cell_volume 2167.761095
_symmetry_space_group_name_H-M "C 2/M"
_symmetry_group_IT_number 12
_symmetry_cell_setting 'monoclinic'
loop_
_space_group_symop_operation_xyz
x,y,z
-x,y,-z
-x,-y,-z
x,-y,z
1/2+x,1/2+y,z
1/2-x,1/2+y,-z
1/2-x,1/2-y,-z
1/2+x,1/2-y,z
loop_
_atom_site_type_symbol
_atom_site_label
_atom_site_fract_x
_atom_site_fract_y
_atom_site_fract_z
Si Si1 0.046606 0.235271 0.480731
Si Si2 0.638150 0.000000 0.187643
Si Si3 0.269508 0.277061 0.437312
Si Si4 0.380988 0.500000 0.371426
Si Si5 0.041394 0.743859 0.818574
Si Si6 0.622310 0.000000 0.974958
Si Si7 0.770677 0.133630 0.776078
O O1 0.115410 0.115962 0.571810
O O2 0.137271 0.337848 0.602269
O O3 0.000000 0.248588 0.500000
O O4 0.938584 0.237908 0.248072
O O5 0.701194 0.107408 0.321531
O O6 0.500000 0.000000 0.000000
O O7 0.659785 0.000000 0.125759
O O8 0.250000 0.250000 0.500000
O O9 0.410625 0.290823 0.638843
O O10 0.211574 0.183403 0.287371
O O11 0.500000 0.500000 0.500000
O O12 0.251408 0.500000 0.125222
O O13 0.043584 0.609500 0.835562
O O14 0.137864 0.810289 0.019635
O O15 0.791111 0.000000 0.805608
#
# Coordination Sequence:
#
# PCOD8105187 Si02
#       7
#     8   4   8   4   8   4   8
#     4  10  23  43  64  95 133 175 224 277 328 388
#     4  12  24  44  72  94 128 174 229 265 324 407
#     4  11  26  43  67  98 130 169 216 271 326 394
#     4  10  20  42  66  93 132 171 231 283 315 385
#     4  11  24  41  67  92 131 172 221 266 334 386
#     4  12  20  44  67  92 127 181 223 274 323 395
#     4  11  25  43  63  96 135 172 217 273 336 394
#
# _framework density 20.297440000000002
#
# number of rings (size 3 to 8) (size 9 to 14) (size 15 to 20)
#    0.000    1.091    3.636    2.182    8.909    1.091 
#    0.000    0.909    0.000    0.000    0.000    0.000 
#    0.000    0.000    0.000    0.000    0.000    0.000 
#
# Total GULP energy -272701.281366 kJ/mol
# GULP energy per Si atom -12395.512789 kJ/mol
# Density = 2.025124 g / cm^3
# Si number density = 20.297440 Si / 1000 Ang^3
#
#
#
# Elastic Constant Matrix: (Units=GPa)
#
#
# Indices 1 2 3 4 5 6 
#
# 1 150.7543 48.2944 60.2066 0.0000 -31.6255 0.0000
# 2 48.2944 170.5455 50.0561 0.0000 -14.7015 0.0000
# 3 60.2066 50.0561 125.9493 0.0000 -15.5419 0.0000
# 4 0.0000 0.0000 0.0000 48.8981 0.0000 7.2399
# 5 -31.6255 -14.7015 -15.5419 0.0000 47.8384 0.0000
# 6 0.0000 0.0000 0.0000 7.2399 0.0000 41.6947
#
#
#
# Elastic Compliance Matrix: (Units=1/GPa)
#
#
# Indices 1 2 3 4 5 6 
#
# 1 0.009383 -0.001251 -0.003407 0.000000 0.004712 0.000000
# 2 -0.001251 0.006875 -0.002058 0.000000 0.000617 0.000000
# 3 -0.003407 -0.002058 0.010449 0.000000 0.000510 0.000000
# 4 0.000000 0.000000 0.000000 0.020990 0.000000 -0.003645
# 5 0.004712 0.000617 0.000510 0.000000 0.024374 0.000000
# 6 0.000000 0.000000 0.000000 -0.003645 0.000000 0.024617
#
#
# Mechanical properties :
#
#
# Convention : Reuss Voigt Hill
#
# Bulk Modulus (GPa) = 75.32709 84.92926 80.12818
# Shear Modulus (GPa) = 43.65085 46.93237 45.29161
#
# Velocity S-wave (km/s) = 4.64244 4.81378 4.72889
# Velocity P-wave (km/s) = 8.11964 8.53404 8.32942
#
# Compressibility (1/GPa) = 0.01327544
#
# Stress axis : x y z
#
# Youngs Moduli (GPa) = 106.57510 145.45278 95.70185
#
# Poissons Ratio (x) = 0.18196 0.32603
# Poissons Ratio (y) = 0.13333 0.19697
# Poissons Ratio (z) = 0.36307 0.29937
#
# Static dielectric constant tensor:
#      x y z
#    x 4.136830 0.000000 -0.294700 
#    y 0.000000 3.953300 0.000000 
#    z -0.294700 0.000000 3.914300 
# 
# 
# High freq. dielectric constant tensor:
#      x y z
#    x 1.792090 0.000000 -0.009790 
#    y 0.000000 1.805650 0.000000 
#    z -0.009790 0.000000 1.802940 
# 
# From -- ./inp_files/296563.got.cif
#   From: 2010.06.25/outbox.cif.g09.slc.cpg/sg12_149_cif.got.tgz:296563.got - 2010.06.28 00:19:55.
