data_PCOD8105015
_publ_section_title
;
Structure prediction by ZEFSAII (Michael W. Deem and Ramdas Pophale) SiO2 
 PCOD8105015
Probable space group: C 2/M
;
_chemical_formula_sum "Si O2"
_cell_formula_units_Z 40
_cell_length_a 9.703187
_cell_length_b 24.943921
_cell_length_c 16.099493
_cell_angle_alpha 90.000000
_cell_angle_beta 31.740223
_cell_angle_gamma 90.000000
_cell_volume 2049.905676
_symmetry_space_group_name_H-M "C 2/M"
_symmetry_group_IT_number 12
_symmetry_cell_setting 'monoclinic'
loop_
_space_group_symop_operation_xyz
x,y,z
-x,y,-z
-x,-y,-z
x,-y,z
1/2+x,1/2+y,z
1/2-x,1/2+y,-z
1/2-x,1/2-y,-z
1/2+x,1/2-y,z
loop_
_atom_site_type_symbol
_atom_site_label
_atom_site_fract_x
_atom_site_fract_y
_atom_site_fract_z
Si Si1 0.245885 0.294495 0.818396
Si Si2 0.539409 0.907690 0.889972
Si Si3 0.790891 0.500000 0.317022
Si Si4 0.526177 0.389622 0.888651
Si Si5 0.278924 0.500000 0.182901
Si Si6 0.264350 0.291469 0.315574
O O1 0.230897 0.357095 0.802359
O O2 0.506593 0.283401 0.735931
O O3 0.253797 0.262002 0.729245
O O4 0.000000 0.276145 0.000000
O O5 0.667786 0.947665 0.759293
O O6 0.500000 0.935974 0.000000
O O7 0.260949 0.886610 0.002091
O O8 0.500000 0.500000 0.500000
O O9 0.990011 0.500000 0.292033
O O10 0.671726 0.445788 0.789648
O O11 0.697402 0.342005 0.764183
O O12 0.500000 0.382200 0.000000
O O13 0.500000 0.500000 0.000000
O O14 0.000000 0.301558 0.500000
#
# Coordination Sequence:
#
# PCOD8105015 Si02
#       6
#     8   8   4   8   4   8
#     4  11  24  43  66  94 125 170 222 251 315 388
#     4  11  22  43  67  96 126 166 218 261 306 381
#     4  12  25  40  66 102 131 164 209 266 322 366
#     4  11  21  42  71  90 123 172 217 256 305 390
#     4  10  20  40  66  92 121 167 218 240 311 381
#     4  12  26  42  63  97 131 164 208 272 325 364
#
# _framework density 19.513093000000001
#
# number of rings (size 3 to 8) (size 9 to 14) (size 15 to 20)
#    0.000    0.800    8.000    2.100    2.800    2.400 
#    0.000    0.500    0.000    0.000    0.000    0.000 
#    0.000    0.000    0.000    0.000    0.000    0.000 
#
# Total GULP energy -248060.194171 kJ/mol
# GULP energy per Si atom -12403.009709 kJ/mol
# Density = 1.946868 g / cm^3
# Si number density = 19.513093 Si / 1000 Ang^3
#
#
#
# Elastic Constant Matrix: (Units=GPa)
#
#
# Indices 1 2 3 4 5 6 
#
# 1 121.1129 33.6246 34.9070 -0.0036 -16.3798 -0.0012
# 2 33.6246 110.0615 37.8750 -0.0024 8.0134 -0.0001
# 3 34.9070 37.8750 124.4429 -0.0154 -8.3947 -0.0161
# 4 -0.0036 -0.0024 -0.0154 29.9525 0.0048 6.1780
# 5 -16.3798 8.0134 -8.3947 0.0048 31.8622 0.0044
# 6 -0.0012 -0.0001 -0.0161 6.1780 0.0044 34.6102
#
#
#
# Elastic Compliance Matrix: (Units=1/GPa)
#
#
# Indices 1 2 3 4 5 6 
#
# 1 0.010316 -0.003013 -0.001596 -0.000001 0.005641 -0.000001
# 2 -0.003013 0.011410 -0.002979 0.000000 -0.005203 -0.000001
# 3 -0.001596 -0.002979 0.009555 0.000003 0.002446 0.000003
# 4 -0.000001 0.000000 0.000003 0.034662 -0.000004 -0.006187
# 5 0.005641 -0.005203 0.002446 -0.000004 0.036238 -0.000003
# 6 -0.000001 -0.000001 0.000003 -0.006187 -0.000003 0.029998
#
#
# Mechanical properties :
#
#
# Convention : Reuss Voigt Hill
#
# Bulk Modulus (GPa) = 62.08949 63.15895 62.62422
# Shear Modulus (GPa) = 32.73880 35.89902 34.31891
#
# Velocity S-wave (km/s) = 4.10052 4.29387 4.19831
# Velocity P-wave (km/s) = 7.36936 7.55122 7.46084
#
# Compressibility (1/GPa) = 0.01610578
#
# Stress axis : x y z
#
# Youngs Moduli (GPa) = 96.93502 87.64084 104.65589
#
# Poissons Ratio (x) = 0.26407 0.16705
# Poissons Ratio (y) = 0.29207 0.31173
# Poissons Ratio (z) = 0.15473 0.26105
#
# Static dielectric constant tensor:
#      x y z
#    x 3.375540 0.000670 -0.128230 
#    y 0.000670 4.203830 0.000170 
#    z -0.128230 0.000170 3.353520 
# 
# 
# High freq. dielectric constant tensor:
#      x y z
#    x 1.778400 0.000000 -0.007680 
#    y 0.000000 1.774550 0.000000 
#    z -0.007680 0.000000 1.741930 
# 
# From -- ./inp_files/201143.got.cif
#   From: 2010.06.25/outbox.cif.g09.slc.cpg/sg12_101_cif.got.tgz:201143.got - 2010.06.28 00:19:55.
