data_PCOD8105065
_publ_section_title
;
Structure prediction by ZEFSAII (Michael W. Deem and Ramdas Pophale) SiO2 
 PCOD8105065
Probable space group: C 2/M
;
_chemical_formula_sum "Si O2"
_cell_formula_units_Z 64
_cell_length_a 18.903549
_cell_length_b 17.722476
_cell_length_c 21.253612
_cell_angle_alpha 90.000000
_cell_angle_beta 154.280226
_cell_angle_gamma 90.000000
_cell_volume 3090.012527
_symmetry_space_group_name_H-M "C 2/M"
_symmetry_group_IT_number 12
_symmetry_cell_setting 'monoclinic'
loop_
_space_group_symop_operation_xyz
x,y,z
-x,y,-z
-x,-y,-z
x,-y,z
1/2+x,1/2+y,z
1/2-x,1/2+y,-z
1/2-x,1/2-y,-z
1/2+x,1/2-y,z
loop_
_atom_site_type_symbol
_atom_site_label
_atom_site_fract_x
_atom_site_fract_y
_atom_site_fract_z
Si Si1 0.464384 0.582029 0.252543
Si Si2 0.677183 0.083053 0.483885
Si Si3 0.941700 0.087317 0.371510
Si Si4 0.498406 0.911222 0.223624
Si Si5 0.184325 0.587643 0.628166
Si Si6 0.241050 0.350954 0.315563
Si Si7 0.825140 0.826254 0.036624
Si Si8 0.926215 0.797463 0.871550
O O1 0.395374 0.500000 0.175060
O O2 0.654908 0.574739 0.418872
O O3 0.382899 0.605604 0.253527
O O4 0.450948 0.646236 0.189840
O O5 0.563182 0.125384 0.341482
O O6 0.698216 0.123244 0.568573
O O7 0.603343 0.000000 0.439994
O O8 0.781536 0.098984 0.286282
O O9 0.089833 0.144686 0.508734
O O10 0.001350 0.000000 0.425033
O O11 0.589475 0.880336 0.234920
O O12 0.525776 0.000000 0.246912
O O13 0.309412 0.891537 0.071922
O O14 0.236604 0.500000 0.671415
O O15 0.307667 0.629734 0.774582
O O16 0.000000 0.600517 0.500000
O O17 0.186769 0.269195 0.246687
O O18 0.914834 0.814053 0.042939
O O19 0.750000 0.750000 0.000000
O O20 0.000000 0.781705 0.000000
#
# Coordination Sequence:
#
# PCOD8105065 Si02
#       8
#     8   8   8   8   8   8   8   8
#     4  10  20  40  69  97 124 164 216 271 325 379
#     4   9  18  37  65  95 122 151 208 277 320 367
#     4  10  21  39  70 104 132 166 215 270 326 390
#     4  11  22  40  68  98 129 169 216 266 320 382
#     4  10  23  45  70  95 123 164 226 286 329 378
#     4  11  22  40  62  98 137 173 207 259 325 389
#     4  12  26  45  60  90 131 177 219 261 316 384
#     4  12  29  47  62  91 140 181 215 265 329 395
#
# _framework density 20.71189
#
# number of rings (size 3 to 8) (size 9 to 14) (size 15 to 20)
#    0.000    1.375    3.750    1.875    5.250    0.750 
#    2.250    1.875    0.000    4.875    0.000    0.000 
#    0.000    0.000    0.000    0.000    0.000    0.000 
#
# Total GULP energy -396508.590066 kJ/mol
# GULP energy per Si atom -12390.893440 kJ/mol
# Density = 2.066475 g / cm^3
# Si number density = 20.711890 Si / 1000 Ang^3
#
#
#
# Elastic Constant Matrix: (Units=GPa)
#
#
# Indices 1 2 3 4 5 6 
#
# 1 138.8131 41.2467 43.7170 -0.0009 -4.6288 0.0042
# 2 41.2467 87.3314 43.9365 -0.0114 -6.2937 0.0151
# 3 43.7170 43.9365 84.7593 -0.0250 2.1732 0.0225
# 4 -0.0009 -0.0114 -0.0250 30.8088 -0.0022 2.7108
# 5 -4.6288 -6.2937 2.1732 -0.0022 34.8005 0.0071
# 6 0.0042 0.0151 0.0225 2.7108 0.0071 23.7103
#
#
#
# Elastic Compliance Matrix: (Units=1/GPa)
#
#
# Indices 1 2 3 4 5 6 
#
# 1 0.009047 -0.002494 -0.003398 -0.000004 0.000965 0.000003
# 2 -0.002494 0.016568 -0.007382 0.000001 0.003126 -0.000004
# 3 -0.003398 -0.007382 0.017451 0.000012 -0.002877 -0.000012
# 4 -0.000004 0.000001 0.000012 0.032788 0.000002 -0.003749
# 5 0.000965 0.003126 -0.002877 0.000002 0.029608 -0.000008
# 6 0.000003 -0.000004 -0.000012 -0.003749 -0.000008 0.042604
#
#
# Mechanical properties :
#
#
# Convention : Reuss Voigt Hill
#
# Bulk Modulus (GPa) = 60.54084 63.18936 61.86510
# Shear Modulus (GPa) = 27.75899 29.99749 28.87824
#
# Velocity S-wave (km/s) = 3.66491 3.80981 3.73806
# Velocity P-wave (km/s) = 6.87038 7.06596 6.96886
#
# Compressibility (1/GPa) = 0.01651777
#
# Stress axis : x y z
#
# Youngs Moduli (GPa) = 110.52905 60.35869 57.30217
#
# Poissons Ratio (x) = 0.15052 0.19474
# Poissons Ratio (y) = 0.27564 0.42301
# Poissons Ratio (z) = 0.37563 0.44557
#
# Static dielectric constant tensor:
#      x y z
#    x 4.075500 0.000090 0.336600 
#    y 0.000090 3.626930 0.000420 
#    z 0.336600 0.000420 5.199320 
# 
# 
# High freq. dielectric constant tensor:
#      x y z
#    x 1.829400 0.000000 0.000760 
#    y 0.000000 1.793020 -0.000010 
#    z 0.000760 -0.000010 1.800840 
# 
# From -- ./inp_files/347897.got.cif
#   From: 2010.06.25/outbox.cif.g09.slc.cpg/sg12_174_cif.got.tgz:347897.got - 2010.06.28 00:19:55.
