data_PCOD8105998
_publ_section_title
;
Structure prediction by ZEFSAII (Michael W. Deem and Ramdas Pophale) SiO2 
 PCOD8105998
Probable space group: C 2/M
;
_chemical_formula_sum "Si O2"
_cell_formula_units_Z 56
_cell_length_a 16.054513
_cell_length_b 8.745039
_cell_length_c 22.867829
_cell_angle_alpha 90.000000
_cell_angle_beta 121.879487
_cell_angle_gamma 90.000000
_cell_volume 2726.300811
_symmetry_space_group_name_H-M "C 2/M"
_symmetry_group_IT_number 12
_symmetry_cell_setting 'monoclinic'
loop_
_space_group_symop_operation_xyz
x,y,z
-x,y,-z
-x,-y,-z
x,-y,z
1/2+x,1/2+y,z
1/2-x,1/2+y,-z
1/2-x,1/2-y,-z
1/2+x,1/2-y,z
loop_
_atom_site_type_symbol
_atom_site_label
_atom_site_fract_x
_atom_site_fract_y
_atom_site_fract_z
Si Si1 0.054489 0.320048 0.285195
Si Si2 0.522123 0.677574 0.155750
Si Si3 0.286288 0.321676 0.837566
Si Si4 0.413316 0.681513 0.428153
Si Si5 0.616616 0.680325 0.713125
Si Si6 0.692039 0.819552 0.925003
Si Si7 0.771077 0.679999 0.570045
O O1 0.063028 0.500000 0.277010
O O2 0.126164 0.265853 0.364119
O O3 0.080380 0.232513 0.235146
O O4 0.944770 0.273688 0.261781
O O5 0.495500 0.500000 0.150592
O O6 0.596780 0.708009 0.128886
O O7 0.420912 0.768733 0.112626
O O8 0.262927 0.500000 0.819665
O O9 0.229191 0.224153 0.766936
O O10 0.249149 0.265743 0.887459
O O11 0.500000 0.752640 0.500000
O O12 0.419301 0.500000 0.431574
O O13 0.418564 0.738631 0.363526
O O14 0.311436 0.739648 0.416441
O O15 0.600516 0.500000 0.714280
O O16 0.694772 0.000000 0.930571
O O17 0.750000 0.750000 0.000000
O O18 0.767689 0.500000 0.561384
O O19 0.750000 0.750000 0.500000
#
# Coordination Sequence:
#
# PCOD8105998 Si02
#       7
#     8   8   8   8   8   8   8
#     4  11  22  37  57  85 123 162 201 257 321 371
#     4  11  23  41  66  96 126 166 215 258 308 379
#     4  10  23  42  64  92 130 167 203 257 321 369
#     4   9  18  33  52  77 110 148 195 252 309 363
#     4  11  21  35  61  89 115 157 210 257 307 374
#     4  11  24  44  68  95 132 172 207 260 318 372
#     4  10  21  36  54  78 112 153 199 253 315 376
#
# _framework density 20.540652000000001
#
# number of rings (size 3 to 8) (size 9 to 14) (size 15 to 20)
#    0.000    1.571    1.429    3.429    0.000    5.714 
#    0.000    4.286    0.000    3.857    0.000    0.000 
#    0.000    0.000    0.000    0.000    0.000    0.000 
#
# Total GULP energy -347193.450024 kJ/mol
# GULP energy per Si atom -12399.766072 kJ/mol
# Density = 2.049390 g / cm^3
# Si number density = 20.540652 Si / 1000 Ang^3
#
#
#
# Elastic Constant Matrix: (Units=GPa)
#
#
# Indices 1 2 3 4 5 6 
#
# 1 135.7116 31.5156 51.5889 0.0000 -1.8138 0.0000
# 2 31.5156 48.8154 33.1263 0.0000 -1.2595 0.0000
# 3 51.5889 33.1263 133.4950 0.0000 -2.4559 0.0000
# 4 0.0000 0.0000 0.0000 35.8282 0.0000 1.8594
# 5 -1.8138 -1.2595 -2.4559 0.0000 29.2262 0.0000
# 6 0.0000 0.0000 0.0000 1.8594 0.0000 25.6995
#
#
#
# Elastic Compliance Matrix: (Units=1/GPa)
#
#
# Indices 1 2 3 4 5 6 
#
# 1 0.009334 -0.004300 -0.002537 0.000000 0.000181 0.000000
# 2 -0.004300 0.026623 -0.004936 0.000000 0.000466 0.000000
# 3 -0.002537 -0.004936 0.009704 0.000000 0.000445 0.000000
# 4 0.000000 0.000000 0.000000 0.028016 0.000000 -0.002027
# 5 0.000181 0.000466 0.000445 0.000000 0.034285 0.000000
# 6 0.000000 0.000000 0.000000 -0.002027 0.000000 0.039058
#
#
# Mechanical properties :
#
#
# Convention : Reuss Voigt Hill
#
# Bulk Modulus (GPa) = 45.21682 61.16487 53.19084
# Shear Modulus (GPa) = 28.09977 31.60353 29.85165
#
# Velocity S-wave (km/s) = 3.70267 3.92673 3.81635
# Velocity P-wave (km/s) = 6.35144 7.09937 6.73580
#
# Compressibility (1/GPa) = 0.02211566
#
# Stress axis : x y z
#
# Youngs Moduli (GPa) = 107.13723 37.56134 103.04703
#
# Poissons Ratio (x) = 0.16151 0.26140
# Poissons Ratio (y) = 0.46068 0.50866
# Poissons Ratio (z) = 0.27178 0.18541
#
# Static dielectric constant tensor:
#      x y z
#    x 3.934510 0.000000 -0.017580 
#    y 0.000000 3.551480 0.000000 
#    z -0.017580 0.000000 3.830930 
# 
# 
# High freq. dielectric constant tensor:
#      x y z
#    x 1.816230 0.000000 0.000680 
#    y 0.000000 1.787830 0.000000 
#    z 0.000680 0.000000 1.807370 
# 
# From -- ./inp_files/338996.got.cif
#   From: 2010.06.25/outbox.cif.g09.slc.cpg/sg12_170_cif.got.tgz:338996.got - 2010.06.28 00:19:55.
