data_PCOD8105438
_publ_section_title
;
Structure prediction by ZEFSAII (Michael W. Deem and Ramdas Pophale) SiO2 
 PCOD8105438
Probable space group: C 2/M
;
_chemical_formula_sum "Si O2"
_cell_formula_units_Z 64
_cell_length_a 16.642556
_cell_length_b 21.776245
_cell_length_c 9.392916
_cell_angle_alpha 90.000000
_cell_angle_beta 91.146283
_cell_angle_gamma 90.000000
_cell_volume 3403.427778
_symmetry_space_group_name_H-M "C 2/M"
_symmetry_group_IT_number 12
_symmetry_cell_setting 'monoclinic'
loop_
_space_group_symop_operation_xyz
x,y,z
-x,y,-z
-x,-y,-z
x,-y,z
1/2+x,1/2+y,z
1/2-x,1/2+y,-z
1/2-x,1/2-y,-z
1/2+x,1/2-y,z
loop_
_atom_site_type_symbol
_atom_site_label
_atom_site_fract_x
_atom_site_fract_y
_atom_site_fract_z
Si Si1 0.594198 0.068592 0.997273
Si Si2 0.791072 0.186490 0.971220
Si Si3 0.676544 0.125375 0.742958
Si Si4 0.090093 0.846135 0.496704
Si Si5 0.740595 0.427987 0.525605
Si Si6 0.097599 0.235883 0.226651
Si Si7 0.802592 0.354693 0.788958
Si Si8 0.053960 0.272178 0.640745
O O1 0.622345 0.081350 0.837439
O O2 0.621417 0.000000 0.040788
O O3 0.500000 0.076000 0.000000
O O4 0.629412 0.116940 0.108526
O O5 0.747915 0.153940 0.837265
O O6 0.882796 0.201716 0.924405
O O7 0.750000 0.250000 0.000000
O O8 0.780223 0.148348 0.118271
O O9 0.714861 0.084689 0.620344
O O10 0.620256 0.177455 0.673189
O O11 0.150940 0.901152 0.526294
O O12 0.108213 0.815858 0.345969
O O13 0.099398 0.792526 0.616134
O O14 0.000000 0.873608 0.500000
O O15 0.735051 0.500000 0.553105
O O16 0.791203 0.397003 0.652745
O O17 0.165013 0.288170 0.258460
O O18 0.007616 0.264343 0.227632
O O19 0.000000 0.289167 0.500000
#
# Coordination Sequence:
#
# PCOD8105438 Si02
#       8
#     8   8   8   8   8   8   8   8
#     4  10  21  38  55  76 116 164 198 228 272 336
#     4   9  19  33  54  83 110 145 180 224 284 347
#     4  11  21  35  59  84 113 145 193 235 276 334
#     4   9  20  36  57  83 111 144 183 234 295 347
#     4  12  24  37  58  84 112 153 200 242 280 330
#     4   9  16  35  56  82 113 139 180 223 290 349
#     4  10  21  34  56  84 119 145 190 236 291 339
#     4   9  19  32  55  88 116 144 174 231 303 346
#
# _framework density 18.804570999999999
#
# number of rings (size 3 to 8) (size 9 to 14) (size 15 to 20)
#    0.000    2.375    1.250    3.000    3.500    1.250 
#    0.000    0.000    0.000    3.750    0.000    3.500 
#    0.000    0.000    0.000    0.000    0.000    0.000 
#
# Total GULP energy -396570.455830 kJ/mol
# GULP energy per Si atom -12392.826745 kJ/mol
# Density = 1.876177 g / cm^3
# Si number density = 18.804571 Si / 1000 Ang^3
#
#
#
# Elastic Constant Matrix: (Units=GPa)
#
#
# Indices 1 2 3 4 5 6 
#
# 1 73.0946 26.3257 28.7471 0.0000 -26.7934 0.0000
# 2 26.3257 71.2384 26.4037 0.0000 -9.4888 0.0000
# 3 28.7471 26.4037 89.8091 0.0000 -21.0545 0.0000
# 4 0.0000 0.0000 0.0000 19.5559 0.0000 -5.5193
# 5 -26.7934 -9.4888 -21.0545 0.0000 32.7513 0.0000
# 6 0.0000 0.0000 0.0000 -5.5193 0.0000 26.6340
#
#
#
# Elastic Compliance Matrix: (Units=1/GPa)
#
#
# Indices 1 2 3 4 5 6 
#
# 1 0.021916 -0.005383 -0.001878 0.000000 0.015162 0.000000
# 2 -0.005383 0.017174 -0.003758 0.000000 -0.001844 0.000000
# 3 -0.001878 -0.003758 0.014395 0.000000 0.006629 0.000000
# 4 0.000000 0.000000 0.000000 0.054312 0.000000 0.011255
# 5 0.015162 -0.001844 0.006629 0.000000 0.046664 0.000000
# 6 0.000000 0.000000 0.000000 0.011255 0.000000 0.039878
#
#
# Mechanical properties :
#
#
# Convention : Reuss Voigt Hill
#
# Bulk Modulus (GPa) = 31.80069 44.12167 37.96118
# Shear Modulus (GPa) = 22.03996 25.96596 24.00296
#
# Velocity S-wave (km/s) = 3.42724 3.71999 3.57661
# Velocity P-wave (km/s) = 5.71044 6.47806 6.10633
#
# Compressibility (1/GPa) = 0.03144586
#
# Stress axis : x y z
#
# Youngs Moduli (GPa) = 45.62829 58.22718 69.46971
#
# Poissons Ratio (x) = 0.31346 0.13045
# Poissons Ratio (y) = 0.24564 0.26109
# Poissons Ratio (z) = 0.08568 0.21884
#
# Static dielectric constant tensor:
#      x y z
#    x 3.597040 0.000000 -0.519600 
#    y 0.000000 3.379200 0.000000 
#    z -0.519600 0.000000 3.744860 
# 
# 
# High freq. dielectric constant tensor:
#      x y z
#    x 1.725270 0.000000 -0.027610 
#    y 0.000000 1.716680 0.000000 
#    z -0.027610 0.000000 1.736060 
# 
# From -- ./inp_files/77506.got.cif
#   From: 2010.06.25/outbox.cif.g09.slc.cpg/sg12_39_cif.got.tgz:77506.got - 2010.06.28 00:19:55.
