data_PCOD8105975
_publ_section_title
;
Structure prediction by ZEFSAII (Michael W. Deem and Ramdas Pophale) SiO2 
 PCOD8105975
Probable space group: C 2/M
;
_chemical_formula_sum "Si O2"
_cell_formula_units_Z 64
_cell_length_a 15.108593
_cell_length_b 9.044401
_cell_length_c 27.870858
_cell_angle_alpha 90.000000
_cell_angle_beta 58.985745
_cell_angle_gamma 90.000000
_cell_volume 3264.035123
_symmetry_space_group_name_H-M "C 2/M"
_symmetry_group_IT_number 12
_symmetry_cell_setting 'monoclinic'
loop_
_space_group_symop_operation_xyz
x,y,z
-x,y,-z
-x,-y,-z
x,-y,z
1/2+x,1/2+y,z
1/2-x,1/2+y,-z
1/2-x,1/2-y,-z
1/2+x,1/2-y,z
loop_
_atom_site_type_symbol
_atom_site_label
_atom_site_fract_x
_atom_site_fract_y
_atom_site_fract_z
Si Si1 0.462145 0.675369 0.293747
Si Si2 0.374464 0.675080 0.217931
Si Si3 0.102596 0.833025 0.001819
Si Si4 0.108547 0.173871 0.494616
Si Si5 0.965072 0.666129 0.887622
Si Si6 0.321126 0.325919 0.419233
Si Si7 0.305826 0.325261 0.774199
Si Si8 0.729716 0.833216 0.119960
O O1 0.460156 0.500000 0.294614
O O2 0.421501 0.734618 0.254338
O O3 0.392094 0.736437 0.356528
O O4 0.578582 0.732148 0.267300
O O5 0.369681 0.500000 0.216904
O O6 0.438756 0.732137 0.154000
O O7 0.260742 0.744592 0.247902
O O8 0.195648 0.773807 0.942817
O O9 0.125509 0.000000 0.013013
O O10 0.093582 0.727400 0.049734
O O11 0.000000 0.826063 0.000000
O O12 0.209063 0.251020 0.443604
O O13 0.116481 0.212858 0.549165
O O14 0.000000 0.229209 0.500000
O O15 0.118517 0.000000 0.482893
O O16 0.004222 0.500000 0.887281
O O17 0.887102 0.666892 0.865175
O O18 0.302452 0.500000 0.420919
O O19 0.296123 0.500000 0.772136
O O20 0.262340 0.277250 0.837957
O O21 0.763254 0.000000 0.125933
#
# Coordination Sequence:
#
# PCOD8105975 Si02
#       8
#     8   8   8   8   8   8   8   8
#     4   9  20  38  58  81 113 153 192 232 283 337
#     4  11  22  39  59  80 110 150 191 234 289 344
#     4  10  21  36  54  77 107 144 183 227 285 348
#     4   9  18  33  55  85 119 154 189 232 286 331
#     4  11  22  36  56  82 109 141 187 236 283 339
#     4   9  18  35  57  81 114 154 195 234 274 332
#     4  11  22  38  60  86 112 146 191 236 287 344
#     4  10  21  37  56  81 112 146 185 229 283 345
#
# _framework density 19.607631999999999
#
# number of rings (size 3 to 8) (size 9 to 14) (size 15 to 20)
#    0.000    2.000    1.250    2.250    0.000    3.500 
#    0.000    3.750    0.000    0.000    0.000    0.000 
#    0.000    0.000    0.000    0.000    0.000    0.000 
#
# Total GULP energy -396788.063084 kJ/mol
# GULP energy per Si atom -12399.626971 kJ/mol
# Density = 1.956300 g / cm^3
# Si number density = 19.607632 Si / 1000 Ang^3
#
#
#
# Elastic Constant Matrix: (Units=GPa)
#
#
# Indices 1 2 3 4 5 6 
#
# 1 132.4309 41.1125 55.7478 0.0000 -24.8057 0.0000
# 2 41.1125 72.1036 41.5266 0.0000 -6.4966 0.0001
# 3 55.7478 41.5266 137.0762 0.0000 -18.3714 0.0000
# 4 0.0000 0.0000 0.0000 25.8675 0.0000 -2.2935
# 5 -24.8057 -6.4966 -18.3714 0.0000 18.8006 0.0000
# 6 0.0000 0.0001 0.0000 -2.2935 0.0000 35.8405
#
#
#
# Elastic Compliance Matrix: (Units=1/GPa)
#
#
# Indices 1 2 3 4 5 6 
#
# 1 0.012152 -0.004748 -0.001812 0.000000 0.012622 0.000000
# 2 -0.004748 0.018670 -0.004258 0.000000 -0.003974 0.000000
# 3 -0.001812 -0.004258 0.010131 0.000000 0.006038 0.000000
# 4 0.000000 0.000000 0.000000 0.038879 0.000000 0.002488
# 5 0.012622 -0.003974 0.006038 0.000000 0.074370 0.000000
# 6 0.000000 0.000000 0.000000 0.002488 0.000000 0.028061
#
#
# Mechanical properties :
#
#
# Convention : Reuss Voigt Hill
#
# Bulk Modulus (GPa) = 51.76503 68.70938 60.23721
# Shear Modulus (GPa) = 23.77115 29.64998 26.71056
#
# Velocity S-wave (km/s) = 3.48565 3.89288 3.69488
# Velocity P-wave (km/s) = 6.53126 7.43802 6.99934
#
# Compressibility (1/GPa) = 0.01931806
#
# Stress axis : x y z
#
# Youngs Moduli (GPa) = 82.28930 53.56100 98.70484
#
# Poissons Ratio (x) = 0.25431 0.17887
# Poissons Ratio (y) = 0.39072 0.42025
# Poissons Ratio (z) = 0.14912 0.22804
#
# Static dielectric constant tensor:
#      x y z
#    x 3.776990 0.000000 -0.057380 
#    y 0.000000 3.432330 0.000000 
#    z -0.057380 0.000000 3.650610 
# 
# 
# High freq. dielectric constant tensor:
#      x y z
#    x 1.776090 0.000000 -0.005670 
#    y 0.000000 1.749360 0.000000 
#    z -0.005670 0.000000 1.758510 
# 
# From -- ./inp_files/338727.got.cif
#   From: 2010.06.25/outbox.cif.g09.slc.cpg/sg12_170_cif.got.tgz:338727.got - 2010.06.28 00:19:55.
