data_PCOD8105542
_publ_section_title
;
Structure prediction by ZEFSAII (Michael W. Deem and Ramdas Pophale) SiO2 
 PCOD8105542
Probable space group: C 2/M
;
_chemical_formula_sum "Si O2"
_cell_formula_units_Z 48
_cell_length_a 23.934104
_cell_length_b 9.227705
_cell_length_c 12.060281
_cell_angle_alpha 90.000000
_cell_angle_beta 78.009632
_cell_angle_gamma 90.000000
_cell_volume 2605.482791
_symmetry_space_group_name_H-M "C 2/M"
_symmetry_group_IT_number 12
_symmetry_cell_setting 'monoclinic'
loop_
_space_group_symop_operation_xyz
x,y,z
-x,y,-z
-x,-y,-z
x,-y,z
1/2+x,1/2+y,z
1/2-x,1/2+y,-z
1/2-x,1/2-y,-z
1/2+x,1/2-y,z
loop_
_atom_site_type_symbol
_atom_site_label
_atom_site_fract_x
_atom_site_fract_y
_atom_site_fract_z
Si Si1 0.593540 0.333136 0.474806
Si Si2 0.750005 0.168610 0.167598
Si Si3 0.036210 0.328677 0.089869
Si Si4 0.492244 0.334073 0.681750
Si Si5 0.164681 0.330201 0.009689
Si Si6 0.210528 0.671690 0.427951
O O1 0.614230 0.500000 0.461636
O O2 0.552177 0.309372 0.596005
O O3 0.560109 0.290969 0.376668
O O4 0.646203 0.226120 0.468157
O O5 0.697712 0.210874 0.108719
O O6 0.733314 0.215633 0.297654
O O7 0.764109 0.000000 0.154103
O O8 0.806707 0.253671 0.107918
O O9 0.035208 0.500000 0.102304
O O10 0.007672 0.265287 0.211012
O O11 0.100628 0.271155 0.049052
O O12 0.000000 0.275081 0.000000
O O13 0.485817 0.500000 0.720953
O O14 0.165673 0.500000 0.985565
O O15 0.212123 0.500000 0.445990
O O16 0.250000 0.750000 0.500000
#
# Coordination Sequence:
#
# PCOD8105542 Si02
#       6
#     8   8   8   8   8   8
#     4   9  19  37  58  81 108 137 175 223 270 316
#     4   9  19  35  54  76 101 132 173 218 260 306
#     4  10  21  35  51  76 110 142 174 217 265 313
#     4   9  19  36  58  81 106 139 178 221 268 318
#     4   9  18  34  55  77 102 133 171 216 263 309
#     4  11  23  37  54  79 111 145 179 217 264 317
#
# _framework density 18.422688999999998
#
# number of rings (size 3 to 8) (size 9 to 14) (size 15 to 20)
#    0.000    2.500    0.000    2.500    0.000    6.333 
#    0.000    8.333    0.000    0.000    0.000    0.000 
#    0.000    0.000    0.000    0.000    0.000    0.000 
#
# Total GULP energy -297670.525910 kJ/mol
# GULP energy per Si atom -12402.938580 kJ/mol
# Density = 1.838076 g / cm^3
# Si number density = 18.422689 Si / 1000 Ang^3
#
#
#
# Elastic Constant Matrix: (Units=GPa)
#
#
# Indices 1 2 3 4 5 6 
#
# 1 85.6142 46.6053 82.9009 0.0000 5.5054 0.0000
# 2 46.6053 53.9738 53.0117 0.0000 -0.0615 0.0000
# 3 82.9009 53.0117 130.3968 0.0000 0.6026 0.0000
# 4 0.0000 0.0000 0.0000 36.4577 0.0000 -3.0419
# 5 5.5054 -0.0615 0.6026 0.0000 20.5192 0.0000
# 6 0.0000 0.0000 0.0000 -3.0419 0.0000 31.4697
#
#
#
# Elastic Compliance Matrix: (Units=1/GPa)
#
#
# Indices 1 2 3 4 5 6 
#
# 1 0.037830 -0.015146 -0.017849 0.000000 -0.009671 0.000000
# 2 -0.015146 0.036911 -0.005397 0.000000 0.004333 0.000000
# 3 -0.017849 -0.005397 0.021191 0.000000 0.004150 0.000000
# 4 0.000000 0.000000 0.000000 0.027652 0.000000 0.002673
# 5 -0.009671 0.004333 0.004150 0.000000 0.051221 0.000000
# 6 0.000000 0.000000 0.000000 0.002673 0.000000 0.032035
#
#
# Mechanical properties :
#
#
# Convention : Reuss Voigt Hill
#
# Bulk Modulus (GPa) = 52.22019 70.55784 61.38901
# Shear Modulus (GPa) = 17.24096 23.52044 20.38070
#
# Velocity S-wave (km/s) = 3.06249 3.57698 3.32969
# Velocity P-wave (km/s) = 6.39627 7.44596 6.94099
#
# Compressibility (1/GPa) = 0.01914968
#
# Stress axis : x y z
#
# Youngs Moduli (GPa) = 26.43383 27.09193 47.18938
#
# Poissons Ratio (x) = 0.41034 0.84227
# Poissons Ratio (y) = 0.40037 0.25467
# Poissons Ratio (z) = 0.47181 0.14621
#
# Static dielectric constant tensor:
#      x y z
#    x 3.262220 0.000000 -0.061130 
#    y 0.000000 3.290680 0.000000 
#    z -0.061130 0.000000 3.403600 
# 
# 
# High freq. dielectric constant tensor:
#      x y z
#    x 1.717100 0.000000 -0.004440 
#    y 0.000000 1.709230 0.000000 
#    z -0.004440 0.000000 1.720340 
# 
# From -- ./inp_files/172179.got.cif
#   From: 2010.06.25/outbox.cif.g09.slc.cpg/sg12_87_cif.got.tgz:172179.got - 2010.06.28 00:19:55.
