data_PCOD8105494
_publ_section_title
;
Structure prediction by ZEFSAII (Michael W. Deem and Ramdas Pophale) SiO2 
 PCOD8105494
Probable space group: C 2/M
;
_chemical_formula_sum "Si O2"
_cell_formula_units_Z 48
_cell_length_a 18.262409
_cell_length_b 9.396977
_cell_length_c 16.387789
_cell_angle_alpha 90.000000
_cell_angle_beta 107.626544
_cell_angle_gamma 90.000000
_cell_volume 2680.294396
_symmetry_space_group_name_H-M "C 2/M"
_symmetry_group_IT_number 12
_symmetry_cell_setting 'monoclinic'
loop_
_space_group_symop_operation_xyz
x,y,z
-x,y,-z
-x,-y,-z
x,-y,z
1/2+x,1/2+y,z
1/2-x,1/2+y,-z
1/2-x,1/2-y,-z
1/2+x,1/2-y,z
loop_
_atom_site_type_symbol
_atom_site_label
_atom_site_fract_x
_atom_site_fract_y
_atom_site_fract_z
Si Si1 0.661972 0.661380 0.413973
Si Si2 0.803099 0.163144 0.402723
Si Si3 0.097395 0.160554 0.228068
Si Si4 0.772698 0.335003 0.244587
Si Si5 0.309520 0.167299 0.075201
Si Si6 0.019559 0.332721 0.916414
O O1 0.696542 0.500000 0.414643
O O2 0.723111 0.781582 0.412169
O O3 0.636273 0.680290 0.500651
O O4 0.592364 0.677356 0.325386
O O5 0.824720 0.252380 0.329277
O O6 0.794864 0.000000 0.373104
O O7 0.183001 0.200642 0.226747
O O8 0.036684 0.265067 0.168270
O O9 0.077436 0.000000 0.194497
O O10 0.790041 0.500000 0.262547
O O11 0.798454 0.282900 0.164435
O O12 0.394042 0.211466 0.075202
O O13 0.294365 0.000000 0.060269
O O14 0.250000 0.250000 0.000000
O O15 0.007009 0.500000 0.906688
O O16 0.000000 0.275401 0.000000
#
# Coordination Sequence:
#
# PCOD8105494 Si02
#       6
#     8   8   8   8   8   8
#     4   8  15  27  42  66 100 130 158 196 238 278
#     4   9  15  24  43  70  97 126 161 199 237 277
#     4   9  17  30  49  71  95 125 159 193 231 279
#     4   9  18  32  48  69  99 130 160 197 239 282
#     4  10  21  36  53  72  96 126 158 196 242 289
#     4  10  21  35  50  71  98 123 152 196 243 284
#
# _framework density 17.908481999999999
#
# number of rings (size 3 to 8) (size 9 to 14) (size 15 to 20)
#    0.000    2.833    0.000    2.500    0.000    5.000 
#    0.000    0.000    0.000    1.000    0.000    7.000 
#    0.000    0.000    0.000    0.000    0.000    0.000 
#
# Total GULP energy -297411.442201 kJ/mol
# GULP energy per Si atom -12392.143425 kJ/mol
# Density = 1.786772 g / cm^3
# Si number density = 17.908482 Si / 1000 Ang^3
#
#
#
# Elastic Constant Matrix: (Units=GPa)
#
#
# Indices 1 2 3 4 5 6 
#
# 1 69.4869 31.5421 67.4814 0.0000 -4.5981 0.0000
# 2 31.5421 59.0230 64.5156 0.0000 -0.3539 0.0000
# 3 67.4814 64.5156 193.0598 0.0000 -10.9168 0.0000
# 4 0.0000 0.0000 0.0000 37.6287 0.0000 3.5214
# 5 -4.5981 -0.3539 -10.9168 0.0000 24.3538 0.0000
# 6 0.0000 0.0000 0.0000 3.5214 0.0000 16.0519
#
#
#
# Elastic Compliance Matrix: (Units=1/GPa)
#
#
# Indices 1 2 3 4 5 6 
#
# 1 0.022917 -0.005635 -0.006040 0.000000 0.001537 0.000000
# 2 -0.005635 0.028408 -0.007757 0.000000 -0.004128 0.000000
# 3 -0.006040 -0.007757 0.010067 0.000000 0.003260 0.000000
# 4 0.000000 0.000000 0.000000 0.027132 0.000000 -0.005952
# 5 0.001537 -0.004128 0.003260 0.000000 0.042753 0.000000
# 6 0.000000 0.000000 0.000000 -0.005952 0.000000 0.063604
#
#
# Mechanical properties :
#
#
# Convention : Reuss Voigt Hill
#
# Bulk Modulus (GPa) = 44.39013 72.07199 58.23106
# Shear Modulus (GPa) = 20.72493 26.14226 23.43360
#
# Velocity S-wave (km/s) = 3.40556 3.82484 3.62127
# Velocity P-wave (km/s) = 6.34860 7.73549 7.07611
#
# Compressibility (1/GPa) = 0.02252753
#
# Stress axis : x y z
#
# Youngs Moduli (GPa) = 43.63613 35.20111 99.32971
#
# Poissons Ratio (x) = 0.19837 0.59996
# Poissons Ratio (y) = 0.24591 0.77050
# Poissons Ratio (z) = 0.26357 0.27305
#
# Static dielectric constant tensor:
#      x y z
#    x 2.997820 0.000000 -0.217220 
#    y 0.000000 3.306130 0.000000 
#    z -0.217220 0.000000 3.847730 
# 
# 
# High freq. dielectric constant tensor:
#      x y z
#    x 1.637170 0.000000 -0.008110 
#    y 0.000000 1.694240 0.000000 
#    z -0.008110 0.000000 1.720930 
# 
# From -- ./inp_files/230410.got.cif
#   From: 2010.06.25/outbox.cif.g09.slc.cpg/sg12_116_cif.got.tgz:230410.got - 2010.06.28 00:19:55.
