data_PCOD8105505
_publ_section_title
;
Structure prediction by ZEFSAII (Michael W. Deem and Ramdas Pophale) SiO2 
 PCOD8105505
Probable space group: C 2/M
;
_chemical_formula_sum "Si O2"
_cell_formula_units_Z 48
_cell_length_a 23.234141
_cell_length_b 9.296396
_cell_length_c 12.128934
_cell_angle_alpha 90.000000
_cell_angle_beta 77.898117
_cell_angle_gamma 90.000000
_cell_volume 2561.553294
_symmetry_space_group_name_H-M "C 2/M"
_symmetry_group_IT_number 12
_symmetry_cell_setting 'monoclinic'
loop_
_space_group_symop_operation_xyz
x,y,z
-x,y,-z
-x,-y,-z
x,-y,z
1/2+x,1/2+y,z
1/2-x,1/2+y,-z
1/2-x,1/2-y,-z
1/2+x,1/2-y,z
loop_
_atom_site_type_symbol
_atom_site_label
_atom_site_fract_x
_atom_site_fract_y
_atom_site_fract_z
Si Si1 0.217765 0.829025 0.712899
Si Si2 0.131898 0.833966 0.932909
Si Si3 0.088217 0.669265 0.152172
Si Si4 0.969489 0.162713 0.199711
Si Si5 0.624058 0.333140 0.577784
Si Si6 0.649341 0.830608 0.354847
O O1 0.186513 0.775542 0.837883
O O2 0.181253 0.774632 0.621165
O O3 0.284024 0.770442 0.680941
O O4 0.214449 0.000000 0.715491
O O5 0.071763 0.814493 0.889166
O O6 0.140799 0.000000 0.962143
O O7 0.129836 0.739538 0.043505
O O8 0.087928 0.500000 0.133523
O O9 0.114548 0.711986 0.259473
O O10 0.022180 0.725923 0.170178
O O11 0.933838 0.192165 0.325990
O O12 0.994446 0.000000 0.189639
O O13 0.631521 0.500000 0.544833
O O14 0.616325 0.243733 0.469493
O O15 0.649741 0.000000 0.374904
#
# Coordination Sequence:
#
# PCOD8105505 Si02
#       6
#     8   8   8   8   8   8
#     4   8  16  34  57  77  99 129 166 209 253 296
#     4   9  18  35  58  77  95 128 172 212 251 294
#     4  11  23  34  47  74 109 139 166 200 247 302
#     4   9  19  36  56  76  98 128 169 214 254 292
#     4   9  18  34  57  80  97 123 171 218 249 288
#     4  10  21  35  50  73 108 141 163 195 251 307
#
# _framework density 18.738631000000002
#
# number of rings (size 3 to 8) (size 9 to 14) (size 15 to 20)
#    0.000    2.667    0.000    3.500    0.000    6.000 
#    0.000    6.667    0.000    0.000    0.000    0.000 
#    0.000    0.000    0.000    0.000    0.000    0.000 
#
# Total GULP energy -297625.033816 kJ/mol
# GULP energy per Si atom -12401.043076 kJ/mol
# Density = 1.869598 g / cm^3
# Si number density = 18.738631 Si / 1000 Ang^3
#
#
#
# Elastic Constant Matrix: (Units=GPa)
#
#
# Indices 1 2 3 4 5 6 
#
# 1 23.1888 12.5597 11.4407 0.0000 -1.5621 0.0000
# 2 12.5597 51.1816 47.7332 0.0000 7.4558 0.0000
# 3 11.4407 47.7332 120.1411 0.0000 9.2184 0.0000
# 4 0.0000 0.0000 0.0000 30.4832 0.0000 4.1105
# 5 -1.5621 7.4558 9.2184 0.0000 19.9661 0.0000
# 6 0.0000 0.0000 0.0000 4.1105 0.0000 20.0243
#
#
#
# Elastic Compliance Matrix: (Units=1/GPa)
#
#
# Indices 1 2 3 4 5 6 
#
# 1 0.051290 -0.013845 -0.000091 0.000000 0.009225 0.000000
# 2 -0.013845 0.035514 -0.012120 0.000000 -0.008749 0.000000
# 3 -0.000091 -0.012120 0.013271 0.000000 -0.001608 0.000000
# 4 0.000000 0.000000 0.000000 0.033739 0.000000 -0.006926
# 5 0.009225 -0.008749 -0.001608 0.000000 0.054816 0.000000
# 6 0.000000 0.000000 0.000000 -0.006926 0.000000 0.051361
#
#
# Mechanical properties :
#
#
# Convention : Reuss Voigt Hill
#
# Bulk Modulus (GPa) = 20.84997 37.55317 29.20157
# Shear Modulus (GPa) = 16.22898 22.27992 19.25445
#
# Velocity S-wave (km/s) = 2.94610 3.45190 3.20898
# Velocity P-wave (km/s) = 4.76692 5.99763 5.41734
#
# Compressibility (1/GPa) = 0.04796170
#
# Stress axis : x y z
#
# Youngs Moduli (GPa) = 19.49717 28.15799 75.35130
#
# Poissons Ratio (x) = 0.38984 0.00688
# Poissons Ratio (y) = 0.26994 0.91328
# Poissons Ratio (z) = 0.00178 0.34128
#
# Static dielectric constant tensor:
#      x y z
#    x 3.432420 0.000000 -0.062020 
#    y 0.000000 3.157010 0.000000 
#    z -0.062020 0.000000 3.508670 
# 
# 
# High freq. dielectric constant tensor:
#      x y z
#    x 1.721900 0.000000 -0.005790 
#    y 0.000000 1.704600 0.000000 
#    z -0.005790 0.000000 1.740900 
# 
# From -- ./inp_files/172037.got.cif
#   From: 2010.06.25/outbox.cif.g09.slc.cpg/sg12_87_cif.got.tgz:172037.got - 2010.06.28 00:19:55.
