data_PCOD8105231
_publ_section_title
;
Structure prediction by ZEFSAII (Michael W. Deem and Ramdas Pophale) SiO2 
 PCOD8105231
Probable space group: C 2/M
;
_chemical_formula_sum "Si O2"
_cell_formula_units_Z 48
_cell_length_a 27.479280
_cell_length_b 14.345157
_cell_length_c 12.888208
_cell_angle_alpha 90.000000
_cell_angle_beta 28.734864
_cell_angle_gamma 90.000000
_cell_volume 2442.468315
_symmetry_space_group_name_H-M "C 2/M"
_symmetry_group_IT_number 12
_symmetry_cell_setting 'monoclinic'
loop_
_space_group_symop_operation_xyz
x,y,z
-x,y,-z
-x,-y,-z
x,-y,z
1/2+x,1/2+y,z
1/2-x,1/2+y,-z
1/2-x,1/2-y,-z
1/2+x,1/2-y,z
loop_
_atom_site_type_symbol
_atom_site_label
_atom_site_fract_x
_atom_site_fract_y
_atom_site_fract_z
Si Si1 0.239564 0.315791 0.877373
Si Si2 0.151243 0.000000 0.645298
Si Si3 0.964996 0.000000 0.747071
Si Si4 0.713661 0.500000 0.758602
Si Si5 0.394344 0.296537 0.228955
Si Si6 0.404679 0.688877 0.742237
Si Si7 0.775565 0.694645 0.620433
Si Si8 0.210911 0.000000 0.315386
O O1 0.309987 0.329005 0.845223
O O2 0.293157 0.257098 0.687683
O O3 0.227129 0.416762 0.851862
O O4 0.131553 0.267993 0.108098
O O5 0.210837 0.000000 0.640017
O O6 0.089719 0.097981 0.754826
O O7 0.231056 0.000000 0.401109
O O8 0.935296 0.907991 0.738851
O O9 0.086735 0.000000 0.536649
O O10 0.898181 0.000000 0.978109
O O11 0.780086 0.590857 0.661164
O O12 0.329673 0.294009 0.244394
O O13 0.359814 0.223434 0.380370
O O14 0.500000 0.254266 0.000000
O O15 0.500000 0.728408 0.500000
#
# Coordination Sequence:
#
# PCOD8105231 Si02
#       8
#     8   4   4   4   8   8   8   4
#     4  11  23  38  62  89 125 159 201 262 312 363
#     4  10  21  31  58  92 122 148 188 252 302 358
#     4  12  22  39  68  92 123 158 206 262 312 367
#     4  10  22  37  58  87 123 157 206 249 302 357
#     4  10  21  35  58  87 123 157 201 246 301 367
#     4  11  23  41  61  92 120 160 208 259 314 367
#     4  10  21  38  56  88 118 162 199 252 308 367
#     4  12  23  37  63 100 122 158 206 253 312 369
#
# _framework density 19.652249999999999
#
# number of rings (size 3 to 8) (size 9 to 14) (size 15 to 20)
#    0.000    1.333    5.000    1.000    4.667    1.333 
#    0.000    0.833    0.000    2.000    0.000    0.000 
#    0.000    0.000    0.000    0.000    0.000    0.000 
#
# Total GULP energy -297340.015017 kJ/mol
# GULP energy per Si atom -12389.167292 kJ/mol
# Density = 1.960752 g / cm^3
# Si number density = 19.652250 Si / 1000 Ang^3
#
#
#
# Elastic Constant Matrix: (Units=GPa)
#
#
# Indices 1 2 3 4 5 6 
#
# 1 47.9300 23.7118 31.3188 0.0000 22.2147 0.0000
# 2 23.7118 133.0155 54.0324 0.0000 5.4729 0.0000
# 3 31.3188 54.0324 107.8249 0.0000 -1.0843 0.0000
# 4 0.0000 0.0000 0.0000 87.1382 0.0000 53.4705
# 5 22.2147 5.4729 -1.0843 0.0000 24.8918 0.0000
# 6 0.0000 0.0000 0.0000 53.4705 0.0000 54.4598
#
#
#
# Elastic Compliance Matrix: (Units=1/GPa)
#
#
# Indices 1 2 3 4 5 6 
#
# 1 0.054439 -0.001339 -0.015634 0.000000 -0.048970 0.000000
# 2 -0.001339 0.009604 -0.004435 0.000000 -0.001110 0.000000
# 3 -0.015634 -0.004435 0.016195 0.000000 0.015633 0.000000
# 4 0.000000 0.000000 0.000000 0.028869 0.000000 -0.028345
# 5 -0.048970 -0.001110 0.015633 0.000000 0.084802 0.000000
# 6 0.000000 0.000000 0.000000 -0.028345 0.000000 0.046192
#
#
# Mechanical properties :
#
#
# Convention : Reuss Voigt Hill
#
# Bulk Modulus (GPa) = 26.72210 56.32181 41.52195
# Shear Modulus (GPa) = 16.92679 45.27845 31.10262
#
# Velocity S-wave (km/s) = 2.93800 4.80519 3.98257
# Velocity P-wave (km/s) = 5.01360 7.71414 6.50554
#
# Compressibility (1/GPa) = 0.03742221
#
# Stress axis : x y z
#
# Youngs Moduli (GPa) = 18.36935 104.12616 61.74829
#
# Poissons Ratio (x) = 0.13942 0.96535
# Poissons Ratio (y) = 0.02460 0.27384
# Poissons Ratio (z) = 0.28718 0.46178
#
# Static dielectric constant tensor:
#      x y z
#    x 3.516580 0.000000 0.333710 
#    y 0.000000 4.142070 0.000000 
#    z 0.333710 0.000000 3.709990 
# 
# 
# High freq. dielectric constant tensor:
#      x y z
#    x 1.755010 0.000000 0.034520 
#    y 0.000000 1.773410 0.000000 
#    z 0.034520 0.000000 1.759960 
# 
# From -- ./inp_files/183732.got.cif
#   From: 2010.06.25/outbox.cif.g09.slc.cpg/sg12_92_cif.got.tgz:183732.got - 2010.06.28 00:19:55.
