data_PCOD8105511
_publ_section_title
;
Structure prediction by ZEFSAII (Michael W. Deem and Ramdas Pophale) SiO2 
 PCOD8105511
Probable space group: C 2/M
;
_chemical_formula_sum "Si O2"
_cell_formula_units_Z 56
_cell_length_a 9.155578
_cell_length_b 18.349793
_cell_length_c 29.235034
_cell_angle_alpha 90.000000
_cell_angle_beta 141.529586
_cell_angle_gamma 90.000000
_cell_volume 3055.540372
_symmetry_space_group_name_H-M "C 2/M"
_symmetry_group_IT_number 12
_symmetry_cell_setting 'monoclinic'
loop_
_space_group_symop_operation_xyz
x,y,z
-x,y,-z
-x,-y,-z
x,-y,z
1/2+x,1/2+y,z
1/2-x,1/2+y,-z
1/2-x,1/2-y,-z
1/2+x,1/2-y,z
loop_
_atom_site_type_symbol
_atom_site_label
_atom_site_fract_x
_atom_site_fract_y
_atom_site_fract_z
Si Si1 0.093970 0.086924 0.071475
Si Si2 0.736596 0.413076 0.928525
Si Si3 0.814190 0.915707 0.357647
Si Si4 0.448829 0.586787 0.213545
Si Si5 0.118899 0.413213 0.213545
Si Si6 0.672053 0.673415 0.500000
Si Si7 0.025952 0.584293 0.642353
O O1 0.355751 0.117573 0.143685
O O2 0.925769 0.116764 0.070308
O O3 0.095079 0.000000 0.071916
O O4 0.000000 0.116511 0.000000
O O5 0.735500 0.500000 0.928084
O O6 0.637325 0.382427 0.856315
O O7 0.000000 0.383489 0.000000
O O8 0.729056 0.885200 0.287986
O O9 0.601587 0.904585 0.340635
O O10 0.043443 0.871265 0.428560
O O11 0.887951 0.000000 0.372964
O O12 0.446266 0.500000 0.211703
O O13 0.276127 0.616740 0.210451
O O14 0.710875 0.614800 0.287986
O O15 0.112249 0.500000 0.211703
O O16 0.500000 0.685542 0.500000
O O17 0.750000 0.750000 0.500000
O O18 0.900643 0.628735 0.571440
O O19 0.023128 0.500000 0.627036
#
# Coordination Sequence:
#
# PCOD8105511 Si02
#       7
#     8   8   8   8   8   8   8
#     4   9  15  22  33  51  79 116 153 187 225 270
#     4   9  15  22  33  51  79 116 153 187 225 270
#     4   9  17  31  50  69  90 120 158 195 231 275
#     4   9  16  25  38  59  86 115 149 189 231 274
#     4   9  16  25  38  59  86 115 149 189 231 274
#     4  10  21  35  51  71  95 122 152 190 236 284
#     4   9  17  31  50  69  90 120 158 195 231 275
#
# _framework density 18.327365
#
# number of rings (size 3 to 8) (size 9 to 14) (size 15 to 20)
#    0.000    2.857    0.000    2.143    0.000    9.714 
#    0.000    0.000    0.000    4.286    0.000    0.000 
#    0.000    1.143    0.000   12.000    0.000   18.000 
#
# Total GULP energy -347197.345606 kJ/mol
# GULP energy per Si atom -12399.905200 kJ/mol
# Density = 1.828565 g / cm^3
# Si number density = 18.327365 Si / 1000 Ang^3
#
#
#
# Elastic Constant Matrix: (Units=GPa)
#
#
# Indices 1 2 3 4 5 6 
#
# 1 136.9350 27.6065 104.1967 0.0007 2.3072 0.0001
# 2 27.6065 35.2085 41.3483 0.0006 0.7108 0.0002
# 3 104.1967 41.3483 212.8026 0.0016 1.6169 0.0007
# 4 0.0007 0.0006 0.0016 0.6062 0.0012 -0.7660
# 5 2.3072 0.7108 1.6169 0.0012 38.6456 0.0000
# 6 0.0001 0.0002 0.0007 -0.7660 0.0000 15.4308
#
#
#
# Elastic Compliance Matrix: (Units=1/GPa)
#
#
# Indices 1 2 3 4 5 6 
#
# 1 0.011923 -0.003223 -0.005208 0.000005 -0.000435 0.000000
# 2 -0.003223 0.037676 -0.005740 -0.000018 -0.000260 -0.000001
# 3 -0.005208 -0.005740 0.008364 -0.000012 0.000067 -0.000001
# 4 0.000005 -0.000018 -0.000012 1.759883 -0.000054 0.087364
# 5 -0.000435 -0.000260 0.000067 -0.000054 0.025904 -0.000003
# 6 0.000000 -0.000001 -0.000001 0.087364 -0.000003 0.069142
#
#
# Mechanical properties :
#
#
# Convention : Reuss Voigt Hill
#
# Bulk Modulus (GPa) = 33.76161 81.24991 57.50576
# Shear Modulus (GPa) = 2.56264 25.05617 13.80941
#
# Velocity S-wave (km/s) = 1.18376 3.70150 2.74795
# Velocity P-wave (km/s) = 4.50886 7.91814 6.44309
#
# Compressibility (1/GPa) = 0.02961944
#
# Stress axis : x y z
#
# Youngs Moduli (GPa) = 83.87100 26.54193 119.55546
#
# Poissons Ratio (x) = 0.08555 0.62270
# Poissons Ratio (y) = 0.27034 0.68630
# Poissons Ratio (z) = 0.43684 0.15236
#
# Static dielectric constant tensor:
#      x y z
#    x 3.499910 0.000000 0.007220 
#    y 0.000000 2.684340 0.000000 
#    z 0.007220 0.000000 3.639540 
# 
# 
# High freq. dielectric constant tensor:
#      x y z
#    x 1.718390 0.000000 0.000660 
#    y 0.000000 1.634020 0.000000 
#    z 0.000660 0.000000 1.731220 
# 
# From -- ./inp_files/301794.got.cif
#   From: 2010.06.25/outbox.cif.g09.slc.cpg/sg12_151_cif.got.tgz:301794.got - 2010.06.28 00:19:55.
