data_PCOD8105345
_publ_section_title
;
Structure prediction by ZEFSAII (Michael W. Deem and Ramdas Pophale) SiO2 
 PCOD8105345
Probable space group: C 2/M
;
_chemical_formula_sum "Si O2"
_cell_formula_units_Z 64
_cell_length_a 29.285881
_cell_length_b 18.687873
_cell_length_c 5.307847
_cell_angle_alpha 90.000000
_cell_angle_beta 81.232542
_cell_angle_gamma 90.000000
_cell_volume 2870.992113
_symmetry_space_group_name_H-M "C 2/M"
_symmetry_group_IT_number 12
_symmetry_cell_setting 'monoclinic'
loop_
_space_group_symop_operation_xyz
x,y,z
-x,y,-z
-x,-y,-z
x,-y,z
1/2+x,1/2+y,z
1/2-x,1/2+y,-z
1/2-x,1/2-y,-z
1/2+x,1/2-y,z
loop_
_atom_site_type_symbol
_atom_site_label
_atom_site_fract_x
_atom_site_fract_y
_atom_site_fract_z
Si Si1 0.850949 0.083488 0.665193
Si Si2 0.541788 0.921532 0.640522
Si Si3 0.311449 0.857603 0.440141
Si Si4 0.632316 0.668612 0.841560
Si Si5 0.631005 0.922764 0.231423
Si Si6 0.598608 0.815538 0.857753
Si Si7 0.250878 0.419519 0.910977
Si Si8 0.733608 0.706229 0.772342
O O1 0.874555 0.119728 0.400423
O O2 0.795455 0.093166 0.690132
O O3 0.864991 0.000000 0.660797
O O4 0.869210 0.120431 0.906621
O O5 0.500000 0.895665 0.500000
O O6 0.589244 0.931623 0.458327
O O7 0.550550 0.857630 0.836167
O O8 0.529552 0.000000 0.773161
O O9 0.318855 0.911295 0.671730
O O10 0.362633 0.823698 0.391613
O O11 0.296125 0.898672 0.199333
O O12 0.272197 0.793392 0.506251
O O13 0.591892 0.729640 0.900205
O O14 0.679293 0.716268 0.769871
O O15 0.634688 0.000000 0.082650
O O16 0.621218 0.853234 0.076986
O O17 0.248241 0.500000 0.002505
O O18 0.259409 0.376829 0.160670
O O19 0.750000 0.750000 0.000000
#
# Coordination Sequence:
#
# PCOD8105345 Si02
#       8
#     8   8   8   8   8   8   8   8
#     4  10  22  40  60  82 111 154 206 256 308 363
#     4   9  20  40  65  89 117 156 198 240 291 357
#     4  11  21  34  50  73 106 149 204 248 295 352
#     4  11  23  38  60  83 118 157 203 260 310 363
#     4  10  21  36  54  80 117 155 198 246 296 354
#     4  11  24  35  55  83 118 152 193 242 307 359
#     4  10  21  34  49  71  99 142 198 255 298 337
#     4  11  23  35  50  72 105 152 203 251 305 357
#
# _framework density 22.291944000000001
#
# number of rings (size 3 to 8) (size 9 to 14) (size 15 to 20)
#    0.000    1.625    1.250    3.375    7.000    5.500 
#    0.000    1.875    0.000    0.000    0.000    0.000 
#    0.000    3.000    0.000    0.000    0.000    0.000 
#
# Total GULP energy -396514.348415 kJ/mol
# GULP energy per Si atom -12391.073388 kJ/mol
# Density = 2.224121 g / cm^3
# Si number density = 22.291944 Si / 1000 Ang^3
#
#
#
# Elastic Constant Matrix: (Units=GPa)
#
#
# Indices 1 2 3 4 5 6 
#
# 1 62.3409 29.9401 5.2468 0.0000 27.6798 0.0000
# 2 29.9401 136.5781 27.8107 0.0000 21.8118 0.0000
# 3 5.2468 27.8107 71.5947 0.0000 16.6154 0.0000
# 4 0.0000 0.0000 0.0000 36.8010 0.0000 16.9626
# 5 27.6798 21.8118 16.6154 0.0000 26.1191 0.0000
# 6 0.0000 0.0000 0.0000 16.9626 0.0000 57.3474
#
#
#
# Elastic Compliance Matrix: (Units=1/GPa)
#
#
# Indices 1 2 3 4 5 6 
#
# 1 0.033676 -0.002821 0.007466 0.000000 -0.038082 0.000000
# 2 -0.002821 0.008918 -0.002608 0.000000 -0.002799 0.000000
# 3 0.007466 -0.002608 0.018495 0.000000 -0.017499 0.000000
# 4 0.000000 0.000000 0.000000 0.031463 0.000000 -0.009306
# 5 -0.038082 -0.002799 -0.017499 0.000000 0.092113 0.000000
# 6 0.000000 0.000000 0.000000 -0.009306 0.000000 0.020190
#
#
# Mechanical properties :
#
#
# Convention : Reuss Voigt Hill
#
# Bulk Modulus (GPa) = 15.34627 44.05656 29.70141
# Shear Modulus (GPa) = 22.47181 37.88792 30.17987
#
# Velocity S-wave (km/s) = 3.17845 4.12712 3.68346
# Velocity P-wave (km/s) = 4.51323 6.52052 5.60743
#
# Compressibility (1/GPa) = 0.06516242
#
# Stress axis : x y z
#
# Youngs Moduli (GPa) = 29.69499 112.12965 54.07008
#
# Poissons Ratio (x) = 0.31629 -0.40367
# Poissons Ratio (y) = 0.08376 0.14101
# Poissons Ratio (z) = -0.22169 0.29242
#
# Static dielectric constant tensor:
#      x y z
#    x 3.821440 0.000000 0.030300 
#    y 0.000000 4.573680 0.000000 
#    z 0.030300 0.000000 3.930940 
# 
# 
# High freq. dielectric constant tensor:
#      x y z
#    x 1.828140 0.000000 0.005220 
#    y 0.000000 1.898120 0.000000 
#    z 0.005220 0.000000 1.881440 
# 
# From -- ./inp_files/32050.got.cif
#   From: 2010.06.25/outbox.cif.g09.slc.cpg/sg12_17_cif.got.tgz:32050.got - 2010.06.28 00:19:55.
