data_PCOD8105074
_publ_section_title
;
Structure prediction by ZEFSAII (Michael W. Deem and Ramdas Pophale) SiO2 
 PCOD8105074
Probable space group: C 2/M
;
_chemical_formula_sum "Si O2"
_cell_formula_units_Z 44
_cell_length_a 28.370981
_cell_length_b 17.614666
_cell_length_c 10.223825
_cell_angle_alpha 90.000000
_cell_angle_beta 24.833325
_cell_angle_gamma 90.000000
_cell_volume 2145.807629
_symmetry_space_group_name_H-M "C 2/M"
_symmetry_group_IT_number 12
_symmetry_cell_setting 'monoclinic'
loop_
_space_group_symop_operation_xyz
x,y,z
-x,y,-z
-x,-y,-z
x,-y,z
1/2+x,1/2+y,z
1/2-x,1/2+y,-z
1/2-x,1/2-y,-z
1/2+x,1/2-y,z
loop_
_atom_site_type_symbol
_atom_site_label
_atom_site_fract_x
_atom_site_fract_y
_atom_site_fract_z
Si Si1 0.459560 0.000000 0.747291
Si Si2 0.189447 0.500000 0.317370
Si Si3 0.914581 0.000000 0.596768
Si Si4 0.602499 0.291002 0.642151
Si Si5 0.737829 0.857643 0.371985
Si Si6 0.495679 0.343252 0.665216
Si Si7 0.262709 0.084724 0.341185
O O1 0.500000 0.000000 0.500000
O O2 0.566181 0.000000 0.571098
O O3 0.383402 0.074978 0.965409
O O4 0.199894 0.426389 0.378695
O O5 0.284362 0.500000 0.966084
O O6 0.944392 0.922935 0.446126
O O7 0.000000 0.000000 0.500000
O O8 0.671781 0.216202 0.495571
O O9 0.559662 0.284244 0.599155
O O10 0.681311 0.364697 0.458148
O O11 0.500000 0.299324 0.000000
O O12 0.710919 0.874370 0.589383
O O13 0.868497 0.843946 0.028544
O O14 0.500000 0.322083 0.500000
O O15 0.209165 0.000000 0.497508
#
# Coordination Sequence:
#
# PCOD8105074 Si02
#       7
#     4   4   4   8   8   8   8
#     4  10  27  44  70 107 142 184 232 301 348 421
#     4  12  23  44  74  97 133 191 230 282 358 419
#     4  10  20  40  72 101 138 173 232 288 342 424
#     4  12  28  42  74 103 144 188 233 301 354 418
#     4  12  24  45  71 105 139 183 242 289 351 428
#     4  11  24  44  69 106 142 183 233 298 359 411
#     4  10  25  46  72 102 140 183 237 288 351 426
#
# _framework density 20.505099999999999
#
# number of rings (size 3 to 8) (size 9 to 14) (size 15 to 20)
#    0.545    0.364    6.364    0.545    6.364    1.818 
#    0.000    1.818    0.000    0.000    0.000    0.000 
#    0.000    0.000    0.000    0.000    0.000    0.000 
#
# Total GULP energy -272713.041497 kJ/mol
# GULP energy per Si atom -12396.047341 kJ/mol
# Density = 2.045843 g / cm^3
# Si number density = 20.505100 Si / 1000 Ang^3
#
#
#
# Elastic Constant Matrix: (Units=GPa)
#
#
# Indices 1 2 3 4 5 6 
#
# 1 156.8886 73.1865 68.0421 0.0000 -0.6555 0.0000
# 2 73.1865 124.4134 61.9790 0.0000 -17.8128 0.0000
# 3 68.0421 61.9790 172.0725 0.0000 -5.4521 0.0000
# 4 0.0000 0.0000 0.0000 31.4968 0.0000 -16.7125
# 5 -0.6555 -17.8128 -5.4521 0.0000 41.7159 0.0000
# 6 0.0000 0.0000 0.0000 -16.7125 0.0000 31.4027
#
#
#
# Elastic Compliance Matrix: (Units=1/GPa)
#
#
# Indices 1 2 3 4 5 6 
#
# 1 0.009554 -0.004899 -0.002083 0.000000 -0.002214 0.000000
# 2 -0.004899 0.012924 -0.002556 0.000000 0.005108 0.000000
# 3 -0.002083 -0.002556 0.007552 0.000000 -0.000137 0.000000
# 4 0.000000 0.000000 0.000000 0.044243 0.000000 0.023546
# 5 -0.002214 0.005108 -0.000137 0.000000 0.026100 0.000000
# 6 0.000000 0.000000 0.000000 0.023546 0.000000 0.044376
#
#
# Mechanical properties :
#
#
# Convention : Reuss Voigt Hill
#
# Bulk Modulus (GPa) = 91.30354 95.53216 93.41785
# Shear Modulus (GPa) = 29.85499 37.60087 33.72793
#
# Velocity S-wave (km/s) = 3.81987 4.28686 4.06008
# Velocity P-wave (km/s) = 8.00494 8.43762 8.22413
#
# Compressibility (1/GPa) = 0.01095248
#
# Stress axis : x y z
#
# Youngs Moduli (GPa) = 104.67295 77.37367 132.42150
#
# Poissons Ratio (x) = 0.37906 0.27587
# Poissons Ratio (y) = 0.51280 0.33849
# Poissons Ratio (z) = 0.21806 0.19778
#
# Static dielectric constant tensor:
#      x y z
#    x 3.669590 0.000000 -0.119570 
#    y 0.000000 4.225820 0.000000 
#    z -0.119570 0.000000 3.893980 
# 
# 
# High freq. dielectric constant tensor:
#      x y z
#    x 1.810460 0.000000 -0.007710 
#    y 0.000000 1.799080 0.000000 
#    z -0.007710 0.000000 1.811000 
# 
# From -- ./inp_files/189994.got.cif
#   From: 2010.06.25/outbox.cif.g09.slc.cpg/sg12_95_cif.got.tgz:189994.got - 2010.06.28 00:19:55.
