data_PCOD8105904
_publ_section_title
;
Structure prediction by ZEFSAII (Michael W. Deem and Ramdas Pophale) SiO2 
 PCOD8105904
Probable space group: C 2/M
;
_chemical_formula_sum "Si O2"
_cell_formula_units_Z 56
_cell_length_a 31.121389
_cell_length_b 9.116654
_cell_length_c 12.793148
_cell_angle_alpha 90.000000
_cell_angle_beta 53.857742
_cell_angle_gamma 90.000000
_cell_volume 2931.190450
_symmetry_space_group_name_H-M "C 2/M"
_symmetry_group_IT_number 12
_symmetry_cell_setting 'monoclinic'
loop_
_space_group_symop_operation_xyz
x,y,z
-x,y,-z
-x,-y,-z
x,-y,z
1/2+x,1/2+y,z
1/2-x,1/2+y,-z
1/2-x,1/2-y,-z
1/2+x,1/2-y,z
loop_
_atom_site_type_symbol
_atom_site_label
_atom_site_fract_x
_atom_site_fract_y
_atom_site_fract_z
Si Si1 0.752805 0.674884 0.386186
Si Si2 0.681089 0.838334 0.341680
Si Si3 0.082843 0.173436 0.399355
Si Si4 0.010103 0.172758 0.314925
Si Si5 0.155571 0.826022 0.870210
Si Si6 0.034055 0.173880 0.049082
Si Si7 0.724221 0.344686 0.950084
O O1 0.752437 0.500000 0.393515
O O2 0.750000 0.750000 0.500000
O O3 0.698311 0.727910 0.408634
O O4 0.807935 0.728130 0.256416
O O5 0.637010 0.762794 0.332541
O O6 0.733855 0.865102 0.201271
O O7 0.661823 0.000000 0.409612
O O8 0.056145 0.226807 0.328792
O O9 0.046343 0.214553 0.552138
O O10 0.093868 0.000000 0.381220
O O11 0.015391 0.239167 0.189376
O O12 0.015596 0.000000 0.298985
O O13 0.170731 0.786373 0.969773
O O14 0.164692 0.000000 0.836322
O O15 0.094744 0.780375 0.940197
O O16 0.027655 0.000000 0.062035
O O17 0.000000 0.237738 0.000000
O O18 0.710896 0.500000 0.022935
O O19 0.750000 0.250000 0.000000
#
# Coordination Sequence:
#
# PCOD8105904 Si02
#       7
#     8   8   8   8   8   8   8
#     4  11  22  38  59  81 108 144 181 222 271 328
#     4  10  21  36  52  78 111 139 177 225 274 334
#     4   9  17  31  53  78 106 142 186 234 280 330
#     4   8  16  30  48  75 108 142 187 238 281 328
#     4   9  19  35  53  79 112 143 179 228 274 321
#     4   9  17  30  51  78 109 146 186 228 276 329
#     4   9  19  32  48  73 105 138 174 220 271 327
#
# _framework density 19.104866999999999
#
# number of rings (size 3 to 8) (size 9 to 14) (size 15 to 20)
#    0.000    2.714    0.000    3.429    2.000    4.000 
#    0.000    4.286    0.000    1.286    0.000    0.000 
#    0.000    0.000    0.000    0.000    0.000    0.000 
#
# Total GULP energy -346885.733744 kJ/mol
# GULP energy per Si atom -12388.776205 kJ/mol
# Density = 1.906138 g / cm^3
# Si number density = 19.104867 Si / 1000 Ang^3
#
#
#
# Elastic Constant Matrix: (Units=GPa)
#
#
# Indices 1 2 3 4 5 6 
#
# 1 157.5011 41.8278 46.4818 0.0000 14.4301 0.0000
# 2 41.8278 80.3769 26.8644 0.0000 9.9473 0.0000
# 3 46.4818 26.8644 73.3814 0.0000 25.4731 0.0000
# 4 0.0000 0.0000 0.0000 21.3867 0.0000 1.7969
# 5 14.4301 9.9473 25.4731 0.0000 32.3544 0.0000
# 6 0.0000 0.0000 0.0000 1.7969 0.0000 22.6985
#
#
#
# Elastic Compliance Matrix: (Units=1/GPa)
#
#
# Indices 1 2 3 4 5 6 
#
# 1 0.008391 -0.002957 -0.004471 0.000000 0.000687 0.000000
# 2 -0.002957 0.015222 -0.003485 0.000000 -0.000617 0.000000
# 3 -0.004471 -0.003485 0.022941 0.000000 -0.014996 0.000000
# 4 0.000000 0.000000 0.000000 0.047071 0.000000 -0.003726
# 5 0.000687 -0.000617 -0.014996 0.000000 0.042598 0.000000
# 6 0.000000 0.000000 0.000000 -0.003726 0.000000 0.044351
#
#
# Mechanical properties :
#
#
# Convention : Reuss Voigt Hill
#
# Bulk Modulus (GPa) = 40.44156 60.17858 50.31007
# Shear Modulus (GPa) = 23.73693 28.36026 26.04859
#
# Velocity S-wave (km/s) = 3.52867 3.85704 3.69650
# Velocity P-wave (km/s) = 6.14949 7.16960 6.67905
#
# Compressibility (1/GPa) = 0.02472704
#
# Stress axis : x y z
#
# Youngs Moduli (GPa) = 119.17416 65.69634 43.59024
#
# Poissons Ratio (x) = 0.19429 0.19489
# Poissons Ratio (y) = 0.35244 0.15191
# Poissons Ratio (z) = 0.53281 0.22895
#
# Static dielectric constant tensor:
#      x y z
#    x 3.588540 0.000000 0.002570 
#    y 0.000000 3.346200 0.000000 
#    z 0.002570 0.000000 3.504110 
# 
# 
# High freq. dielectric constant tensor:
#      x y z
#    x 1.756120 0.000000 0.005150 
#    y 0.000000 1.707470 0.000000 
#    z 0.005150 0.000000 1.734660 
# 
# From -- ./inp_files/187228.got.cif
#   From: 2010.06.25/outbox.cif.g09.slc.cpg/sg12_94_cif.got.tgz:187228.got - 2010.06.28 00:19:55.
