data_PCOD8105610
_publ_section_title
;
Structure prediction by ZEFSAII (Michael W. Deem and Ramdas Pophale) SiO2 
 PCOD8105610
Probable space group: C 2/M
;
_chemical_formula_sum "Si O2"
_cell_formula_units_Z 64
_cell_length_a 27.659525
_cell_length_b 8.874261
_cell_length_c 18.149578
_cell_angle_alpha 90.000000
_cell_angle_beta 45.898513
_cell_angle_gamma 90.000000
_cell_volume 3199.140801
_symmetry_space_group_name_H-M "C 2/M"
_symmetry_group_IT_number 12
_symmetry_cell_setting 'monoclinic'
loop_
_space_group_symop_operation_xyz
x,y,z
-x,y,-z
-x,-y,-z
x,-y,z
1/2+x,1/2+y,z
1/2-x,1/2+y,-z
1/2-x,1/2-y,-z
1/2+x,1/2-y,z
loop_
_atom_site_type_symbol
_atom_site_label
_atom_site_fract_x
_atom_site_fract_y
_atom_site_fract_z
Si Si1 0.837718 0.676808 0.187187
Si Si2 0.791549 0.680222 0.726419
Si Si3 0.907458 0.332773 0.839865
Si Si4 0.923696 0.177764 0.966531
Si Si5 0.948702 0.325180 0.362430
Si Si6 0.275674 0.835119 0.903101
Si Si7 0.930123 0.822086 0.534659
Si Si8 0.434420 0.174331 0.214427
O O1 0.829951 0.500000 0.180658
O O2 0.763417 0.751929 0.271245
O O3 0.870916 0.712272 0.230926
O O4 0.885728 0.746978 0.074663
O O5 0.795209 0.500000 0.715841
O O6 0.761959 0.733966 0.837449
O O7 0.866102 0.745789 0.640707
O O8 0.918759 0.500000 0.861628
O O9 0.885570 0.224990 0.931078
O O10 0.855847 0.337771 0.827702
O O11 0.974902 0.274391 0.730931
O O12 0.001229 0.229718 0.880024
O O13 0.920356 0.000000 0.980524
O O14 0.940668 0.500000 0.393663
O O15 0.923271 0.223072 0.456192
O O16 0.912023 0.290813 0.322946
O O17 0.243368 0.000000 0.940019
O O18 0.250000 0.750000 0.000000
O O19 0.000000 0.767381 0.500000
O O20 0.923520 0.000000 0.549174
O O21 0.455586 0.000000 0.184841
#
# Coordination Sequence:
#
# PCOD8105610 Si02
#       8
#     8   8   8   8   8   8   8   8
#     4  11  22  38  58  80 113 154 193 235 285 339
#     4  11  24  41  60  85 115 148 191 237 283 336
#     4   9  18  34  54  77 108 147 188 229 280 337
#     4  11  21  32  52  85 120 153 193 237 280 331
#     4   9  18  36  61  85 108 139 185 237 285 333
#     4  10  21  35  53  78 109 147 186 224 270 328
#     4  11  24  41  62  89 118 148 184 228 281 340
#     4   9  20  38  59  83 113 152 194 235 283 336
#
# _framework density 20.005372999999999
#
# number of rings (size 3 to 8) (size 9 to 14) (size 15 to 20)
#    0.000    1.875    0.000    4.875    0.000   10.000 
#    0.000    0.625    0.000    0.000    0.000    0.000 
#    0.000    0.000    0.000    0.000    0.000    0.000 
#
# Total GULP energy -396625.935200 kJ/mol
# GULP energy per Si atom -12394.560475 kJ/mol
# Density = 1.995984 g / cm^3
# Si number density = 20.005373 Si / 1000 Ang^3
#
#
#
# Elastic Constant Matrix: (Units=GPa)
#
#
# Indices 1 2 3 4 5 6 
#
# 1 95.5623 32.5914 29.7159 0.0568 3.5581 -0.0102
# 2 32.5914 90.8762 42.1182 0.0735 2.9763 -0.0426
# 3 29.7159 42.1182 90.6207 0.0595 9.7651 -0.0307
# 4 0.0568 0.0735 0.0595 32.9130 -0.0241 -0.5982
# 5 3.5581 2.9763 9.7651 -0.0241 26.0033 0.0064
# 6 -0.0102 -0.0426 -0.0307 -0.5982 0.0064 26.7002
#
#
#
# Elastic Compliance Matrix: (Units=1/GPa)
#
#
# Indices 1 2 3 4 5 6 
#
# 1 0.012369 -0.003266 -0.002497 -0.000010 -0.000381 -0.000003
# 2 -0.003266 0.014907 -0.005963 -0.000016 0.000980 0.000015
# 3 -0.002497 -0.005963 0.015127 -0.000013 -0.004656 0.000008
# 4 -0.000010 -0.000016 -0.000013 0.030396 0.000036 0.000681
# 5 -0.000381 0.000980 -0.004656 0.000036 0.040145 -0.000013
# 6 -0.000003 0.000015 0.000008 0.000681 -0.000013 0.037468
#
#
# Mechanical properties :
#
#
# Convention : Reuss Voigt Hill
#
# Bulk Modulus (GPa) = 52.76806 53.99001 53.37903
# Shear Modulus (GPa) = 27.74992 28.63222 28.19107
#
# Velocity S-wave (km/s) = 3.72845 3.78726 3.75797
# Velocity P-wave (km/s) = 6.70592 6.79491 6.75056
#
# Compressibility (1/GPa) = 0.01895086
#
# Stress axis : x y z
#
# Youngs Moduli (GPa) = 80.84775 67.08306 66.10732
#
# Poissons Ratio (x) = 0.21911 0.16506
# Poissons Ratio (y) = 0.26407 0.39419
# Poissons Ratio (z) = 0.20186 0.40001
#
# Static dielectric constant tensor:
#      x y z
#    x 4.287060 0.000030 0.012030 
#    y 0.000030 3.670520 0.000010 
#    z 0.012030 0.000010 3.550410 
# 
# 
# High freq. dielectric constant tensor:
#      x y z
#    x 1.793710 0.000000 0.004360 
#    y 0.000000 1.776970 0.000000 
#    z 0.004360 0.000000 1.766960 
# 
# From -- ./inp_files/295489.got.cif
#   From: 2010.06.25/outbox.cif.g09.slc.cpg/sg12_148_cif.got.tgz:295489.got - 2010.06.28 00:19:55.
