data_PCOD8105083
_publ_section_title
;
Structure prediction by ZEFSAII (Michael W. Deem and Ramdas Pophale) SiO2 
 PCOD8105083
Probable space group: C 2/M
;
_chemical_formula_sum "Si O2"
_cell_formula_units_Z 48
_cell_length_a 10.483388
_cell_length_b 18.260056
_cell_length_c 11.944976
_cell_angle_alpha 90.000000
_cell_angle_beta 98.982516
_cell_angle_gamma 90.000000
_cell_volume 2258.551213
_symmetry_space_group_name_H-M "C 2/M"
_symmetry_group_IT_number 12
_symmetry_cell_setting 'monoclinic'
loop_
_space_group_symop_operation_xyz
x,y,z
-x,y,-z
-x,-y,-z
x,-y,z
1/2+x,1/2+y,z
1/2-x,1/2+y,-z
1/2-x,1/2-y,-z
1/2+x,1/2-y,z
loop_
_atom_site_type_symbol
_atom_site_label
_atom_site_fract_x
_atom_site_fract_y
_atom_site_fract_z
Si Si1 0.138506 0.838170 0.057640
Si Si2 0.867093 0.664747 0.930482
Si Si3 0.230557 0.082329 0.525277
Si Si4 0.636464 0.728746 0.567577
Si Si5 0.207947 0.360149 0.708936
Si Si6 0.564121 0.918288 0.269234
O O1 0.132074 0.751425 0.064035
O O2 0.175895 0.866428 0.186359
O O3 0.244985 0.865373 0.983105
O O4 0.000000 0.870268 0.000000
O O5 0.860053 0.637249 0.801945
O O6 0.000000 0.633047 0.000000
O O7 0.137721 0.139998 0.579251
O O8 0.241700 0.102286 0.396749
O O9 0.372686 0.088251 0.599114
O O10 0.174072 0.000000 0.530726
O O11 0.500000 0.755151 0.500000
O O12 0.750000 0.750000 0.500000
O O13 0.664117 0.774674 0.684873
O O14 0.086644 0.402199 0.742599
O O15 0.581533 0.000000 0.223652
#
# Coordination Sequence:
#
# PCOD8105083 Si02
#       6
#     8   8   8   8   8   8
#     4  10  22  39  64  91 125 162 206 264 318 363
#     4  10  20  41  61  92 123 161 210 262 311 367
#     4  10  22  40  59  92 131 166 203 253 322 378
#     4  10  21  38  62  93 123 160 204 255 305 368
#     4  11  20  38  64  96 123 162 212 263 309 371
#     4  11  22  38  65  94 127 165 209 262 311 372
#
# _framework density 21.252562999999999
#
# number of rings (size 3 to 8) (size 9 to 14) (size 15 to 20)
#    0.000    1.667    1.667    4.000    0.000    3.333 
#    6.000    0.000    0.000    3.500    0.000    0.000 
#    0.000    0.000    0.000    0.000    0.000    0.000 
#
# Total GULP energy -297532.783503 kJ/mol
# GULP energy per Si atom -12397.199313 kJ/mol
# Density = 2.120419 g / cm^3
# Si number density = 21.252563 Si / 1000 Ang^3
#
#
#
# Elastic Constant Matrix: (Units=GPa)
#
#
# Indices 1 2 3 4 5 6 
#
# 1 111.3535 11.4099 45.5930 0.0000 21.9453 0.0000
# 2 11.4099 81.3189 20.9763 0.0000 3.1971 0.0000
# 3 45.5930 20.9763 134.4625 0.0000 21.6510 0.0000
# 4 0.0000 0.0000 0.0000 27.1898 0.0000 0.1031
# 5 21.9453 3.1971 21.6510 0.0000 36.4114 0.0000
# 6 0.0000 0.0000 0.0000 0.1031 0.0000 22.5469
#
#
#
# Elastic Compliance Matrix: (Units=1/GPa)
#
#
# Indices 1 2 3 4 5 6 
#
# 1 0.011214 -0.000629 -0.002903 0.000000 -0.004978 0.000000
# 2 -0.000629 0.012848 -0.001847 0.000000 0.000349 0.000000
# 3 -0.002903 -0.001847 0.009291 0.000000 -0.003613 0.000000
# 4 0.000000 0.000000 0.000000 0.036779 0.000000 -0.000168
# 5 -0.004978 0.000349 -0.003613 0.000000 0.032582 0.000000
# 6 0.000000 0.000000 0.000000 -0.000168 0.000000 0.044353
#
#
# Mechanical properties :
#
#
# Convention : Reuss Voigt Hill
#
# Bulk Modulus (GPa) = 44.25662 53.67703 48.96683
# Shear Modulus (GPa) = 30.23744 33.84000 32.03872
#
# Velocity S-wave (km/s) = 3.77605 3.99467 3.88690
# Velocity P-wave (km/s) = 6.31512 6.82554 6.57529
#
# Compressibility (1/GPa) = 0.02259549
#
# Stress axis : x y z
#
# Youngs Moduli (GPa) = 89.17085 77.83128 107.62785
#
# Poissons Ratio (x) = 0.04895 0.31244
# Poissons Ratio (y) = 0.05609 0.19882
# Poissons Ratio (z) = 0.25886 0.14378
#
# Static dielectric constant tensor:
#      x y z
#    x 3.847790 0.000000 0.124280 
#    y 0.000000 4.167760 0.000000 
#    z 0.124280 0.000000 3.845070 
# 
# 
# High freq. dielectric constant tensor:
#      x y z
#    x 1.822840 0.000000 0.010930 
#    y 0.000000 1.822360 0.000000 
#    z 0.010930 0.000000 1.832600 
# 
# From -- ./inp_files/131754.got.cif
#   From: 2010.06.25/outbox.cif.g09.slc.cpg/sg12_66_cif.got.tgz:131754.got - 2010.06.28 00:19:55.
