data_PCOD8105947
_publ_section_title
;
Structure prediction by ZEFSAII (Michael W. Deem and Ramdas Pophale) SiO2 
 PCOD8105947
Probable space group: C 2/M
;
_chemical_formula_sum "Si O2"
_cell_formula_units_Z 56
_cell_length_a 31.073773
_cell_length_b 8.789873
_cell_length_c 19.274596
_cell_angle_alpha 90.000000
_cell_angle_beta 33.571779
_cell_angle_gamma 90.000000
_cell_volume 2911.201464
_symmetry_space_group_name_H-M "C 2/M"
_symmetry_group_IT_number 12
_symmetry_cell_setting 'monoclinic'
loop_
_space_group_symop_operation_xyz
x,y,z
-x,y,-z
-x,-y,-z
x,-y,z
1/2+x,1/2+y,z
1/2-x,1/2+y,-z
1/2-x,1/2-y,-z
1/2+x,1/2-y,z
loop_
_atom_site_type_symbol
_atom_site_label
_atom_site_fract_x
_atom_site_fract_y
_atom_site_fract_z
Si Si1 0.868193 0.179506 0.493811
Si Si2 0.996898 0.180580 0.212863
Si Si3 0.446233 0.680915 0.134061
Si Si4 0.075372 0.676145 0.441783
Si Si5 0.685221 0.175233 0.171178
Si Si6 0.229314 0.180777 0.603106
Si Si7 0.354989 0.320361 0.909776
O O1 0.925130 0.231996 0.356242
O O2 0.908871 0.227432 0.510855
O O3 0.787139 0.263490 0.586282
O O4 0.853721 0.000000 0.514423
O O5 0.984882 0.245240 0.152236
O O6 0.076491 0.251049 0.136000
O O7 0.001689 0.000000 0.205279
O O8 0.449042 0.500000 0.127823
O O9 0.356008 0.733398 0.255167
O O10 0.500000 0.748589 0.000000
O O11 0.063400 0.500000 0.478181
O O12 0.151404 0.700779 0.292634
O O13 0.000000 0.734471 0.500000
O O14 0.633880 0.265005 0.183999
O O15 0.682795 0.000000 0.152445
O O16 0.773501 0.237525 0.051275
O O17 0.250000 0.250000 0.500000
O O18 0.233171 0.000000 0.590071
O O19 0.360786 0.500000 0.902496
#
# Coordination Sequence:
#
# PCOD8105947 Si02
#       7
#     8   8   8   8   8   8   8
#     4  11  22  36  56  82 111 147 191 235 281 338
#     4   9  17  31  50  76 104 132 178 228 271 322
#     4   9  18  33  56  84 111 141 182 234 283 333
#     4  10  21  36  53  78 113 147 183 231 284 337
#     4   9  18  32  49  73 105 137 173 221 273 327
#     4  11  21  37  61  87 115 149 189 234 288 344
#     4   9  17  30  52  74  98 136 178 223 270 324
#
# _framework density 19.236044
#
# number of rings (size 3 to 8) (size 9 to 14) (size 15 to 20)
#    0.000    2.286    1.429    1.714    0.000    2.000 
#    0.000    5.000    0.000    1.714    0.000    0.000 
#    0.000    0.000    0.000    0.000    0.000    0.000 
#
# Total GULP energy -347124.336021 kJ/mol
# GULP energy per Si atom -12397.297715 kJ/mol
# Density = 1.919226 g / cm^3
# Si number density = 19.236044 Si / 1000 Ang^3
#
#
#
# Elastic Constant Matrix: (Units=GPa)
#
#
# Indices 1 2 3 4 5 6 
#
# 1 160.8076 29.2401 73.1317 -0.0057 -10.2613 0.0037
# 2 29.2401 34.5794 29.6683 0.0257 -1.9367 -0.0055
# 3 73.1317 29.6683 130.0278 -0.0107 -0.3049 0.0063
# 4 -0.0057 0.0257 -0.0107 18.7741 -0.0058 0.2006
# 5 -10.2613 -1.9367 -0.3049 -0.0058 35.6265 0.0005
# 6 0.0037 -0.0055 0.0063 0.2006 0.0005 29.7887
#
#
#
# Elastic Compliance Matrix: (Units=1/GPa)
#
#
# Indices 1 2 3 4 5 6 
#
# 1 0.008961 -0.003888 -0.004147 0.000006 0.002334 -0.000001
# 2 -0.003888 0.037773 -0.006430 -0.000056 0.000878 0.000009
# 3 -0.004147 -0.006430 0.011487 0.000014 -0.001446 -0.000003
# 4 0.000006 -0.000056 0.000014 0.053269 0.000008 -0.000359
# 5 0.002334 0.000878 -0.001446 0.000008 0.028777 0.000000
# 6 -0.000001 0.000009 -0.000003 -0.000359 0.000000 0.033572
#
#
# Mechanical properties :
#
#
# Convention : Reuss Voigt Hill
#
# Bulk Modulus (GPa) = 34.14125 65.49945 49.82035
# Shear Modulus (GPa) = 23.52604 29.72950 26.62777
#
# Velocity S-wave (km/s) = 3.50096 3.93556 3.72461
# Velocity P-wave (km/s) = 5.84204 7.40107 6.66728
#
# Compressibility (1/GPa) = 0.02929008
#
# Stress axis : x y z
#
# Youngs Moduli (GPa) = 111.60058 26.47426 87.05684
#
# Poissons Ratio (x) = 0.10294 0.36103
# Poissons Ratio (y) = 0.43392 0.55974
# Poissons Ratio (z) = 0.46281 0.17022
#
# Static dielectric constant tensor:
#      x y z
#    x 3.756190 -0.000030 -0.160110 
#    y -0.000030 3.190810 0.000050 
#    z -0.160110 0.000050 3.780290 
# 
# 
# High freq. dielectric constant tensor:
#      x y z
#    x 1.757380 0.000000 -0.008330 
#    y 0.000000 1.714730 0.000000 
#    z -0.008330 0.000000 1.756450 
# 
# From -- ./inp_files/292447.got.cif
#   From: 2010.06.25/outbox.cif.g09.slc.cpg/sg12_147_cif.got.tgz:292447.got - 2010.06.28 00:19:55.
