data_PCOD8105094
_publ_section_title
;
Structure prediction by ZEFSAII (Michael W. Deem and Ramdas Pophale) SiO2 
 PCOD8105094
Probable space group: C 2/M
;
_chemical_formula_sum "Si O2"
_cell_formula_units_Z 40
_cell_length_a 15.206386
_cell_length_b 14.576618
_cell_length_c 13.841519
_cell_angle_alpha 90.000000
_cell_angle_beta 143.388738
_cell_angle_gamma 90.000000
_cell_volume 1829.749121
_symmetry_space_group_name_H-M "C 2/M"
_symmetry_group_IT_number 12
_symmetry_cell_setting 'monoclinic'
loop_
_space_group_symop_operation_xyz
x,y,z
-x,y,-z
-x,-y,-z
x,-y,z
1/2+x,1/2+y,z
1/2-x,1/2+y,-z
1/2-x,1/2-y,-z
1/2+x,1/2-y,z
loop_
_atom_site_type_symbol
_atom_site_label
_atom_site_fract_x
_atom_site_fract_y
_atom_site_fract_z
Si Si1 0.810751 0.148330 0.057630
Si Si2 0.553536 0.728246 0.153860
Si Si3 0.982445 0.099970 0.598809
Si Si4 0.881799 0.288328 0.481137
Si Si5 0.002863 0.600794 0.243441
O O1 0.955029 0.147630 0.115953
O O2 0.860591 0.117079 0.209151
O O3 0.750000 0.250000 0.000000
O O4 0.674713 0.086944 0.901952
O O5 0.720200 0.691114 0.298290
O O6 0.543074 0.826768 0.196431
O O7 0.500000 0.746806 0.000000
O O8 0.879262 0.187875 0.533768
O O9 0.000000 0.097315 0.500000
O O10 0.918760 0.000000 0.576193
O O11 0.000000 0.284721 0.500000
O O12 0.928487 0.367552 0.594995
O O13 0.067765 0.500000 0.275287
#
# Coordination Sequence:
#
# PCOD8105094 Si02
#       5
#     8   8   8   8   8
#     4  10  20  41  63  90 128 171 209 257 320 379
#     4  11  24  41  66  95 128 171 215 264 321 375
#     4  10  21  36  64  97 127 163 209 262 321 379
#     4  11  23  43  67  94 130 171 213 263 318 381
#     4  11  24  42  67  97 130 169 212 262 321 380
#
# _framework density 21.86092
#
# number of rings (size 3 to 8) (size 9 to 14) (size 15 to 20)
#    0.000    1.400    4.000    2.400    8.400    1.600 
#    0.000    1.000    0.000    4.200    0.000    0.000 
#    0.000    0.000    0.000    0.000    0.000    0.000 
#
# Total GULP energy -247831.137327 kJ/mol
# GULP energy per Si atom -12391.556866 kJ/mol
# Density = 2.181116 g / cm^3
# Si number density = 21.860920 Si / 1000 Ang^3
#
#
#
# Elastic Constant Matrix: (Units=GPa)
#
#
# Indices 1 2 3 4 5 6 
#
# 1 92.7910 17.7806 68.3552 0.0004 6.2382 0.0000
# 2 17.7806 90.2779 40.6806 0.0004 -15.7580 0.0000
# 3 68.3552 40.6806 190.1958 0.0005 -0.5609 0.0001
# 4 0.0004 0.0004 0.0005 -108.6587 0.0004 29.1027
# 5 6.2382 -15.7580 -0.5609 0.0004 44.5387 0.0000
# 6 0.0000 0.0000 0.0001 29.1027 0.0000 7.7832
#
#
#
# Elastic Compliance Matrix: (Units=1/GPa)
#
#
# Indices 1 2 3 4 5 6 
#
# 1 0.014946 -0.001065 -0.005151 0.000000 -0.002535 0.000000
# 2 -0.001065 0.013219 -0.002430 0.000000 0.004795 0.000000
# 3 -0.005151 -0.002430 0.007629 0.000000 -0.000042 0.000000
# 4 0.000000 0.000000 0.000000 -0.004598 0.000000 0.017193
# 5 -0.002535 0.004795 -0.000042 0.000000 0.024504 0.000000
# 6 0.000000 0.000000 0.000000 0.017193 0.000000 0.064193
#
#
# Mechanical properties :
#
#
# Convention : Reuss Voigt Hill
#
# Bulk Modulus (GPa) = 54.05276 69.65529 61.85403
# Shear Modulus (GPa) = 34.87899 5.16253 20.02076
#
# Velocity S-wave (km/s) = 3.99870 1.53839 3.02954
# Velocity P-wave (km/s) = 6.78962 5.92348 6.37128
#
# Compressibility (1/GPa) = 0.01850044
#
# Stress axis : x y z
#
# Youngs Moduli (GPa) = 66.90709 75.64924 131.08247
#
# Poissons Ratio (x) = 0.08056 0.67524
# Poissons Ratio (y) = 0.07125 0.31859
# Poissons Ratio (z) = 0.34465 0.18386
#
# Static dielectric constant tensor:
#      x y z
#    x 3.930970 0.000000 0.246350 
#    y 0.000000 4.362550 0.000000 
#    z 0.246350 0.000000 4.481080 
# 
# 
# High freq. dielectric constant tensor:
#      x y z
#    x 1.830840 0.000000 -0.000860 
#    y 0.000000 1.852970 0.000000 
#    z -0.000860 0.000000 1.884340 
# 
# From -- ./inp_files/73353.got.cif
#   From: 2010.06.25/outbox.cif.g09.slc.cpg/sg12_37_cif.got.tgz:73353.got - 2010.06.28 00:19:55.
