data_PCOD8105435
_publ_section_title
;
Structure prediction by ZEFSAII (Michael W. Deem and Ramdas Pophale) SiO2 
 PCOD8105435
Probable space group: C 2/M
;
_chemical_formula_sum "Si O2"
_cell_formula_units_Z 48
_cell_length_a 7.920653
_cell_length_b 29.672101
_cell_length_c 10.460668
_cell_angle_alpha 90.000000
_cell_angle_beta 77.538182
_cell_angle_gamma 90.000000
_cell_volume 2400.569469
_symmetry_space_group_name_H-M "C 2/M"
_symmetry_group_IT_number 12
_symmetry_cell_setting 'monoclinic'
loop_
_space_group_symop_operation_xyz
x,y,z
-x,y,-z
-x,-y,-z
x,-y,z
1/2+x,1/2+y,z
1/2-x,1/2+y,-z
1/2-x,1/2-y,-z
1/2+x,1/2-y,z
loop_
_atom_site_type_symbol
_atom_site_label
_atom_site_fract_x
_atom_site_fract_y
_atom_site_fract_z
Si Si1 0.294837 0.314391 0.875465
Si Si2 0.281618 0.549075 0.742843
Si Si3 0.000000 0.387521 0.500000
Si Si4 0.672985 0.361893 0.399068
Si Si5 0.000000 0.248113 0.000000
Si Si6 0.299121 0.094260 0.998321
Si Si7 0.613849 0.050262 0.265494
O O1 0.303095 0.331069 0.728838
O O2 0.140745 0.279857 0.916289
O O3 0.458938 0.284809 0.887645
O O4 0.275112 0.355445 0.978733
O O5 0.367515 0.500000 0.703463
O O6 0.362802 0.586276 0.635779
O O7 0.078648 0.546256 0.753466
O O8 0.306862 0.562486 0.886732
O O9 0.854397 0.357776 0.449416
O O10 0.882441 0.419144 0.609302
O O11 0.500000 0.345236 0.500000
O O12 0.268965 0.074829 0.861033
O O13 0.500000 0.095848 0.000000
O O14 0.687120 0.000000 0.283099
#
# Coordination Sequence:
#
# PCOD8105435 Si02
#       7
#     8   8   4   8   4   8   8
#     4  10  21  40  62  93 115 146 189 243 306 363
#     4   8  15  28  49  79 114 154 199 243 286 331
#     4  10  21  34  56  82 118 176 200 240 276 332
#     4  10  22  40  59  87 123 161 201 237 283 351
#     4  10  22  40  68  88 114 140 182 250 312 370
#     4   9  15  27  52  80 113 148 189 244 294 343
#     4   9  16  27  47  80 117 158 203 239 279 333
#
# _framework density 19.995256000000001
#
# number of rings (size 3 to 8) (size 9 to 14) (size 15 to 20)
#    0.000    2.667    0.833    1.750    0.000    4.333 
#    3.000    0.833    0.000    0.000    0.000    6.417 
#    0.000    0.000    0.000    0.000    0.000    0.000 
#
# Total GULP energy -297382.230018 kJ/mol
# GULP energy per Si atom -12390.926251 kJ/mol
# Density = 1.994975 g / cm^3
# Si number density = 19.995256 Si / 1000 Ang^3
#
#
#
# Elastic Constant Matrix: (Units=GPa)
#
#
# Indices 1 2 3 4 5 6 
#
# 1 49.2052 33.3468 33.8373 0.0000 2.6639 0.0000
# 2 33.3468 116.0599 48.7153 0.0000 11.5360 0.0000
# 3 33.8373 48.7153 126.9380 0.0000 3.8998 0.0000
# 4 0.0000 0.0000 0.0000 26.4380 0.0000 0.6455
# 5 2.6639 11.5360 3.8998 0.0000 15.8900 0.0000
# 6 0.0000 0.0000 0.0000 0.6455 0.0000 -7.0489
#
#
#
# Elastic Compliance Matrix: (Units=1/GPa)
#
#
# Indices 1 2 3 4 5 6 
#
# 1 0.027846 -0.005916 -0.005180 0.000000 0.000898 0.000000
# 2 -0.005916 0.012249 -0.002903 0.000000 -0.007188 0.000000
# 3 -0.005180 -0.002903 0.010359 0.000000 0.000433 0.000000
# 4 0.000000 0.000000 0.000000 0.037740 0.000000 0.003456
# 5 0.000898 -0.007188 0.000433 0.000000 0.067895 0.000000
# 6 0.000000 0.000000 0.000000 0.003456 0.000000 -0.141551
#
#
# Mechanical properties :
#
#
# Convention : Reuss Voigt Hill
#
# Bulk Modulus (GPa) = 44.53027 58.22244 51.37636
# Shear Modulus (GPa) = 99.95723 18.80940 59.38331
#
# Velocity S-wave (km/s) = 7.07806 3.07040 5.45556
# Velocity P-wave (km/s) = 9.44020 6.46151 8.08915
#
# Compressibility (1/GPa) = 0.02245663
#
# Stress axis : x y z
#
# Youngs Moduli (GPa) = 35.91214 81.63922 96.52999
#
# Poissons Ratio (x) = 0.48295 0.50003
# Poissons Ratio (y) = 0.21245 0.28023
# Poissons Ratio (z) = 0.18603 0.23700
#
# Static dielectric constant tensor:
#      x y z
#    x 4.089380 0.000000 0.320110 
#    y 0.000000 3.865680 0.000000 
#    z 0.320110 0.000000 3.832920 
# 
# 
# High freq. dielectric constant tensor:
#      x y z
#    x 1.752140 0.000000 -0.001800 
#    y 0.000000 1.776870 0.000000 
#    z -0.001800 0.000000 1.780380 
# 
# From -- ./inp_files/42266.got.cif
#   From: 2010.06.25/outbox.cif.g09.slc.cpg/sg12_22_cif.got.tgz:42266.got - 2010.06.28 00:19:55.
