data_PCOD8105627
_publ_section_title
;
Structure prediction by ZEFSAII (Michael W. Deem and Ramdas Pophale) SiO2 
 PCOD8105627
Probable space group: C 2/M
;
_chemical_formula_sum "Si O2"
_cell_formula_units_Z 48
_cell_length_a 19.544871
_cell_length_b 9.451600
_cell_length_c 20.728356
_cell_angle_alpha 90.000000
_cell_angle_beta 39.306357
_cell_angle_gamma 90.000000
_cell_volume 2425.642588
_symmetry_space_group_name_H-M "C 2/M"
_symmetry_group_IT_number 12
_symmetry_cell_setting 'monoclinic'
loop_
_space_group_symop_operation_xyz
x,y,z
-x,y,-z
-x,-y,-z
x,-y,z
1/2+x,1/2+y,z
1/2-x,1/2+y,-z
1/2-x,1/2-y,-z
1/2+x,1/2-y,z
loop_
_atom_site_type_symbol
_atom_site_label
_atom_site_fract_x
_atom_site_fract_y
_atom_site_fract_z
Si Si1 0.264181 0.835590 0.191243
Si Si2 0.803359 0.333799 0.367104
Si Si3 0.450259 0.165905 0.145056
Si Si4 0.076578 0.339197 0.386507
Si Si5 0.692072 0.832239 0.984217
Si Si6 0.878803 0.340763 0.450955
O O1 0.387621 0.799150 0.123657
O O2 0.182417 0.753402 0.297574
O O3 0.241867 0.000000 0.220112
O O4 0.248735 0.798648 0.127059
O O5 0.783007 0.500000 0.374972
O O6 0.876952 0.273572 0.256290
O O7 0.864075 0.290591 0.388534
O O8 0.687680 0.256518 0.450465
O O9 0.570601 0.229171 0.063312
O O10 0.465023 0.000000 0.142096
O O11 0.112811 0.500000 0.375326
O O12 0.000000 0.282166 0.500000
O O13 0.005673 0.330768 0.373134
O O14 0.694542 0.000000 0.997155
O O15 0.750000 0.750000 0.000000
O O16 0.835643 0.500000 0.491611
#
# Coordination Sequence:
#
# PCOD8105627 Si02
#       6
#     8   8   8   8   8   8
#     4  10  21  37  58  85 112 145 190 234 276 325
#     4   9  17  30  51  76  99 137 185 224 269 320
#     4   9  18  35  59  80 106 144 185 226 274 331
#     4  10  21  35  53  79 114 153 187 221 276 339
#     4  10  22  39  60  85 113 145 185 232 282 334
#     4   9  18  31  47  72 107 142 179 222 269 323
#
# _framework density 19.788571000000001
#
# number of rings (size 3 to 8) (size 9 to 14) (size 15 to 20)
#    0.000    2.500    0.000    1.500    2.333    3.667 
#    0.000    1.667    0.000    2.000    0.000    0.000 
#    0.000    0.000    0.000    0.000    0.000    0.000 
#
# Total GULP energy -297485.127154 kJ/mol
# GULP energy per Si atom -12395.213631 kJ/mol
# Density = 1.974353 g / cm^3
# Si number density = 19.788571 Si / 1000 Ang^3
#
#
#
# Elastic Constant Matrix: (Units=GPa)
#
#
# Indices 1 2 3 4 5 6 
#
# 1 112.5645 34.4486 48.6424 0.0001 -0.6219 -0.0001
# 2 34.4486 50.1205 43.5828 0.0003 -2.5014 -0.0003
# 3 48.6424 43.5828 101.6182 0.0000 -1.1864 0.0000
# 4 0.0001 0.0003 0.0000 26.1636 0.0000 0.6942
# 5 -0.6219 -2.5014 -1.1864 0.0000 31.6004 0.0000
# 6 -0.0001 -0.0003 0.0000 0.6942 0.0000 25.4416
#
#
#
# Elastic Compliance Matrix: (Units=1/GPa)
#
#
# Indices 1 2 3 4 5 6 
#
# 1 0.011992 -0.005204 -0.003512 0.000000 -0.000308 0.000000
# 2 -0.005204 0.034204 -0.012154 0.000000 0.002149 0.000000
# 3 -0.003512 -0.012154 0.016730 0.000000 -0.000403 0.000000
# 4 0.000000 0.000000 0.000000 0.038249 0.000000 -0.001044
# 5 -0.000308 0.002149 -0.000403 0.000000 0.031794 0.000000
# 6 0.000000 0.000000 0.000000 -0.001044 0.000000 0.039334
#
#
# Mechanical properties :
#
#
# Convention : Reuss Voigt Hill
#
# Bulk Modulus (GPa) = 47.19891 57.51675 52.35783
# Shear Modulus (GPa) = 22.61364 25.81640 24.21502
#
# Velocity S-wave (km/s) = 3.38414 3.61586 3.50192
# Velocity P-wave (km/s) = 6.25886 6.82359 6.54731
#
# Compressibility (1/GPa) = 0.02118693
#
# Stress axis : x y z
#
# Youngs Moduli (GPa) = 83.38626 29.23609 59.77325
#
# Poissons Ratio (x) = 0.15214 0.20994
# Poissons Ratio (y) = 0.43393 0.72647
# Poissons Ratio (z) = 0.29287 0.35533
#
# Static dielectric constant tensor:
#      x y z
#    x 3.771230 0.000000 0.043730 
#    y 0.000000 3.292350 0.000000 
#    z 0.043730 0.000000 3.642630 
# 
# 
# High freq. dielectric constant tensor:
#      x y z
#    x 1.787800 0.000000 0.007360 
#    y 0.000000 1.736380 0.000000 
#    z 0.007360 0.000000 1.769040 
# 
# From -- ./inp_files/319549.got.cif
#   From: 2010.06.25/outbox.cif.g09.slc.cpg/sg12_160_cif.got.tgz:319549.got - 2010.06.28 00:19:55.
