data_PCOD8105652
_publ_section_title
;
Structure prediction by ZEFSAII (Michael W. Deem and Ramdas Pophale) SiO2 
 PCOD8105652
Probable space group: C 2/M
;
_chemical_formula_sum "Si O2"
_cell_formula_units_Z 40
_cell_length_a 30.299152
_cell_length_b 8.812654
_cell_length_c 7.634728
_cell_angle_alpha 90.000000
_cell_angle_beta 103.568614
_cell_angle_gamma 90.000000
_cell_volume 1981.696249
_symmetry_space_group_name_H-M "C 2/M"
_symmetry_group_IT_number 12
_symmetry_cell_setting 'monoclinic'
loop_
_space_group_symop_operation_xyz
x,y,z
-x,y,-z
-x,-y,-z
x,-y,z
1/2+x,1/2+y,z
1/2-x,1/2+y,-z
1/2-x,1/2-y,-z
1/2+x,1/2-y,z
loop_
_atom_site_type_symbol
_atom_site_label
_atom_site_fract_x
_atom_site_fract_y
_atom_site_fract_z
Si Si1 0.454142 0.670178 0.356511
Si Si2 0.140562 0.177541 0.092661
Si Si3 0.855431 0.171153 0.314186
Si Si4 0.951142 0.325020 0.008747
Si Si5 0.200909 0.678575 0.441580
O O1 0.500000 0.703559 0.500000
O O2 0.455637 0.500000 0.272597
O O3 0.408098 0.680388 0.428475
O O4 0.449429 0.804611 0.214426
O O5 0.178002 0.260493 0.243407
O O6 0.144069 0.000000 0.131001
O O7 0.148486 0.217140 0.895007
O O8 0.090920 0.232964 0.113011
O O9 0.826594 0.282690 0.407600
O O10 0.837096 0.000000 0.322807
O O11 0.946497 0.500000 0.949968
O O12 0.000000 0.257030 0.000000
O O13 0.205190 0.500000 0.430370
O O14 0.250000 0.750000 0.500000
#
# Coordination Sequence:
#
# PCOD8105652 Si02
#       5
#     8   8   8   8   8
#     4   9  19  35  56  85 117 159 206 245 295 358
#     4  10  22  42  66  90 122 163 206 254 307 366
#     4   9  20  40  63  90 124 161 205 255 306 364
#     4  10  21  35  53  85 123 159 201 247 300 358
#     4  12  26  43  66  94 124 160 205 255 312 370
#
# _framework density 20.184729000000001
#
# number of rings (size 3 to 8) (size 9 to 14) (size 15 to 20)
#    0.000    2.000    0.000    4.200    2.800    6.800 
#    0.000    0.000    0.000    0.000    0.000    0.000 
#    0.000    0.000    0.000    0.000    0.000    0.000 
#
# Total GULP energy -247889.270997 kJ/mol
# GULP energy per Si atom -12394.463550 kJ/mol
# Density = 2.013879 g / cm^3
# Si number density = 20.184729 Si / 1000 Ang^3
#
#
#
# Elastic Constant Matrix: (Units=GPa)
#
#
# Indices 1 2 3 4 5 6 
#
# 1 153.6629 63.6637 69.5126 0.0000 24.8574 0.0000
# 2 63.6637 115.9566 51.3265 0.0000 11.7733 0.0000
# 3 69.5126 51.3265 97.7369 0.0000 19.3030 0.0000
# 4 0.0000 0.0000 0.0000 33.7950 0.0000 -1.5335
# 5 24.8574 11.7733 19.3030 0.0000 34.2637 0.0000
# 6 0.0000 0.0000 0.0000 -1.5335 0.0000 35.5523
#
#
#
# Elastic Compliance Matrix: (Units=1/GPa)
#
#
# Indices 1 2 3 4 5 6 
#
# 1 0.010843 -0.003239 -0.005263 0.000000 -0.003789 0.000000
# 2 -0.003239 0.012214 -0.004215 0.000000 0.000527 0.000000
# 3 -0.005263 -0.004215 0.017044 0.000000 -0.004336 0.000000
# 4 0.000000 0.000000 0.000000 0.029648 0.000000 0.001279
# 5 -0.003789 0.000527 -0.004336 0.000000 0.034196 0.000000
# 6 0.000000 0.000000 0.000000 0.001279 0.000000 0.028183
#
#
# Mechanical properties :
#
#
# Convention : Reuss Voigt Hill
#
# Bulk Modulus (GPa) = 68.17252 81.81800 74.99526
# Shear Modulus (GPa) = 30.77845 32.91243 31.84544
#
# Velocity S-wave (km/s) = 3.90915 4.04240 3.97634
# Velocity P-wave (km/s) = 7.36362 7.90004 7.63654
#
# Compressibility (1/GPa) = 0.01466867
#
# Stress axis : x y z
#
# Youngs Moduli (GPa) = 92.22244 81.87068 58.67092
#
# Poissons Ratio (x) = 0.26520 0.30877
# Poissons Ratio (y) = 0.29873 0.24728
# Poissons Ratio (z) = 0.48534 0.34506
#
# Static dielectric constant tensor:
#      x y z
#    x 3.963640 0.000000 0.224120 
#    y 0.000000 3.609070 0.000000 
#    z 0.224120 0.000000 3.445540 
# 
# 
# High freq. dielectric constant tensor:
#      x y z
#    x 1.798250 0.000000 0.010380 
#    y 0.000000 1.788420 0.000000 
#    z 0.010380 0.000000 1.776430 
# 
# From -- ./inp_files/93026.got.cif
#   From: 2010.06.25/outbox.cif.g09.slc.cpg/sg12_47_cif.got.tgz:93026.got - 2010.06.28 00:19:55.
