data_PCOD8105004
_publ_section_title
;
Structure prediction by ZEFSAII (Michael W. Deem and Ramdas Pophale) SiO2 
 PCOD8105004
Probable space group: C 2/M
;
_chemical_formula_sum "Si O2"
_cell_formula_units_Z 52
_cell_length_a 26.053492
_cell_length_b 16.199802
_cell_length_c 9.540223
_cell_angle_alpha 90.000000
_cell_angle_beta 39.511204
_cell_angle_gamma 90.000000
_cell_volume 2561.814624
_symmetry_space_group_name_H-M "C 2/M"
_symmetry_group_IT_number 12
_symmetry_cell_setting 'monoclinic'
loop_
_space_group_symop_operation_xyz
x,y,z
-x,y,-z
-x,-y,-z
x,-y,z
1/2+x,1/2+y,z
1/2-x,1/2+y,-z
1/2-x,1/2-y,-z
1/2+x,1/2-y,z
loop_
_atom_site_type_symbol
_atom_site_label
_atom_site_fract_x
_atom_site_fract_y
_atom_site_fract_z
Si Si1 0.468894 0.091076 0.909652
Si Si2 0.000000 0.159993 0.500000
Si Si3 0.750291 0.216949 0.154022
Si Si4 0.378779 0.594615 0.973758
Si Si5 0.365468 0.680951 0.285502
Si Si6 0.427706 0.238875 0.410589
Si Si7 0.803598 0.663908 0.270515
O O1 0.506405 0.166107 0.741427
O O2 0.494092 0.000000 0.799267
O O3 0.500000 0.102956 0.000000
O O4 0.371153 0.093480 0.110698
O O5 0.949516 0.102901 0.711389
O O6 0.941919 0.216509 0.528419
O O7 0.660860 0.199278 0.398603
O O8 0.796054 0.288533 0.140642
O O9 0.750000 0.250000 0.000000
O O10 0.797891 0.131729 0.076227
O O11 0.362966 0.500000 0.041853
O O12 0.404670 0.639995 0.064769
O O13 0.429597 0.693055 0.278383
O O14 0.284928 0.628291 0.498988
O O15 0.335758 0.774095 0.321468
#
# Coordination Sequence:
#
# PCOD8105004 Si02
#       7
#     8   4   8   8   8   8   8
#     4  11  23  36  58  95 133 160 192 254 319 358
#     4  12  25  40  67  88 126 164 202 258 307 382
#     4  10  20  40  66  89 116 163 213 248 297 368
#     4  11  24  41  63  93 124 156 202 265 320 358
#     4   9  19  38  64  87 112 160 216 253 290 363
#     4  11  22  40  66  92 121 164 215 247 297 379
#     4   9  18  36  60  87 119 156 210 250 285 362
#
# _framework density 20.298110999999999
#
# number of rings (size 3 to 8) (size 9 to 14) (size 15 to 20)
#    0.000    1.692    3.077    3.000    0.000    1.231 
#    0.000    3.462    0.000    0.000    0.000    0.000 
#    0.000    0.000    0.000    0.000    0.000    0.000 
#
# Total GULP energy -322276.607939 kJ/mol
# GULP energy per Si atom -12395.254152 kJ/mol
# Density = 2.025191 g / cm^3
# Si number density = 20.298111 Si / 1000 Ang^3
#
#
#
# Elastic Constant Matrix: (Units=GPa)
#
#
# Indices 1 2 3 4 5 6 
#
# 1 105.8990 32.0953 36.9811 0.0000 9.5050 0.0000
# 2 32.0953 84.4024 35.1301 0.0000 1.2549 0.0000
# 3 36.9811 35.1301 102.1552 0.0000 5.3915 0.0000
# 4 0.0000 0.0000 0.0000 24.1314 0.0000 -5.4220
# 5 9.5050 1.2549 5.3915 0.0000 37.0121 0.0000
# 6 0.0000 0.0000 0.0000 -5.4220 0.0000 13.9235
#
#
#
# Elastic Compliance Matrix: (Units=1/GPa)
#
#
# Indices 1 2 3 4 5 6 
#
# 1 0.011669 -0.003147 -0.003013 0.000000 -0.002451 0.000000
# 2 -0.003147 0.014678 -0.003955 0.000000 0.000887 0.000000
# 3 -0.003013 -0.003955 0.012286 0.000000 -0.000882 0.000000
# 4 0.000000 0.000000 0.000000 0.045413 0.000000 0.017685
# 5 -0.002451 0.000887 -0.000882 0.000000 0.027746 0.000000
# 6 0.000000 0.000000 0.000000 0.017685 0.000000 0.078708
#
#
# Mechanical properties :
#
#
# Convention : Reuss Voigt Hill
#
# Bulk Modulus (GPa) = 54.33751 55.65218 54.99485
# Shear Modulus (GPa) = 23.05596 27.56339 25.30967
#
# Velocity S-wave (km/s) = 3.37392 3.68901 3.53498
# Velocity P-wave (km/s) = 6.48117 6.75440 6.61920
#
# Compressibility (1/GPa) = 0.01840349
#
# Stress axis : x y z
#
# Youngs Moduli (GPa) = 85.69899 68.13083 81.39150
#
# Poissons Ratio (x) = 0.21440 0.24521
# Poissons Ratio (y) = 0.26968 0.32191
# Poissons Ratio (z) = 0.25818 0.26946
#
# Static dielectric constant tensor:
#      x y z
#    x 3.980400 0.000000 -0.089860 
#    y 0.000000 3.315000 0.000000 
#    z -0.089860 0.000000 3.829430 
# 
# 
# High freq. dielectric constant tensor:
#      x y z
#    x 1.803180 0.000000 -0.002550 
#    y 0.000000 1.751240 0.000000 
#    z -0.002550 0.000000 1.802850 
# 
# From -- ./inp_files/105758.got.cif
#   From: 2010.06.25/outbox.cif.g09.slc.cpg/sg12_53_cif.got.tgz:105758.got - 2010.06.28 00:19:55.
