data_PCOD8105307
_publ_section_title
;
Structure prediction by ZEFSAII (Michael W. Deem and Ramdas Pophale) SiO2 
 PCOD8105307
Probable space group: C 2/M
;
_chemical_formula_sum "Si O2"
_cell_formula_units_Z 56
_cell_length_a 13.556215
_cell_length_b 13.618592
_cell_length_c 16.941360
_cell_angle_alpha 90.000000
_cell_angle_beta 115.376760
_cell_angle_gamma 90.000000
_cell_volume 2825.865634
_symmetry_space_group_name_H-M "C 2/M"
_symmetry_group_IT_number 12
_symmetry_cell_setting 'monoclinic'
loop_
_space_group_symop_operation_xyz
x,y,z
-x,y,-z
-x,-y,-z
x,-y,z
1/2+x,1/2+y,z
1/2-x,1/2+y,-z
1/2-x,1/2-y,-z
1/2+x,1/2-y,z
loop_
_atom_site_type_symbol
_atom_site_label
_atom_site_fract_x
_atom_site_fract_y
_atom_site_fract_z
Si Si1 0.244101 0.612705 0.453921
Si Si2 0.569059 0.687872 0.179549
Si Si3 0.250901 0.189419 0.817145
Si Si4 0.340254 0.388124 0.064523
Si Si5 0.109816 0.793642 0.375594
Si Si6 0.739770 0.393229 0.137340
Si Si7 0.401661 0.388702 0.365623
O O1 0.205525 0.500000 0.439960
O O2 0.140000 0.678368 0.393059
O O3 0.288047 0.643511 0.555399
O O4 0.344772 0.632058 0.429253
O O5 0.624126 0.791501 0.169386
O O6 0.441323 0.684946 0.116043
O O7 0.589231 0.672932 0.279276
O O8 0.627963 0.600630 0.150404
O O9 0.251782 0.133524 0.901009
O O10 0.192436 0.298978 0.806494
O O11 0.187299 0.124250 0.733074
O O12 0.380654 0.500000 0.085244
O O13 0.288482 0.367124 0.962423
O O14 0.001271 0.814009 0.389131
O O15 0.799402 0.500000 0.164102
O O16 0.446779 0.500000 0.377221
#
# Coordination Sequence:
#
# PCOD8105307 Si02
#       7
#     8   8   8   8   8   8   8
#     4  10  22  39  60  85 115 149 183 229 282 330
#     4  10  21  33  55  84 114 144 182 238 278 323
#     4  10  21  34  53  85 116 143 179 235 279 326
#     4  11  20  36  60  83 108 147 193 234 274 325
#     4  11  21  37  59  87 115 144 188 233 274 332
#     4   9  20  35  53  80 116 148 184 230 279 329
#     4  11  21  38  61  86 110 145 191 232 273 327
#
# _framework density 19.816935999999998
#
# number of rings (size 3 to 8) (size 9 to 14) (size 15 to 20)
#    0.857    0.857    2.857    2.571    0.000    4.000 
#    0.000    0.714    0.000    9.429    0.000    6.000 
#    0.000    0.000    0.000    0.000    0.000    0.000 
#
# Total GULP energy -346939.541893 kJ/mol
# GULP energy per Si atom -12390.697925 kJ/mol
# Density = 1.977183 g / cm^3
# Si number density = 19.816936 Si / 1000 Ang^3
#
#
#
# Elastic Constant Matrix: (Units=GPa)
#
#
# Indices 1 2 3 4 5 6 
#
# 1 71.6160 32.6753 13.2069 0.0000 -3.5345 0.0000
# 2 32.6753 78.8442 18.2788 0.0000 -6.6293 0.0000
# 3 13.2069 18.2788 54.5876 0.0000 -17.2249 0.0000
# 4 0.0000 0.0000 0.0000 22.4312 0.0000 1.3058
# 5 -3.5345 -6.6293 -17.2249 0.0000 23.0168 0.0000
# 6 0.0000 0.0000 0.0000 1.3058 0.0000 30.7981
#
#
#
# Elastic Compliance Matrix: (Units=1/GPa)
#
#
# Indices 1 2 3 4 5 6 
#
# 1 0.017424 -0.006781 -0.002248 0.000000 -0.000959 0.000000
# 2 -0.006781 0.016397 -0.003520 0.000000 0.001047 0.000000
# 3 -0.002248 -0.003520 0.025676 0.000000 0.017856 0.000000
# 4 0.000000 0.000000 0.000000 0.044691 0.000000 -0.001895
# 5 -0.000959 0.001047 0.017856 0.000000 0.056964 0.000000
# 6 0.000000 0.000000 0.000000 -0.001895 0.000000 0.032550
#
#
# Mechanical properties :
#
#
# Convention : Reuss Voigt Hill
#
# Bulk Modulus (GPa) = 29.06866 37.04110 33.05488
# Shear Modulus (GPa) = 21.71405 24.64168 23.17786
#
# Velocity S-wave (km/s) = 3.31377 3.53011 3.42365
# Velocity P-wave (km/s) = 5.41682 5.94540 5.68725
#
# Compressibility (1/GPa) = 0.03440131
#
# Stress axis : x y z
#
# Youngs Moduli (GPa) = 57.39124 60.98526 38.94689
#
# Poissons Ratio (x) = 0.41352 0.08755
# Poissons Ratio (y) = 0.38915 0.13708
# Poissons Ratio (z) = 0.12901 0.21465
#
# Static dielectric constant tensor:
#      x y z
#    x 3.489840 0.000000 -0.306290 
#    y 0.000000 3.573750 0.000000 
#    z -0.306290 0.000000 3.528570 
# 
# 
# High freq. dielectric constant tensor:
#      x y z
#    x 1.754260 0.000000 -0.030030 
#    y 0.000000 1.766460 0.000000 
#    z -0.030030 0.000000 1.771940 
# 
# From -- ./inp_files/263429.got.cif
#   From: 2010.06.25/outbox.cif.g09.slc.cpg/sg12_132_cif.got.tgz:263429.got - 2010.06.28 00:19:55.
