data_PCOD8105433
_publ_section_title
;
Structure prediction by ZEFSAII (Michael W. Deem and Ramdas Pophale) SiO2 
 PCOD8105433
Probable space group: C 2/M
;
_chemical_formula_sum "Si O2"
_cell_formula_units_Z 56
_cell_length_a 29.863524
_cell_length_b 19.391161
_cell_length_c 5.319169
_cell_angle_alpha 90.000000
_cell_angle_beta 120.973090
_cell_angle_gamma 90.000000
_cell_volume 2641.050746
_symmetry_space_group_name_H-M "C 2/M"
_symmetry_group_IT_number 12
_symmetry_cell_setting 'monoclinic'
loop_
_space_group_symop_operation_xyz
x,y,z
-x,y,-z
-x,-y,-z
x,-y,z
1/2+x,1/2+y,z
1/2-x,1/2+y,-z
1/2-x,1/2-y,-z
1/2+x,1/2-y,z
loop_
_atom_site_type_symbol
_atom_site_label
_atom_site_fract_x
_atom_site_fract_y
_atom_site_fract_z
Si Si1 0.561715 0.344941 0.656679
Si Si2 0.622760 0.772524 0.008911
Si Si3 0.533408 0.867071 0.847323
Si Si4 0.668593 0.000000 0.754834
Si Si5 0.207232 0.351180 0.953228
Si Si6 0.561636 0.576337 0.159698
Si Si7 0.898399 0.500000 0.945918
Si Si8 0.707533 0.271008 0.573977
O O1 0.500000 0.328925 0.500000
O O2 0.580171 0.388077 0.469895
O O3 0.594850 0.274358 0.716806
O O4 0.579294 0.383223 0.962223
O O5 0.652928 0.717092 0.274217
O O6 0.575451 0.807478 0.022789
O O7 0.661857 0.833073 0.025525
O O8 0.500000 0.851882 0.500000
O O9 0.500000 0.872101 0.000000
O O10 0.564191 0.936757 0.898207
O O11 0.702977 0.070404 0.838358
O O12 0.627188 0.000000 0.406939
O O13 0.644852 0.000000 0.963490
O O14 0.196525 0.294892 0.712612
O O15 0.267685 0.338720 0.218751
O O16 0.586342 0.500000 0.217138
O O17 0.500000 0.570907 0.000000
O O18 0.750000 0.250000 0.500000
#
# Coordination Sequence:
#
# PCOD8105433 Si02
#       8
#     8   8   8   4   8   8   4   8
#     4  10  21  34  55  90 122 164 209 257 307 375
#     4  11  23  38  64  91 134 173 221 273 326 398
#     4  12  26  41  62  93 141 190 236 278 325 377
#     4  12  24  41  76 102 134 174 234 282 337 410
#     4  10  22  42  69  99 126 168 219 279 337 407
#     4   9  18  35  57  80 112 154 206 256 306 363
#     4  12  24  45  62  96 138 190 236 275 327 386
#     4   9  21  42  68  95 122 162 215 271 347 400
#
# _framework density 21.203682000000001
#
# number of rings (size 3 to 8) (size 9 to 14) (size 15 to 20)
#    0.000    1.571    1.429    3.000    6.000    3.429 
#    0.000    0.000    3.143    0.000    1.857    0.000 
#    0.000    0.000    0.000    0.000    0.000    0.000 
#
# Total GULP energy -346888.186242 kJ/mol
# GULP energy per Si atom -12388.863794 kJ/mol
# Density = 2.115542 g / cm^3
# Si number density = 21.203682 Si / 1000 Ang^3
#
#
#
# Elastic Constant Matrix: (Units=GPa)
#
#
# Indices 1 2 3 4 5 6 
#
# 1 40.3849 22.9325 32.6936 0.0000 4.0937 0.0000
# 2 22.9325 93.4676 27.0091 0.0000 26.0083 0.0000
# 3 32.6936 27.0091 108.0897 0.0000 6.6591 0.0000
# 4 0.0000 0.0000 0.0000 32.1261 0.0000 4.9299
# 5 4.0937 26.0083 6.6591 0.0000 38.0837 0.0000
# 6 0.0000 0.0000 0.0000 4.9299 0.0000 36.6813
#
#
#
# Elastic Compliance Matrix: (Units=1/GPa)
#
#
# Indices 1 2 3 4 5 6 
#
# 1 0.035914 -0.006789 -0.009314 0.000000 0.002405 0.000000
# 2 -0.006789 0.015370 -0.001198 0.000000 -0.009557 0.000000
# 3 -0.009314 -0.001198 0.012390 0.000000 -0.000347 0.000000
# 4 0.000000 0.000000 0.000000 0.031783 0.000000 -0.004272
# 5 0.002405 -0.009557 -0.000347 0.000000 0.032587 0.000000
# 6 0.000000 0.000000 0.000000 -0.004272 0.000000 0.027836
#
#
# Mechanical properties :
#
#
# Convention : Reuss Voigt Hill
#
# Bulk Modulus (GPa) = 34.39984 45.24587 39.82285
# Shear Modulus (GPa) = 24.97836 31.99869 28.48852
#
# Velocity S-wave (km/s) = 3.43595 3.88894 3.66944
# Velocity P-wave (km/s) = 5.65683 6.44594 6.06424
#
# Compressibility (1/GPa) = 0.02906990
#
# Stress axis : x y z
#
# Youngs Moduli (GPa) = 27.84461 65.06025 80.71215
#
# Poissons Ratio (x) = 0.44170 0.75179
# Poissons Ratio (y) = 0.18904 0.09673
# Poissons Ratio (z) = 0.25936 0.07797
#
# Static dielectric constant tensor:
#      x y z
#    x 3.737090 0.000000 0.109550 
#    y 0.000000 4.082440 0.000000 
#    z 0.109550 0.000000 3.990660 
# 
# 
# High freq. dielectric constant tensor:
#      x y z
#    x 1.819450 0.000000 -0.005580 
#    y 0.000000 1.828090 0.000000 
#    z -0.005580 0.000000 1.840980 
# 
# From -- ./inp_files/32128.got.cif
#   From: 2010.06.25/outbox.cif.g09.slc.cpg/sg12_17_cif.got.tgz:32128.got - 2010.06.28 00:19:55.
