data_PCOD8105299
_publ_section_title
;
Structure prediction by ZEFSAII (Michael W. Deem and Ramdas Pophale) SiO2 
 PCOD8105299
Probable space group: C 2/M
;
_chemical_formula_sum "Si O2"
_cell_formula_units_Z 48
_cell_length_a 23.850942
_cell_length_b 9.093545
_cell_length_c 11.995769
_cell_angle_alpha 90.000000
_cell_angle_beta 90.602058
_cell_angle_gamma 90.000000
_cell_volume 2601.614076
_symmetry_space_group_name_H-M "C 2/M"
_symmetry_group_IT_number 12
_symmetry_cell_setting 'monoclinic'
loop_
_space_group_symop_operation_xyz
x,y,z
-x,y,-z
-x,-y,-z
x,-y,z
1/2+x,1/2+y,z
1/2-x,1/2+y,-z
1/2-x,1/2-y,-z
1/2+x,1/2-y,z
loop_
_atom_site_type_symbol
_atom_site_label
_atom_site_fract_x
_atom_site_fract_y
_atom_site_fract_z
Si Si1 0.480957 0.174684 0.172025
Si Si2 0.950778 0.673701 0.414975
Si Si3 0.162142 0.171420 0.515688
Si Si4 0.585940 0.174715 0.040239
Si Si5 0.210037 0.326876 0.086101
Si Si6 0.768931 0.670038 0.661585
O O1 0.466986 0.237616 0.293667
O O2 0.541690 0.233256 0.131835
O O3 0.482642 0.000000 0.177035
O O4 0.433449 0.227120 0.083258
O O5 0.940858 0.500000 0.411633
O O6 0.894439 0.748472 0.453814
O O7 0.000000 0.717265 0.500000
O O8 0.184348 0.233511 0.399094
O O9 0.207360 0.204647 0.613077
O O10 0.150451 0.000000 0.501531
O O11 0.647352 0.237250 0.068330
O O12 0.586566 0.000000 0.045062
O O13 0.211615 0.500000 0.064464
O O14 0.231285 0.286048 0.209376
O O15 0.250000 0.250000 0.000000
O O16 0.785189 0.500000 0.644397
#
# Coordination Sequence:
#
# PCOD8105299 Si02
#       6
#     8   8   8   8   8   8
#     4   8  15  29  49  75 102 131 171 214 258 306
#     4  10  21  33  53  82 108 138 177 223 267 317
#     4  10  21  37  56  78 107 144 180 224 275 320
#     4   8  15  29  50  74 101 133 170 213 256 304
#     4  10  21  34  54  81 109 140 173 216 265 315
#     4   9  20  38  57  78 106 143 184 224 267 318
#
# _framework density 18.450084
#
# number of rings (size 3 to 8) (size 9 to 14) (size 15 to 20)
#    0.000    2.833    0.000    1.500    4.667    1.667 
#    0.000    0.000    0.000    0.000    0.000    2.333 
#    0.000    0.000    0.000    0.000    0.000    0.000 
#
# Total GULP energy -297575.743655 kJ/mol
# GULP energy per Si atom -12398.989319 kJ/mol
# Density = 1.840809 g / cm^3
# Si number density = 18.450084 Si / 1000 Ang^3
#
#
#
# Elastic Constant Matrix: (Units=GPa)
#
#
# Indices 1 2 3 4 5 6 
#
# 1 156.6156 43.4115 86.0205 0.0000 -8.8822 0.0000
# 2 43.4115 26.2062 41.5614 0.0000 -0.7453 0.0000
# 3 86.0205 41.5614 161.3862 0.0000 -6.5133 0.0000
# 4 0.0000 0.0000 0.0000 18.5477 0.0000 -8.3567
# 5 -8.8822 -0.7453 -6.5133 0.0000 23.0116 0.0000
# 6 0.0000 0.0000 0.0000 -8.3567 0.0000 24.6288
#
#
#
# Elastic Compliance Matrix: (Units=1/GPa)
#
#
# Indices 1 2 3 4 5 6 
#
# 1 0.012556 -0.017440 -0.002052 0.000000 0.003701 0.000000
# 2 -0.017440 0.088887 -0.013909 0.000000 -0.007790 0.000000
# 3 -0.002052 -0.013909 0.010947 0.000000 0.001856 0.000000
# 4 0.000000 0.000000 0.000000 0.063645 0.000000 0.021595
# 5 0.003701 -0.007790 0.001856 0.000000 0.045158 0.000000
# 6 0.000000 0.000000 0.000000 0.021595 0.000000 0.047930
#
#
# Mechanical properties :
#
#
# Convention : Reuss Voigt Hill
#
# Bulk Modulus (GPa) = 21.93597 76.24387 49.08992
# Shear Modulus (GPa) = 14.24004 24.78524 19.51264
#
# Velocity S-wave (km/s) = 2.78117 3.66917 3.25559
# Velocity P-wave (km/s) = 4.71470 7.70484 6.38721
#
# Compressibility (1/GPa) = 0.04558722
#
# Stress axis : x y z
#
# Youngs Moduli (GPa) = 79.64265 11.25019 91.34980
#
# Poissons Ratio (x) = 0.19621 0.18743
# Poissons Ratio (y) = 1.38899 1.27063
# Poissons Ratio (z) = 0.16341 0.15648
#
# Static dielectric constant tensor:
#      x y z
#    x 3.586910 0.000000 0.060020 
#    y 0.000000 3.020340 0.000000 
#    z 0.060020 0.000000 3.681090 
# 
# 
# High freq. dielectric constant tensor:
#      x y z
#    x 1.725330 0.000000 0.000670 
#    y 0.000000 1.673640 0.000000 
#    z 0.000670 0.000000 1.726980 
# 
# From -- ./inp_files/172246.got.cif
#   From: 2010.06.25/outbox.cif.g09.slc.cpg/sg12_87_cif.got.tgz:172246.got - 2010.06.28 00:19:55.
