data_PCOD8105495
_publ_section_title
;
Structure prediction by ZEFSAII (Michael W. Deem and Ramdas Pophale) SiO2 
 PCOD8105495
Probable space group: C 2/M
;
_chemical_formula_sum "Si O2"
_cell_formula_units_Z 64
_cell_length_a 14.163087
_cell_length_b 9.364963
_cell_length_c 30.242915
_cell_angle_alpha 90.000000
_cell_angle_beta 120.210727
_cell_angle_gamma 90.000000
_cell_volume 3466.507591
_symmetry_space_group_name_H-M "C 2/M"
_symmetry_group_IT_number 12
_symmetry_cell_setting 'monoclinic'
loop_
_space_group_symop_operation_xyz
x,y,z
-x,y,-z
-x,-y,-z
x,-y,z
1/2+x,1/2+y,z
1/2-x,1/2+y,-z
1/2-x,1/2-y,-z
1/2+x,1/2-y,z
loop_
_atom_site_type_symbol
_atom_site_label
_atom_site_fract_x
_atom_site_fract_y
_atom_site_fract_z
Si Si1 0.717238 0.333976 0.857695
Si Si2 0.929806 0.162766 0.615662
Si Si3 0.171925 0.166525 0.685559
Si Si4 0.521647 0.335087 0.874847
Si Si5 0.275260 0.332438 0.399060
Si Si6 0.778479 0.833300 0.788214
Si Si7 0.040250 0.334354 0.056839
Si Si8 0.149091 0.163096 0.493156
O O1 0.704738 0.500000 0.841728
O O2 0.619044 0.282944 0.866041
O O3 0.711621 0.241261 0.811924
O O4 0.830643 0.304671 0.909580
O O5 0.840859 0.266066 0.615378
O O6 0.946689 0.187147 0.565840
O O7 0.044601 0.190736 0.666771
O O8 0.891759 0.000000 0.614696
O O9 0.189790 0.226053 0.640260
O O10 0.245345 0.261975 0.734534
O O11 0.203721 0.000000 0.698171
O O12 0.536636 0.500000 0.890705
O O13 0.407463 0.306839 0.823458
O O14 0.527272 0.248039 0.921612
O O15 0.257578 0.500000 0.390993
O O16 0.368823 0.295746 0.458939
O O17 0.749118 0.000000 0.781042
O O18 0.012614 0.500000 0.056327
O O19 0.000000 0.277627 0.000000
O O20 0.250000 0.250000 0.500000
O O21 0.185940 0.000000 0.501705
#
# Coordination Sequence:
#
# PCOD8105495 Si02
#       8
#     8   8   8   8   8   8   8   8
#     4   9  18  35  56  75 101 137 171 204 246 294
#     4   9  18  32  50  71  96 126 159 195 239 294
#     4  10  21  35  50  71  98 128 161 199 249 302
#     4   9  19  35  54  75  99 133 174 209 246 291
#     4   9  18  32  50  72  98 126 158 197 241 291
#     4  10  21  36  52  72  97 125 165 214 253 290
#     4   9  18  32  51  79 113 142 168 202 243 287
#     4   8  14  27  47  69  93 122 155 192 234 284
#
# _framework density 18.462385000000001
#
# number of rings (size 3 to 8) (size 9 to 14) (size 15 to 20)
#    0.000    2.875    0.000    0.375    0.000    4.250 
#    0.000    6.250    0.000    0.000    0.000    9.625 
#    0.000    0.000    0.000    0.000    0.000    0.000 
#
# Total GULP energy -396572.409299 kJ/mol
# GULP energy per Si atom -12392.887791 kJ/mol
# Density = 1.842036 g / cm^3
# Si number density = 18.462385 Si / 1000 Ang^3
#
#
#
# Elastic Constant Matrix: (Units=GPa)
#
#
# Indices 1 2 3 4 5 6 
#
# 1 80.5520 27.2912 38.8951 0.0000 -17.6132 0.0000
# 2 27.2912 49.4740 49.1918 0.0000 -9.1155 0.0000
# 3 38.8951 49.1918 124.7967 0.0000 -11.0784 0.0000
# 4 0.0000 0.0000 0.0000 30.4872 0.0000 -2.9671
# 5 -17.6132 -9.1155 -11.0784 0.0000 22.3397 0.0000
# 6 0.0000 0.0000 0.0000 -2.9671 0.0000 23.8185
#
#
#
# Elastic Compliance Matrix: (Units=1/GPa)
#
#
# Indices 1 2 3 4 5 6 
#
# 1 0.017741 -0.005385 -0.002469 0.000000 0.010566 0.000000
# 2 -0.005385 0.036084 -0.012150 0.000000 0.004453 0.000000
# 3 -0.002469 -0.012150 0.013555 0.000000 -0.000182 0.000000
# 4 0.000000 0.000000 0.000000 0.033203 0.000000 0.004136
# 5 0.010566 0.004453 -0.000182 0.000000 0.054821 0.000000
# 6 0.000000 0.000000 0.000000 0.004136 0.000000 0.042499
#
#
# Mechanical properties :
#
#
# Convention : Reuss Voigt Hill
#
# Bulk Modulus (GPa) = 36.53168 53.95321 45.24245
# Shear Modulus (GPa) = 20.23997 24.62540 22.43269
#
# Velocity S-wave (km/s) = 3.31461 3.65611 3.48954
# Velocity P-wave (km/s) = 5.87187 6.86364 6.38703
#
# Compressibility (1/GPa) = 0.02737350
#
# Stress axis : x y z
#
# Youngs Moduli (GPa) = 56.36607 27.71292 73.77080
#
# Poissons Ratio (x) = 0.14924 0.18212
# Poissons Ratio (y) = 0.30354 0.89631
# Poissons Ratio (z) = 0.13915 0.33671
#
# Static dielectric constant tensor:
#      x y z
#    x 3.178750 0.000000 -0.031370 
#    y 0.000000 3.328310 0.000000 
#    z -0.031370 0.000000 3.649770 
# 
# 
# High freq. dielectric constant tensor:
#      x y z
#    x 1.702890 0.000000 -0.002410 
#    y 0.000000 1.708900 0.000000 
#    z -0.002410 0.000000 1.724930 
# 
# From -- ./inp_files/359975.got.cif
#   From: 2010.06.25/outbox.cif.g09.slc.cpg/sg12_180_cif.got.tgz:359975.got - 2010.06.28 00:19:55.
