data_PCOD8105794
_publ_section_title
;
Structure prediction by ZEFSAII (Michael W. Deem and Ramdas Pophale) SiO2 
 PCOD8105794
Probable space group: C 2/M
;
_chemical_formula_sum "Si O2"
_cell_formula_units_Z 48
_cell_length_a 22.034272
_cell_length_b 13.368883
_cell_length_c 11.261005
_cell_angle_alpha 90.000000
_cell_angle_beta 35.890903
_cell_angle_gamma 90.000000
_cell_volume 1944.684694
_symmetry_space_group_name_H-M "C 2/M"
_symmetry_group_IT_number 12
_symmetry_cell_setting 'monoclinic'
loop_
_space_group_symop_operation_xyz
x,y,z
-x,y,-z
-x,-y,-z
x,-y,z
1/2+x,1/2+y,z
1/2-x,1/2+y,-z
1/2-x,1/2-y,-z
1/2+x,1/2-y,z
loop_
_atom_site_type_symbol
_atom_site_label
_atom_site_fract_x
_atom_site_fract_y
_atom_site_fract_z
Si Si1 0.190840 0.113057 0.598044
Si Si2 0.467891 0.709502 0.315510
Si Si3 0.137606 0.250281 0.292192
Si Si4 0.182660 0.617475 0.016009
Si Si5 0.928743 0.385825 0.218194
Si Si6 0.168976 0.782081 0.875985
O O1 0.124598 0.140050 0.587270
O O2 0.308901 0.126019 0.371968
O O3 0.167979 0.000000 0.676821
O O4 0.159668 0.189736 0.752700
O O5 0.460444 0.712628 0.472049
O O6 0.451748 0.823243 0.298959
O O7 0.576776 0.663409 0.097107
O O8 0.107962 0.325951 0.231328
O O9 0.199009 0.153017 0.142210
O O10 0.217463 0.311639 0.253697
O O11 0.167984 0.500000 0.044052
O O12 0.153519 0.661704 0.930754
O O13 0.958554 0.500000 0.199218
O O14 0.000000 0.341126 0.000000
#
# Coordination Sequence:
#
# PCOD8105794 Si02
#       6
#     8   8   8   8   8   8
#     4  11  24  42  62  88 131 174 207 250 308 373
#     4  12  23  38  62  91 131 161 209 253 309 374
#     4   9  22  41  62  95 122 164 205 258 321 361
#     4   9  20  44  69  91 122 161 208 263 321 368
#     4  10  21  35  57  88 121 162 206 251 303 361
#     4  10  22  41  63  94 122 165 209 261 307 373
#
# _framework density 24.682663999999999
#
# number of rings (size 3 to 8) (size 9 to 14) (size 15 to 20)
#    1.000    0.833    1.667    2.000    2.333    4.667 
#    0.000    1.667    0.000    1.000    0.000    0.000 
#    0.000    0.000    0.000    0.000    0.000    0.000 
#
# Total GULP energy -297385.930955 kJ/mol
# GULP energy per Si atom -12391.080456 kJ/mol
# Density = 2.462649 g / cm^3
# Si number density = 24.682664 Si / 1000 Ang^3
#
#
#
# Elastic Constant Matrix: (Units=GPa)
#
#
# Indices 1 2 3 4 5 6 
#
# 1 70.8638 33.5769 23.3103 0.0000 27.8461 0.0000
# 2 33.5769 128.8823 43.3863 0.0000 17.6655 0.0000
# 3 23.3103 43.3863 166.2008 0.0000 17.3710 0.0000
# 4 0.0000 0.0000 0.0000 26.3832 0.0000 0.8108
# 5 27.8461 17.6655 17.3710 0.0000 44.4674 0.0000
# 6 0.0000 0.0000 0.0000 0.8108 0.0000 16.6532
#
#
#
# Elastic Compliance Matrix: (Units=1/GPa)
#
#
# Indices 1 2 3 4 5 6 
#
# 1 0.020388 -0.003533 -0.000781 0.000000 -0.011059 0.000000
# 2 -0.003533 0.009422 -0.001881 0.000000 -0.000796 0.000000
# 3 -0.000781 -0.001881 0.006764 0.000000 -0.001406 0.000000
# 4 0.000000 0.000000 0.000000 0.037960 0.000000 -0.001848
# 5 -0.011059 -0.000796 -0.001406 0.000000 0.030279 0.000000
# 6 0.000000 0.000000 0.000000 -0.001848 0.000000 0.060139
#
#
# Mechanical properties :
#
#
# Convention : Reuss Voigt Hill
#
# Bulk Modulus (GPa) = 41.34975 62.94375 52.14675
# Shear Modulus (GPa) = 26.96836 35.21231 31.09034
#
# Velocity S-wave (km/s) = 3.30904 3.78113 3.55294
# Velocity P-wave (km/s) = 5.60255 6.67976 6.16473
#
# Compressibility (1/GPa) = 0.02418394
#
# Stress axis : x y z
#
# Youngs Moduli (GPa) = 49.04843 106.13883 147.83394
#
# Poissons Ratio (x) = 0.37496 0.11553
# Poissons Ratio (y) = 0.17327 0.27805
# Poissons Ratio (z) = 0.03833 0.19963
#
# Static dielectric constant tensor:
#      x y z
#    x 4.429830 0.000000 -0.307430 
#    y 0.000000 4.024350 0.000000 
#    z -0.307430 0.000000 4.734660 
# 
# 
# High freq. dielectric constant tensor:
#      x y z
#    x 1.993030 0.000000 -0.010010 
#    y 0.000000 1.934000 0.000000 
#    z -0.010010 0.000000 2.005590 
# 
# From -- ./inp_files/183687.got.cif
#   From: 2010.06.25/outbox.cif.g09.slc.cpg/sg12_92_cif.got.tgz:183687.got - 2010.06.28 00:19:55.
