data_PCOD8105761
_publ_section_title
;
Structure prediction by ZEFSAII (Michael W. Deem and Ramdas Pophale) SiO2 
 PCOD8105761
Probable space group: C 2/M
;
_chemical_formula_sum "Si O2"
_cell_formula_units_Z 64
_cell_length_a 18.768452
_cell_length_b 17.730299
_cell_length_c 15.110242
_cell_angle_alpha 90.000000
_cell_angle_beta 38.923670
_cell_angle_gamma 90.000000
_cell_volume 3159.164838
_symmetry_space_group_name_H-M "C 2/M"
_symmetry_group_IT_number 12
_symmetry_cell_setting 'monoclinic'
loop_
_space_group_symop_operation_xyz
x,y,z
-x,y,-z
-x,-y,-z
x,-y,z
1/2+x,1/2+y,z
1/2-x,1/2+y,-z
1/2-x,1/2-y,-z
1/2+x,1/2-y,z
loop_
_atom_site_type_symbol
_atom_site_label
_atom_site_fract_x
_atom_site_fract_y
_atom_site_fract_z
Si Si1 0.882686 0.088063 0.379917
Si Si2 0.258843 0.855329 0.812397
Si Si3 0.309491 0.122252 0.574174
Si Si4 0.453590 0.915967 0.728029
Si Si5 0.774880 0.782050 0.572850
Si Si6 0.368753 0.412513 0.902858
Si Si7 0.338951 0.912396 0.013737
Si Si8 0.371356 0.787852 0.124021
O O1 0.800022 0.102580 0.377675
O O2 0.844890 0.139942 0.499577
O O3 0.006271 0.120308 0.235006
O O4 0.881553 0.000000 0.408641
O O5 0.277739 0.903615 0.704076
O O6 0.380755 0.854699 0.743962
O O7 0.213391 0.771275 0.839841
O O8 0.166127 0.895929 0.962933
O O9 0.416619 0.081193 0.427950
O O10 0.340711 0.211509 0.553068
O O11 0.401673 0.000000 0.761871
O O12 0.442291 0.899086 0.843981
O O13 0.750000 0.750000 0.500000
O O14 0.664290 0.800340 0.739093
O O15 0.377287 0.500000 0.879916
O O16 0.276267 0.381595 0.921988
O O17 0.363425 0.866252 0.078820
O O18 0.329227 0.000000 0.050256
O O19 0.500000 0.757498 0.000000
#
# Coordination Sequence:
#
# PCOD8105761 Si02
#       8
#     8   8   8   8   8   8   8   8
#     4  10  21  36  59  87 114 157 206 246 301 362
#     4  10  22  36  57  85 124 158 197 248 299 359
#     4  10  21  35  56  87 121 160 200 251 303 356
#     4  10  21  38  61  90 124 161 202 245 300 365
#     4   9  22  40  56  83 121 155 190 246 303 355
#     4   9  20  38  59  85 120 160 201 242 297 363
#     4   9  21  41  61  87 121 158 202 254 303 354
#     4  11  25  39  62  93 117 154 207 249 299 362
#
# _framework density 20.258520000000001
#
# number of rings (size 3 to 8) (size 9 to 14) (size 15 to 20)
#    0.000    2.250    0.000    1.875    8.750    6.250 
#    0.000    3.125    0.000    2.250    0.000    0.000 
#    0.000    0.000    0.000    0.000    0.000    0.000 
#
# Total GULP energy -396532.794294 kJ/mol
# GULP energy per Si atom -12391.649822 kJ/mol
# Density = 2.021241 g / cm^3
# Si number density = 20.258520 Si / 1000 Ang^3
#
#
#
# Elastic Constant Matrix: (Units=GPa)
#
#
# Indices 1 2 3 4 5 6 
#
# 1 68.5840 27.1007 47.8818 0.0000 3.8215 0.0000
# 2 27.1007 72.9321 36.8298 0.0000 5.9356 0.0000
# 3 47.8818 36.8298 163.9448 0.0000 3.4936 0.0000
# 4 0.0000 0.0000 0.0000 29.1505 0.0000 0.2768
# 5 3.8215 5.9356 3.4936 0.0000 33.7463 0.0000
# 6 0.0000 0.0000 0.0000 0.2768 0.0000 25.1845
#
#
#
# Elastic Compliance Matrix: (Units=1/GPa)
#
#
# Indices 1 2 3 4 5 6 
#
# 1 0.019841 -0.004944 -0.004665 0.000000 -0.000894 0.000000
# 2 -0.004944 0.016889 -0.002304 0.000000 -0.002172 0.000000
# 3 -0.004665 -0.002304 0.007977 0.000000 0.000108 0.000000
# 4 0.000000 0.000000 0.000000 0.034308 0.000000 -0.000377
# 5 -0.000894 -0.002172 0.000108 0.000000 0.030105 0.000000
# 6 0.000000 0.000000 0.000000 -0.000377 0.000000 0.039711
#
#
# Mechanical properties :
#
#
# Convention : Reuss Voigt Hill
#
# Bulk Modulus (GPa) = 47.88984 58.78729 53.33857
# Shear Modulus (GPa) = 27.83690 30.52617 29.18153
#
# Velocity S-wave (km/s) = 3.71088 3.88600 3.79945
# Velocity P-wave (km/s) = 6.48472 7.01543 6.75529
#
# Compressibility (1/GPa) = 0.02088125
#
# Stress axis : x y z
#
# Youngs Moduli (GPa) = 50.40061 59.21119 125.35538
#
# Poissons Ratio (x) = 0.29275 0.58479
# Poissons Ratio (y) = 0.24919 0.28879
# Poissons Ratio (z) = 0.23512 0.13641
#
# Static dielectric constant tensor:
#      x y z
#    x 3.577420 0.000000 0.014230 
#    y 0.000000 3.870910 0.000000 
#    z 0.014230 0.000000 4.109380 
# 
# 
# High freq. dielectric constant tensor:
#      x y z
#    x 1.769770 0.000000 0.003180 
#    y 0.000000 1.786820 0.000000 
#    z 0.003180 0.000000 1.806380 
# 
# From -- ./inp_files/159550.got.cif
#   From: 2010.06.25/outbox.cif.g09.slc.cpg/sg12_80_cif.got.tgz:159550.got - 2010.06.28 00:19:55.
