data_PCOD8105064
_publ_section_title
;
Structure prediction by ZEFSAII (Michael W. Deem and Ramdas Pophale) SiO2 
 PCOD8105064
Probable space group: C 2/M
;
_chemical_formula_sum "Si O2"
_cell_formula_units_Z 48
_cell_length_a 12.353570
_cell_length_b 16.120319
_cell_length_c 12.208160
_cell_angle_alpha 90.000000
_cell_angle_beta 70.329584
_cell_angle_gamma 90.000000
_cell_volume 2289.303050
_symmetry_space_group_name_H-M "C 2/M"
_symmetry_group_IT_number 12
_symmetry_cell_setting 'monoclinic'
loop_
_space_group_symop_operation_xyz
x,y,z
-x,y,-z
-x,-y,-z
x,-y,z
1/2+x,1/2+y,z
1/2-x,1/2+y,-z
1/2-x,1/2-y,-z
1/2+x,1/2-y,z
loop_
_atom_site_type_symbol
_atom_site_label
_atom_site_fract_x
_atom_site_fract_y
_atom_site_fract_z
Si Si1 0.118226 0.404976 0.727488
Si Si2 0.241152 0.165991 0.139892
Si Si3 0.736803 0.654415 0.762174
Si Si4 0.880121 0.593876 0.899660
Si Si5 0.632752 0.905789 0.482062
Si Si6 0.990481 0.096891 0.875268
O O1 0.088331 0.500000 0.715018
O O2 0.225752 0.394919 0.771695
O O3 0.148527 0.366551 0.598479
O O4 0.002457 0.366577 0.821247
O O5 0.252625 0.257918 0.181679
O O6 0.113236 0.147593 0.143268
O O7 0.330333 0.153582 0.010163
O O8 0.794650 0.588465 0.824924
O O9 0.800932 0.654178 0.624078
O O10 0.606615 0.628949 0.779795
O O11 0.892607 0.500000 0.942099
O O12 0.500000 0.905415 0.500000
O O13 0.681840 0.000000 0.457072
O O14 0.969663 0.000000 0.860302
O O15 0.000000 0.116404 0.000000
#
# Coordination Sequence:
#
# PCOD8105064 Si02
#       6
#     8   8   8   8   8   8
#     4  10  22  40  68  98 128 168 220 278 330 384
#     4  12  26  40  63  96 141 172 210 271 341 392
#     4  12  25  39  65  98 133 170 220 275 322 384
#     4  11  21  40  68  96 127 166 215 273 325 390
#     4  10  20  40  69  96 125 169 226 275 318 385
#     4  11  24  42  65  91 130 182 224 259 319 410
#
# _framework density 20.967079999999999
#
# number of rings (size 3 to 8) (size 9 to 14) (size 15 to 20)
#    0.000    1.000    3.333    4.000    2.333    2.000 
#    0.000    0.833    0.000    3.000    0.000    0.000 
#    0.000    0.000    0.000    0.000    0.000    0.000 
#
# Total GULP energy -297652.878228 kJ/mol
# GULP energy per Si atom -12402.203260 kJ/mol
# Density = 2.091936 g / cm^3
# Si number density = 20.967080 Si / 1000 Ang^3
#
#
#
# Elastic Constant Matrix: (Units=GPa)
#
#
# Indices 1 2 3 4 5 6 
#
# 1 104.6848 26.5167 67.3100 0.0000 11.6764 0.0000
# 2 26.5167 54.7089 41.3574 0.0000 -15.5622 0.0000
# 3 67.3100 41.3574 173.1882 0.0000 -4.1354 0.0000
# 4 0.0000 0.0000 0.0000 41.5762 0.0000 -3.3228
# 5 11.6764 -15.5622 -4.1354 0.0000 32.8689 0.0000
# 6 0.0000 0.0000 0.0000 -3.3228 0.0000 27.1516
#
#
#
# Elastic Compliance Matrix: (Units=1/GPa)
#
#
# Indices 1 2 3 4 5 6 
#
# 1 0.015113 -0.006443 -0.004550 0.000000 -0.008992 0.000000
# 2 -0.006443 0.028822 -0.004010 0.000000 0.015431 0.000000
# 3 -0.004550 -0.004010 0.008519 0.000000 0.000789 0.000000
# 4 0.000000 0.000000 0.000000 0.024290 0.000000 0.002973
# 5 -0.008992 0.015431 0.000789 0.000000 0.041023 0.000000
# 6 0.000000 0.000000 0.000000 0.002973 0.000000 0.037194
#
#
# Mechanical properties :
#
#
# Convention : Reuss Voigt Hill
#
# Bulk Modulus (GPa) = 44.54813 66.99444 55.77128
# Shear Modulus (GPa) = 25.98073 33.47920 29.72996
#
# Velocity S-wave (km/s) = 3.52393 4.00027 3.76963
# Velocity P-wave (km/s) = 6.15226 7.30464 6.75308
#
# Compressibility (1/GPa) = 0.02244763
#
# Stress axis : x y z
#
# Youngs Moduli (GPa) = 66.16859 34.69523 117.38801
#
# Poissons Ratio (x) = 0.22356 0.53408
# Poissons Ratio (y) = 0.42636 0.47073
# Poissons Ratio (z) = 0.30105 0.13913
#
# Static dielectric constant tensor:
#      x y z
#    x 3.908330 0.000000 0.046540 
#    y 0.000000 3.597900 0.000000 
#    z 0.046540 0.000000 3.998140 
# 
# 
# High freq. dielectric constant tensor:
#      x y z
#    x 1.824230 0.000000 0.004480 
#    y 0.000000 1.806910 0.000000 
#    z 0.004480 0.000000 1.825430 
# 
# From -- ./inp_files/131671.got.cif
#   From: 2010.06.25/outbox.cif.g09.slc.cpg/sg12_66_cif.got.tgz:131671.got - 2010.06.28 00:19:55.
