data_PCOD8105987
_publ_section_title
;
Structure prediction by ZEFSAII (Michael W. Deem and Ramdas Pophale) SiO2 
 PCOD8105987
Probable space group: C 2/M
;
_chemical_formula_sum "Si O2"
_cell_formula_units_Z 48
_cell_length_a 9.979270
_cell_length_b 9.605550
_cell_length_c 26.851240
_cell_angle_alpha 90.000000
_cell_angle_beta 79.638330
_cell_angle_gamma 90.000000
_cell_volume 2531.888071
_symmetry_space_group_name_H-M "C 2/M"
_symmetry_group_IT_number 12
_symmetry_cell_setting 'monoclinic'
loop_
_space_group_symop_operation_xyz
x,y,z
-x,y,-z
-x,-y,-z
x,-y,z
1/2+x,1/2+y,z
1/2-x,1/2+y,-z
1/2-x,1/2-y,-z
1/2+x,1/2-y,z
loop_
_atom_site_type_symbol
_atom_site_label
_atom_site_fract_x
_atom_site_fract_y
_atom_site_fract_z
Si Si1 0.707457 0.339344 0.108093
Si Si2 0.368246 0.661851 0.275188
Si Si3 0.436939 0.661216 0.556897
Si Si4 0.312078 0.338315 0.391403
Si Si5 0.508443 0.838662 0.056640
Si Si6 0.668944 0.660971 0.223826
O O1 0.678797 0.500000 0.097332
O O2 0.627431 0.248075 0.073925
O O3 0.867072 0.305525 0.093509
O O4 0.657587 0.300715 0.166602
O O5 0.341745 0.500000 0.266316
O O6 0.320369 0.705182 0.333310
O O7 0.527227 0.697390 0.259738
O O8 0.286773 0.748775 0.240294
O O9 0.500000 0.704446 0.500000
O O10 0.394501 0.500000 0.560067
O O11 0.543245 0.695442 0.593368
O O12 0.302319 0.750209 0.573646
O O13 0.275604 0.500000 0.400356
O O14 0.547886 0.000000 0.058530
O O15 0.500000 0.792491 0.000000
O O16 0.708393 0.500000 0.228287
#
# Coordination Sequence:
#
# PCOD8105987 Si02
#       6
#     8   8   8   8   8   8
#     4  10  21  36  55  80 107 139 180 221 266 320
#     4  10  21  36  54  78 107 139 176 218 265 316
#     4  10  21  37  57  81 109 142 179 219 265 315
#     4  10  21  36  54  79 109 139 176 220 263 314
#     4  10  21  36  54  79 110 142 179 223 268 317
#     4  10  21  37  56  79 108 140 177 222 267 316
#
# _framework density 18.958183999999999
#
# number of rings (size 3 to 8) (size 9 to 14) (size 15 to 20)
#    0.000    2.000    0.000    3.000    0.000    5.333 
#    0.000    0.000    0.000    0.000    0.000    0.000 
#    0.000    0.000    0.000    0.000    0.000    0.000 
#
# Total GULP energy -297745.035617 kJ/mol
# GULP energy per Si atom -12406.043151 kJ/mol
# Density = 1.891503 g / cm^3
# Si number density = 18.958184 Si / 1000 Ang^3
#
#
#
# Elastic Constant Matrix: (Units=GPa)
#
#
# Indices 1 2 3 4 5 6 
#
# 1 45.6845 30.0107 17.5847 0.0000 1.1607 0.0000
# 2 30.0107 51.7117 31.5255 0.0000 6.4202 0.0000
# 3 17.5847 31.5255 75.7697 0.0000 -1.2558 0.0000
# 4 0.0000 0.0000 0.0000 25.2866 0.0000 6.0311
# 5 1.1607 6.4202 -1.2558 0.0000 37.4576 0.0000
# 6 0.0000 0.0000 0.0000 6.0311 0.0000 25.3587
#
#
#
# Elastic Compliance Matrix: (Units=1/GPa)
#
#
# Indices 1 2 3 4 5 6 
#
# 1 0.035628 -0.021415 0.000685 0.000000 0.002590 0.000000
# 2 -0.021415 0.039677 -0.011646 0.000000 -0.006527 0.000000
# 3 0.000685 -0.011646 0.017927 0.000000 0.002576 0.000000
# 4 0.000000 0.000000 0.000000 0.041925 0.000000 -0.009971
# 5 0.002590 -0.006527 0.002576 0.000000 0.027822 0.000000
# 6 0.000000 0.000000 0.000000 -0.009971 0.000000 0.041806
#
#
# Mechanical properties :
#
#
# Convention : Reuss Voigt Hill
#
# Bulk Modulus (GPa) = 35.11499 36.82306 35.96903
# Shear Modulus (GPa) = 17.91911 23.89026 20.90469
#
# Velocity S-wave (km/s) = 3.07773 3.55372 3.32426
# Velocity P-wave (km/s) = 5.58502 6.02528 5.80932
#
# Compressibility (1/GPa) = 0.02847787
#
# Stress axis : x y z
#
# Youngs Moduli (GPa) = 28.06780 25.20355 55.78045
#
# Poissons Ratio (x) = 0.53975 -0.03819
# Poissons Ratio (y) = 0.60109 0.64965
# Poissons Ratio (z) = -0.01922 0.29353
#
# Static dielectric constant tensor:
#      x y z
#    x 3.354700 0.000000 -0.096470 
#    y 0.000000 3.396610 0.000000 
#    z -0.096470 0.000000 3.634920 
# 
# 
# High freq. dielectric constant tensor:
#      x y z
#    x 1.741730 0.000000 -0.004610 
#    y 0.000000 1.731270 0.000000 
#    z -0.004610 0.000000 1.754590 
# 
# From -- ./inp_files/331985.got.cif
#   From: 2010.06.25/outbox.cif.g09.slc.cpg/sg12_166_cif.got.tgz:331985.got - 2010.06.28 00:19:55.
