data_PCOD8105045
_publ_section_title
;
Structure prediction by ZEFSAII (Michael W. Deem and Ramdas Pophale) SiO2 
 PCOD8105045
Probable space group: C 2/M
;
_chemical_formula_sum "Si O2"
_cell_formula_units_Z 44
_cell_length_a 9.226905
_cell_length_b 16.490511
_cell_length_c 23.778534
_cell_angle_alpha 90.000000
_cell_angle_beta 38.117890
_cell_angle_gamma 90.000000
_cell_volume 2233.359005
_symmetry_space_group_name_H-M "C 2/M"
_symmetry_group_IT_number 12
_symmetry_cell_setting 'monoclinic'
loop_
_space_group_symop_operation_xyz
x,y,z
-x,y,-z
-x,-y,-z
x,-y,z
1/2+x,1/2+y,z
1/2-x,1/2+y,-z
1/2-x,1/2-y,-z
1/2+x,1/2-y,z
loop_
_atom_site_type_symbol
_atom_site_label
_atom_site_fract_x
_atom_site_fract_y
_atom_site_fract_z
Si Si1 0.637343 0.354075 0.600275
Si Si2 0.991263 0.692571 0.879896
Si Si3 0.135398 0.591046 0.740029
Si Si4 0.401153 0.196529 0.718381
Si Si5 0.500000 0.764054 0.000000
Si Si6 0.541179 0.092307 0.403808
O O1 0.412032 0.400500 0.644934
O O2 0.578036 0.264222 0.640346
O O3 0.828691 0.351603 0.491863
O O4 0.740637 0.405799 0.620289
O O5 0.077427 0.610642 0.823006
O O6 0.145864 0.768045 0.810371
O O7 0.721233 0.706806 0.945890
O O8 0.033311 0.680642 0.934067
O O9 0.054077 0.500000 0.750289
O O10 0.004091 0.657963 0.743260
O O11 0.371079 0.125754 0.682299
O O12 0.454418 0.000000 0.423109
#
# Coordination Sequence:
#
# PCOD8105045 Si02
#       6
#     8   8   8   8   4   8
#     4  10  21  38  57  81 115 161 203 236 273 339
#     4  10  21  39  64  91 111 154 190 240 283 353
#     4  11  22  38  58  88 123 152 187 241 296 338
#     4  11  22  37  59  88 115 155 197 236 282 349
#     4  10  20  40  68  86 114 146 200 232 286 354
#     4  11  22  37  56  84 120 158 195 243 290 329
#
# _framework density 19.701266
#
# number of rings (size 3 to 8) (size 9 to 14) (size 15 to 20)
#    0.000    1.455    1.818    5.455    2.545    2.182 
#    0.000    2.727    0.000    0.000    0.000    0.000 
#    0.000    0.000    0.000    0.000    0.000    0.000 
#
# Total GULP energy -272819.855270 kJ/mol
# GULP energy per Si atom -12400.902512 kJ/mol
# Density = 1.965642 g / cm^3
# Si number density = 19.701266 Si / 1000 Ang^3
#
#
#
# Elastic Constant Matrix: (Units=GPa)
#
#
# Indices 1 2 3 4 5 6 
#
# 1 93.2315 25.1428 47.5279 0.0011 2.9515 0.0001
# 2 25.1428 109.0447 29.9700 0.0203 3.7105 -0.0031
# 3 47.5279 29.9700 89.4935 0.0275 4.3140 0.0010
# 4 0.0011 0.0203 0.0275 14.4523 0.0026 -0.2636
# 5 2.9515 3.7105 4.3140 0.0026 40.4579 -0.0050
# 6 0.0001 -0.0031 0.0010 -0.2636 -0.0050 21.2615
#
#
#
# Elastic Compliance Matrix: (Units=1/GPa)
#
#
# Indices 1 2 3 4 5 6 
#
# 1 0.014897 -0.001384 -0.007440 0.000015 -0.000166 0.000000
# 2 -0.001384 0.010242 -0.002668 -0.000009 -0.000554 0.000001
# 3 -0.007440 -0.002668 0.016063 -0.000026 -0.000925 -0.000002
# 4 0.000015 -0.000009 -0.000026 0.069209 -0.000002 0.000858
# 5 -0.000166 -0.000554 -0.000925 -0.000002 0.024879 0.000006
# 6 0.000000 0.000001 -0.000002 0.000858 0.000006 0.047044
#
#
# Mechanical properties :
#
#
# Convention : Reuss Voigt Hill
#
# Bulk Modulus (GPa) = 54.89128 55.22788 55.05958
# Shear Modulus (GPa) = 23.65278 27.84292 25.74785
#
# Velocity S-wave (km/s) = 3.46869 3.76341 3.61905
# Velocity P-wave (km/s) = 6.63059 6.85404 6.74324
#
# Compressibility (1/GPa) = 0.01821783
#
# Stress axis : x y z
#
# Youngs Moduli (GPa) = 67.12575 97.63845 62.25386
#
# Poissons Ratio (x) = 0.13518 0.46317
# Poissons Ratio (y) = 0.09293 0.16609
# Poissons Ratio (z) = 0.49942 0.26049
#
# Static dielectric constant tensor:
#      x y z
#    x 3.713500 0.000000 0.126600 
#    y 0.000000 3.365090 0.000010 
#    z 0.126600 0.000010 3.714090 
# 
# 
# High freq. dielectric constant tensor:
#      x y z
#    x 1.777840 0.000000 0.003000 
#    y 0.000000 1.745220 0.000000 
#    z 0.003000 0.000000 1.772350 
# 
# From -- ./inp_files/333266.got.cif
#   From: 2010.06.25/outbox.cif.g09.slc.cpg/sg12_167_cif.got.tgz:333266.got - 2010.06.28 00:19:55.
