data_PCOD8105513
_publ_section_title
;
Structure prediction by ZEFSAII (Michael W. Deem and Ramdas Pophale) SiO2 
 PCOD8105513
Probable space group: C 2/M
;
_chemical_formula_sum "Si O2"
_cell_formula_units_Z 56
_cell_length_a 22.390038
_cell_length_b 9.589584
_cell_length_c 14.538302
_cell_angle_alpha 90.000000
_cell_angle_beta 77.734470
_cell_angle_gamma 90.000000
_cell_volume 3050.282000
_symmetry_space_group_name_H-M "C 2/M"
_symmetry_group_IT_number 12
_symmetry_cell_setting 'monoclinic'
loop_
_space_group_symop_operation_xyz
x,y,z
-x,y,-z
-x,-y,-z
x,-y,z
1/2+x,1/2+y,z
1/2-x,1/2+y,-z
1/2-x,1/2-y,-z
1/2+x,1/2-y,z
loop_
_atom_site_type_symbol
_atom_site_label
_atom_site_fract_x
_atom_site_fract_y
_atom_site_fract_z
Si Si1 0.892138 0.840059 0.350436
Si Si2 0.601160 0.163782 0.113865
Si Si3 0.856515 0.338577 0.093348
Si Si4 0.783803 0.838747 0.255061
Si Si5 0.145917 0.337745 0.296946
Si Si6 0.569912 0.661086 0.461597
Si Si7 0.033596 0.338789 0.807869
O O1 0.825629 0.804608 0.330003
O O2 0.890688 0.810067 0.459449
O O3 0.943720 0.744888 0.288249
O O4 0.910100 0.000000 0.325087
O O5 0.639097 0.203273 0.192125
O O6 0.532313 0.223098 0.142975
O O7 0.595570 0.000000 0.100741
O O8 0.636143 0.222157 0.012453
O O9 0.836530 0.500000 0.102071
O O10 0.804121 0.250972 0.160750
O O11 0.921529 0.316812 0.121277
O O12 0.714671 0.799797 0.304961
O O13 0.788443 0.000000 0.224472
O O14 0.131180 0.500000 0.316939
O O15 0.097611 0.251636 0.371139
O O16 0.500000 0.706339 0.500000
O O17 0.573422 0.500000 0.430994
O O18 0.029380 0.500000 0.779735
#
# Coordination Sequence:
#
# PCOD8105513 Si02
#       7
#     8   8   8   8   8   8   8
#     4   9  18  33  51  69  96 130 156 191 243 287
#     4   9  17  30  48  71  99 128 158 197 242 279
#     4   9  17  30  50  73  96 126 162 197 235 281
#     4   9  19  35  50  69  98 128 160 196 235 279
#     4  10  21  35  51  71  97 129 162 196 233 279
#     4  10  21  36  53  74  98 123 154 195 243 289
#     4   9  16  28  49  75  98 122 158 200 237 279
#
# _framework density 18.358957
#
# number of rings (size 3 to 8) (size 9 to 14) (size 15 to 20)
#    0.000    2.714    0.000    1.286    0.000    4.286 
#    0.000    1.429    0.000    3.429    0.000    0.000 
#    0.000    0.000    0.000    0.000    0.000    0.000 
#
# Total GULP energy -347216.808816 kJ/mol
# GULP energy per Si atom -12400.600315 kJ/mol
# Density = 1.831717 g / cm^3
# Si number density = 18.358957 Si / 1000 Ang^3
#
#
#
# Elastic Constant Matrix: (Units=GPa)
#
#
# Indices 1 2 3 4 5 6 
#
# 1 95.4971 33.8977 45.4707 0.0000 -8.1102 0.0000
# 2 33.8977 50.4762 41.1223 0.0000 -5.7573 0.0000
# 3 45.4707 41.1223 95.5844 0.0000 1.8488 0.0000
# 4 0.0000 0.0000 0.0000 30.0092 0.0000 -5.4888
# 5 -8.1102 -5.7573 1.8488 0.0000 24.3301 0.0000
# 6 0.0000 0.0000 0.0000 -5.4888 0.0000 20.9203
#
#
#
# Elastic Compliance Matrix: (Units=1/GPa)
#
#
# Indices 1 2 3 4 5 6 
#
# 1 0.015159 -0.005821 -0.004785 0.000000 0.004039 0.000000
# 2 -0.005821 0.034476 -0.012201 0.000000 0.007145 0.000000
# 3 -0.004785 -0.012201 0.018101 0.000000 -0.005858 0.000000
# 4 0.000000 0.000000 0.000000 0.035003 0.000000 0.009184
# 5 0.004039 0.007145 -0.005858 0.000000 0.044584 0.000000
# 6 0.000000 0.000000 0.000000 0.009184 0.000000 0.050210
#
#
# Mechanical properties :
#
#
# Convention : Reuss Voigt Hill
#
# Bulk Modulus (GPa) = 45.20640 53.61546 49.41093
# Shear Modulus (GPa) = 19.95845 23.12306 21.54075
#
# Velocity S-wave (km/s) = 3.30073 3.55279 3.42908
# Velocity P-wave (km/s) = 6.26127 6.78949 6.53072
#
# Compressibility (1/GPa) = 0.02212076
#
# Stress axis : x y z
#
# Youngs Moduli (GPa) = 65.96599 29.00609 55.24623
#
# Poissons Ratio (x) = 0.16885 0.26437
# Poissons Ratio (y) = 0.38400 0.67406
# Poissons Ratio (z) = 0.31566 0.35390
#
# Static dielectric constant tensor:
#      x y z
#    x 3.435440 0.000000 0.102810 
#    y 0.000000 3.233810 0.000000 
#    z 0.102810 0.000000 3.371320 
# 
# 
# High freq. dielectric constant tensor:
#      x y z
#    x 1.716790 0.000000 0.007070 
#    y 0.000000 1.690870 0.000000 
#    z 0.007070 0.000000 1.709860 
# 
# From -- ./inp_files/165639.got.cif
#   From: 2010.06.25/outbox.cif.g09.slc.cpg/sg12_83_cif.got.tgz:165639.got - 2010.06.28 00:19:55.
