data_PCOD8105605
_publ_section_title
;
Structure prediction by ZEFSAII (Michael W. Deem and Ramdas Pophale) SiO2 
 PCOD8105605
Probable space group: C 2/M
;
_chemical_formula_sum "Si O2"
_cell_formula_units_Z 56
_cell_length_a 14.778877
_cell_length_b 8.883105
_cell_length_c 24.371238
_cell_angle_alpha 90.000000
_cell_angle_beta 63.650235
_cell_angle_gamma 90.000000
_cell_volume 2867.087238
_symmetry_space_group_name_H-M "C 2/M"
_symmetry_group_IT_number 12
_symmetry_cell_setting 'monoclinic'
loop_
_space_group_symop_operation_xyz
x,y,z
-x,y,-z
-x,-y,-z
x,-y,z
1/2+x,1/2+y,z
1/2-x,1/2+y,-z
1/2-x,1/2-y,-z
1/2+x,1/2-y,z
loop_
_atom_site_type_symbol
_atom_site_label
_atom_site_fract_x
_atom_site_fract_y
_atom_site_fract_z
Si Si1 0.645579 0.678612 0.693820
Si Si2 0.437120 0.823735 0.770519
Si Si3 0.595230 0.333356 0.436227
Si Si4 0.690206 0.824300 0.088915
Si Si5 0.107498 0.322250 0.994350
Si Si6 0.733461 0.668742 0.561015
Si Si7 0.838012 0.171915 0.696122
O O1 0.663290 0.500000 0.696931
O O2 0.538454 0.726617 0.746380
O O3 0.646509 0.719648 0.627732
O O4 0.730245 0.772172 0.703093
O O5 0.374441 0.779802 0.841016
O O6 0.371452 0.780238 0.735643
O O7 0.463235 0.000000 0.761446
O O8 0.500000 0.313074 0.500000
O O9 0.643159 0.500000 0.435046
O O10 0.665324 0.193274 0.431814
O O11 0.577185 0.321072 0.375506
O O12 0.798397 0.742893 0.065296
O O13 0.713346 0.000000 0.079858
O O14 0.625223 0.773735 0.053017
O O15 0.108582 0.500000 0.986940
O O16 0.000000 0.259025 0.000000
O O17 0.715061 0.500000 0.548547
O O18 0.750000 0.750000 0.500000
O O19 0.827543 0.000000 0.720024
#
# Coordination Sequence:
#
# PCOD8105605 Si02
#       7
#     8   8   8   8   8   8   8
#     4  10  22  40  58  80 112 149 192 240 291 350
#     4  11  23  38  58  84 119 159 196 237 286 344
#     4   9  19  35  54  76 103 134 173 228 290 346
#     4   9  20  37  55  84 120 151 189 234 279 332
#     4   9  18  35  60  87 117 152 190 233 278 326
#     4  10  21  35  53  77 105 137 178 229 284 345
#     4  10  21  38  58  81 111 147 190 240 293 349
#
# _framework density 19.532018999999998
#
# number of rings (size 3 to 8) (size 9 to 14) (size 15 to 20)
#    0.000    2.286    0.000    1.714    2.000    5.143 
#    0.000    1.429    0.000    0.000    0.000    0.000 
#    0.000    0.000    0.000    0.000    0.000    0.000 
#
# Total GULP energy -346950.484381 kJ/mol
# GULP energy per Si atom -12391.088728 kJ/mol
# Density = 1.948756 g / cm^3
# Si number density = 19.532019 Si / 1000 Ang^3
#
#
#
# Elastic Constant Matrix: (Units=GPa)
#
#
# Indices 1 2 3 4 5 6 
#
# 1 97.7737 18.9014 52.6825 0.0000 -7.7987 0.0000
# 2 18.9014 40.7988 38.8851 0.0000 -7.1343 0.0000
# 3 52.6825 38.8851 145.8287 0.0000 -9.8945 0.0000
# 4 0.0000 0.0000 0.0000 27.7404 0.0000 -0.1364
# 5 -7.7987 -7.1343 -9.8945 0.0000 26.1276 0.0000
# 6 0.0000 0.0000 0.0000 -0.1364 0.0000 33.0480
#
#
#
# Elastic Compliance Matrix: (Units=1/GPa)
#
#
# Indices 1 2 3 4 5 6 
#
# 1 0.012908 -0.001789 -0.004062 0.000000 0.001826 0.000000
# 2 -0.001789 0.033991 -0.008030 0.000000 0.005706 0.000000
# 3 -0.004062 -0.008030 0.010505 0.000000 0.000573 0.000000
# 4 0.000000 0.000000 0.000000 0.036049 0.000000 0.000149
# 5 0.001826 0.005706 0.000573 0.000000 0.040594 0.000000
# 6 0.000000 0.000000 0.000000 0.000149 0.000000 0.030260
#
#
# Mechanical properties :
#
#
# Convention : Reuss Voigt Hill
#
# Bulk Modulus (GPa) = 33.73721 56.14881 44.94301
# Shear Modulus (GPa) = 24.75866 28.97867 26.86867
#
# Velocity S-wave (km/s) = 3.56419 3.85600 3.71296
# Velocity P-wave (km/s) = 5.85220 6.97384 6.43749
#
# Compressibility (1/GPa) = 0.02964086
#
# Stress axis : x y z
#
# Youngs Moduli (GPa) = 77.47117 29.41990 95.19287
#
# Poissons Ratio (x) = 0.05263 0.38670
# Poissons Ratio (y) = 0.13860 0.76440
# Poissons Ratio (z) = 0.31471 0.23624
#
# Static dielectric constant tensor:
#      x y z
#    x 3.479870 0.000000 0.079410 
#    y 0.000000 3.529020 0.000000 
#    z 0.079410 0.000000 3.877390 
# 
# 
# High freq. dielectric constant tensor:
#      x y z
#    x 1.748990 0.000000 0.000910 
#    y 0.000000 1.762050 0.000000 
#    z 0.000910 0.000000 1.770120 
# 
# From -- ./inp_files/338584.got.cif
#   From: 2010.06.25/outbox.cif.g09.slc.cpg/sg12_170_cif.got.tgz:338584.got - 2010.06.28 00:19:55.
