data_PCOD8105960
_publ_section_title
;
Structure prediction by ZEFSAII (Michael W. Deem and Ramdas Pophale) SiO2 
 PCOD8105960
Probable space group: C 2/M
;
_chemical_formula_sum "Si O2"
_cell_formula_units_Z 56
_cell_length_a 22.252540
_cell_length_b 13.043758
_cell_length_c 18.744547
_cell_angle_alpha 90.000000
_cell_angle_beta 147.390020
_cell_angle_gamma 90.000000
_cell_volume 2932.105373
_symmetry_space_group_name_H-M "C 2/M"
_symmetry_group_IT_number 12
_symmetry_cell_setting 'monoclinic'
loop_
_space_group_symop_operation_xyz
x,y,z
-x,y,-z
-x,-y,-z
x,-y,z
1/2+x,1/2+y,z
1/2-x,1/2+y,-z
1/2-x,1/2-y,-z
1/2+x,1/2-y,z
loop_
_atom_site_type_symbol
_atom_site_label
_atom_site_fract_x
_atom_site_fract_y
_atom_site_fract_z
Si Si1 0.500000 0.750000 0.325830
Si Si2 0.683762 0.618462 0.574437
Si Si3 0.883841 0.117610 0.095434
Si Si4 0.499999 0.250004 0.895879
Si Si5 0.183759 0.381538 0.793083
Si Si6 0.383843 0.117611 0.672250
Si Si7 0.312161 0.749998 0.812161
O O1 0.565977 0.671950 0.442228
O O2 0.407507 0.688070 0.187703
O O3 0.434024 0.828048 0.310278
O O4 0.592491 0.811933 0.372689
O O5 0.662213 0.500000 0.568052
O O6 0.759822 0.633634 0.579680
O O7 0.736959 0.663043 0.700332
O O8 0.969773 0.150422 0.119968
O O9 0.905935 0.000000 0.138218
O O10 0.759821 0.133635 0.939961
O O11 0.469772 0.150429 0.819578
O O12 0.395527 0.295238 0.835737
O O13 0.604471 0.204769 0.044682
O O14 0.162208 0.500000 0.756370
O O15 0.236956 0.336959 0.773582
O O16 0.405941 0.000000 0.673662
#
# Coordination Sequence:
#
# PCOD8105960 Si02
#       7
#     8   8   8   8   8   8   8
#     4  11  20  34  52  76 106 137 166 204 252 305
#     4  10  21  36  54  75 101 134 170 210 253 300
#     4   9  18  33  54  79 103 130 168 211 254 297
#     4   8  16  31  56  79 102 132 168 212 254 286
#     4  10  21  36  54  75 101 134 170 210 253 300
#     4   9  18  33  54  79 103 130 168 211 254 297
#     4   9  18  35  52  76 106 135 170 209 246 294
#
# _framework density 19.098904000000001
#
# number of rings (size 3 to 8) (size 9 to 14) (size 15 to 20)
#    0.000    2.571    0.000    1.714    0.000    1.714 
#    0.000   10.000    0.000    1.714    0.000    0.000 
#    0.000    0.000    0.000    0.000    0.000    0.000 
#
# Total GULP energy -347041.316753 kJ/mol
# GULP energy per Si atom -12394.332741 kJ/mol
# Density = 1.905543 g / cm^3
# Si number density = 19.098904 Si / 1000 Ang^3
#
#
#
# Elastic Constant Matrix: (Units=GPa)
#
#
# Indices 1 2 3 4 5 6 
#
# 1 71.6359 50.8353 45.2053 0.0000 2.3222 0.0000
# 2 50.8353 138.0942 60.0926 0.0000 7.7202 0.0000
# 3 45.2053 60.0926 84.9069 0.0000 8.7457 0.0000
# 4 0.0000 0.0000 0.0000 30.8071 0.0000 2.7058
# 5 2.3222 7.7202 8.7457 0.0000 19.9572 0.0000
# 6 0.0000 0.0000 0.0000 2.7058 0.0000 27.5592
#
#
#
# Elastic Compliance Matrix: (Units=1/GPa)
#
#
# Indices 1 2 3 4 5 6 
#
# 1 0.022995 -0.004585 -0.009326 0.000000 0.003185 0.000000
# 2 -0.004585 0.011392 -0.005470 0.000000 -0.001476 0.000000
# 3 -0.009326 -0.005470 0.021243 0.000000 -0.006108 0.000000
# 4 0.000000 0.000000 0.000000 0.032742 0.000000 -0.003215
# 5 0.003185 -0.001476 -0.006108 0.000000 0.052985 0.000000
# 6 0.000000 0.000000 0.000000 -0.003215 0.000000 0.036601
#
#
# Mechanical properties :
#
#
# Convention : Reuss Voigt Hill
#
# Bulk Modulus (GPa) = 59.27891 67.43370 63.35631
# Shear Modulus (GPa) = 22.48801 24.89829 23.69315
#
# Velocity S-wave (km/s) = 3.43512 3.61453 3.52597
# Velocity P-wave (km/s) = 6.84388 7.26664 7.05842
#
# Compressibility (1/GPa) = 0.01686941
#
# Stress axis : x y z
#
# Youngs Moduli (GPa) = 43.48829 87.78275 47.07435
#
# Poissons Ratio (x) = 0.40245 0.43901
# Poissons Ratio (y) = 0.19938 0.25747
# Poissons Ratio (z) = 0.40557 0.48013
#
# Static dielectric constant tensor:
#      x y z
#    x 3.450620 0.000000 0.019330 
#    y 0.000000 3.331850 0.000000 
#    z 0.019330 0.000000 3.473790 
# 
# 
# High freq. dielectric constant tensor:
#      x y z
#    x 1.736100 0.000000 0.003220 
#    y 0.000000 1.733030 0.000000 
#    z 0.003220 0.000000 1.739960 
# 
# From -- ./inp_files/325153.got.cif
#   From: 2010.06.25/outbox.cif.g09.slc.cpg/sg12_163_cif.got.tgz:325153.got - 2010.06.28 00:19:55.
