data_PCOD8105507
_publ_section_title
;
Structure prediction by ZEFSAII (Michael W. Deem and Ramdas Pophale) SiO2 
 PCOD8105507
Probable space group: C 2/M
;
_chemical_formula_sum "Si O2"
_cell_formula_units_Z 40
_cell_length_a 20.543869
_cell_length_b 7.727054
_cell_length_c 15.783970
_cell_angle_alpha 90.000000
_cell_angle_beta 62.608973
_cell_angle_gamma 90.000000
_cell_volume 2224.694322
_symmetry_space_group_name_H-M "C 2/M"
_symmetry_group_IT_number 12
_symmetry_cell_setting 'monoclinic'
loop_
_space_group_symop_operation_xyz
x,y,z
-x,y,-z
-x,-y,-z
x,-y,z
1/2+x,1/2+y,z
1/2-x,1/2+y,-z
1/2-x,1/2-y,-z
1/2+x,1/2-y,z
loop_
_atom_site_type_symbol
_atom_site_label
_atom_site_fract_x
_atom_site_fract_y
_atom_site_fract_z
Si Si1 0.046594 0.696392 0.547158
Si Si2 0.478825 0.199754 0.250480
Si Si3 0.616566 0.500000 0.900091
Si Si4 0.208360 0.800268 0.440289
Si Si5 0.168677 0.304005 0.764842
Si Si6 0.966748 0.000000 0.887368
O O1 0.020343 0.500000 0.567999
O O2 0.027248 0.775416 0.650544
O O3 0.132772 0.698657 0.476198
O O4 0.000000 0.790179 0.500000
O O5 0.398075 0.215999 0.260144
O O6 0.535429 0.324835 0.167441
O O7 0.506171 0.000000 0.228637
O O8 0.661245 0.672647 0.847867
O O9 0.539544 0.500000 0.899175
O O10 0.603986 0.500000 0.008815
O O11 0.250000 0.750000 0.500000
O O12 0.257911 0.755004 0.329633
O O13 0.188399 0.000000 0.455477
O O14 0.171976 0.500000 0.798569
#
# Coordination Sequence:
#
# PCOD8105507 Si02
#       6
#     8   8   4   8   8   4
#     4  10  21  35  50  74 110 143 175 214 259 312
#     4   9  17  31  48  69 102 136 168 209 254 309
#     4   9  18  30  48  70 103 130 162 219 264 300
#     4  11  21  31  51  77 104 142 177 209 257 312
#     4   9  18  30  46  73 102 131 169 209 255 310
#     4   9  18  30  47  74  96 132 173 205 264 316
#
# _framework density 17.979997000000001
#
# number of rings (size 3 to 8) (size 9 to 14) (size 15 to 20)
#    0.000    2.400    2.000    0.600    4.200    1.200 
#    0.000    4.000    0.000    0.000    0.000    1.400 
#    0.000    0.000    0.000    0.000    0.000    0.000 
#
# Total GULP energy -247924.993985 kJ/mol
# GULP energy per Si atom -12396.249699 kJ/mol
# Density = 1.793907 g / cm^3
# Si number density = 17.979997 Si / 1000 Ang^3
#
#
#
# Elastic Constant Matrix: (Units=GPa)
#
#
# Indices 1 2 3 4 5 6 
#
# 1 66.9302 15.0252 40.0979 0.0000 1.0787 0.0001
# 2 15.0252 95.4975 74.3298 0.0001 4.9793 0.0003
# 3 40.0979 74.3298 164.2137 0.0000 6.4558 0.0000
# 4 0.0000 0.0001 0.0000 33.2381 0.0000 -1.5826
# 5 1.0787 4.9793 6.4558 0.0000 12.1317 0.0000
# 6 0.0001 0.0003 0.0000 -1.5826 0.0000 10.0379
#
#
#
# Elastic Compliance Matrix: (Units=1/GPa)
#
#
# Indices 1 2 3 4 5 6 
#
# 1 0.017554 0.000867 -0.004702 0.000000 0.000585 0.000000
# 2 0.000867 0.016304 -0.007482 0.000000 -0.002787 0.000000
# 3 -0.004702 -0.007482 0.010711 0.000000 -0.002211 0.000000
# 4 0.000000 0.000000 0.000000 0.030314 0.000000 0.004779
# 5 0.000585 -0.002787 -0.002211 0.000000 0.084697 0.000000
# 6 0.000000 0.000000 0.000000 0.004779 0.000000 0.100376
#
#
# Mechanical properties :
#
#
# Convention : Reuss Voigt Hill
#
# Bulk Modulus (GPa) = 45.58761 65.06079 55.32420
# Shear Modulus (GPa) = 17.24730 24.22745 20.73738
#
# Velocity S-wave (km/s) = 3.10054 3.67477 3.39980
# Velocity P-wave (km/s) = 6.18283 7.36674 6.80060
#
# Compressibility (1/GPa) = 0.02193579
#
# Stress axis : x y z
#
# Youngs Moduli (GPa) = 56.96809 61.33495 93.35922
#
# Poissons Ratio (x) = -0.05320 0.43896
# Poissons Ratio (y) = -0.04941 0.69851
# Poissons Ratio (z) = 0.26786 0.45891
#
# Static dielectric constant tensor:
#      x y z
#    x 3.024120 0.000000 0.111220 
#    y 0.000000 3.463030 0.000000 
#    z 0.111220 0.000000 3.543550 
# 
# 
# High freq. dielectric constant tensor:
#      x y z
#    x 1.645000 0.000000 0.000980 
#    y 0.000000 1.704970 0.000000 
#    z 0.000980 0.000000 1.694840 
# 
# From -- ./inp_files/162555.got.cif
#   From: 2010.06.25/outbox.cif.g09.slc.cpg/sg12_82_cif.got.tgz:162555.got - 2010.06.28 00:19:55.
