data_PCOD8105644
_publ_section_title
;
Structure prediction by ZEFSAII (Michael W. Deem and Ramdas Pophale) SiO2 
 PCOD8105644
Probable space group: C 2/M
;
_chemical_formula_sum "Si O2"
_cell_formula_units_Z 56
_cell_length_a 18.665630
_cell_length_b 18.422418
_cell_length_c 9.286615
_cell_angle_alpha 90.000000
_cell_angle_beta 67.360537
_cell_angle_gamma 90.000000
_cell_volume 2947.288801
_symmetry_space_group_name_H-M "C 2/M"
_symmetry_group_IT_number 12
_symmetry_cell_setting 'monoclinic'
loop_
_space_group_symop_operation_xyz
x,y,z
-x,y,-z
-x,-y,-z
x,-y,z
1/2+x,1/2+y,z
1/2-x,1/2+y,-z
1/2-x,1/2-y,-z
1/2+x,1/2-y,z
loop_
_atom_site_type_symbol
_atom_site_label
_atom_site_fract_x
_atom_site_fract_y
_atom_site_fract_z
Si Si1 0.566043 0.581630 0.064612
Si Si2 0.699747 0.420612 0.771688
Si Si3 0.926446 0.150859 0.652108
Si Si4 0.720549 0.169028 0.508257
Si Si5 0.914451 0.680206 0.614388
Si Si6 0.334205 0.920198 0.884901
Si Si7 0.756427 0.914448 0.755454
O O1 0.584814 0.500000 0.107908
O O2 0.543849 0.634591 0.210537
O O3 0.500000 0.579205 0.000000
O O4 0.640622 0.616213 0.928741
O O5 0.667840 0.500000 0.748986
O O6 0.708194 0.372159 0.623925
O O7 0.780605 0.429183 0.788308
O O8 0.907703 0.234996 0.650991
O O9 0.847462 0.106492 0.682820
O O10 0.000000 0.126163 0.500000
O O11 0.750000 0.250000 0.500000
O O12 0.642462 0.162379 0.474998
O O13 0.708990 0.130604 0.671601
O O14 0.896984 0.638437 0.779376
O O15 0.000000 0.656807 0.500000
O O16 0.371704 0.000000 0.888518
O O17 0.285024 0.893298 0.061432
O O18 0.749116 0.000000 0.730937
#
# Coordination Sequence:
#
# PCOD8105644 Si02
#       7
#     8   8   8   8   8   8   8
#     4  10  21  35  53  81 118 159 200 240 285 347
#     4   9  18  34  54  77 110 149 195 241 285 345
#     4  11  23  38  57  88 127 164 200 240 299 362
#     4  11  22  37  58  87 116 154 200 246 293 353
#     4  10  23  42  62  87 122 157 198 247 303 360
#     4   9  19  38  62  86 111 150 202 249 298 355
#     4  11  22  38  61  90 122 157 201 252 298 357
#
# _framework density 19.000512000000001
#
# number of rings (size 3 to 8) (size 9 to 14) (size 15 to 20)
#    0.000    1.857    2.857    0.857    2.000    3.714 
#    0.000    0.714    0.000    1.714    0.000    0.000 
#    0.000    0.000    0.000    0.000    0.000    0.000 
#
# Total GULP energy -347028.700852 kJ/mol
# GULP energy per Si atom -12393.882173 kJ/mol
# Density = 1.895727 g / cm^3
# Si number density = 19.000512 Si / 1000 Ang^3
#
#
#
# Elastic Constant Matrix: (Units=GPa)
#
#
# Indices 1 2 3 4 5 6 
#
# 1 76.0633 34.2599 48.4700 0.0000 -6.1255 0.0000
# 2 34.2599 94.2725 67.7798 0.0000 -2.6649 0.0000
# 3 48.4700 67.7798 144.3946 0.0000 -8.1799 0.0000
# 4 0.0000 0.0000 0.0000 38.6572 0.0000 7.5950
# 5 -6.1255 -2.6649 -8.1799 0.0000 33.5965 0.0000
# 6 0.0000 0.0000 0.0000 7.5950 0.0000 27.9346
#
#
#
# Elastic Compliance Matrix: (Units=1/GPa)
#
#
# Indices 1 2 3 4 5 6 
#
# 1 0.017457 -0.003252 -0.004226 0.000000 0.001896 0.000000
# 2 -0.003252 0.016628 -0.006766 0.000000 -0.000921 0.000000
# 3 -0.004226 -0.006766 0.011606 0.000000 0.001519 0.000000
# 4 0.000000 0.000000 0.000000 0.027328 0.000000 -0.007430
# 5 0.001896 -0.000921 0.001519 0.000000 0.030407 0.000000
# 6 0.000000 0.000000 0.000000 -0.007430 0.000000 0.037818
#
#
# Mechanical properties :
#
#
# Convention : Reuss Voigt Hill
#
# Bulk Modulus (GPa) = 58.12858 68.41664 63.27261
# Shear Modulus (GPa) = 28.49536 30.98569 29.74053
#
# Velocity S-wave (km/s) = 3.87682 4.04268 3.96061
# Velocity P-wave (km/s) = 7.12034 7.60769 7.36804
#
# Compressibility (1/GPa) = 0.01720324
#
# Stress axis : x y z
#
# Youngs Moduli (GPa) = 57.28216 60.14029 86.16282
#
# Poissons Ratio (x) = 0.19559 0.36413
# Poissons Ratio (y) = 0.18630 0.58295
# Poissons Ratio (z) = 0.24208 0.40689
#
# Static dielectric constant tensor:
#      x y z
#    x 3.133580 0.000000 0.117130 
#    y 0.000000 3.761010 0.000000 
#    z 0.117130 0.000000 3.548570 
# 
# 
# High freq. dielectric constant tensor:
#      x y z
#    x 1.721060 0.000000 0.000200 
#    y 0.000000 1.738240 0.000000 
#    z 0.000200 0.000000 1.749860 
# 
# From -- ./inp_files/75892.got.cif
#   From: 2010.06.25/outbox.cif.g09.slc.cpg/sg12_38_cif.got.tgz:75892.got - 2010.06.28 00:19:55.
