data_PCOD8105905
_publ_section_title
;
Structure prediction by ZEFSAII (Michael W. Deem and Ramdas Pophale) SiO2 
 PCOD8105905
Probable space group: C 2/M
;
_chemical_formula_sum "Si O2"
_cell_formula_units_Z 44
_cell_length_a 13.621119
_cell_length_b 19.851948
_cell_length_c 8.423366
_cell_angle_alpha 90.000000
_cell_angle_beta 86.774184
_cell_angle_gamma 90.000000
_cell_volume 2274.117535
_symmetry_space_group_name_H-M "C 2/M"
_symmetry_group_IT_number 12
_symmetry_cell_setting 'monoclinic'
loop_
_space_group_symop_operation_xyz
x,y,z
-x,y,-z
-x,-y,-z
x,-y,z
1/2+x,1/2+y,z
1/2-x,1/2+y,-z
1/2-x,1/2-y,-z
1/2+x,1/2-y,z
loop_
_atom_site_type_symbol
_atom_site_label
_atom_site_fract_x
_atom_site_fract_y
_atom_site_fract_z
Si Si1 0.000000 0.860728 0.500000
Si Si2 0.598584 0.922083 0.901674
Si Si3 0.875804 0.924448 0.759063
Si Si4 0.201475 0.333283 0.664621
Si Si5 0.793349 0.075230 0.086110
Si Si6 0.690281 0.683835 0.646429
O O1 0.975616 0.907673 0.655657
O O2 0.907706 0.815626 0.454548
O O3 0.609011 0.876193 0.740961
O O4 0.593554 0.000000 0.849673
O O5 0.500000 0.899622 0.000000
O O6 0.690058 0.908362 0.009800
O O7 0.797849 0.869628 0.715836
O O8 0.840381 0.000000 0.716512
O O9 0.883015 0.919841 0.950134
O O10 0.212165 0.329306 0.471392
O O11 0.196641 0.256625 0.730289
O O12 0.815029 0.126661 0.222625
O O13 0.789623 0.000000 0.159489
#
# Coordination Sequence:
#
# PCOD8105905 Si02
#       6
#     4   8   8   8   8   8
#     4  10  21  36  52  78 113 148 182 226 265 322
#     4   9  18  36  57  82 109 137 180 227 273 326
#     4   9  18  34  57  81 107 141 179 224 275 325
#     4   9  19  37  54  77 105 150 176 219 274 328
#     4   9  19  35  56  81 109 140 178 226 269 319
#     4  10  21  37  53  78 111 145 184 223 269 322
#
# _framework density 19.348165000000002
#
# number of rings (size 3 to 8) (size 9 to 14) (size 15 to 20)
#    0.000    2.727    0.000    1.909    0.000    8.000 
#   13.091    1.818    0.000    3.273    0.000    0.000 
#    0.000    0.000    0.000    0.000    0.000    0.000 
#
# Total GULP energy -272565.062504 kJ/mol
# GULP energy per Si atom -12389.321023 kJ/mol
# Density = 1.930413 g / cm^3
# Si number density = 19.348165 Si / 1000 Ang^3
#
#
#
# Elastic Constant Matrix: (Units=GPa)
#
#
# Indices 1 2 3 4 5 6 
#
# 1 73.0520 38.7072 38.7613 0.0000 -27.8711 0.0000
# 2 38.7072 149.0095 66.3483 0.0000 -14.0819 0.0000
# 3 38.7613 66.3483 89.1710 0.0000 -30.8660 0.0000
# 4 0.0000 0.0000 0.0000 38.5060 0.0000 -4.6053
# 5 -27.8711 -14.0819 -30.8660 0.0000 36.4224 0.0000
# 6 0.0000 0.0000 0.0000 -4.6053 0.0000 20.4855
#
#
#
# Elastic Compliance Matrix: (Units=1/GPa)
#
#
# Indices 1 2 3 4 5 6 
#
# 1 0.021834 -0.003359 -0.002346 0.000000 0.013421 0.000000
# 2 -0.003359 0.010871 -0.008581 0.000000 -0.005639 0.000000
# 3 -0.002346 -0.008581 0.023843 0.000000 0.015093 0.000000
# 4 0.000000 0.000000 0.000000 0.026688 0.000000 0.006000
# 5 0.013421 -0.005639 0.015093 0.000000 0.048336 0.000000
# 6 0.000000 0.000000 0.000000 0.006000 0.000000 0.050164
#
#
# Mechanical properties :
#
#
# Convention : Reuss Voigt Hill
#
# Bulk Modulus (GPa) = 35.74374 66.54066 51.14220
# Shear Modulus (GPa) = 22.76542 30.24385 26.50464
#
# Velocity S-wave (km/s) = 3.43391 3.95794 3.70520
# Velocity P-wave (km/s) = 5.85119 7.43996 6.69288
#
# Compressibility (1/GPa) = 0.02797693
#
# Stress axis : x y z
#
# Youngs Moduli (GPa) = 45.80074 91.98647 41.94098
#
# Poissons Ratio (x) = 0.30894 0.09841
# Poissons Ratio (y) = 0.15382 0.35988
# Poissons Ratio (z) = 0.10746 0.78930
#
# Static dielectric constant tensor:
#      x y z
#    x 3.554910 0.000000 -0.604080 
#    y 0.000000 3.672120 0.000000 
#    z -0.604080 0.000000 3.777850 
# 
# 
# High freq. dielectric constant tensor:
#      x y z
#    x 1.733990 0.000000 -0.034290 
#    y 0.000000 1.759860 0.000000 
#    z -0.034290 0.000000 1.745720 
# 
# From -- ./inp_files/61148.got.cif
#   From: 2010.06.25/outbox.cif.g09.slc.cpg/sg12_31_cif.got.tgz:61148.got - 2010.06.28 00:19:55.
