data_PCOD8105146
_publ_section_title
;
Structure prediction by ZEFSAII (Michael W. Deem and Ramdas Pophale) SiO2 
 PCOD8105146
Probable space group: C 2/M
;
_chemical_formula_sum "Si O2"
_cell_formula_units_Z 48
_cell_length_a 18.654849
_cell_length_b 30.611407
_cell_length_c 8.632729
_cell_angle_alpha 90.000000
_cell_angle_beta 149.712265
_cell_angle_gamma 90.000000
_cell_volume 2486.273802
_symmetry_space_group_name_H-M "C 2/M"
_symmetry_group_IT_number 12
_symmetry_cell_setting 'monoclinic'
loop_
_space_group_symop_operation_xyz
x,y,z
-x,y,-z
-x,-y,-z
x,-y,z
1/2+x,1/2+y,z
1/2-x,1/2+y,-z
1/2-x,1/2-y,-z
1/2+x,1/2-y,z
loop_
_atom_site_type_symbol
_atom_site_label
_atom_site_fract_x
_atom_site_fract_y
_atom_site_fract_z
Si Si1 0.145528 0.549406 0.178903
Si Si2 0.343807 0.380515 0.643661
Si Si3 0.870472 0.746023 0.352242
Si Si4 0.916258 0.616537 0.192687
Si Si5 0.371617 0.345059 0.364700
Si Si6 0.396218 0.821071 0.666851
O O1 0.195627 0.500000 0.241956
O O2 0.261352 0.573502 0.504523
O O3 0.131605 0.573072 0.986791
O O4 0.000000 0.550927 0.000000
O O5 0.367392 0.373273 0.508575
O O6 0.249030 0.341880 0.540121
O O7 0.500000 0.383499 0.000000
O O8 0.903291 0.794995 0.469053
O O9 0.842224 0.718056 0.454256
O O10 0.000000 0.724276 0.500000
O O11 0.750000 0.750000 0.000000
O O12 0.000000 0.601278 0.500000
O O13 0.014137 0.643830 0.259572
O O14 0.782603 0.646394 0.002445
O O15 0.500000 0.363140 0.500000
O O16 0.500000 0.804033 0.000000
#
# Coordination Sequence:
#
# PCOD8105146 Si02
#       6
#     8   8   8   8   8   8
#     4  10  20  41  67  95 126 154 203 261 313 381
#     4  11  24  39  63  91 123 163 206 258 311 376
#     4  11  25  40  59  87 127 170 212 263 319 366
#     4  11  21  39  66  90 123 167 206 256 310 377
#     4  10  23  40  56  87 124 165 207 250 316 366
#     4  12  22  42  64  90 120 166 225 262 312 366
#
# _framework density 19.305999
#
# number of rings (size 3 to 8) (size 9 to 14) (size 15 to 20)
#    0.000    1.167    5.000    2.500    7.000    2.000 
#    0.000    0.000    0.000    8.000    0.000    0.000 
#    0.000    0.000    0.000    0.000    0.000    0.000 
#
# Total GULP energy -297503.651269 kJ/mol
# GULP energy per Si atom -12395.985470 kJ/mol
# Density = 1.926206 g / cm^3
# Si number density = 19.305999 Si / 1000 Ang^3
#
#
#
# Elastic Constant Matrix: (Units=GPa)
#
#
# Indices 1 2 3 4 5 6 
#
# 1 107.8167 45.3677 54.2320 0.0000 11.4706 0.0000
# 2 45.3677 101.9363 46.5547 0.0000 -0.1044 0.0000
# 3 54.2320 46.5547 159.2988 0.0000 -0.1113 0.0000
# 4 0.0000 0.0000 0.0000 19.8321 0.0000 0.5537
# 5 11.4706 -0.1044 -0.1113 0.0000 39.2504 0.0000
# 6 0.0000 0.0000 0.0000 0.5537 0.0000 28.5719
#
#
#
# Elastic Compliance Matrix: (Units=1/GPa)
#
#
# Indices 1 2 3 4 5 6 
#
# 1 0.013140 -0.004394 -0.003192 0.000000 -0.003861 0.000000
# 2 -0.004394 0.012791 -0.002241 0.000000 0.001312 0.000000
# 3 -0.003192 -0.002241 0.008020 0.000000 0.000950 0.000000
# 4 0.000000 0.000000 0.000000 0.050451 0.000000 -0.000978
# 5 -0.003861 0.001312 0.000950 0.000000 0.026612 0.000000
# 6 0.000000 0.000000 0.000000 -0.000978 0.000000 0.035018
#
#
# Mechanical properties :
#
#
# Convention : Reuss Voigt Hill
#
# Bulk Modulus (GPa) = 69.94996 73.48449 71.71722
# Shear Modulus (GPa) = 29.33375 32.39072 30.86223
#
# Velocity S-wave (km/s) = 3.90219 4.10048 4.00257
# Velocity P-wave (km/s) = 7.52421 7.78231 7.65434
#
# Compressibility (1/GPa) = 0.01429593
#
# Stress axis : x y z
#
# Youngs Moduli (GPa) = 76.10084 78.18189 124.69115
#
# Poissons Ratio (x) = 0.34357 0.39801
# Poissons Ratio (y) = 0.33442 0.27944
# Poissons Ratio (z) = 0.24291 0.17521
#
# Static dielectric constant tensor:
#      x y z
#    x 3.658730 0.000000 -0.013670 
#    y 0.000000 3.722370 0.000000 
#    z -0.013670 0.000000 3.541450 
# 
# 
# High freq. dielectric constant tensor:
#      x y z
#    x 1.756830 0.000000 0.004590 
#    y 0.000000 1.736190 0.000000 
#    z 0.004590 0.000000 1.760990 
# 
# From -- ./inp_files/42235.got.cif
#   From: 2010.06.25/outbox.cif.g09.slc.cpg/sg12_22_cif.got.tgz:42235.got - 2010.06.28 00:19:55.
