data_PCOD8105929
_publ_section_title
;
Structure prediction by ZEFSAII (Michael W. Deem and Ramdas Pophale) SiO2 
 PCOD8105929
Probable space group: C 2/M
;
_chemical_formula_sum "Si O2"
_cell_formula_units_Z 48
_cell_length_a 25.729705
_cell_length_b 13.895514
_cell_length_c 10.338973
_cell_angle_alpha 90.000000
_cell_angle_beta 35.949861
_cell_angle_gamma 90.000000
_cell_volume 2170.110948
_symmetry_space_group_name_H-M "C 2/M"
_symmetry_group_IT_number 12
_symmetry_cell_setting 'monoclinic'
loop_
_space_group_symop_operation_xyz
x,y,z
-x,y,-z
-x,-y,-z
x,-y,z
1/2+x,1/2+y,z
1/2-x,1/2+y,-z
1/2-x,1/2-y,-z
1/2+x,1/2-y,z
loop_
_atom_site_type_symbol
_atom_site_label
_atom_site_fract_x
_atom_site_fract_y
_atom_site_fract_z
Si Si1 0.166658 0.385094 0.845107
Si Si2 0.018117 0.107981 0.709004
Si Si3 0.693768 0.113855 0.499065
Si Si4 0.014149 0.695667 0.828076
Si Si5 0.300280 0.612287 0.790754
Si Si6 0.677900 0.611059 0.973964
O O1 0.162545 0.500000 0.854771
O O2 0.197377 0.347425 0.640370
O O3 0.235085 0.342492 0.813790
O O4 0.070857 0.342495 0.080617
O O5 0.021646 0.188283 0.813485
O O6 0.097544 0.128942 0.451069
O O7 0.025213 0.000000 0.755359
O O8 0.927469 0.122168 0.814261
O O9 0.606264 0.148413 0.596983
O O10 0.776431 0.155402 0.247655
O O11 0.695290 0.000000 0.502233
O O12 0.000000 0.656901 0.000000
O O13 0.279328 0.500000 0.837199
O O14 0.285900 0.657049 0.963874
O O15 0.704663 0.500000 0.921306
#
# Coordination Sequence:
#
# PCOD8105929 Si02
#       6
#     8   8   8   8   8   8
#     4   9  18  35  59  84 109 138 174 219 272 326
#     4  10  21  36  53  75 107 147 186 221 261 312
#     4   9  18  35  59  84 109 138 174 219 272 326
#     4  10  21  36  55  80 110 144 180 220 268 320
#     4   9  18  35  58  81 108 143 180 221 269 318
#     4   9  18  35  58  81 108 143 180 221 269 318
#
# _framework density 22.118684999999999
#
# number of rings (size 3 to 8) (size 9 to 14) (size 15 to 20)
#    0.000    2.667    0.000    1.000    0.000    7.000 
#    0.000   12.500    0.000    4.000    0.000    0.000 
#    0.000    0.000    0.000    0.000    0.000    0.000 
#
# Total GULP energy -297397.406032 kJ/mol
# GULP energy per Si atom -12391.558585 kJ/mol
# Density = 2.206834 g / cm^3
# Si number density = 22.118685 Si / 1000 Ang^3
#
#
#
# Elastic Constant Matrix: (Units=GPa)
#
#
# Indices 1 2 3 4 5 6 
#
# 1 121.4099 0.9137 63.2544 0.0000 1.1885 0.0000
# 2 0.9137 16.1111 -9.2411 0.0000 11.9470 0.0000
# 3 63.2544 -9.2411 96.9649 0.0000 -3.5789 0.0000
# 4 0.0000 0.0000 0.0000 2.1506 0.0000 11.6503
# 5 1.1885 11.9470 -3.5789 0.0000 24.5125 0.0000
# 6 0.0000 0.0000 0.0000 11.6503 0.0000 6.5048
#
#
#
# Elastic Compliance Matrix: (Units=1/GPa)
#
#
# Indices 1 2 3 4 5 6 
#
# 1 0.013024 -0.007065 -0.009115 0.000000 0.001481 0.000000
# 2 -0.007065 0.106866 0.012954 0.000000 -0.049851 0.000000
# 3 -0.009115 0.012954 0.017370 0.000000 -0.003335 0.000000
# 4 0.000000 0.000000 0.000000 -0.053432 0.000000 0.095697
# 5 0.001481 -0.049851 -0.003335 0.000000 0.064533 0.000000
# 6 0.000000 0.000000 0.000000 0.095697 0.000000 -0.017665
#
#
# Mechanical properties :
#
#
# Convention : Reuss Voigt Hill
#
# Bulk Modulus (GPa) = 7.64482 38.25998 22.95240
# Shear Modulus (GPa) = 27.66225 18.60417 23.13321
#
# Velocity S-wave (km/s) = 3.54026 2.90333 3.23750
# Velocity P-wave (km/s) = 4.49166 5.34549 4.93707
#
# Compressibility (1/GPa) = 0.13080761
#
# Stress axis : x y z
#
# Youngs Moduli (GPa) = 76.78130 9.35754 57.56929
#
# Poissons Ratio (x) = 0.06611 0.52473
# Poissons Ratio (y) = 0.54246 -0.74572
# Poissons Ratio (z) = 0.69984 -0.12121
#
# Static dielectric constant tensor:
#      x y z
#    x 4.107240 0.000000 -0.004770 
#    y 0.000000 3.779290 0.000000 
#    z -0.004770 0.000000 4.157500 
# 
# 
# High freq. dielectric constant tensor:
#      x y z
#    x 1.855310 0.000000 -0.011950 
#    y 0.000000 1.863480 0.000000 
#    z -0.011950 0.000000 1.868850 
# 
# From -- ./inp_files/183662.got.cif
#   From: 2010.06.25/outbox.cif.g09.slc.cpg/sg12_92_cif.got.tgz:183662.got - 2010.06.28 00:19:55.
