data_PCOD8105221
_publ_section_title
;
Structure prediction by ZEFSAII (Michael W. Deem and Ramdas Pophale) SiO2 
 PCOD8105221
Probable space group: C 2/M
;
_chemical_formula_sum "Si O2"
_cell_formula_units_Z 44
_cell_length_a 15.784305
_cell_length_b 14.622950
_cell_length_c 15.089577
_cell_angle_alpha 90.000000
_cell_angle_beta 43.923237
_cell_angle_gamma 90.000000
_cell_volume 2416.047468
_symmetry_space_group_name_H-M "C 2/M"
_symmetry_group_IT_number 12
_symmetry_cell_setting 'monoclinic'
loop_
_space_group_symop_operation_xyz
x,y,z
-x,y,-z
-x,-y,-z
x,-y,z
1/2+x,1/2+y,z
1/2-x,1/2+y,-z
1/2-x,1/2-y,-z
1/2+x,1/2-y,z
loop_
_atom_site_type_symbol
_atom_site_label
_atom_site_fract_x
_atom_site_fract_y
_atom_site_fract_z
Si Si1 0.237430 0.786406 0.231294
Si Si2 0.800390 0.394396 0.016976
Si Si3 0.051506 0.399929 0.607617
Si Si4 0.764186 0.399968 0.847655
Si Si5 0.579655 0.893030 0.782172
Si Si6 0.500000 0.766221 0.500000
O O1 0.280731 0.680830 0.183468
O O2 0.333022 0.833413 0.223120
O O3 0.100799 0.794622 0.374380
O O4 0.228691 0.835587 0.143351
O O5 0.791641 0.500000 0.050464
O O6 0.733395 0.377131 0.973394
O O7 0.941801 0.364004 0.908626
O O8 0.100583 0.500000 0.540808
O O9 0.113175 0.371039 0.654382
O O10 0.078336 0.328224 0.509660
O O11 0.908841 0.406895 0.733319
O O12 0.708300 0.500000 0.863103
O O13 0.600050 0.000000 0.786816
#
# Coordination Sequence:
#
# PCOD8105221 Si02
#       6
#     8   8   8   8   8   4
#     4  11  19  29  47  73 102 126 151 189 237 284
#     4   9  17  32  53  73  91 117 160 206 239 266
#     4   8  15  31  51  69  91 119 158 205 237 262
#     4   8  16  30  49  73  96 120 155 197 237 276
#     4   9  18  32  52  75  92 114 157 207 244 269
#     4  10  21  30  43  70 100 130 158 178 224 296
#
# _framework density 18.211563000000002
#
# number of rings (size 3 to 8) (size 9 to 14) (size 15 to 20)
#    0.000    2.909    0.000    4.091    0.000    2.909 
#    0.000    1.818    0.000    2.182    0.000   25.455 
#    0.000    0.000    0.000    0.000    0.000    0.000 
#
# Total GULP energy -272668.875551 kJ/mol
# GULP energy per Si atom -12394.039798 kJ/mol
# Density = 1.817011 g / cm^3
# Si number density = 18.211563 Si / 1000 Ang^3
#
#
#
# Elastic Constant Matrix: (Units=GPa)
#
#
# Indices 1 2 3 4 5 6 
#
# 1 57.7339 45.1292 26.0904 0.0000 13.8446 0.0000
# 2 45.1292 87.8685 45.3537 0.0000 7.8459 0.0000
# 3 26.0904 45.3537 96.6686 0.0000 6.1136 0.0000
# 4 0.0000 0.0000 0.0000 27.8661 0.0000 9.6636
# 5 13.8446 7.8459 6.1136 0.0000 19.7495 0.0000
# 6 0.0000 0.0000 0.0000 9.6636 0.0000 26.0920
#
#
#
# Elastic Compliance Matrix: (Units=1/GPa)
#
#
# Indices 1 2 3 4 5 6 
#
# 1 0.033947 -0.015466 -0.000806 0.000000 -0.017404 0.000000
# 2 -0.015466 0.022357 -0.006568 0.000000 0.003993 0.000000
# 3 -0.000806 -0.006568 0.013711 0.000000 -0.001070 0.000000
# 4 0.000000 0.000000 0.000000 0.041174 0.000000 -0.015250
# 5 -0.017404 0.003993 -0.001070 0.000000 0.061580 0.000000
# 6 0.000000 0.000000 0.000000 -0.015250 0.000000 0.043974
#
#
# Mechanical properties :
#
#
# Convention : Reuss Voigt Hill
#
# Bulk Modulus (GPa) = 41.08801 52.82418 46.95610
# Shear Modulus (GPa) = 18.48194 23.12136 20.80165
#
# Velocity S-wave (km/s) = 3.18912 3.56701 3.38334
# Velocity P-wave (km/s) = 6.01424 6.78480 6.41111
#
# Compressibility (1/GPa) = 0.02433800
#
# Stress axis : x y z
#
# Youngs Moduli (GPa) = 29.45726 44.72841 72.93359
#
# Poissons Ratio (x) = 0.69175 0.05876
# Poissons Ratio (y) = 0.45557 0.47900
# Poissons Ratio (z) = 0.02373 0.29376
#
# Static dielectric constant tensor:
#      x y z
#    x 3.093290 0.000000 0.402300 
#    y 0.000000 3.661230 0.000000 
#    z 0.402300 0.000000 3.430030 
# 
# 
# High freq. dielectric constant tensor:
#      x y z
#    x 1.669700 0.000000 0.035500 
#    y 0.000000 1.706550 0.000000 
#    z 0.035500 0.000000 1.700010 
# 
# From -- ./inp_files/155194.got.cif
#   From: 2010.06.25/outbox.cif.g09.slc.cpg/sg12_78_cif.got.tgz:155194.got - 2010.06.28 00:19:55.
