data_PCOD8105567
_publ_section_title
;
Structure prediction by ZEFSAII (Michael W. Deem and Ramdas Pophale) SiO2 
 PCOD8105567
Probable space group: C 2/M
;
_chemical_formula_sum "Si O2"
_cell_formula_units_Z 56
_cell_length_a 18.544372
_cell_length_b 8.784658
_cell_length_c 29.006637
_cell_angle_alpha 90.000000
_cell_angle_beta 142.243289
_cell_angle_gamma 90.000000
_cell_volume 2893.381114
_symmetry_space_group_name_H-M "C 2/M"
_symmetry_group_IT_number 12
_symmetry_cell_setting 'monoclinic'
loop_
_space_group_symop_operation_xyz
x,y,z
-x,y,-z
-x,-y,-z
x,-y,z
1/2+x,1/2+y,z
1/2-x,1/2+y,-z
1/2-x,1/2-y,-z
1/2+x,1/2-y,z
loop_
_atom_site_type_symbol
_atom_site_label
_atom_site_fract_x
_atom_site_fract_y
_atom_site_fract_z
Si Si1 0.698494 0.822396 0.299784
Si Si2 0.967867 0.823528 0.431497
Si Si3 0.845088 0.323982 0.141221
Si Si4 0.878354 0.679462 0.568457
Si Si5 0.003247 0.672667 0.870062
Si Si6 0.581879 0.320514 0.001373
Si Si7 0.452826 0.320802 0.699937
O O1 0.831666 0.780767 0.354696
O O2 0.619652 0.778621 0.215776
O O3 0.656112 0.730675 0.323201
O O4 0.682608 0.000000 0.303963
O O5 0.000000 0.785430 0.500000
O O6 0.047006 0.719985 0.438970
O O7 0.992091 0.000000 0.432331
O O8 0.851107 0.500000 0.159905
O O9 0.713449 0.255612 0.074728
O O10 0.891615 0.306291 0.112934
O O11 0.922429 0.225406 0.215235
O O12 0.865626 0.500000 0.566002
O O13 0.750000 0.750000 0.500000
O O14 0.945399 0.742785 0.646700
O O15 0.996997 0.500000 0.884780
O O16 0.026102 0.781124 0.924288
O O17 0.588656 0.500000 0.008507
O O18 0.500000 0.250975 0.000000
O O19 0.447181 0.500000 0.690424
#
# Coordination Sequence:
#
# PCOD8105567 Si02
#       7
#     8   8   8   8   8   8   8
#     4   9  19  37  59  85 118 150 183 230 288 342
#     4  10  21  38  61  87 116 151 189 231 281 336
#     4   9  19  37  57  78 108 145 184 228 283 338
#     4  12  25  41  61  85 117 153 191 234 279 329
#     4   9  18  33  54  78 106 144 185 225 273 333
#     4  10  21  35  52  77 109 143 182 232 284 333
#     4  11  22  37  60  88 115 146 190 235 278 335
#
# _framework density 19.354520000000001
#
# number of rings (size 3 to 8) (size 9 to 14) (size 15 to 20)
#    0.000    2.000    0.000    4.714    0.000    6.286 
#    0.000    2.857    0.000    0.000    0.000    0.000 
#    0.000    0.000    0.000    0.000    0.000    0.000 
#
# Total GULP energy -347305.275360 kJ/mol
# GULP energy per Si atom -12403.759834 kJ/mol
# Density = 1.931047 g / cm^3
# Si number density = 19.354520 Si / 1000 Ang^3
#
#
#
# Elastic Constant Matrix: (Units=GPa)
#
#
# Indices 1 2 3 4 5 6 
#
# 1 120.0173 49.3777 75.0332 0.0000 10.0576 -0.0001
# 2 49.3777 94.4710 44.6752 0.0001 -2.7386 -0.0002
# 3 75.0332 44.6752 117.8435 0.0000 7.1810 0.0000
# 4 0.0000 0.0001 0.0000 31.4396 0.0000 -6.0913
# 5 10.0576 -2.7386 7.1810 0.0000 35.0438 0.0000
# 6 -0.0001 -0.0002 0.0000 -6.0913 0.0000 29.5629
#
#
#
# Elastic Compliance Matrix: (Units=1/GPa)
#
#
# Indices 1 2 3 4 5 6 
#
# 1 0.015343 -0.004362 -0.007925 0.000000 -0.003120 0.000000
# 2 -0.004362 0.014283 -0.002817 0.000000 0.002945 0.000000
# 3 -0.007925 -0.002817 0.014658 0.000000 -0.000949 0.000000
# 4 0.000000 0.000000 0.000000 0.033130 0.000000 0.006826
# 5 -0.003120 0.002945 -0.000949 0.000000 0.029856 0.000000
# 6 0.000000 0.000000 0.000000 0.006826 0.000000 0.035233
#
#
# Mechanical properties :
#
#
# Convention : Reuss Voigt Hill
#
# Bulk Modulus (GPa) = 71.04724 74.50044 72.77384
# Shear Modulus (GPa) = 28.18461 30.09230 29.13845
#
# Velocity S-wave (km/s) = 3.82020 3.94737 3.88430
# Velocity P-wave (km/s) = 7.49977 7.70400 7.60257
#
# Compressibility (1/GPa) = 0.01407514
#
# Stress axis : x y z
#
# Youngs Moduli (GPa) = 65.17577 70.01535 68.22306
#
# Poissons Ratio (x) = 0.30541 0.54070
# Poissons Ratio (y) = 0.28430 0.19217
# Poissons Ratio (z) = 0.51655 0.19721
#
# Static dielectric constant tensor:
#      x y z
#    x 3.630740 0.000000 0.136600 
#    y 0.000000 3.416340 0.000000 
#    z 0.136600 0.000000 3.761250 
# 
# 
# High freq. dielectric constant tensor:
#      x y z
#    x 1.753110 0.000000 0.004570 
#    y 0.000000 1.743700 0.000000 
#    z 0.004570 0.000000 1.767790 
# 
# From -- ./inp_files/363116.got.cif
#   From: 2010.06.25/outbox.cif.g09.slc.cpg/sg12_182_cif.got.tgz:363116.got - 2010.06.28 00:19:55.
