data_PCOD8105457
_publ_section_title
;
Structure prediction by ZEFSAII (Michael W. Deem and Ramdas Pophale) SiO2 
 PCOD8105457
Probable space group: C 2/M
;
_chemical_formula_sum "Si O2"
_cell_formula_units_Z 48
_cell_length_a 33.530240
_cell_length_b 13.941154
_cell_length_c 14.899862
_cell_angle_alpha 90.000000
_cell_angle_beta 18.143564
_cell_angle_gamma 90.000000
_cell_volume 2168.876966
_symmetry_space_group_name_H-M "C 2/M"
_symmetry_group_IT_number 12
_symmetry_cell_setting 'monoclinic'
loop_
_space_group_symop_operation_xyz
x,y,z
-x,y,-z
-x,-y,-z
x,-y,z
1/2+x,1/2+y,z
1/2-x,1/2+y,-z
1/2-x,1/2-y,-z
1/2+x,1/2-y,z
loop_
_atom_site_type_symbol
_atom_site_label
_atom_site_fract_x
_atom_site_fract_y
_atom_site_fract_z
Si Si1 0.652739 0.277625 0.583230
Si Si2 0.851814 0.888265 0.828941
Si Si3 0.174386 0.771728 0.944584
Si Si4 0.057685 0.894419 0.048861
Si Si5 0.196061 0.607831 0.599027
Si Si6 0.127338 0.610058 0.172206
O O1 0.700737 0.246332 0.382455
O O2 0.535506 0.349048 0.824874
O O3 0.764965 0.338504 0.392534
O O4 0.604486 0.183063 0.741735
O O5 0.000000 0.853006 0.500000
O O6 0.849617 0.000000 0.854006
O O7 0.789058 0.836714 0.048508
O O8 0.758822 0.863490 0.944195
O O9 0.066613 0.827031 0.117071
O O10 0.121106 0.670236 0.093832
O O11 0.009523 0.000000 0.182273
O O12 0.188875 0.903871 0.716194
O O13 0.138036 0.500000 0.741064
O O14 0.127973 0.500000 0.142050
O O15 0.000000 0.635190 0.500000
#
# Coordination Sequence:
#
# PCOD8105457 Si02
#       6
#     8   8   8   8   8   8
#     4  10  21  34  59  91 117 155 198 251 308 367
#     4  10  22  40  64  91 120 162 216 265 309 367
#     4  11  23  36  58  89 121 153 198 257 312 362
#     4  10  21  37  61  90 120 156 201 252 307 367
#     4   9  19  39  60  84 119 159 203 248 304 368
#     4  10  23  41  60  84 123 172 209 248 316 384
#
# _framework density 22.131267999999999
#
# number of rings (size 3 to 8) (size 9 to 14) (size 15 to 20)
#    0.000    2.000    0.000    2.500    4.667    3.333 
#    0.000    0.833    0.000   14.000    0.000    0.000 
#    0.000    0.000    0.000    0.000    0.000    0.000 
#
# Total GULP energy -297454.015086 kJ/mol
# GULP energy per Si atom -12393.917295 kJ/mol
# Density = 2.208090 g / cm^3
# Si number density = 22.131268 Si / 1000 Ang^3
#
#
#
# Elastic Constant Matrix: (Units=GPa)
#
#
# Indices 1 2 3 4 5 6 
#
# 1 93.1050 59.2746 20.1034 0.0000 3.7038 0.0000
# 2 59.2746 154.5697 26.8121 0.0000 -4.6431 0.0000
# 3 20.1034 26.8121 69.3712 0.0000 -16.0185 0.0000
# 4 0.0000 0.0000 0.0000 19.5949 0.0000 2.1948
# 5 3.7038 -4.6431 -16.0185 0.0000 23.9322 0.0000
# 6 0.0000 0.0000 0.0000 2.1948 0.0000 32.1402
#
#
#
# Elastic Compliance Matrix: (Units=1/GPa)
#
#
# Indices 1 2 3 4 5 6 
#
# 1 0.015179 -0.005359 -0.003679 0.000000 -0.005851 0.000000
# 2 -0.005359 0.008832 -0.001506 0.000000 0.001535 0.000000
# 3 -0.003679 -0.001506 0.019076 0.000000 0.013045 0.000000
# 4 0.000000 0.000000 0.000000 0.051427 0.000000 -0.003512
# 5 -0.005851 0.001535 0.013045 0.000000 0.051719 0.000000
# 6 0.000000 0.000000 0.000000 -0.003512 0.000000 0.031354
#
#
# Mechanical properties :
#
#
# Convention : Reuss Voigt Hill
#
# Bulk Modulus (GPa) = 45.45584 58.82513 52.14048
# Shear Modulus (GPa) = 24.27100 29.19050 26.73075
#
# Velocity S-wave (km/s) = 3.31521 3.63570 3.47915
# Velocity P-wave (km/s) = 5.93616 6.65299 6.30477
#
# Compressibility (1/GPa) = 0.02199938
#
# Stress axis : x y z
#
# Youngs Moduli (GPa) = 65.87990 113.22651 52.42261
#
# Poissons Ratio (x) = 0.60673 0.19285
# Poissons Ratio (y) = 0.35302 0.07897
# Poissons Ratio (z) = 0.24236 0.17056
#
# Static dielectric constant tensor:
#      x y z
#    x 3.921290 0.000000 -0.100990 
#    y 0.000000 4.725720 0.000000 
#    z -0.100990 0.000000 3.740930 
# 
# 
# High freq. dielectric constant tensor:
#      x y z
#    x 1.867800 0.000000 0.000140 
#    y 0.000000 1.896440 0.000000 
#    z 0.000140 0.000000 1.847320 
# 
# From -- ./inp_files/251406.got.cif
#   From: 2010.06.25/outbox.cif.g09.slc.cpg/sg12_126_cif.got.tgz:251406.got - 2010.06.28 00:19:55.
