data_PCOD8105380
_publ_section_title
;
Structure prediction by ZEFSAII (Michael W. Deem and Ramdas Pophale) SiO2 
 PCOD8105380
Probable space group: C 2/M
;
_chemical_formula_sum "Si O2"
_cell_formula_units_Z 52
_cell_length_a 9.395279
_cell_length_b 25.600317
_cell_length_c 21.700034
_cell_angle_alpha 90.000000
_cell_angle_beta 30.186872
_cell_angle_gamma 90.000000
_cell_volume 2624.397574
_symmetry_space_group_name_H-M "C 2/M"
_symmetry_group_IT_number 12
_symmetry_cell_setting 'monoclinic'
loop_
_space_group_symop_operation_xyz
x,y,z
-x,y,-z
-x,-y,-z
x,-y,z
1/2+x,1/2+y,z
1/2-x,1/2+y,-z
1/2-x,1/2-y,-z
1/2+x,1/2-y,z
loop_
_atom_site_type_symbol
_atom_site_label
_atom_site_fract_x
_atom_site_fract_y
_atom_site_fract_z
Si Si1 0.301295 0.178103 0.464343
Si Si2 0.500000 0.241696 0.500000
Si Si3 0.296856 0.368750 0.224682
Si Si4 0.753140 0.217353 0.142006
Si Si5 0.753658 0.664386 0.141687
Si Si6 0.264352 0.060469 0.857736
Si Si7 0.195608 0.643915 0.741449
O O1 0.517475 0.204456 0.433344
O O2 0.256001 0.219285 0.424313
O O3 0.472330 0.130996 0.369508
O O4 0.018994 0.153539 0.599319
O O5 0.359313 0.317179 0.159837
O O6 0.495946 0.367522 0.209182
O O7 0.340480 0.422206 0.170749
O O8 0.678208 0.276348 0.189745
O O9 0.470332 0.195357 0.216857
O O10 0.000000 0.216946 0.000000
O O11 0.829261 0.634753 0.176213
O O12 0.000000 0.662569 0.000000
O O13 0.547792 0.092892 0.767592
O O14 0.343967 0.000000 0.829723
O O15 0.000000 0.074297 0.000000
#
# Coordination Sequence:
#
# PCOD8105380 Si02
#       7
#     8   4   8   8   8   8   8
#     4  11  24  34  54  83 117 158 202 221 281 321
#     4  10  22  34  50  76 118 168 196 226 248 322
#     4  11  22  36  57  82 118 148 194 237 280 340
#     4  10  21  34  51  78 114 157 191 226 277 336
#     4  11  22  34  54  84 116 155 190 233 290 335
#     4  10  22  43  67  85 105 143 191 243 299 346
#     4  11  22  36  57  82 118 148 194 237 280 340
#
# _framework density 19.814071999999999
#
# number of rings (size 3 to 8) (size 9 to 14) (size 15 to 20)
#    0.000    1.385    0.000    7.385   12.923    2.462 
#    0.000    2.308    0.000    2.769    0.000    3.231 
#    0.000    0.000    0.000    0.000    0.000    0.000 
#
# Total GULP energy -322243.700951 kJ/mol
# GULP energy per Si atom -12393.988498 kJ/mol
# Density = 1.976897 g / cm^3
# Si number density = 19.814072 Si / 1000 Ang^3
#
#
#
# Elastic Constant Matrix: (Units=GPa)
#
#
# Indices 1 2 3 4 5 6 
#
# 1 116.3563 28.0398 9.5475 0.0029 1.6137 0.0036
# 2 28.0398 80.3962 35.3339 0.0021 -3.9412 0.0007
# 3 9.5475 35.3339 86.6247 0.0039 -4.1116 0.0058
# 4 0.0029 0.0021 0.0039 14.0025 -0.0025 0.8080
# 5 1.6137 -3.9412 -4.1116 -0.0025 22.0461 0.0013
# 6 0.0036 0.0007 0.0058 0.8080 0.0013 12.2266
#
#
#
# Elastic Compliance Matrix: (Units=1/GPa)
#
#
# Indices 1 2 3 4 5 6 
#
# 1 0.009427 -0.003492 0.000326 -0.000002 -0.001254 -0.000003
# 2 -0.003492 0.016503 -0.006250 0.000000 0.002040 0.000003
# 3 0.000326 -0.006250 0.014128 -0.000002 0.001494 -0.000006
# 4 -0.000002 0.000000 -0.000002 0.071689 0.000008 -0.004737
# 5 -0.001254 0.002040 0.001494 0.000008 0.046095 -0.000006
# 6 -0.000003 0.000003 -0.000006 -0.004737 -0.000006 0.082102
#
#
# Mechanical properties :
#
#
# Convention : Reuss Voigt Hill
#
# Bulk Modulus (GPa) = 47.11274 47.69107 47.40190
# Shear Modulus (GPa) = 18.80750 23.68544 21.24647
#
# Velocity S-wave (km/s) = 3.08425 3.46118 3.27814
# Velocity P-wave (km/s) = 6.04256 6.33203 6.18899
#
# Compressibility (1/GPa) = 0.02122568
#
# Stress axis : x y z
#
# Youngs Moduli (GPa) = 106.08342 60.59394 70.77991
#
# Poissons Ratio (x) = 0.21162 -0.02308
# Poissons Ratio (y) = 0.37049 0.44236
# Poissons Ratio (z) = -0.03459 0.37870
#
# Static dielectric constant tensor:
#      x y z
#    x 3.916790 0.000000 0.093490 
#    y 0.000000 3.246990 0.000020 
#    z 0.093490 0.000020 3.580190 
# 
# 
# High freq. dielectric constant tensor:
#      x y z
#    x 1.789990 0.000000 0.004650 
#    y 0.000000 1.719940 0.000000 
#    z 0.004650 0.000000 1.784170 
# 
# From -- ./inp_files/302928.got.cif
#   From: 2010.06.25/outbox.cif.g09.slc.cpg/sg12_152_cif.got.tgz:302928.got - 2010.06.28 00:19:55.
