data_PCOD8105463
_publ_section_title
;
Structure prediction by ZEFSAII (Michael W. Deem and Ramdas Pophale) SiO2 
 PCOD8105463
Probable space group: C 2/M
;
_chemical_formula_sum "Si O2"
_cell_formula_units_Z 48
_cell_length_a 26.179362
_cell_length_b 17.284730
_cell_length_c 12.651201
_cell_angle_alpha 90.000000
_cell_angle_beta 23.666435
_cell_angle_gamma 90.000000
_cell_volume 2297.962844
_symmetry_space_group_name_H-M "C 2/M"
_symmetry_group_IT_number 12
_symmetry_cell_setting 'monoclinic'
loop_
_space_group_symop_operation_xyz
x,y,z
-x,y,-z
-x,-y,-z
x,-y,z
1/2+x,1/2+y,z
1/2-x,1/2+y,-z
1/2-x,1/2-y,-z
1/2+x,1/2-y,z
loop_
_atom_site_type_symbol
_atom_site_label
_atom_site_fract_x
_atom_site_fract_y
_atom_site_fract_z
Si Si1 0.536537 0.177114 0.656015
Si Si2 0.208932 0.085603 0.463154
Si Si3 0.977215 0.806858 0.923280
Si Si4 0.697262 0.087743 0.940745
Si Si5 0.236991 0.410765 0.406570
Si Si6 0.639857 0.718643 0.284977
O O1 0.459831 0.233853 0.880085
O O2 0.612799 0.115012 0.579798
O O3 0.632231 0.223341 0.398586
O O4 0.433378 0.131340 0.779617
O O5 0.098207 0.146309 0.653039
O O6 0.304142 0.088487 0.184298
O O7 0.285648 0.104005 0.425501
O O8 0.147104 0.000000 0.590312
O O9 0.000000 0.779017 0.000000
O O10 0.855273 0.860704 0.142811
O O11 0.819131 0.132718 0.756063
O O12 0.699665 0.000000 0.980374
O O13 0.264994 0.500000 0.328187
O O14 0.500000 0.711376 0.500000
O O15 0.750000 0.750000 0.000000
#
# Coordination Sequence:
#
# PCOD8105463 Si02
#       6
#     8   8   8   8   8   8
#     4  12  24  40  65  95 132 167 218 269 330 385
#     4   9  19  37  61  92 134 174 210 258 315 390
#     4  10  21  34  60  92 130 168 217 262 314 383
#     4  11  24  43  67  98 132 170 215 270 332 393
#     4  10  22  38  59  92 134 177 211 250 319 396
#     4  12  26  49  74  96 128 170 225 284 338 383
#
# _framework density 20.888065999999998
#
# number of rings (size 3 to 8) (size 9 to 14) (size 15 to 20)
#    0.000    1.333    3.333    2.000    2.333    3.667 
#    0.000    5.000    0.000    0.000    0.000    0.000 
#    0.000    0.000    0.000    0.000    0.000    0.000 
#
# Total GULP energy -297624.199489 kJ/mol
# GULP energy per Si atom -12401.008312 kJ/mol
# Density = 2.084052 g / cm^3
# Si number density = 20.888066 Si / 1000 Ang^3
#
#
#
# Elastic Constant Matrix: (Units=GPa)
#
#
# Indices 1 2 3 4 5 6 
#
# 1 76.2899 45.7626 36.9464 -0.0002 -12.1096 0.0000
# 2 45.7626 137.2945 52.8605 0.0000 -5.2663 0.0000
# 3 36.9464 52.8605 92.9272 -0.0003 -7.9368 0.0001
# 4 -0.0002 0.0000 -0.0003 20.5642 0.0001 -5.7076
# 5 -12.1096 -5.2663 -7.9368 0.0001 40.5839 0.0000
# 6 0.0000 0.0000 0.0001 -5.7076 0.0000 28.1381
#
#
#
# Elastic Compliance Matrix: (Units=1/GPa)
#
#
# Indices 1 2 3 4 5 6 
#
# 1 0.018533 -0.004249 -0.004603 0.000000 0.004078 0.000000
# 2 -0.004249 0.010301 -0.004235 0.000000 -0.000759 0.000000
# 3 -0.004603 -0.004235 0.015088 0.000000 0.001028 0.000000
# 4 0.000000 0.000000 0.000000 0.051529 0.000000 0.010452
# 5 0.004078 -0.000759 0.001028 0.000000 0.025960 0.000000
# 6 0.000000 0.000000 0.000000 0.010452 0.000000 0.037659
#
#
# Mechanical properties :
#
#
# Convention : Reuss Voigt Hill
#
# Bulk Modulus (GPa) = 56.34441 64.18338 60.26390
# Shear Modulus (GPa) = 26.15584 29.25339 27.70461
#
# Velocity S-wave (km/s) = 3.54247 3.74636 3.64584
# Velocity P-wave (km/s) = 6.61552 7.03617 6.82908
#
# Compressibility (1/GPa) = 0.01774799
#
# Stress axis : x y z
#
# Youngs Moduli (GPa) = 53.95728 97.07482 66.27608
#
# Poissons Ratio (x) = 0.41243 0.30510
# Poissons Ratio (y) = 0.22924 0.28071
# Poissons Ratio (z) = 0.24839 0.41116
#
# Static dielectric constant tensor:
#      x y z
#    x 3.748490 0.000000 0.027930 
#    y 0.000000 4.021970 0.000000 
#    z 0.027930 0.000000 3.672380 
# 
# 
# High freq. dielectric constant tensor:
#      x y z
#    x 1.809420 0.000000 -0.001360 
#    y 0.000000 1.829830 0.000000 
#    z -0.001360 0.000000 1.813650 
# 
# From -- ./inp_files/205137.got.cif
#   From: 2010.06.25/outbox.cif.g09.slc.cpg/sg12_103_cif.got.tgz:205137.got - 2010.06.28 00:19:55.
