data_PCOD8105293
_publ_section_title
;
Structure prediction by ZEFSAII (Michael W. Deem and Ramdas Pophale) SiO2 
 PCOD8105293
Probable space group: C 2/M
;
_chemical_formula_sum "Si O2"
_cell_formula_units_Z 56
_cell_length_a 15.116582
_cell_length_b 30.059997
_cell_length_c 13.848046
_cell_angle_alpha 90.000000
_cell_angle_beta 28.230415
_cell_angle_gamma 90.000000
_cell_volume 2976.522636
_symmetry_space_group_name_H-M "C 2/M"
_symmetry_group_IT_number 12
_symmetry_cell_setting 'monoclinic'
loop_
_space_group_symop_operation_xyz
x,y,z
-x,y,-z
-x,-y,-z
x,-y,z
1/2+x,1/2+y,z
1/2-x,1/2+y,-z
1/2-x,1/2-y,-z
1/2+x,1/2-y,z
loop_
_atom_site_type_symbol
_atom_site_label
_atom_site_fract_x
_atom_site_fract_y
_atom_site_fract_z
Si Si1 0.222831 0.051507 0.683561
Si Si2 0.538091 0.341650 0.353456
Si Si3 0.717990 0.198583 0.537779
Si Si4 0.355803 0.220730 0.974746
Si Si5 0.088746 0.107828 0.127041
Si Si6 0.148017 0.449177 0.231671
Si Si7 0.517262 0.310483 0.876184
O O1 0.217846 0.059428 0.804019
O O2 0.433935 0.063521 0.451889
O O3 0.087580 0.083713 0.754005
O O4 0.174072 0.000000 0.706893
O O5 0.500000 0.355094 0.500000
O O6 0.352873 0.318743 0.491585
O O7 0.567777 0.387087 0.263011
O O8 0.717816 0.308711 0.173146
O O9 0.750000 0.250000 0.500000
O O10 0.504946 0.188684 0.775344
O O11 0.778363 0.181076 0.372124
O O12 0.461660 0.258433 0.936286
O O13 0.250000 0.250000 0.000000
O O14 0.119292 0.158458 0.057634
O O15 0.276182 0.080325 0.928684
O O16 0.164956 0.500000 0.184742
O O17 0.500000 0.330308 0.000000
#
# Coordination Sequence:
#
# PCOD8105293 Si02
#       7
#     8   8   8   8   8   8   8
#     4   9  18  33  56  87 118 146 174 207 267 344
#     4  11  25  39  56  77 105 149 198 240 281 328
#     4   9  19  36  53  74 100 129 178 232 277 327
#     4  11  20  38  56  73 102 142 188 235 279 326
#     4  11  20  35  53  79 115 140 178 230 275 320
#     4   9  18  33  58  88 116 148 175 205 267 347
#     4  10  21  33  52  80 108 140 179 224 278 331
#
# _framework density 18.813898999999999
#
# number of rings (size 3 to 8) (size 9 to 14) (size 15 to 20)
#    0.000    2.000    4.286    2.571    4.000    3.429 
#    0.000    0.000    3.143    1.714    0.000    2.000 
#    0.000    0.000    0.000    0.000    0.000    0.000 
#
# Total GULP energy -346866.113756 kJ/mol
# GULP energy per Si atom -12388.075491 kJ/mol
# Density = 1.877108 g / cm^3
# Si number density = 18.813899 Si / 1000 Ang^3
#
#
#
# Elastic Constant Matrix: (Units=GPa)
#
#
# Indices 1 2 3 4 5 6 
#
# 1 84.1918 23.5542 44.5601 0.0022 30.1858 0.0055
# 2 23.5542 70.0413 36.8461 -0.0001 11.6158 0.0025
# 3 44.5601 36.8461 110.8944 0.0090 19.4250 0.0201
# 4 0.0022 -0.0001 0.0090 33.8286 -0.0007 3.1949
# 5 30.1858 11.6158 19.4250 -0.0007 34.1325 -0.0038
# 6 0.0055 0.0025 0.0201 3.1949 -0.0038 24.5050
#
#
#
# Elastic Compliance Matrix: (Units=1/GPa)
#
#
# Indices 1 2 3 4 5 6 
#
# 1 0.020182 -0.001769 -0.004999 0.000000 -0.014401 -0.000003
# 2 -0.001769 0.017720 -0.004881 0.000001 -0.001688 0.000002
# 3 -0.004999 -0.004881 0.012865 -0.000002 -0.001239 -0.000009
# 4 0.000000 0.000001 -0.000002 0.029929 0.000001 -0.003902
# 5 -0.014401 -0.001688 -0.001239 0.000001 0.043313 0.000011
# 6 -0.000003 0.000002 -0.000009 -0.003902 0.000011 0.041317
#
#
# Mechanical properties :
#
#
# Convention : Reuss Voigt Hill
#
# Bulk Modulus (GPa) = 36.40510 52.78313 44.59411
# Shear Modulus (GPa) = 25.28049 29.17104 27.22576
#
# Velocity S-wave (km/s) = 3.66965 3.94192 3.80822
# Velocity P-wave (km/s) = 6.11123 6.98817 6.56436
#
# Compressibility (1/GPa) = 0.02746868
#
# Stress axis : x y z
#
# Youngs Moduli (GPa) = 49.54977 56.43376 77.72805
#
# Poissons Ratio (x) = 0.09981 0.38858
# Poissons Ratio (y) = 0.08764 0.37941
# Poissons Ratio (z) = 0.24771 0.27547
#
# Static dielectric constant tensor:
#      x y z
#    x 3.258240 -0.000010 0.111270 
#    y -0.000010 3.588730 -0.000010 
#    z 0.111270 -0.000010 4.053640 
# 
# 
# High freq. dielectric constant tensor:
#      x y z
#    x 1.696640 0.000000 0.000800 
#    y 0.000000 1.716940 0.000000 
#    z 0.000800 0.000000 1.746150 
# 
# From -- ./inp_files/219349.got.cif
#   From: 2010.06.25/outbox.cif.g09.slc.cpg/sg12_110_cif.got.tgz:219349.got - 2010.06.28 00:19:55.
