data_PCOD8105791
_publ_section_title
;
Structure prediction by ZEFSAII (Michael W. Deem and Ramdas Pophale) SiO2 
 PCOD8105791
Probable space group: C 2/M
;
_chemical_formula_sum "Si O2"
_cell_formula_units_Z 56
_cell_length_a 10.952335
_cell_length_b 19.299173
_cell_length_c 11.965781
_cell_angle_alpha 90.000000
_cell_angle_beta 100.786305
_cell_angle_gamma 90.000000
_cell_volume 2484.532974
_symmetry_space_group_name_H-M "C 2/M"
_symmetry_group_IT_number 12
_symmetry_cell_setting 'monoclinic'
loop_
_space_group_symop_operation_xyz
x,y,z
-x,y,-z
-x,-y,-z
x,-y,z
1/2+x,1/2+y,z
1/2-x,1/2+y,-z
1/2-x,1/2-y,-z
1/2+x,1/2-y,z
loop_
_atom_site_type_symbol
_atom_site_label
_atom_site_fract_x
_atom_site_fract_y
_atom_site_fract_z
Si Si1 0.863669 0.081506 0.454892
Si Si2 0.438384 0.852122 0.213561
Si Si3 0.055885 0.923922 0.148403
Si Si4 0.584203 0.285543 0.911773
Si Si5 0.691289 0.076577 0.230170
Si Si6 0.722609 0.920818 0.642744
Si Si7 0.749757 0.109091 0.995694
O O1 0.812481 0.099995 0.322426
O O2 0.761670 0.107860 0.527597
O O3 0.000000 0.115487 0.500000
O O4 0.877661 0.000000 0.475687
O O5 0.414712 0.770842 0.186156
O O6 0.583650 0.867914 0.233075
O O7 0.386437 0.871980 0.326728
O O8 0.367673 0.897706 0.106833
O O9 0.157426 0.913685 0.260385
O O10 0.963170 0.859386 0.146337
O O11 0.992256 0.000000 0.153931
O O12 0.125106 0.922955 0.038953
O O13 0.723328 0.308181 0.977328
O O14 0.500000 0.257768 0.000000
O O15 0.722233 0.070016 0.105211
O O16 0.648634 0.000000 0.263387
O O17 0.673674 0.000000 0.630328
#
# Coordination Sequence:
#
# PCOD8105791 Si02
#       7
#     8   8   8   8   8   8   8
#     4   9  20  39  63  90 120 156 209 264 312 361
#     4  11  22  38  57  85 128 167 206 239 296 375
#     4   9  19  35  59  92 121 151 196 254 311 354
#     4  10  21  36  58  87 124 167 205 244 298 366
#     4  11  23  36  59  92 125 165 203 252 310 363
#     4   9  19  37  63  88 117 159 203 255 302 353
#     4  10  21  35  57  87 124 164 203 249 295 366
#
# _framework density 22.539446999999999
#
# number of rings (size 3 to 8) (size 9 to 14) (size 15 to 20)
#    0.000    2.143    0.000    2.571    2.000    8.286 
#    0.000    2.143    0.000    5.143    0.000    0.000 
#    0.000    0.000    0.000    0.000    0.000    0.286 
#
# Total GULP energy -347092.510365 kJ/mol
# GULP energy per Si atom -12396.161084 kJ/mol
# Density = 2.248815 g / cm^3
# Si number density = 22.539447 Si / 1000 Ang^3
#
#
#
# Elastic Constant Matrix: (Units=GPa)
#
#
# Indices 1 2 3 4 5 6 
#
# 1 81.3693 8.7745 33.3897 0.0000 0.6046 0.0000
# 2 8.7745 82.2896 15.6110 0.0000 -5.4747 0.0000
# 3 33.3897 15.6110 95.1897 0.0000 -10.7353 0.0000
# 4 0.0000 0.0000 0.0000 16.7680 0.0000 7.6387
# 5 0.6046 -5.4747 -10.7353 0.0000 33.6787 0.0000
# 6 0.0000 0.0000 0.0000 7.6387 0.0000 9.9786
#
#
#
# Elastic Compliance Matrix: (Units=1/GPa)
#
#
# Indices 1 2 3 4 5 6 
#
# 1 0.014517 -0.000695 -0.005207 0.000000 -0.002033 0.000000
# 2 -0.000695 0.012643 -0.001656 0.000000 0.001540 0.000000
# 3 -0.005207 -0.001656 0.013053 0.000000 0.003985 0.000000
# 4 0.000000 0.000000 0.000000 0.091571 0.000000 -0.070099
# 5 -0.002033 0.001540 0.003985 0.000000 0.031249 0.000000
# 6 0.000000 0.000000 0.000000 -0.070099 0.000000 0.153876
#
#
# Mechanical properties :
#
#
# Convention : Reuss Voigt Hill
#
# Bulk Modulus (GPa) = 39.84791 41.59990 40.72391
# Shear Modulus (GPa) = 14.68901 25.48994 20.08948
#
# Velocity S-wave (km/s) = 2.55562 3.36654 2.98871
# Velocity P-wave (km/s) = 5.14060 5.79724 5.47877
#
# Compressibility (1/GPa) = 0.02509542
#
# Stress axis : x y z
#
# Youngs Moduli (GPa) = 68.88704 79.09563 76.61149
#
# Poissons Ratio (x) = 0.05500 0.39894
# Poissons Ratio (y) = 0.04790 0.12686
# Poissons Ratio (z) = 0.35871 0.13097
#
# Static dielectric constant tensor:
#      x y z
#    x 4.080400 0.000000 -0.026230 
#    y 0.000000 3.794030 0.000000 
#    z -0.026230 0.000000 4.173440 
# 
# 
# High freq. dielectric constant tensor:
#      x y z
#    x 1.889590 0.000000 0.004320 
#    y 0.000000 1.860610 0.000000 
#    z 0.004320 0.000000 1.882450 
# 
# From -- ./inp_files/133301.got.cif
#   From: 2010.06.25/outbox.cif.g09.slc.cpg/sg12_67_cif.got.tgz:133301.got - 2010.06.28 00:19:55.
