data_PCOD8105444
_publ_section_title
;
Structure prediction by ZEFSAII (Michael W. Deem and Ramdas Pophale) SiO2 
 PCOD8105444
Probable space group: C 2/M
;
_chemical_formula_sum "Si O2"
_cell_formula_units_Z 40
_cell_length_a 10.049394
_cell_length_b 20.896583
_cell_length_c 10.432033
_cell_angle_alpha 90.000000
_cell_angle_beta 59.072241
_cell_angle_gamma 90.000000
_cell_volume 1879.222681
_symmetry_space_group_name_H-M "C 2/M"
_symmetry_group_IT_number 12
_symmetry_cell_setting 'monoclinic'
loop_
_space_group_symop_operation_xyz
x,y,z
-x,y,-z
-x,-y,-z
x,-y,z
1/2+x,1/2+y,z
1/2-x,1/2+y,-z
1/2-x,1/2-y,-z
1/2+x,1/2-y,z
loop_
_atom_site_type_symbol
_atom_site_label
_atom_site_fract_x
_atom_site_fract_y
_atom_site_fract_z
Si Si1 0.884280 0.570727 0.671697
Si Si2 0.431284 0.750338 0.898721
Si Si3 0.178042 0.822503 0.395842
Si Si4 0.546253 0.111446 0.834777
Si Si5 0.706453 0.313568 0.667854
O O1 0.810626 0.500000 0.685926
O O2 0.751166 0.625488 0.734189
O O3 0.000000 0.588253 0.500000
O O4 0.976139 0.565266 0.761512
O O5 0.474255 0.820734 0.834244
O O6 0.517762 0.699048 0.761976
O O7 0.500000 0.731172 0.000000
O O8 0.250000 0.750000 0.000000
O O9 0.266577 0.877237 0.267807
O O10 0.205502 0.750937 0.322475
O O11 0.258522 0.825079 0.496299
O O12 0.000000 0.841492 0.500000
O O13 0.500000 0.086941 0.000000
#
# Coordination Sequence:
#
# PCOD8105444 Si02
#       5
#     8   8   8   8   8
#     4  11  22  40  64  89 125 171 219 260 304 376
#     4  10  21  34  56  92 128 161 194 258 329 382
#     4  10  21  34  59  93 126 158 198 262 326 379
#     4  10  22  38  59  91 125 161 207 260 322 379
#     4  10  21  35  60  89 129 160 207 256 316 384
#
# _framework density 21.285397
#
# number of rings (size 3 to 8) (size 9 to 14) (size 15 to 20)
#    0.000    1.800    2.000    1.800   14.000    0.400 
#    0.000    0.000    0.000    7.800    0.000    0.000 
#    0.000    0.000    0.000    0.000    0.000    0.000 
#
# Total GULP energy -247848.955232 kJ/mol
# GULP energy per Si atom -12392.447762 kJ/mol
# Density = 2.123695 g / cm^3
# Si number density = 21.285397 Si / 1000 Ang^3
#
#
#
# Elastic Constant Matrix: (Units=GPa)
#
#
# Indices 1 2 3 4 5 6 
#
# 1 88.1145 33.2211 47.5950 0.0000 -24.5802 0.0000
# 2 33.2211 81.4800 19.3601 0.0000 -6.1304 0.0000
# 3 47.5950 19.3601 126.7939 0.0000 -12.9557 0.0000
# 4 0.0000 0.0000 0.0000 5.6463 0.0000 -2.0490
# 5 -24.5802 -6.1304 -12.9557 0.0000 48.9881 0.0000
# 6 0.0000 0.0000 0.0000 -2.0490 0.0000 23.0133
#
#
#
# Elastic Compliance Matrix: (Units=1/GPa)
#
#
# Indices 1 2 3 4 5 6 
#
# 1 0.018323 -0.005681 -0.005286 0.000000 0.007084 0.000000
# 2 -0.005681 0.014556 -0.000200 0.000000 -0.001082 0.000000
# 3 -0.005286 -0.000200 0.009896 0.000000 -0.000061 0.000000
# 4 0.000000 0.000000 0.000000 0.183020 0.000000 0.016295
# 5 0.007084 -0.001082 -0.000061 0.000000 0.023816 0.000000
# 6 0.000000 0.000000 0.000000 0.016295 0.000000 0.044904
#
#
# Mechanical properties :
#
#
# Convention : Reuss Voigt Hill
#
# Bulk Modulus (GPa) = 48.93015 55.19342 52.06179
# Shear Modulus (GPa) = 15.44816 28.61034 22.02925
#
# Velocity S-wave (km/s) = 2.69692 3.67022 3.22055
# Velocity P-wave (km/s) = 5.72149 6.62926 6.19203
#
# Compressibility (1/GPa) = 0.02043730
#
# Stress axis : x y z
#
# Youngs Moduli (GPa) = 54.57727 68.70212 101.05479
#
# Poissons Ratio (x) = 0.39033 0.53422
# Poissons Ratio (y) = 0.31008 0.02025
# Poissons Ratio (z) = 0.28852 0.01377
#
# Static dielectric constant tensor:
#      x y z
#    x 3.733940 0.000000 -0.120720 
#    y 0.000000 3.441860 0.000000 
#    z -0.120720 0.000000 4.354030 
# 
# 
# High freq. dielectric constant tensor:
#      x y z
#    x 1.823480 0.000000 0.008930 
#    y 0.000000 1.790460 0.000000 
#    z 0.008930 0.000000 1.852860 
# 
# From -- ./inp_files/132317.got.cif
#   From: 2010.06.25/outbox.cif.g09.slc.cpg/sg12_67_cif.got.tgz:132317.got - 2010.06.28 00:19:55.
