data_PCOD8105467
_publ_section_title
;
Structure prediction by ZEFSAII (Michael W. Deem and Ramdas Pophale) SiO2 
 PCOD8105467
Probable space group: C 2/M
;
_chemical_formula_sum "Si O2"
_cell_formula_units_Z 40
_cell_length_a 9.212179
_cell_length_b 21.755969
_cell_length_c 16.558435
_cell_angle_alpha 90.000000
_cell_angle_beta 147.106606
_cell_angle_gamma 90.000000
_cell_volume 1802.278948
_symmetry_space_group_name_H-M "C 2/M"
_symmetry_group_IT_number 12
_symmetry_cell_setting 'monoclinic'
loop_
_space_group_symop_operation_xyz
x,y,z
-x,y,-z
-x,-y,-z
x,-y,z
1/2+x,1/2+y,z
1/2-x,1/2+y,-z
1/2-x,1/2-y,-z
1/2+x,1/2-y,z
loop_
_atom_site_type_symbol
_atom_site_label
_atom_site_fract_x
_atom_site_fract_y
_atom_site_fract_z
Si Si1 0.297714 0.068074 0.124824
Si Si2 0.588382 0.287365 0.132844
Si Si3 0.222217 0.068396 0.536153
Si Si4 0.893676 0.687336 0.541483
Si Si5 0.930207 0.657624 0.053711
O O1 0.477954 0.066681 0.288397
O O2 0.461833 0.105766 0.135128
O O3 0.255088 0.000000 0.069633
O O4 0.000000 0.096953 0.000000
O O5 0.627253 0.214403 0.166872
O O6 0.864348 0.321031 0.281612
O O7 0.500000 0.299350 0.000000
O O8 0.367978 0.314306 0.090821
O O9 0.212908 0.125150 0.467471
O O10 0.000000 0.081362 0.500000
O O11 0.167909 0.000000 0.471827
O O12 0.750000 0.750000 0.500000
O O13 0.000000 0.692530 0.500000
O O14 0.000000 0.628067 0.000000
#
# Coordination Sequence:
#
# PCOD8105467 Si02
#       5
#     8   8   8   8   8
#     4  10  21  39  64  90 120 165 216 267 317 379
#     4  10  23  42  62  89 127 175 205 253 327 391
#     4  10  23  44  67  91 128 178 217 259 332 404
#     4  12  28  41  65 101 134 167 218 280 325 377
#     4  10  21  34  62  88 123 161 213 255 316 380
#
# _framework density 22.194123000000001
#
# number of rings (size 3 to 8) (size 9 to 14) (size 15 to 20)
#    0.000    1.600    0.000    3.600   14.000    1.600 
#    0.000    0.000    0.000    7.200    0.000    0.000 
#    0.000    0.000    0.000    0.000    0.000    0.000 
#
# Total GULP energy -247890.176614 kJ/mol
# GULP energy per Si atom -12394.508831 kJ/mol
# Density = 2.214361 g / cm^3
# Si number density = 22.194123 Si / 1000 Ang^3
#
#
#
# Elastic Constant Matrix: (Units=GPa)
#
#
# Indices 1 2 3 4 5 6 
#
# 1 142.9644 76.0969 11.3065 -0.0010 0.6856 -0.0012
# 2 76.0969 182.9681 -0.1331 0.0012 1.3914 -0.0026
# 3 11.3065 -0.1331 68.7029 -0.0165 2.9428 -0.0334
# 4 -0.0010 0.0012 -0.0165 22.2196 -0.0105 6.6004
# 5 0.6856 1.3914 2.9428 -0.0105 25.6687 0.0007
# 6 -0.0012 -0.0026 -0.0334 6.6004 0.0007 39.0933
#
#
#
# Elastic Compliance Matrix: (Units=1/GPa)
#
#
# Indices 1 2 3 4 5 6 
#
# 1 0.009138 -0.003803 -0.001517 0.000000 0.000136 -0.000001
# 2 -0.003803 0.007050 0.000655 -0.000001 -0.000356 0.000001
# 3 -0.001517 0.000655 0.014879 0.000007 -0.001701 0.000012
# 4 0.000000 -0.000001 0.000007 0.047382 0.000019 -0.008000
# 5 0.000136 -0.000356 -0.001701 0.000019 0.039169 -0.000005
# 6 -0.000001 0.000001 0.000012 -0.008000 -0.000005 0.026931
#
#
# Mechanical properties :
#
#
# Convention : Reuss Voigt Hill
#
# Bulk Modulus (GPa) = 46.00363 63.24176 54.62270
# Shear Modulus (GPa) = 31.03193 37.88732 34.45963
#
# Velocity S-wave (km/s) = 3.74331 4.13617 3.94464
# Velocity P-wave (km/s) = 6.28140 7.16710 6.73882
#
# Compressibility (1/GPa) = 0.02173741
#
# Stress axis : x y z
#
# Youngs Moduli (GPa) = 109.43081 141.84026 67.20782
#
# Poissons Ratio (x) = 0.53938 0.10196
# Poissons Ratio (y) = 0.41614 -0.04400
# Poissons Ratio (z) = 0.16601 -0.09286
#
# Static dielectric constant tensor:
#      x y z
#    x 3.884100 -0.000020 0.344430 
#    y -0.000020 4.461820 -0.000010 
#    z 0.344430 -0.000010 3.871860 
# 
# 
# High freq. dielectric constant tensor:
#      x y z
#    x 1.859050 0.000000 0.024000 
#    y 0.000000 1.900090 0.000000 
#    z 0.024000 0.000000 1.854600 
# 
# From -- ./inp_files/259356.got.cif
#   From: 2010.06.25/outbox.cif.g09.slc.cpg/sg12_130_cif.got.tgz:259356.got - 2010.06.28 00:19:55.
