data_PCOD8105119
_publ_section_title
;
Structure prediction by ZEFSAII (Michael W. Deem and Ramdas Pophale) SiO2 
 PCOD8105119
Probable space group: C 2/M
;
_chemical_formula_sum "Si O2"
_cell_formula_units_Z 56
_cell_length_a 21.091690
_cell_length_b 9.122024
_cell_length_c 18.052380
_cell_angle_alpha 90.000000
_cell_angle_beta 123.309102
_cell_angle_gamma 90.000000
_cell_volume 2902.671720
_symmetry_space_group_name_H-M "C 2/M"
_symmetry_group_IT_number 12
_symmetry_cell_setting 'monoclinic'
loop_
_space_group_symop_operation_xyz
x,y,z
-x,y,-z
-x,-y,-z
x,-y,z
1/2+x,1/2+y,z
1/2-x,1/2+y,-z
1/2-x,1/2-y,-z
1/2+x,1/2-y,z
loop_
_atom_site_type_symbol
_atom_site_label
_atom_site_fract_x
_atom_site_fract_y
_atom_site_fract_z
Si Si1 0.980669 0.333796 0.368475
Si Si2 0.325125 0.667299 0.024760
Si Si3 0.103294 0.327365 0.224109
Si Si4 0.587628 0.326160 0.065346
Si Si5 0.968667 0.832186 0.212715
Si Si6 0.257805 0.828512 0.583299
Si Si7 0.622352 0.834138 0.558988
O O1 0.969717 0.500000 0.331889
O O2 0.065233 0.316147 0.453798
O O3 0.968840 0.216247 0.297438
O O4 0.919650 0.297083 0.391973
O O5 0.302241 0.500000 0.997332
O O6 0.383659 0.685333 0.129317
O O7 0.250000 0.750000 0.000000
O O8 0.363703 0.727661 0.974147
O O9 0.099509 0.500000 0.208754
O O10 0.124912 0.250971 0.160578
O O11 0.163797 0.286269 0.326423
O O12 0.022243 0.269253 0.197987
O O13 0.592047 0.500000 0.078375
O O14 0.500000 0.277138 0.000000
O O15 0.996472 0.000000 0.223722
O O16 0.250000 0.750000 0.500000
O O17 0.190660 0.778810 0.594490
O O18 0.252039 0.000000 0.565159
O O19 0.653877 0.000000 0.580353
#
# Coordination Sequence:
#
# PCOD8105119 Si02
#       7
#     8   8   8   8   8   8   8
#     4   9  19  36  58  84 113 149 193 239 288 349
#     4  10  23  41  61  87 120 155 191 241 298 353
#     4  11  24  39  59  89 119 153 198 248 298 352
#     4  10  20  41  66  87 118 156 199 248 296 354
#     4  11  22  38  59  85 116 151 193 241 292 350
#     4  11  24  39  56  83 120 154 194 245 294 348
#     4   9  19  37  58  80 113 153 192 238 292 346
#
# _framework density 19.292572
#
# number of rings (size 3 to 8) (size 9 to 14) (size 15 to 20)
#    0.000    1.857    1.429    3.000    0.000   10.000 
#    0.000    7.143    0.000    0.000    0.000    0.000 
#    0.000    0.000    0.000    0.000    0.000    0.000 
#
# Total GULP energy -347285.281435 kJ/mol
# GULP energy per Si atom -12403.045766 kJ/mol
# Density = 1.924866 g / cm^3
# Si number density = 19.292572 Si / 1000 Ang^3
#
#
#
# Elastic Constant Matrix: (Units=GPa)
#
#
# Indices 1 2 3 4 5 6 
#
# 1 117.8085 45.7449 41.3689 0.0000 -0.2994 0.0000
# 2 45.7449 68.2945 53.1052 0.0000 1.2327 0.0000
# 3 41.3689 53.1052 99.6889 0.0000 -17.1268 0.0000
# 4 0.0000 0.0000 0.0000 37.0138 0.0000 -1.6364
# 5 -0.2994 1.2327 -17.1268 0.0000 29.1304 0.0000
# 6 0.0000 0.0000 0.0000 -1.6364 0.0000 38.4263
#
#
#
# Elastic Compliance Matrix: (Units=1/GPa)
#
#
# Indices 1 2 3 4 5 6 
#
# 1 0.011551 -0.006760 -0.001249 0.000000 -0.000330 0.000000
# 2 -0.006760 0.031804 -0.015996 0.000000 -0.010820 0.000000
# 3 -0.001249 -0.015996 0.021340 0.000000 0.013211 0.000000
# 4 0.000000 0.000000 0.000000 0.027068 0.000000 0.001153
# 5 -0.000330 -0.010820 0.013211 0.000000 0.042550 0.000000
# 6 0.000000 0.000000 0.000000 0.001153 0.000000 0.026073
#
#
# Mechanical properties :
#
#
# Convention : Reuss Voigt Hill
#
# Bulk Modulus (GPa) = 59.93171 62.91443 61.42307
# Shear Modulus (GPa) = 23.36912 30.61895 26.99403
#
# Velocity S-wave (km/s) = 3.48415 3.98815 3.74464
# Velocity P-wave (km/s) = 6.87880 7.34088 7.11359
#
# Compressibility (1/GPa) = 0.01668566
#
# Stress axis : x y z
#
# Youngs Moduli (GPa) = 86.57294 31.44267 46.85967
#
# Poissons Ratio (x) = 0.21255 0.05853
# Poissons Ratio (y) = 0.58522 0.74956
# Poissons Ratio (z) = 0.10813 0.50295
#
# Static dielectric constant tensor:
#      x y z
#    x 3.552170 0.000000 -0.074790 
#    y 0.000000 3.520520 0.000000 
#    z -0.074790 0.000000 3.627840 
# 
# 
# High freq. dielectric constant tensor:
#      x y z
#    x 1.756040 0.000000 -0.007350 
#    y 0.000000 1.748730 0.000000 
#    z -0.007350 0.000000 1.755980 
# 
# From -- ./inp_files/281631.got.cif
#   From: 2010.06.25/outbox.cif.g09.slc.cpg/sg12_141_cif.got.tgz:281631.got - 2010.06.28 00:19:55.
