data_PCOD8105191
_publ_section_title
;
Structure prediction by ZEFSAII (Michael W. Deem and Ramdas Pophale) SiO2 
 PCOD8105191
Probable space group: C 2/M
;
_chemical_formula_sum "Si O2"
_cell_formula_units_Z 64
_cell_length_a 31.003287
_cell_length_b 14.203561
_cell_length_c 9.168865
_cell_angle_alpha 90.000000
_cell_angle_beta 47.266470
_cell_angle_gamma 90.000000
_cell_volume 2965.669623
_symmetry_space_group_name_H-M "C 2/M"
_symmetry_group_IT_number 12
_symmetry_cell_setting 'monoclinic'
loop_
_space_group_symop_operation_xyz
x,y,z
-x,y,-z
-x,-y,-z
x,-y,z
1/2+x,1/2+y,z
1/2-x,1/2+y,-z
1/2-x,1/2-y,-z
1/2+x,1/2-y,z
loop_
_atom_site_type_symbol
_atom_site_label
_atom_site_fract_x
_atom_site_fract_y
_atom_site_fract_z
Si Si1 0.150330 0.395147 0.907808
Si Si2 0.135823 0.896693 0.158293
Si Si3 0.610515 0.396218 0.880839
Si Si4 0.023088 0.396561 0.606799
Si Si5 0.635600 0.199191 0.253599
Si Si6 0.229874 0.602807 0.209224
Si Si7 0.951568 0.292829 0.994567
Si Si8 0.756127 0.140757 0.475591
O O1 0.127822 0.500000 0.998303
O O2 0.217078 0.402229 0.696055
O O3 0.146808 0.331766 0.060768
O O4 0.109604 0.351323 0.871702
O O5 0.113406 0.808380 0.306007
O O6 0.117028 0.000000 0.265154
O O7 0.111910 0.886481 0.050804
O O8 0.205170 0.886367 0.999734
O O9 0.586577 0.500000 0.891386
O O10 0.675678 0.387054 0.662741
O O11 0.565068 0.315798 0.932432
O O12 0.020099 0.500000 0.692006
O O13 0.089669 0.362603 0.448556
O O14 0.000000 0.409104 0.500000
O O15 0.982761 0.315445 0.769811
O O16 0.694107 0.186440 0.214958
O O17 0.204856 0.500000 0.220274
O O18 0.229666 0.606365 0.384096
O O19 0.000000 0.328282 0.000000
O O20 0.750000 0.250000 0.500000
#
# Coordination Sequence:
#
# PCOD8105191 Si02
#       8
#     8   8   8   8   8   8   8   8
#     4  12  23  39  63  95 131 167 209 258 316 385
#     4   9  18  36  62  89 121 163 208 257 312 374
#     4  10  20  42  67  90 124 167 209 260 320 380
#     4  11  23  41  62  84 120 166 210 252 308 373
#     4  12  22  39  61  92 128 170 207 256 314 378
#     4  10  21  36  58  93 130 166 208 252 314 387
#     4  12  26  43  63  92 124 166 216 273 318 367
#     4  11  21  39  66  97 130 169 206 255 318 382
#
# _framework density 21.580286000000001
#
# number of rings (size 3 to 8) (size 9 to 14) (size 15 to 20)
#    0.000    1.125    3.750    4.500    1.750    1.250 
#    0.000    0.625    0.000    6.750    0.000    0.000 
#    0.000    0.000    0.000    0.000    0.000    0.000 
#
# Total GULP energy -396577.558644 kJ/mol
# GULP energy per Si atom -12393.048708 kJ/mol
# Density = 2.153117 g / cm^3
# Si number density = 21.580286 Si / 1000 Ang^3
#
#
#
# Elastic Constant Matrix: (Units=GPa)
#
#
# Indices 1 2 3 4 5 6 
#
# 1 65.0704 15.8128 17.9211 0.0000 -8.7855 0.0000
# 2 15.8128 141.1549 30.6353 0.0000 0.6594 0.0000
# 3 17.9211 30.6353 81.5712 0.0000 -9.2463 0.0000
# 4 0.0000 0.0000 0.0000 23.9053 0.0000 1.5547
# 5 -8.7855 0.6594 -9.2463 0.0000 11.8350 0.0000
# 6 0.0000 0.0000 0.0000 1.5547 0.0000 22.9715
#
#
#
# Elastic Compliance Matrix: (Units=1/GPa)
#
#
# Indices 1 2 3 4 5 6 
#
# 1 0.017908 -0.001632 -0.001980 0.000000 0.011838 0.000000
# 2 -0.001632 0.007957 -0.003091 0.000000 -0.004070 0.000000
# 3 -0.001980 -0.003091 0.015040 0.000000 0.010453 0.000000
# 4 0.000000 0.000000 0.000000 0.042017 0.000000 -0.002844
# 5 0.011838 -0.004070 0.010453 0.000000 0.101676 0.000000
# 6 0.000000 0.000000 0.000000 -0.002844 0.000000 0.043725
#
#
# Mechanical properties :
#
#
# Convention : Reuss Voigt Hill
#
# Bulk Modulus (GPa) = 36.36391 46.28166 41.32278
# Shear Modulus (GPa) = 19.92866 26.63752 23.28309
#
# Velocity S-wave (km/s) = 3.04216 3.51714 3.28823
# Velocity P-wave (km/s) = 5.40617 6.16332 5.79712
#
# Compressibility (1/GPa) = 0.02749979
#
# Stress axis : x y z
#
# Youngs Moduli (GPa) = 55.84077 125.67345 66.48948
#
# Poissons Ratio (x) = 0.20507 0.13163
# Poissons Ratio (y) = 0.09112 0.20553
# Poissons Ratio (z) = 0.11055 0.38849
#
# Static dielectric constant tensor:
#      x y z
#    x 3.848910 0.000000 -0.428410 
#    y 0.000000 4.257850 0.000000 
#    z -0.428410 0.000000 3.673720 
# 
# 
# High freq. dielectric constant tensor:
#      x y z
#    x 1.829610 0.000000 -0.012940 
#    y 0.000000 1.867320 0.000000 
#    z -0.012940 0.000000 1.823560 
# 
# From -- ./inp_files/111958.got.cif
#   From: 2010.06.25/outbox.cif.g09.slc.cpg/sg12_56_cif.got.tgz:111958.got - 2010.06.28 00:19:55.
