data_PCOD8105427
_publ_section_title
;
Structure prediction by ZEFSAII (Michael W. Deem and Ramdas Pophale) SiO2 
 PCOD8105427
Probable space group: C 2/M
;
_chemical_formula_sum "Si O2"
_cell_formula_units_Z 56
_cell_length_a 12.153320
_cell_length_b 19.503833
_cell_length_c 23.442551
_cell_angle_alpha 90.000000
_cell_angle_beta 151.703785
_cell_angle_gamma 90.000000
_cell_volume 2634.059856
_symmetry_space_group_name_H-M "C 2/M"
_symmetry_group_IT_number 12
_symmetry_cell_setting 'monoclinic'
loop_
_space_group_symop_operation_xyz
x,y,z
-x,y,-z
-x,-y,-z
x,-y,z
1/2+x,1/2+y,z
1/2-x,1/2+y,-z
1/2-x,1/2-y,-z
1/2+x,1/2-y,z
loop_
_atom_site_type_symbol
_atom_site_label
_atom_site_fract_x
_atom_site_fract_y
_atom_site_fract_z
Si Si1 0.541187 0.319300 0.299797
Si Si2 0.470774 0.216275 0.925507
Si Si3 0.408256 0.422508 0.017095
Si Si4 0.534695 0.327604 0.861576
Si Si5 0.246502 0.673214 0.408098
Si Si6 0.897259 0.423190 0.753419
Si Si7 0.099648 0.080104 0.420891
O O1 0.266105 0.325861 0.182784
O O2 0.607173 0.326146 0.262751
O O3 0.626470 0.246585 0.364997
O O4 0.652286 0.383690 0.384108
O O5 0.473803 0.260240 0.869523
O O6 0.500000 0.257194 0.000000
O O7 0.690513 0.165485 0.024375
O O8 0.489177 0.500000 0.055111
O O9 0.130602 0.412270 0.896410
O O10 0.500000 0.389052 0.000000
O O11 0.537586 0.390374 0.130861
O O12 0.500000 0.688399 0.500000
O O13 0.094630 0.632252 0.292952
O O14 0.254805 0.624192 0.466980
O O15 0.892723 0.500000 0.724696
O O16 0.673892 0.413355 0.691204
O O17 0.177215 0.000000 0.455621
#
# Coordination Sequence:
#
# PCOD8105427 Si02
#       7
#     8   8   8   8   8   8   8
#     4  11  23  36  58  90 113 153 186 238 293 350
#     4   9  20  35  55  84 117 148 189 224 280 342
#     4  10  21  35  54  84 119 156 194 228 270 341
#     4  10  21  34  55  83 120 153 181 229 282 341
#     4  10  22  37  60  86 113 141 193 253 295 334
#     4   9  19  36  60  86 113 149 193 243 290 329
#     4  10  21  40  62  83 113 150 195 244 291 343
#
# _framework density 21.259957
#
# number of rings (size 3 to 8) (size 9 to 14) (size 15 to 20)
#    0.000    2.143    0.000    2.143   12.000    2.286 
#    0.000    0.000    0.000    5.571    0.000    0.000 
#    0.000    0.000    0.000    0.000    0.000    0.000 
#
# Total GULP energy -346972.071049 kJ/mol
# GULP energy per Si atom -12391.859680 kJ/mol
# Density = 2.121157 g / cm^3
# Si number density = 21.259957 Si / 1000 Ang^3
#
#
#
# Elastic Constant Matrix: (Units=GPa)
#
#
# Indices 1 2 3 4 5 6 
#
# 1 105.0105 47.8893 30.4059 -0.0109 -37.7902 0.0124
# 2 47.8893 126.5154 35.2396 0.0059 -31.9789 -0.0088
# 3 30.4059 35.2396 44.3690 0.0323 -24.3522 -0.0207
# 4 -0.0109 0.0059 0.0323 34.5750 -0.0204 -13.8834
# 5 -37.7902 -31.9789 -24.3522 -0.0204 36.5617 0.0100
# 6 0.0124 -0.0088 -0.0207 -13.8834 0.0100 33.7805
#
#
#
# Elastic Compliance Matrix: (Units=1/GPa)
#
#
# Indices 1 2 3 4 5 6 
#
# 1 0.015788 -0.002109 -0.001892 0.000012 0.013213 -0.000006
# 2 -0.002109 0.011194 -0.005151 0.000005 0.004180 0.000001
# 3 -0.001892 -0.005151 0.038428 -0.000021 0.019135 0.000009
# 4 0.000012 0.000005 -0.000021 0.034639 0.000019 0.014236
# 5 0.013213 0.004180 0.019135 0.000019 0.057409 -0.000001
# 6 -0.000006 0.000001 0.000009 0.014236 -0.000001 0.035454
#
#
# Mechanical properties :
#
#
# Convention : Reuss Voigt Hill
#
# Bulk Modulus (GPa) = 21.22907 55.88495 38.55701
# Shear Modulus (GPa) = 22.03449 31.80745 26.92097
#
# Velocity S-wave (km/s) = 3.22286 3.87217 3.56234
# Velocity P-wave (km/s) = 4.88428 6.80699 5.92416
#
# Compressibility (1/GPa) = 0.04710521
#
# Stress axis : x y z
#
# Youngs Moduli (GPa) = 63.34103 89.33483 26.02270
#
# Poissons Ratio (x) = 0.18843 0.04923
# Poissons Ratio (y) = 0.13360 0.13404
# Poissons Ratio (z) = 0.11983 0.46017
#
# Static dielectric constant tensor:
#      x y z
#    x 3.956160 0.000010 -0.138680 
#    y 0.000010 3.694920 -0.000040 
#    z -0.138680 -0.000040 3.719360 
# 
# 
# High freq. dielectric constant tensor:
#      x y z
#    x 1.830460 0.000000 -0.009670 
#    y 0.000000 1.821290 0.000000 
#    z -0.009670 0.000000 1.820940 
# 
# From -- ./inp_files/336784.got.cif
#   From: 2010.06.25/outbox.cif.g09.slc.cpg/sg12_169_cif.got.tgz:336784.got - 2010.06.28 00:19:55.
