data_PCOD8105073
_publ_section_title
;
Structure prediction by ZEFSAII (Michael W. Deem and Ramdas Pophale) SiO2 
 PCOD8105073
Probable space group: C 2/M
;
_chemical_formula_sum "Si O2"
_cell_formula_units_Z 32
_cell_length_a 9.280341
_cell_length_b 13.098394
_cell_length_c 12.529464
_cell_angle_alpha 90.000000
_cell_angle_beta 51.635688
_cell_angle_gamma 90.000000
_cell_volume 1194.194220
_symmetry_space_group_name_H-M "C 2/M"
_symmetry_group_IT_number 12
_symmetry_cell_setting 'monoclinic'
loop_
_space_group_symop_operation_xyz
x,y,z
-x,y,-z
-x,-y,-z
x,-y,z
1/2+x,1/2+y,z
1/2-x,1/2+y,-z
1/2-x,1/2-y,-z
1/2+x,1/2-y,z
loop_
_atom_site_type_symbol
_atom_site_label
_atom_site_fract_x
_atom_site_fract_y
_atom_site_fract_z
Si Si1 0.465809 0.382210 0.156939
Si Si2 0.699880 0.218584 0.893044
Si Si3 0.798764 0.111414 0.635534
Si Si4 0.321246 0.880442 0.528192
O O1 0.518658 0.500000 0.113048
O O2 0.343365 0.339945 0.113160
O O3 0.651372 0.308772 0.080749
O O4 0.358442 0.368411 0.316657
O O5 0.790499 0.178964 0.743338
O O6 0.500000 0.163938 0.000000
O O7 0.696946 0.168430 0.582481
O O8 0.000000 0.093365 0.500000
O O9 0.713934 0.000000 0.701447
O O10 0.500000 0.828036 0.500000
O O11 0.359037 0.000000 0.491966
#
# Coordination Sequence:
#
# PCOD8105073 Si02
#       4
#     8   8   8   8
#     4  11  26  49  73 105 151 191 242 309 360 429
#     4  12  27  47  73 109 145 195 250 294 363 443
#     4  10  20  40  71 106 144 189 240 299 364 428
#     4   9  19  38  67 104 141 182 237 294 359 429
#
# _framework density 26.796313000000001
#
# number of rings (size 3 to 8) (size 9 to 14) (size 15 to 20)
#    0.000    1.500    2.500    1.500    3.500    4.500 
#    0.000    1.250    0.000    0.000    0.000    0.000 
#    0.000    0.000    0.000    0.000    0.000    0.000 
#
# Total GULP energy -198292.749875 kJ/mol
# GULP energy per Si atom -12393.296867 kJ/mol
# Density = 2.673532 g / cm^3
# Si number density = 26.796313 Si / 1000 Ang^3
#
#
#
# Elastic Constant Matrix: (Units=GPa)
#
#
# Indices 1 2 3 4 5 6 
#
# 1 198.1266 40.9688 18.9581 0.0001 -2.7346 0.0001
# 2 40.9688 134.9180 25.7447 0.0000 -3.8156 0.0001
# 3 18.9581 25.7447 78.7384 -0.0001 -17.6136 0.0003
# 4 0.0001 0.0000 -0.0001 47.4695 -0.0001 -1.1643
# 5 -2.7346 -3.8156 -17.6136 -0.0001 39.8171 -0.0002
# 6 0.0001 0.0001 0.0003 -1.1643 -0.0002 21.3923
#
#
#
# Elastic Compliance Matrix: (Units=1/GPa)
#
#
# Indices 1 2 3 4 5 6 
#
# 1 0.005435 -0.001492 -0.000854 0.000000 -0.000147 0.000000
# 2 -0.001492 0.008321 -0.002448 0.000000 -0.000388 0.000000
# 3 -0.000854 -0.002448 0.015139 0.000000 0.006404 0.000000
# 4 0.000000 0.000000 0.000000 0.021094 0.000000 0.001148
# 5 -0.000147 -0.000388 0.006404 0.000000 0.027900 0.000000
# 6 0.000000 0.000000 0.000000 0.001148 0.000000 0.046808
#
#
# Mechanical properties :
#
#
# Convention : Reuss Voigt Hill
#
# Bulk Modulus (GPa) = 51.79374 64.79182 58.29278
# Shear Modulus (GPa) = 35.53106 43.47655 39.50380
#
# Velocity S-wave (km/s) = 3.64533 4.03237 3.84373
# Velocity P-wave (km/s) = 6.09004 6.77583 6.44207
#
# Compressibility (1/GPa) = 0.01930735
#
# Stress axis : x y z
#
# Youngs Moduli (GPa) = 183.97856 120.17648 66.05500
#
# Poissons Ratio (x) = 0.17927 0.05641
# Poissons Ratio (y) = 0.27445 0.16173
# Poissons Ratio (z) = 0.15711 0.29424
#
# Static dielectric constant tensor:
#      x y z
#    x 5.804120 0.000000 0.273270 
#    y 0.000000 4.993090 0.000000 
#    z 0.273270 0.000000 5.104900 
# 
# 
# High freq. dielectric constant tensor:
#      x y z
#    x 2.089800 0.000000 0.025490 
#    y 0.000000 2.077230 0.000000 
#    z 0.025490 0.000000 2.099410 
# 
# From -- ./inp_files/261419.got.cif
#   From: 2010.06.25/outbox.cif.g09.slc.cpg/sg12_131_cif.got.tgz:261419.got - 2010.06.28 00:19:55.
