data_PCOD8105483
_publ_section_title
;
Structure prediction by ZEFSAII (Michael W. Deem and Ramdas Pophale) SiO2 
 PCOD8105483
Probable space group: C 2/M
;
_chemical_formula_sum "Si O2"
_cell_formula_units_Z 64
_cell_length_a 14.866946
_cell_length_b 9.517756
_cell_length_c 27.084207
_cell_angle_alpha 90.000000
_cell_angle_beta 72.963671
_cell_angle_gamma 90.000000
_cell_volume 3664.244854
_symmetry_space_group_name_H-M "C 2/M"
_symmetry_group_IT_number 12
_symmetry_cell_setting 'monoclinic'
loop_
_space_group_symop_operation_xyz
x,y,z
-x,y,-z
-x,-y,-z
x,-y,z
1/2+x,1/2+y,z
1/2-x,1/2+y,-z
1/2-x,1/2-y,-z
1/2+x,1/2-y,z
loop_
_atom_site_type_symbol
_atom_site_label
_atom_site_fract_x
_atom_site_fract_y
_atom_site_fract_z
Si Si1 0.458998 0.666365 0.577091
Si Si2 0.345124 0.667233 0.500275
Si Si3 0.734088 0.336064 0.051660
Si Si4 0.590518 0.333108 0.307730
Si Si5 0.456932 0.663138 0.243334
Si Si6 0.787681 0.335688 0.236100
Si Si7 0.534641 0.338141 0.125545
Si Si8 0.633154 0.162190 0.881103
O O1 0.459552 0.500000 0.577876
O O2 0.380242 0.712484 0.549561
O O3 0.566501 0.713446 0.548374
O O4 0.429096 0.730222 0.634815
O O5 0.325085 0.500000 0.500065
O O6 0.250000 0.750000 0.500000
O O7 0.734249 0.500000 0.038602
O O8 0.637535 0.290093 0.092888
O O9 0.815707 0.297175 0.076740
O O10 0.750000 0.250000 0.000000
O O11 0.594005 0.500000 0.309083
O O12 0.509096 0.283950 0.283902
O O13 0.688213 0.276106 0.270329
O O14 0.429278 0.500000 0.250753
O O15 0.363752 0.754322 0.255938
O O16 0.523752 0.691782 0.185505
O O17 0.798886 0.500000 0.245094
O O18 0.799270 0.302595 0.176130
O O19 0.516194 0.500000 0.116434
O O20 0.461524 0.250816 0.105045
O O21 0.604474 0.000000 0.884554
#
# Coordination Sequence:
#
# PCOD8105483 Si02
#       8
#     8   8   8   8   8   8   8   8
#     4   8  16  30  46  67  94 125 159 190 227 279
#     4   9  17  31  50  68  90 123 161 197 232 272
#     4  10  21  35  50  69  93 120 152 189 229 273
#     4   9  16  28  48  70  94 125 157 188 225 275
#     4   9  17  30  49  71  93 120 154 188 225 272
#     4   9  17  30  49  71  93 120 154 188 225 272
#     4   9  18  33  51  70  93 121 152 187 227 272
#     4   9  18  33  51  70  93 121 152 187 227 272
#
# _framework density 17.466080000000002
#
# number of rings (size 3 to 8) (size 9 to 14) (size 15 to 20)
#    0.000    3.000    0.000    1.500    0.000    5.500 
#    0.000    4.375    0.000    7.500    0.000    0.000 
#    0.000    0.000    0.000    0.000    0.000    0.000 
#
# Total GULP energy -396686.655015 kJ/mol
# GULP energy per Si atom -12396.457969 kJ/mol
# Density = 1.742633 g / cm^3
# Si number density = 17.466080 Si / 1000 Ang^3
#
#
#
# Elastic Constant Matrix: (Units=GPa)
#
#
# Indices 1 2 3 4 5 6 
#
# 1 104.9223 37.5880 42.0487 0.0000 21.2258 0.0000
# 2 37.5880 33.6109 25.5883 0.0000 7.2932 0.0000
# 3 42.0487 25.5883 82.0505 0.0000 25.1980 0.0000
# 4 0.0000 0.0000 0.0000 16.7921 0.0000 0.2863
# 5 21.2258 7.2932 25.1980 0.0000 21.4968 0.0000
# 6 0.0000 0.0000 0.0000 0.2863 0.0000 33.3465
#
#
#
# Elastic Compliance Matrix: (Units=1/GPa)
#
#
# Indices 1 2 3 4 5 6 
#
# 1 0.018415 -0.017846 -0.000230 0.000000 -0.011859 0.000000
# 2 -0.017846 0.056345 -0.012448 0.000000 0.013096 0.000000
# 3 -0.000230 -0.012448 0.023157 0.000000 -0.022693 0.000000
# 4 0.000000 0.000000 0.000000 0.059561 0.000000 -0.000511
# 5 -0.011859 0.013096 -0.022693 0.000000 0.080385 0.000000
# 6 0.000000 0.000000 0.000000 -0.000511 0.000000 0.029993
#
#
# Mechanical properties :
#
#
# Convention : Reuss Voigt Hill
#
# Bulk Modulus (GPa) = 27.12302 47.89263 37.50782
# Shear Modulus (GPa) = 14.65446 22.01767 18.33606
#
# Velocity S-wave (km/s) = 2.89973 3.55434 3.24359
# Velocity P-wave (km/s) = 5.17435 6.65765 5.96231
#
# Compressibility (1/GPa) = 0.03686906
#
# Stress axis : x y z
#
# Youngs Moduli (GPa) = 54.30244 17.74778 43.18407
#
# Poissons Ratio (x) = 0.31673 0.00993
# Poissons Ratio (y) = 0.96908 0.53755
# Poissons Ratio (z) = 0.01249 0.22092
#
# Static dielectric constant tensor:
#      x y z
#    x 3.346380 0.000000 0.067500 
#    y 0.000000 2.960330 0.000000 
#    z 0.067500 0.000000 3.676150 
# 
# 
# High freq. dielectric constant tensor:
#      x y z
#    x 1.681650 0.000000 0.001670 
#    y 0.000000 1.643020 0.000000 
#    z 0.001670 0.000000 1.678450 
# 
# From -- ./inp_files/335629.got.cif
#   From: 2010.06.25/outbox.cif.g09.slc.cpg/sg12_168_cif.got.tgz:335629.got - 2010.06.28 00:19:55.
