data_PCOD8105641
_publ_section_title
;
Structure prediction by ZEFSAII (Michael W. Deem and Ramdas Pophale) SiO2 
 PCOD8105641
Probable space group: C 2/M
;
_chemical_formula_sum "Si O2"
_cell_formula_units_Z 40
_cell_length_a 29.954127
_cell_length_b 9.312556
_cell_length_c 15.153022
_cell_angle_alpha 90.000000
_cell_angle_beta 29.533529
_cell_angle_gamma 90.000000
_cell_volume 2083.591301
_symmetry_space_group_name_H-M "C 2/M"
_symmetry_group_IT_number 12
_symmetry_cell_setting 'monoclinic'
loop_
_space_group_symop_operation_xyz
x,y,z
-x,y,-z
-x,-y,-z
x,-y,z
1/2+x,1/2+y,z
1/2-x,1/2+y,-z
1/2-x,1/2-y,-z
1/2+x,1/2-y,z
loop_
_atom_site_type_symbol
_atom_site_label
_atom_site_fract_x
_atom_site_fract_y
_atom_site_fract_z
Si Si1 0.710248 0.835715 0.293550
Si Si2 0.082249 0.832438 0.099060
Si Si3 0.433208 0.160788 0.033990
Si Si4 0.769630 0.164342 0.378853
Si Si5 0.538146 0.332423 0.527086
O O1 0.699348 0.815419 0.418864
O O2 0.634509 0.740556 0.378146
O O3 0.692519 0.000000 0.298262
O O4 0.810692 0.791100 0.086027
O O5 0.038394 0.797118 0.268796
O O6 0.069665 0.000000 0.095339
O O7 0.027310 0.729115 0.124494
O O8 0.362745 0.280978 0.181102
O O9 0.394206 0.000000 0.082877
O O10 0.500000 0.148372 0.000000
O O11 0.750000 0.250000 0.500000
O O12 0.777177 0.000000 0.394317
O O13 0.500000 0.275098 0.500000
O O14 0.558933 0.500000 0.487442
#
# Coordination Sequence:
#
# PCOD8105641 Si02
#       5
#     8   8   8   8   8
#     4   9  20  38  57  80 114 150 189 236 285 341
#     4   9  20  39  58  80 114 154 190 234 291 350
#     4  10  21  35  53  81 114 148 190 238 283 337
#     4  10  21  36  55  81 115 152 190 233 284 343
#     4  10  22  39  60  87 115 147 192 241 291 347
#
# _framework density 19.197623
#
# number of rings (size 3 to 8) (size 9 to 14) (size 15 to 20)
#    0.000    2.400    0.000    2.400    2.800    7.600 
#    0.000    0.000    0.000    0.000    0.000    0.000 
#    0.000    0.000    0.000    0.000    0.000    0.000 
#
# Total GULP energy -247824.218240 kJ/mol
# GULP energy per Si atom -12391.210912 kJ/mol
# Density = 1.915393 g / cm^3
# Si number density = 19.197623 Si / 1000 Ang^3
#
#
#
# Elastic Constant Matrix: (Units=GPa)
#
#
# Indices 1 2 3 4 5 6 
#
# 1 131.1104 72.2415 61.2158 0.0000 12.5800 0.0000
# 2 72.2415 93.5085 41.5812 0.0000 5.4642 0.0000
# 3 61.2158 41.5812 90.0607 0.0000 12.0639 0.0000
# 4 0.0000 0.0000 0.0000 42.5563 0.0000 21.4262
# 5 12.5800 5.4642 12.0639 0.0000 32.4700 0.0000
# 6 0.0000 0.0000 0.0000 21.4262 0.0000 76.8323
#
#
#
# Elastic Compliance Matrix: (Units=1/GPa)
#
#
# Indices 1 2 3 4 5 6 
#
# 1 0.015915 -0.009422 -0.006161 0.000000 -0.002292 0.000000
# 2 -0.009422 0.019035 -0.002572 0.000000 0.001403 0.000000
# 3 -0.006161 -0.002572 0.016944 0.000000 -0.003476 0.000000
# 4 0.000000 0.000000 0.000000 0.027336 0.000000 -0.007623
# 5 -0.002292 0.001403 -0.003476 0.000000 0.032741 0.000000
# 6 0.000000 0.000000 0.000000 -0.007623 0.000000 0.015141
#
#
# Mechanical properties :
#
#
# Convention : Reuss Voigt Hill
#
# Bulk Modulus (GPa) = 64.16473 73.86184 69.01328
# Shear Modulus (GPa) = 29.65299 39.68112 34.66706
#
# Velocity S-wave (km/s) = 3.93443 4.55134 4.25408
# Velocity P-wave (km/s) = 7.35768 8.13496 7.75606
#
# Compressibility (1/GPa) = 0.01558489
#
# Stress axis : x y z
#
# Youngs Moduli (GPa) = 62.83431 52.53450 59.01716
#
# Poissons Ratio (x) = 0.49498 0.36358
# Poissons Ratio (y) = 0.59202 0.15180
# Poissons Ratio (z) = 0.38709 0.13513
#
# Static dielectric constant tensor:
#      x y z
#    x 3.190680 0.000000 -0.491420 
#    y 0.000000 3.671140 0.000000 
#    z -0.491420 0.000000 3.142680 
# 
# 
# High freq. dielectric constant tensor:
#      x y z
#    x 1.744660 0.000000 0.013180 
#    y 0.000000 1.753610 0.000000 
#    z 0.013180 0.000000 1.740440 
# 
# From -- ./inp_files/211157.got.cif
#   From: 2010.06.25/outbox.cif.g09.slc.cpg/sg12_106_cif.got.tgz:211157.got - 2010.06.28 00:19:55.
