data_PCOD8105199
_publ_section_title
;
Structure prediction by ZEFSAII (Michael W. Deem and Ramdas Pophale) SiO2 
 PCOD8105199
Probable space group: C 2/M
;
_chemical_formula_sum "Si O2"
_cell_formula_units_Z 32
_cell_length_a 14.252261
_cell_length_b 18.569833
_cell_length_c 11.220864
_cell_angle_alpha 90.000000
_cell_angle_beta 27.508187
_cell_angle_gamma 90.000000
_cell_volume 1371.648560
_symmetry_space_group_name_H-M "C 2/M"
_symmetry_group_IT_number 12
_symmetry_cell_setting 'monoclinic'
loop_
_space_group_symop_operation_xyz
x,y,z
-x,y,-z
-x,-y,-z
x,-y,z
1/2+x,1/2+y,z
1/2-x,1/2+y,-z
1/2-x,1/2-y,-z
1/2+x,1/2-y,z
loop_
_atom_site_type_symbol
_atom_site_label
_atom_site_fract_x
_atom_site_fract_y
_atom_site_fract_z
Si Si1 0.686769 0.879851 0.610795
Si Si2 0.000000 0.269922 0.000000
Si Si3 0.263067 0.000000 0.799412
Si Si4 0.403740 0.000000 0.977249
Si Si5 0.221331 0.649013 0.304747
Si Si6 0.993128 0.000000 0.682577
O O1 0.637080 0.817920 0.760059
O O2 0.487239 0.929253 0.815856
O O3 0.731677 0.841619 0.435642
O O4 0.873148 0.928281 0.451664
O O5 0.154416 0.215280 0.894207
O O6 0.500000 0.000000 0.500000
O O7 0.171114 0.927516 0.845055
O O8 0.199893 0.000000 0.008623
O O9 0.500000 0.000000 0.000000
O O10 0.154529 0.000000 0.270202
O O11 0.000000 0.652386 0.500000
#
# Coordination Sequence:
#
# PCOD8105199 Si02
#       6
#     8   4   4   4   8   4
#     4  11  25  44  65 104 139 178 235 278 334 414
#     4  12  26  44  62  98 144 184 236 274 330 418
#     4  10  20  42  69 104 125 168 226 284 339 397
#     4  11  22  44  70 101 135 174 225 283 333 408
#     4  11  24  42  70  97 134 180 227 290 343 393
#     4  11  24  42  76 100 135 183 218 287 350 389
#
# _framework density 23.329592000000002
#
# number of rings (size 3 to 8) (size 9 to 14) (size 15 to 20)
#    0.000    1.000    1.250    6.750    0.000    6.500 
#    0.000    0.000    0.000    0.000    0.000    0.000 
#    0.000    0.000    0.000    0.000    0.000    0.000 
#
# Total GULP energy -198290.227508 kJ/mol
# GULP energy per Si atom -12393.139219 kJ/mol
# Density = 2.327649 g / cm^3
# Si number density = 23.329592 Si / 1000 Ang^3
#
#
#
# Elastic Constant Matrix: (Units=GPa)
#
#
# Indices 1 2 3 4 5 6 
#
# 1 113.7482 42.2717 38.1248 0.7326 -35.1076 0.3065
# 2 42.2717 182.7904 69.9389 1.3638 -10.6376 0.5295
# 3 38.1248 69.9389 105.7761 -0.9907 -38.9772 -0.3733
# 4 0.7326 1.3638 -0.9907 -557.8859 -0.4676 -206.1930
# 5 -35.1076 -10.6376 -38.9772 -0.4676 40.9712 -0.1850
# 6 0.3065 0.5295 -0.3733 -206.1930 -0.1850 -52.4100
#
#
#
# Elastic Compliance Matrix: (Units=1/GPa)
#
#
# Indices 1 2 3 4 5 6 
#
# 1 0.013030 -0.002958 0.001679 0.000000 0.011994 -0.000010
# 2 -0.002958 0.008487 -0.007186 0.000039 -0.007167 -0.000010
# 3 0.001679 -0.007186 0.020697 -0.000076 0.019262 0.000021
# 4 0.000000 0.000039 -0.000076 0.003948 -0.000087 -0.015531
# 5 0.011994 -0.007167 0.019262 -0.000087 0.051148 0.000022
# 6 -0.000010 -0.000010 0.000021 -0.015531 0.000022 0.042020
#
#
# Mechanical properties :
#
#
# Convention : Reuss Voigt Hill
#
# Bulk Modulus (GPa) = 39.54950 78.10951 58.82951
# Shear Modulus (GPa) = 30.36052 -97.06632 -33.35290
#
# Velocity S-wave (km/s) = 3.61137 -6.45731 -3.78516
# Velocity P-wave (km/s) = 5.86333 4.69492 2.48359
#
# Compressibility (1/GPa) = 0.02528477
#
# Stress axis : x y z
#
# Youngs Moduli (GPa) = 76.74785 117.82917 48.31517
#
# Poissons Ratio (x) = 0.34849 -0.08112
# Poissons Ratio (y) = 0.22699 0.34719
# Poissons Ratio (z) = -0.12886 0.84672
#
# Static dielectric constant tensor:
#      x y z
#    x 3.993440 -0.000130 -0.016100 
#    y -0.000130 4.624530 0.000260 
#    z -0.016100 0.000260 4.783600 
# 
# 
# High freq. dielectric constant tensor:
#      x y z
#    x 1.907630 -0.000010 -0.003250 
#    y -0.000010 1.930690 0.000020 
#    z -0.003250 0.000020 1.948140 
# 
# From -- ./inp_files/146000.got.cif
#   From: 2010.06.25/outbox.cif.g09.slc.cpg/sg12_73_cif.got.tgz:146000.got - 2010.06.28 00:19:55.
