data_PCOD8105076
_publ_section_title
;
Structure prediction by ZEFSAII (Michael W. Deem and Ramdas Pophale) SiO2 
 PCOD8105076
Probable space group: C 2/M
;
_chemical_formula_sum "Si O2"
_cell_formula_units_Z 64
_cell_length_a 14.178682
_cell_length_b 16.744886
_cell_length_c 16.110377
_cell_angle_alpha 90.000000
_cell_angle_beta 127.077026
_cell_angle_gamma 90.000000
_cell_volume 3051.629478
_symmetry_space_group_name_H-M "C 2/M"
_symmetry_group_IT_number 12
_symmetry_cell_setting 'monoclinic'
loop_
_space_group_symop_operation_xyz
x,y,z
-x,y,-z
-x,-y,-z
x,-y,z
1/2+x,1/2+y,z
1/2-x,1/2+y,-z
1/2-x,1/2-y,-z
1/2+x,1/2-y,z
loop_
_atom_site_type_symbol
_atom_site_label
_atom_site_fract_x
_atom_site_fract_y
_atom_site_fract_z
Si Si1 0.221986 0.342522 0.994446
Si Si2 0.979507 0.905873 0.396872
Si Si3 0.462795 0.814934 0.230216
Si Si4 0.461188 0.411277 0.073151
Si Si5 0.295980 0.590884 0.593954
Si Si6 0.790212 0.188337 0.201635
Si Si7 0.638220 0.711250 0.242348
Si Si8 0.967578 0.409308 0.574222
O O1 0.101071 0.362802 0.879772
O O2 0.250000 0.250000 0.000000
O O3 0.321614 0.397232 0.005590
O O4 0.214286 0.359187 0.090376
O O5 0.854337 0.872411 0.298179
O O6 0.000000 0.871800 0.500000
O O7 0.093657 0.880181 0.403416
O O8 0.966260 0.000000 0.391160
O O9 0.394260 0.733386 0.209888
O O10 0.593483 0.788352 0.270405
O O11 0.464903 0.864427 0.316378
O O12 0.490052 0.500000 0.124365
O O13 0.526766 0.342297 0.157647
O O14 0.500000 0.406094 0.000000
O O15 0.316471 0.500000 0.636442
O O16 0.278985 0.652416 0.660711
O O17 0.172199 0.595561 0.479433
O O18 0.709183 0.254523 0.202335
O O19 0.013430 0.500000 0.600463
O O20 0.000000 0.373434 0.500000
#
# Coordination Sequence:
#
# PCOD8105076 Si02
#       8
#     8   8   8   8   8   8   8   8
#     4  10  20  41  59  86 133 168 207 254 321 378
#     4  10  22  41  64  91 125 165 218 273 322 382
#     4  11  23  40  61  92 126 166 214 260 319 387
#     4  11  22  37  64  98 126 164 216 266 321 386
#     4  10  21  41  65  89 124 165 208 269 333 383
#     4  11  23  39  61  93 124 173 211 260 328 383
#     4  12  23  37  63  93 127 168 205 272 319 383
#     4  10  23  42  63  90 128 171 210 263 332 394
#
# _framework density 20.972401999999999
#
# number of rings (size 3 to 8) (size 9 to 14) (size 15 to 20)
#    0.000    1.375    3.750    2.625    1.750    4.000 
#    0.000    3.125    0.000    0.000    0.000    2.625 
#    0.000    0.000    0.000    0.000    0.000    0.000 
#
# Total GULP energy -396664.369450 kJ/mol
# GULP energy per Si atom -12395.761545 kJ/mol
# Density = 2.092467 g / cm^3
# Si number density = 20.972402 Si / 1000 Ang^3
#
#
#
# Elastic Constant Matrix: (Units=GPa)
#
#
# Indices 1 2 3 4 5 6 
#
# 1 85.1945 35.9552 33.5222 0.0000 -11.9417 0.0000
# 2 35.9552 56.0103 44.6794 0.0000 -8.3504 0.0000
# 3 33.5222 44.6794 161.3128 0.0000 -16.4443 0.0000
# 4 0.0000 0.0000 0.0000 30.7458 0.0000 1.2082
# 5 -11.9417 -8.3504 -16.4443 0.0000 30.4454 0.0000
# 6 0.0000 0.0000 0.0000 1.2082 0.0000 28.1599
#
#
#
# Elastic Compliance Matrix: (Units=1/GPa)
#
#
# Indices 1 2 3 4 5 6 
#
# 1 0.016509 -0.009777 -0.000356 0.000000 0.003602 0.000000
# 2 -0.009777 0.028974 -0.005899 0.000000 0.000926 0.000000
# 3 -0.000356 -0.005899 0.008178 0.000000 0.002660 0.000000
# 4 0.000000 0.000000 0.000000 0.032580 0.000000 -0.001398
# 5 0.003602 0.000926 0.002660 0.000000 0.035949 0.000000
# 6 0.000000 0.000000 0.000000 -0.001398 0.000000 0.035571
#
#
# Mechanical properties :
#
#
# Convention : Reuss Voigt Hill
#
# Bulk Modulus (GPa) = 46.30144 58.98125 52.64134
# Shear Modulus (GPa) = 25.37777 30.42761 27.90269
#
# Velocity S-wave (km/s) = 3.48236 3.81312 3.65149
# Velocity P-wave (km/s) = 6.18824 6.89716 6.55230
#
# Compressibility (1/GPa) = 0.02159760
#
# Stress axis : x y z
#
# Youngs Moduli (GPa) = 60.57335 34.51403 122.27971
#
# Poissons Ratio (x) = 0.33745 0.04347
# Poissons Ratio (y) = 0.59224 0.72131
# Poissons Ratio (z) = 0.02153 0.20359
#
# Static dielectric constant tensor:
#      x y z
#    x 3.766680 0.000000 -0.133660 
#    y 0.000000 3.678450 0.000000 
#    z -0.133660 0.000000 4.427360 
# 
# 
# High freq. dielectric constant tensor:
#      x y z
#    x 1.815970 0.000000 -0.005190 
#    y 0.000000 1.803440 0.000000 
#    z -0.005190 0.000000 1.829900 
# 
# From -- ./inp_files/216807.got.cif
#   From: 2010.06.25/outbox.cif.g09.slc.cpg/sg12_109_cif.got.tgz:216807.got - 2010.06.28 00:19:55.
