data_PCOD8105265
_publ_section_title
;
Structure prediction by ZEFSAII (Michael W. Deem and Ramdas Pophale) SiO2 
 PCOD8105265
Probable space group: C 2/M
;
_chemical_formula_sum "Si O2"
_cell_formula_units_Z 56
_cell_length_a 15.451606
_cell_length_b 17.982324
_cell_length_c 19.593516
_cell_angle_alpha 90.000000
_cell_angle_beta 30.327055
_cell_angle_gamma 90.000000
_cell_volume 2748.954302
_symmetry_space_group_name_H-M "C 2/M"
_symmetry_group_IT_number 12
_symmetry_cell_setting 'monoclinic'
loop_
_space_group_symop_operation_xyz
x,y,z
-x,y,-z
-x,-y,-z
x,-y,z
1/2+x,1/2+y,z
1/2-x,1/2+y,-z
1/2-x,1/2-y,-z
1/2+x,1/2-y,z
loop_
_atom_site_type_symbol
_atom_site_label
_atom_site_fract_x
_atom_site_fract_y
_atom_site_fract_z
Si Si1 0.192625 0.083953 0.845058
Si Si2 0.693718 0.824567 0.111372
Si Si3 0.235761 0.163076 0.223810
Si Si4 0.075498 0.085305 0.520916
Si Si5 0.677847 0.198986 0.347886
Si Si6 0.396794 0.181288 0.972790
Si Si7 0.682440 0.219179 0.617165
O O1 0.299399 0.110286 0.838103
O O2 0.224623 0.130855 0.754555
O O3 0.245105 0.000000 0.792025
O O4 0.000000 0.091744 0.000000
O O5 0.861836 0.770846 0.997388
O O6 0.522289 0.779604 0.246878
O O7 0.675464 0.856766 0.046822
O O8 0.144215 0.239918 0.310321
O O9 0.296550 0.153031 0.105915
O O10 0.095333 0.097728 0.318163
O O11 0.402388 0.159364 0.159906
O O12 0.237217 0.136705 0.428697
O O13 0.000000 0.109889 0.500000
O O14 0.136738 0.000000 0.483276
O O15 0.500000 0.170038 0.500000
O O16 0.782020 0.229685 0.341414
O O17 0.750000 0.250000 0.500000
#
# Coordination Sequence:
#
# PCOD8105265 Si02
#       7
#     8   8   8   8   8   8   8
#     4  11  26  46  65  89 130 179 219 267 332 394
#     4  11  21  36  60  96 123 162 215 272 320 374
#     4  11  18  39  61  94 127 166 213 260 323 387
#     4  11  22  40  64  91 128 170 208 257 330 400
#     4  12  21  39  67  96 125 166 223 266 317 390
#     4  10  21  32  63  96 123 161 218 272 311 377
#     4  12  23  38  63  98 130 163 211 271 327 384
#
# _framework density 20.371382000000001
#
# number of rings (size 3 to 8) (size 9 to 14) (size 15 to 20)
#    0.000    0.857    5.714    2.571    2.000    0.857 
#    0.000    3.571    0.000    0.000    0.000    0.000 
#    0.000    0.000    0.000    0.000    0.000    0.000 
#
# Total GULP energy -346938.231654 kJ/mol
# GULP energy per Si atom -12390.651131 kJ/mol
# Density = 2.032502 g / cm^3
# Si number density = 20.371382 Si / 1000 Ang^3
#
#
#
# Elastic Constant Matrix: (Units=GPa)
#
#
# Indices 1 2 3 4 5 6 
#
# 1 105.1537 41.1301 26.0642 0.0047 14.2630 -0.0005
# 2 41.1301 92.1145 29.9656 -0.0216 3.9974 0.0082
# 3 26.0642 29.9656 85.7005 -0.0490 9.4745 0.0144
# 4 0.0047 -0.0216 -0.0490 31.1672 0.0136 1.6696
# 5 14.2630 3.9974 9.4745 0.0136 33.4064 0.0018
# 6 -0.0005 0.0082 0.0144 1.6696 0.0018 25.2114
#
#
#
# Elastic Compliance Matrix: (Units=1/GPa)
#
#
# Indices 1 2 3 4 5 6 
#
# 1 0.012368 -0.004815 -0.001608 -0.000006 -0.004248 0.000003
# 2 -0.004815 0.014126 -0.003629 0.000004 0.001395 -0.000003
# 3 -0.001608 -0.003629 0.013733 0.000021 -0.002774 -0.000008
# 4 -0.000006 0.000004 0.000021 0.032199 -0.000017 -0.002132
# 5 -0.004248 0.001395 -0.002774 -0.000017 0.032368 0.000000
# 6 0.000003 -0.000003 -0.000008 -0.002132 0.000000 0.039806
#
#
# Mechanical properties :
#
#
# Convention : Reuss Voigt Hill
#
# Bulk Modulus (GPa) = 49.69473 53.03204 51.36339
# Shear Modulus (GPa) = 29.16937 30.34426 29.75681
#
# Velocity S-wave (km/s) = 3.78812 3.86366 3.82608
# Velocity P-wave (km/s) = 6.60155 6.78181 6.69229
#
# Compressibility (1/GPa) = 0.02012286
#
# Stress axis : x y z
#
# Youngs Moduli (GPa) = 80.85315 70.79143 72.81579
#
# Poissons Ratio (x) = 0.34086 0.11711
# Poissons Ratio (y) = 0.38930 0.26425
# Poissons Ratio (z) = 0.13004 0.25690
#
# Static dielectric constant tensor:
#      x y z
#    x 3.964760 -0.000080 0.292810 
#    y -0.000080 3.463140 -0.000480 
#    z 0.292810 -0.000480 2.826090 
# 
# 
# High freq. dielectric constant tensor:
#      x y z
#    x 1.806590 0.000000 0.009730 
#    y 0.000000 1.749270 0.000010 
#    z 0.009730 0.000010 1.821510 
# 
# From -- ./inp_files/311671.got.cif
#   From: 2010.06.25/outbox.cif.g09.slc.cpg/sg12_156_cif.got.tgz:311671.got - 2010.06.28 00:19:55.
