data_PCOD8105349
_publ_section_title
;
Structure prediction by ZEFSAII (Michael W. Deem and Ramdas Pophale) SiO2 
 PCOD8105349
Probable space group: C 2/M
;
_chemical_formula_sum "Si O2"
_cell_formula_units_Z 64
_cell_length_a 24.586067
_cell_length_b 8.900480
_cell_length_c 23.856188
_cell_angle_alpha 90.000000
_cell_angle_beta 46.845195
_cell_angle_gamma 90.000000
_cell_volume 3808.323377
_symmetry_space_group_name_H-M "C 2/M"
_symmetry_group_IT_number 12
_symmetry_cell_setting 'monoclinic'
loop_
_space_group_symop_operation_xyz
x,y,z
-x,y,-z
-x,-y,-z
x,-y,z
1/2+x,1/2+y,z
1/2-x,1/2+y,-z
1/2-x,1/2-y,-z
1/2+x,1/2-y,z
loop_
_atom_site_type_symbol
_atom_site_label
_atom_site_fract_x
_atom_site_fract_y
_atom_site_fract_z
Si Si1 0.918778 0.323164 0.833643
Si Si2 0.571520 0.822005 0.676888
Si Si3 0.360950 0.326213 0.677753
Si Si4 0.308705 0.175145 0.998506
Si Si5 0.969912 0.174904 0.409546
Si Si6 0.723298 0.324474 0.575826
Si Si7 0.144623 0.674616 0.433327
Si Si8 0.300201 0.324576 0.836263
O O1 0.917190 0.500000 0.826072
O O2 0.864915 0.257334 0.824572
O O3 0.002909 0.266318 0.764311
O O4 0.890908 0.277381 0.916970
O O5 0.559079 0.771554 0.621959
O O6 0.644884 0.745345 0.650512
O O7 0.582118 0.000000 0.669948
O O8 0.352744 0.500000 0.665961
O O9 0.443905 0.291785 0.640577
O O10 0.338821 0.220996 0.641969
O O11 0.304152 0.281760 0.768049
O O12 0.283275 0.216832 0.080264
O O13 0.300305 0.000000 0.995601
O O14 0.250000 0.250000 0.000000
O O15 0.924603 0.227080 0.496139
O O16 0.955101 0.000000 0.408177
O O17 0.713806 0.500000 0.571747
O O18 0.750000 0.250000 0.500000
O O19 0.781849 0.288882 0.583143
O O20 0.123303 0.500000 0.451582
O O21 0.317159 0.500000 0.831301
#
# Coordination Sequence:
#
# PCOD8105349 Si02
#       8
#     8   8   8   8   8   8   8   8
#     4   9  17  28  44  70 101 130 161 198 240 285
#     4  11  21  32  50  75 101 131 166 202 245 292
#     4  10  21  34  49  73 101 132 167 199 240 291
#     4   8  14  25  42  65  96 130 160 193 233 281
#     4  11  21  34  52  72  99 132 165 201 241 288
#     4  11  23  38  55  73  94 124 164 208 254 296
#     4  11  24  38  52  71  94 125 166 208 250 294
#     4   9  16  28  46  69  98 132 165 194 233 289
#
# _framework density 16.805295000000001
#
# number of rings (size 3 to 8) (size 9 to 14) (size 15 to 20)
#    0.000    2.000    2.500    1.875    0.000    5.000 
#    0.000    0.000    0.000    0.000    0.000    0.875 
#    0.000    7.000    0.000    0.000    0.000    0.000 
#
# Total GULP energy -396590.178581 kJ/mol
# GULP energy per Si atom -12393.443081 kJ/mol
# Density = 1.676705 g / cm^3
# Si number density = 16.805295 Si / 1000 Ang^3
#
#
#
# Elastic Constant Matrix: (Units=GPa)
#
#
# Indices 1 2 3 4 5 6 
#
# 1 47.5823 21.6742 31.9971 0.0003 0.8956 -0.0001
# 2 21.6742 39.8048 24.7686 -0.0008 -4.7488 0.0003
# 3 31.9971 24.7686 149.1647 0.0003 -4.2108 0.0000
# 4 0.0003 -0.0008 0.0003 19.9365 -0.0002 0.4192
# 5 0.8956 -4.7488 -4.2108 -0.0002 17.0397 0.0001
# 6 -0.0001 0.0003 0.0000 0.4192 0.0001 24.5278
#
#
#
# Elastic Compliance Matrix: (Units=1/GPa)
#
#
# Indices 1 2 3 4 5 6 
#
# 1 0.030857 -0.014922 -0.004335 -0.000001 -0.006852 0.000000
# 2 -0.014922 0.036016 -0.002491 0.000002 0.010206 -0.000001
# 3 -0.004335 -0.002491 0.008091 0.000000 0.001533 0.000000
# 4 -0.000001 0.000002 0.000000 0.050177 0.000001 -0.000858
# 5 -0.006852 0.010206 0.001533 0.000001 0.062270 0.000000
# 6 0.000000 -0.000001 0.000000 -0.000858 0.000000 0.040785
#
#
# Mechanical properties :
#
#
# Convention : Reuss Voigt Hill
#
# Bulk Modulus (GPa) = 31.77913 43.71462 37.74688
# Shear Modulus (GPa) = 17.71908 22.84159 20.28034
#
# Velocity S-wave (km/s) = 3.25064 3.69072 3.47765
# Velocity P-wave (km/s) = 5.74805 6.65062 6.21574
#
# Compressibility (1/GPa) = 0.03146719
#
# Stress axis : x y z
#
# Youngs Moduli (GPa) = 32.40712 27.76559 123.59722
#
# Poissons Ratio (x) = 0.41433 0.53577
# Poissons Ratio (y) = 0.48359 0.30792
# Poissons Ratio (z) = 0.14048 0.06917
#
# Static dielectric constant tensor:
#      x y z
#    x 2.935570 0.000000 -0.089830 
#    y 0.000000 3.183830 0.000000 
#    z -0.089830 0.000000 3.929660 
# 
# 
# High freq. dielectric constant tensor:
#      x y z
#    x 1.602170 0.000000 -0.004270 
#    y 0.000000 1.655430 0.000000 
#    z -0.004270 0.000000 1.667110 
# 
# From -- ./inp_files/319839.got.cif
#   From: 2010.06.25/outbox.cif.g09.slc.cpg/sg12_160_cif.got.tgz:319839.got - 2010.06.28 00:19:55.
