data_PCOD8105145
_publ_section_title
;
Structure prediction by ZEFSAII (Michael W. Deem and Ramdas Pophale) SiO2 
 PCOD8105145
Probable space group: C 2/M
;
_chemical_formula_sum "Si O2"
_cell_formula_units_Z 48
_cell_length_a 9.060322
_cell_length_b 24.635092
_cell_length_c 11.198493
_cell_angle_alpha 90.000000
_cell_angle_beta 114.663176
_cell_angle_gamma 90.000000
_cell_volume 2271.509290
_symmetry_space_group_name_H-M "C 2/M"
_symmetry_group_IT_number 12
_symmetry_cell_setting 'monoclinic'
loop_
_space_group_symop_operation_xyz
x,y,z
-x,y,-z
-x,-y,-z
x,-y,z
1/2+x,1/2+y,z
1/2-x,1/2+y,-z
1/2-x,1/2-y,-z
1/2+x,1/2-y,z
loop_
_atom_site_type_symbol
_atom_site_label
_atom_site_fract_x
_atom_site_fract_y
_atom_site_fract_z
Si Si1 0.148786 0.858161 0.130950
Si Si2 0.589903 0.393869 0.371598
Si Si3 0.504592 0.871180 0.871325
Si Si4 0.680371 0.236150 0.215449
Si Si5 0.258453 0.562689 0.351035
Si Si6 0.966308 0.773341 0.614888
O O1 0.147855 0.892835 0.253640
O O2 0.314305 0.868735 0.117249
O O3 0.124590 0.794248 0.146641
O O4 0.000000 0.878791 0.000000
O O5 0.709274 0.428829 0.496370
O O6 0.409308 0.418171 0.320746
O O7 0.596672 0.333747 0.428678
O O8 0.432572 0.811221 0.872398
O O9 0.399360 0.903816 0.740187
O O10 0.500000 0.900169 0.000000
O O11 0.868180 0.224493 0.249580
O O12 0.662518 0.237551 0.354850
O O13 0.224290 0.500000 0.315255
O O14 0.000000 0.743931 0.500000
#
# Coordination Sequence:
#
# PCOD8105145 Si02
#       6
#     8   8   8   8   8   8
#     4  11  25  41  63  97 132 176 214 252 315 384
#     4  10  20  41  67  94 129 164 208 260 316 382
#     4  12  25  42  65  92 132 170 217 269 314 374
#     4  11  22  36  58  92 131 176 210 251 304 378
#     4  11  23  44  72  97 122 164 215 267 331 382
#     4  11  19  34  56  91 134 168 207 249 307 373
#
# _framework density 21.131325
#
# number of rings (size 3 to 8) (size 9 to 14) (size 15 to 20)
#    0.000    1.000    5.000    3.000    2.333    3.667 
#    0.000    2.500    0.000    3.500    0.000    0.000 
#    0.000    0.000    0.000    0.000    0.000    0.000 
#
# Total GULP energy -297611.786832 kJ/mol
# GULP energy per Si atom -12400.491118 kJ/mol
# Density = 2.108323 g / cm^3
# Si number density = 21.131325 Si / 1000 Ang^3
#
#
#
# Elastic Constant Matrix: (Units=GPa)
#
#
# Indices 1 2 3 4 5 6 
#
# 1 125.0074 32.8900 49.9950 0.0000 4.6622 0.0000
# 2 32.8900 80.8072 27.8017 0.0000 4.8809 0.0000
# 3 49.9950 27.8017 97.0479 0.0000 -4.0712 0.0000
# 4 0.0000 0.0000 0.0000 15.1750 0.0000 -3.4699
# 5 4.6622 4.8809 -4.0712 0.0000 41.9383 0.0000
# 6 0.0000 0.0000 0.0000 -3.4699 0.0000 15.1736
#
#
#
# Elastic Compliance Matrix: (Units=1/GPa)
#
#
# Indices 1 2 3 4 5 6 
#
# 1 0.010654 -0.002604 -0.004799 0.000000 -0.001347 0.000000
# 2 -0.002604 0.014532 -0.002892 0.000000 -0.001683 0.000000
# 3 -0.004799 -0.002892 0.013697 0.000000 0.002200 0.000000
# 4 0.000000 0.000000 0.000000 0.069534 0.000000 0.015901
# 5 -0.001347 -0.001683 0.002200 0.000000 0.024404 0.000000
# 6 0.000000 0.000000 0.000000 0.015901 0.000000 0.069540
#
#
# Mechanical properties :
#
#
# Convention : Reuss Voigt Hill
#
# Bulk Modulus (GPa) = 54.66632 58.24844 56.45738
# Shear Modulus (GPa) = 21.82938 27.26909 24.54924
#
# Velocity S-wave (km/s) = 3.21757 3.59619 3.41214
# Velocity P-wave (km/s) = 6.30315 6.69838 6.50377
#
# Compressibility (1/GPa) = 0.01829280
#
# Stress axis : x y z
#
# Youngs Moduli (GPa) = 93.85934 68.81540 73.00706
#
# Poissons Ratio (x) = 0.17919 0.35037
# Poissons Ratio (y) = 0.24440 0.21114
# Poissons Ratio (z) = 0.45045 0.19902
#
# Static dielectric constant tensor:
#      x y z
#    x 3.885170 0.000000 -0.127230 
#    y 0.000000 3.511620 0.000000 
#    z -0.127230 0.000000 3.944650 
# 
# 
# High freq. dielectric constant tensor:
#      x y z
#    x 1.835120 0.000000 0.000230 
#    y 0.000000 1.793200 0.000000 
#    z 0.000230 0.000000 1.838300 
# 
# From -- ./inp_files/123899.got.cif
#   From: 2010.06.25/outbox.cif.g09.slc.cpg/sg12_62_cif.got.tgz:123899.got - 2010.06.28 00:19:55.
