data_PCOD8105261
_publ_section_title
;
Structure prediction by ZEFSAII (Michael W. Deem and Ramdas Pophale) SiO2 
 PCOD8105261
Probable space group: C 2/M
;
_chemical_formula_sum "Si O2"
_cell_formula_units_Z 56
_cell_length_a 8.886974
_cell_length_b 29.517242
_cell_length_c 13.811553
_cell_angle_alpha 90.000000
_cell_angle_beta 46.427584
_cell_angle_gamma 90.000000
_cell_volume 2624.900568
_symmetry_space_group_name_H-M "C 2/M"
_symmetry_group_IT_number 12
_symmetry_cell_setting 'monoclinic'
loop_
_space_group_symop_operation_xyz
x,y,z
-x,y,-z
-x,-y,-z
x,-y,z
1/2+x,1/2+y,z
1/2-x,1/2+y,-z
1/2-x,1/2-y,-z
1/2+x,1/2-y,z
loop_
_atom_site_type_symbol
_atom_site_label
_atom_site_fract_x
_atom_site_fract_y
_atom_site_fract_z
Si Si1 0.464781 0.101017 0.226494
Si Si2 0.159236 0.309517 0.071526
Si Si3 0.620859 0.947698 0.544940
Si Si4 0.792196 0.550677 0.029637
Si Si5 0.046177 0.092310 0.300837
Si Si6 0.182836 0.239251 0.820396
Si Si7 0.469324 0.312046 0.764453
O O1 0.498461 0.153897 0.186845
O O2 0.471968 0.087543 0.335799
O O3 0.240792 0.086227 0.285845
O O4 0.659323 0.075043 0.092718
O O5 0.310017 0.293753 0.090380
O O6 0.034003 0.266808 0.084217
O O7 0.294440 0.327616 0.921157
O O8 0.500000 0.937903 0.500000
O O9 0.864219 0.938322 0.423799
O O10 0.592915 0.000000 0.590774
O O11 0.720496 0.500000 0.039149
O O12 0.604198 0.575058 0.168104
O O13 0.000000 0.552556 0.000000
O O14 0.971786 0.144562 0.325961
O O15 0.378594 0.273315 0.732782
O O16 0.174231 0.207711 0.727592
#
# Coordination Sequence:
#
# PCOD8105261 Si02
#       7
#     8   8   8   8   8   8   8
#     4  11  22  38  66  95 128 162 210 260 307 380
#     4  11  19  34  56  94 133 168 208 254 313 368
#     4  11  27  49  67  88 121 168 216 260 316 381
#     4   9  18  34  59  94 126 153 192 261 325 367
#     4  11  22  38  66  95 128 162 210 260 307 380
#     4  10  21  32  56  89 134 175 206 253 308 375
#     4  11  19  34  56  94 133 168 208 254 313 368
#
# _framework density 21.334142
#
# number of rings (size 3 to 8) (size 9 to 14) (size 15 to 20)
#    0.000    1.429    2.857    4.714    2.000    2.286 
#    0.000    0.714    0.000    7.714    0.000    0.000 
#    0.000    0.000    0.000    0.000    0.000    0.000 
#
# Total GULP energy -347191.469420 kJ/mol
# GULP energy per Si atom -12399.695336 kJ/mol
# Density = 2.128558 g / cm^3
# Si number density = 21.334142 Si / 1000 Ang^3
#
#
#
# Elastic Constant Matrix: (Units=GPa)
#
#
# Indices 1 2 3 4 5 6 
#
# 1 91.4300 16.3003 19.0872 0.0000 6.8013 0.0000
# 2 16.3003 73.9773 24.3107 0.0000 4.2995 0.0000
# 3 19.0872 24.3107 81.7105 0.0000 8.2769 0.0000
# 4 0.0000 0.0000 0.0000 26.4883 0.0000 2.5894
# 5 6.8013 4.2995 8.2769 0.0000 22.6494 0.0000
# 6 0.0000 0.0000 0.0000 2.5894 0.0000 29.6884
#
#
#
# Elastic Compliance Matrix: (Units=1/GPa)
#
#
# Indices 1 2 3 4 5 6 
#
# 1 0.011860 -0.001819 -0.001977 0.000000 -0.002494 0.000000
# 2 -0.001819 0.015296 -0.004037 0.000000 -0.000882 0.000000
# 3 -0.001977 -0.004037 0.014292 0.000000 -0.003863 0.000000
# 4 0.000000 0.000000 0.000000 0.038077 0.000000 -0.003321
# 5 -0.002494 -0.000882 -0.003863 0.000000 0.046479 0.000000
# 6 0.000000 0.000000 0.000000 -0.003321 0.000000 0.033973
#
#
# Mechanical properties :
#
#
# Convention : Reuss Voigt Hill
#
# Bulk Modulus (GPa) = 38.78350 40.72380 39.75365
# Shear Modulus (GPa) = 27.13900 28.25986 27.69943
#
# Velocity S-wave (km/s) = 3.57051 3.64350 3.60719
# Velocity P-wave (km/s) = 5.93436 6.06878 6.00194
#
# Compressibility (1/GPa) = 0.02578416
#
# Stress axis : x y z
#
# Youngs Moduli (GPa) = 84.31901 65.37550 69.96718
#
# Poissons Ratio (x) = 0.11890 0.13830
# Poissons Ratio (y) = 0.15335 0.28244
# Poissons Ratio (z) = 0.16667 0.26391
#
# Static dielectric constant tensor:
#      x y z
#    x 3.880660 0.000000 0.103300 
#    y 0.000000 3.970990 0.000000 
#    z 0.103300 0.000000 3.488090 
# 
# 
# High freq. dielectric constant tensor:
#      x y z
#    x 1.833630 0.000000 0.005800 
#    y 0.000000 1.847810 0.000000 
#    z 0.005800 0.000000 1.797380 
# 
# From -- ./inp_files/200832.got.cif
#   From: 2010.06.25/outbox.cif.g09.slc.cpg/sg12_101_cif.got.tgz:200832.got - 2010.06.28 00:19:55.
