data_PCOD8105662
_publ_section_title
;
Structure prediction by ZEFSAII (Michael W. Deem and Ramdas Pophale) SiO2 
 PCOD8105662
Probable space group: C 2/M
;
_chemical_formula_sum "Si O2"
_cell_formula_units_Z 44
_cell_length_a 15.012421
_cell_length_b 25.807417
_cell_length_c 8.547386
_cell_angle_alpha 90.000000
_cell_angle_beta 44.493068
_cell_angle_gamma 90.000000
_cell_volume 2320.795729
_symmetry_space_group_name_H-M "C 2/M"
_symmetry_group_IT_number 12
_symmetry_cell_setting 'monoclinic'
loop_
_space_group_symop_operation_xyz
x,y,z
-x,y,-z
-x,-y,-z
x,-y,z
1/2+x,1/2+y,z
1/2-x,1/2+y,-z
1/2-x,1/2-y,-z
1/2+x,1/2-y,z
loop_
_atom_site_type_symbol
_atom_site_label
_atom_site_fract_x
_atom_site_fract_y
_atom_site_fract_z
Si Si1 0.826842 0.440522 0.311320
Si Si2 0.715050 0.144039 0.180040
Si Si3 0.613877 0.607247 0.759930
Si Si4 0.000000 0.725134 0.500000
Si Si5 0.584967 0.938337 0.131083
Si Si6 0.966232 0.824319 0.709441
O O1 0.857019 0.500000 0.256239
O O2 0.684917 0.431639 0.553444
O O3 0.938098 0.420374 0.288622
O O4 0.838889 0.419342 0.119439
O O5 0.780407 0.128521 0.258419
O O6 0.624235 0.190496 0.341792
O O7 0.639896 0.094228 0.207119
O O8 0.818292 0.164681 0.927076
O O9 0.553590 0.654351 0.738787
O O10 0.500000 0.578905 0.000000
O O11 0.004601 0.762576 0.340622
O O12 0.599853 0.000000 0.149389
O O13 0.000000 0.851347 0.500000
#
# Coordination Sequence:
#
# PCOD8105662 Si02
#       6
#     8   8   8   4   8   8
#     4   9  18  35  56  82 112 144 183 218 261 325
#     4  11  20  36  58  82 113 140 179 226 278 319
#     4  10  21  35  54  79 111 148 176 224 273 320
#     4  10  22  36  59  80 105 144 186 228 270 320
#     4   9  19  35  59  85 110 142 180 222 267 321
#     4   9  21  38  55  75 108 145 186 222 264 320
#
# _framework density 18.959015000000001
#
# number of rings (size 3 to 8) (size 9 to 14) (size 15 to 20)
#    0.545    1.818    0.000    3.818    0.000    1.818 
#    0.000    5.000    8.000    9.818    0.000    0.000 
#    0.000    0.000    0.000    0.000    0.000    0.000 
#
# Total GULP energy -272602.424949 kJ/mol
# GULP energy per Si atom -12391.019316 kJ/mol
# Density = 1.891586 g / cm^3
# Si number density = 18.959015 Si / 1000 Ang^3
#
#
#
# Elastic Constant Matrix: (Units=GPa)
#
#
# Indices 1 2 3 4 5 6 
#
# 1 101.9343 31.9489 10.6568 0.0000 -5.6442 0.0000
# 2 31.9489 66.1607 18.9827 0.0000 -6.9731 0.0000
# 3 10.6568 18.9827 96.9882 0.0000 -18.8752 0.0000
# 4 0.0000 0.0000 0.0000 30.0893 0.0000 -2.1920
# 5 -5.6442 -6.9731 -18.8752 0.0000 23.5162 0.0000
# 6 0.0000 0.0000 0.0000 -2.1920 0.0000 6.3963
#
#
#
# Elastic Compliance Matrix: (Units=1/GPa)
#
#
# Indices 1 2 3 4 5 6 
#
# 1 0.011590 -0.005481 0.000029 0.000000 0.001180 0.000000
# 2 -0.005481 0.018746 -0.002656 0.000000 0.002111 0.000000
# 3 0.000029 -0.002656 0.012652 0.000000 0.009374 0.000000
# 4 0.000000 0.000000 0.000000 0.034085 0.000000 0.011681
# 5 0.001180 0.002111 0.009374 0.000000 0.050957 0.000000
# 6 0.000000 0.000000 0.000000 0.011681 0.000000 0.160344
#
#
# Mechanical properties :
#
#
# Convention : Reuss Voigt Hill
#
# Bulk Modulus (GPa) = 37.35249 43.14001 40.24625
# Shear Modulus (GPa) = 15.94821 25.56667 20.75744
#
# Velocity S-wave (km/s) = 2.90348 3.67621 3.31245
# Velocity P-wave (km/s) = 5.56639 6.38929 5.99199
#
# Compressibility (1/GPa) = 0.02677198
#
# Stress axis : x y z
#
# Youngs Moduli (GPa) = 86.27814 53.34469 79.04196
#
# Poissons Ratio (x) = 0.29238 -0.00228
# Poissons Ratio (y) = 0.47288 0.20992
# Poissons Ratio (z) = -0.00249 0.14168
#
# Static dielectric constant tensor:
#      x y z
#    x 3.366500 0.000000 -0.046960 
#    y 0.000000 3.186140 0.000000 
#    z -0.046960 0.000000 3.819300 
# 
# 
# High freq. dielectric constant tensor:
#      x y z
#    x 1.732680 0.000000 -0.001890 
#    y 0.000000 1.710400 0.000000 
#    z -0.001890 0.000000 1.759970 
# 
# From -- ./inp_files/66734.got.cif
#   From: 2010.06.25/outbox.cif.g09.slc.cpg/sg12_34_cif.got.tgz:66734.got - 2010.06.28 00:19:55.
