data_PCOD8105815
_publ_section_title
;
Structure prediction by ZEFSAII (Michael W. Deem and Ramdas Pophale) SiO2 
 PCOD8105815
Probable space group: C 2/M
;
_chemical_formula_sum "Si O2"
_cell_formula_units_Z 48
_cell_length_a 17.103830
_cell_length_b 12.996248
_cell_length_c 15.512000
_cell_angle_alpha 90.000000
_cell_angle_beta 133.855261
_cell_angle_gamma 90.000000
_cell_volume 2486.394484
_symmetry_space_group_name_H-M "C 2/M"
_symmetry_group_IT_number 12
_symmetry_cell_setting 'monoclinic'
loop_
_space_group_symop_operation_xyz
x,y,z
-x,y,-z
-x,-y,-z
x,-y,z
1/2+x,1/2+y,z
1/2-x,1/2+y,-z
1/2-x,1/2-y,-z
1/2+x,1/2-y,z
loop_
_atom_site_type_symbol
_atom_site_label
_atom_site_fract_x
_atom_site_fract_y
_atom_site_fract_z
Si Si1 0.092024 0.117088 0.964099
Si Si2 0.508612 0.745645 0.251787
Si Si3 0.443738 0.381325 0.545388
Si Si4 0.321908 0.884994 0.052906
Si Si5 0.306111 0.119615 0.679262
Si Si6 0.379664 0.807436 0.914766
O O1 0.995557 0.166953 0.832771
O O2 0.064169 0.000000 0.967635
O O3 0.199656 0.127124 0.989701
O O4 0.108911 0.183010 0.064529
O O5 0.508670 0.685991 0.341335
O O6 0.400988 0.814776 0.169822
O O7 0.614384 0.817288 0.322627
O O8 0.500000 0.344002 0.500000
O O9 0.473827 0.500000 0.585675
O O10 0.315346 0.365127 0.445957
O O11 0.364472 0.000000 0.097453
O O12 0.320870 0.855425 0.952013
O O13 0.310261 0.164548 0.778728
O O14 0.339829 0.000000 0.704616
O O15 0.500000 0.856118 0.000000
#
# Coordination Sequence:
#
# PCOD8105815 Si02
#       6
#     8   8   8   8   8   8
#     4  10  22  37  55  84 120 154 185 226 279 338
#     4  11  20  38  59  84 112 151 190 228 281 332
#     4  10  24  41  60  85 110 145 190 238 283 329
#     4  10  21  35  58  86 117 151 185 230 280 333
#     4  11  23  38  59  85 115 147 188 235 279 332
#     4  11  20  35  57  88 115 147 187 229 282 332
#
# _framework density 19.305062
#
# number of rings (size 3 to 8) (size 9 to 14) (size 15 to 20)
#    0.000    1.500    3.333    4.000    4.667    1.000 
#    0.000    0.000    0.000    4.000    0.000    0.000 
#    0.000    0.000    0.000    0.000    0.000    0.000 
#
# Total GULP energy -297629.190964 kJ/mol
# GULP energy per Si atom -12401.216290 kJ/mol
# Density = 1.926112 g / cm^3
# Si number density = 19.305062 Si / 1000 Ang^3
#
#
#
# Elastic Constant Matrix: (Units=GPa)
#
#
# Indices 1 2 3 4 5 6 
#
# 1 47.2328 39.5994 8.2147 0.0000 -8.2253 0.0000
# 2 39.5994 122.5406 53.6191 0.0000 -7.4376 0.0000
# 3 8.2147 53.6191 73.1228 0.0000 -18.6558 0.0000
# 4 0.0000 0.0000 0.0000 25.8492 0.0000 1.2235
# 5 -8.2253 -7.4376 -18.6558 0.0000 30.9720 0.0000
# 6 0.0000 0.0000 0.0000 1.2235 0.0000 31.4240
#
#
#
# Elastic Compliance Matrix: (Units=1/GPa)
#
#
# Indices 1 2 3 4 5 6 
#
# 1 0.033491 -0.014355 0.009634 0.000000 0.011250 0.000000
# 2 -0.014355 0.018388 -0.013844 0.000000 -0.007736 0.000000
# 3 0.009634 -0.013844 0.026644 0.000000 0.015283 0.000000
# 4 0.000000 0.000000 0.000000 0.038757 0.000000 -0.001509
# 5 0.011250 -0.007736 0.015283 0.000000 0.042623 0.000000
# 6 0.000000 0.000000 0.000000 -0.001509 0.000000 0.031882
#
#
# Mechanical properties :
#
#
# Convention : Reuss Voigt Hill
#
# Bulk Modulus (GPa) = 24.15935 49.52917 36.84426
# Shear Modulus (GPa) = 20.60056 27.07990 23.84023
#
# Velocity S-wave (km/s) = 3.27020 3.74937 3.51796
# Velocity P-wave (km/s) = 5.17694 6.66750 5.96893
#
# Compressibility (1/GPa) = 0.04139185
#
# Stress axis : x y z
#
# Youngs Moduli (GPa) = 29.85906 54.38418 37.53196
#
# Poissons Ratio (x) = 0.78071 -0.36159
# Poissons Ratio (y) = 0.42864 0.51960
# Poissons Ratio (z) = -0.28767 0.75290
#
# Static dielectric constant tensor:
#      x y z
#    x 3.595790 0.000000 0.100750 
#    y 0.000000 3.882680 0.000000 
#    z 0.100750 0.000000 3.362380 
# 
# 
# High freq. dielectric constant tensor:
#      x y z
#    x 1.761950 0.000000 0.007920 
#    y 0.000000 1.761660 0.000000 
#    z 0.007920 0.000000 1.735280 
# 
# From -- ./inp_files/215010.got.cif
#   From: 2010.06.25/outbox.cif.g09.slc.cpg/sg12_108_cif.got.tgz:215010.got - 2010.06.28 00:19:55.
