data_PCOD8105942
_publ_section_title
;
Structure prediction by ZEFSAII (Michael W. Deem and Ramdas Pophale) SiO2 
 PCOD8105942
Probable space group: C 2/M
;
_chemical_formula_sum "Si O2"
_cell_formula_units_Z 56
_cell_length_a 28.371674
_cell_length_b 8.968515
_cell_length_c 17.424016
_cell_angle_alpha 90.000000
_cell_angle_beta 137.121407
_cell_angle_gamma 90.000000
_cell_volume 3016.811297
_symmetry_space_group_name_H-M "C 2/M"
_symmetry_group_IT_number 12
_symmetry_cell_setting 'monoclinic'
loop_
_space_group_symop_operation_xyz
x,y,z
-x,y,-z
-x,-y,-z
x,-y,z
1/2+x,1/2+y,z
1/2-x,1/2+y,-z
1/2-x,1/2-y,-z
1/2+x,1/2-y,z
loop_
_atom_site_type_symbol
_atom_site_label
_atom_site_fract_x
_atom_site_fract_y
_atom_site_fract_z
Si Si1 0.587231 0.827456 0.827432
Si Si2 0.291095 0.829477 0.736643
Si Si3 0.148354 0.175678 0.757256
Si Si4 0.629227 0.330603 0.562066
Si Si5 0.801776 0.322487 0.919789
Si Si6 0.070949 0.327882 0.353234
Si Si7 0.317581 0.676111 0.616455
O O1 0.598648 0.748313 0.760172
O O2 0.509280 0.802305 0.762800
O O3 0.604021 0.000000 0.835300
O O4 0.638424 0.759719 0.953292
O O5 0.208576 0.818358 0.630744
O O6 0.315365 0.768213 0.848780
O O7 0.326591 0.725890 0.715299
O O8 0.315076 0.000000 0.752447
O O9 0.120117 0.218862 0.639418
O O10 0.227199 0.235704 0.860712
O O11 0.146752 0.000000 0.766443
O O12 0.603198 0.500000 0.519605
O O13 0.583589 0.220456 0.456153
O O14 0.799982 0.500000 0.915079
O O15 0.092402 0.500000 0.368999
O O16 0.114492 0.225847 0.348027
O O17 0.309647 0.500000 0.601275
O O18 0.250000 0.750000 0.500000
#
# Coordination Sequence:
#
# PCOD8105942 Si02
#       7
#     8   8   8   8   8   8   8
#     4  10  21  36  53  77 110 147 183 222 265 312
#     4   9  17  33  58  83 105 135 177 224 267 310
#     4   9  18  33  56  82 105 138 183 226 271 318
#     4   9  18  33  53  78 107 139 177 223 271 319
#     4   8  16  34  58  81 107 140 182 224 262 312
#     4  11  23  36  52  77 110 146 182 218 265 321
#     4  12  23  36  57  83 109 137 173 218 269 322
#
# _framework density 18.562646000000001
#
# number of rings (size 3 to 8) (size 9 to 14) (size 15 to 20)
#    0.000    2.286    1.429    3.857    0.000    2.286 
#    0.000    6.429    0.000    4.286    0.000    0.000 
#    0.000    0.000    0.000    0.000    0.000    0.000 
#
# Total GULP energy -347219.749386 kJ/mol
# GULP energy per Si atom -12400.705335 kJ/mol
# Density = 1.852040 g / cm^3
# Si number density = 18.562646 Si / 1000 Ang^3
#
#
#
# Elastic Constant Matrix: (Units=GPa)
#
#
# Indices 1 2 3 4 5 6 
#
# 1 105.6912 42.0742 32.6457 0.0000 -11.3236 0.0000
# 2 42.0742 75.3083 25.6274 0.0000 -2.0990 0.0000
# 3 32.6457 25.6274 60.4260 0.0000 -4.3065 0.0000
# 4 0.0000 0.0000 0.0000 22.1235 0.0000 -3.2737
# 5 -11.3236 -2.0990 -4.3065 0.0000 23.1189 0.0000
# 6 0.0000 0.0000 0.0000 -3.2737 0.0000 32.9025
#
#
#
# Elastic Compliance Matrix: (Units=1/GPa)
#
#
# Indices 1 2 3 4 5 6 
#
# 1 0.013844 -0.006042 -0.004533 0.000000 0.005388 0.000000
# 2 -0.006042 0.018156 -0.004590 0.000000 -0.002166 0.000000
# 3 -0.004533 -0.004590 0.021036 0.000000 0.001282 0.000000
# 4 0.000000 0.000000 0.000000 0.045876 0.000000 0.004565
# 5 0.005388 -0.002166 0.001282 0.000000 0.045936 0.000000
# 6 0.000000 0.000000 0.000000 0.004565 0.000000 0.030847
#
#
# Mechanical properties :
#
#
# Convention : Reuss Voigt Hill
#
# Bulk Modulus (GPa) = 44.04124 49.12447 46.58286
# Shear Modulus (GPa) = 23.40885 25.03420 24.22152
#
# Velocity S-wave (km/s) = 3.55501 3.67636 3.61619
# Velocity P-wave (km/s) = 6.37401 6.67401 6.52574
#
# Compressibility (1/GPa) = 0.02270599
#
# Stress axis : x y z
#
# Youngs Moduli (GPa) = 72.23303 55.07806 47.53683
#
# Poissons Ratio (x) = 0.33277 0.21548
# Poissons Ratio (y) = 0.43642 0.21821
# Poissons Ratio (z) = 0.32743 0.25283
#
# Static dielectric constant tensor:
#      x y z
#    x 3.424380 0.000000 -0.188630 
#    y 0.000000 3.257740 0.000000 
#    z -0.188630 0.000000 3.536730 
# 
# 
# High freq. dielectric constant tensor:
#      x y z
#    x 1.721630 0.000000 -0.013160 
#    y 0.000000 1.701870 0.000000 
#    z -0.013160 0.000000 1.713740 
# 
# From -- ./inp_files/288407.got.cif
#   From: 2010.06.25/outbox.cif.g09.slc.cpg/sg12_145_cif.got.tgz:288407.got - 2010.06.28 00:19:55.
