data_PCOD8105527
_publ_section_title
;
Structure prediction by ZEFSAII (Michael W. Deem and Ramdas Pophale) SiO2 
 PCOD8105527
Probable space group: C 2/M
;
_chemical_formula_sum "Si O2"
_cell_formula_units_Z 64
_cell_length_a 13.432729
_cell_length_b 10.486556
_cell_length_c 24.715408
_cell_angle_alpha 90.000000
_cell_angle_beta 89.988967
_cell_angle_gamma 90.000000
_cell_volume 3481.488056
_symmetry_space_group_name_H-M "C 2/M"
_symmetry_group_IT_number 12
_symmetry_cell_setting 'monoclinic'
loop_
_space_group_symop_operation_xyz
x,y,z
-x,y,-z
-x,-y,-z
x,-y,z
1/2+x,1/2+y,z
1/2-x,1/2+y,-z
1/2-x,1/2-y,-z
1/2+x,1/2-y,z
loop_
_atom_site_type_symbol
_atom_site_label
_atom_site_fract_x
_atom_site_fract_y
_atom_site_fract_z
Si Si1 0.737326 0.145049 0.800291
Si Si2 0.252679 0.714762 0.358919
Si Si3 0.274753 0.855645 0.074920
Si Si4 0.620888 0.643263 0.737509
Si Si5 0.100503 0.854764 0.285945
Si Si6 0.613140 0.355311 0.985510
Si Si7 0.402623 0.149526 0.431031
Si Si8 0.617128 0.856835 0.451485
O O1 0.756091 0.166798 0.863387
O O2 0.659552 0.250744 0.779492
O O3 0.842929 0.165344 0.771003
O O4 0.697712 0.000000 0.788981
O O5 0.304830 0.627951 0.313605
O O6 0.157863 0.784913 0.333837
O O7 0.338580 0.806450 0.380113
O O8 0.210188 0.641100 0.410860
O O9 0.356372 0.749636 0.059040
O O10 0.316987 0.000000 0.066320
O O11 0.175879 0.834563 0.039951
O O12 0.614029 0.500000 0.763417
O O13 0.512280 0.694552 0.720115
O O14 0.097789 0.000000 0.303968
O O15 0.628220 0.500000 0.963023
O O16 0.500000 0.329298 0.000000
O O17 0.357680 0.200643 0.488883
O O18 0.516004 0.204801 0.426382
O O19 0.397835 0.000000 0.425562
O O20 0.585603 0.000000 0.464362
#
# Coordination Sequence:
#
# PCOD8105527 Si02
#       8
#     8   8   8   8   8   8   8   8
#     4   9  19  36  55  73  98 135 173 207 246 295
#     4  11  18  30  50  71  92 123 160 200 244 295
#     4   9  18  33  52  76 105 135 171 213 250 286
#     4  10  21  35  51  74 101 128 162 208 258 301
#     4   9  19  34  50  70  97 128 163 204 251 301
#     4   9  18  32  52  79 109 141 174 205 244 296
#     4   9  18  31  47  67  91 122 159 194 235 293
#     4   9  18  31  45  66  95 122 152 195 242 287
#
# _framework density 18.382944999999999
#
# number of rings (size 3 to 8) (size 9 to 14) (size 15 to 20)
#    0.000    2.625    0.000    2.625    0.000    2.250 
#    0.000    5.625    0.000    0.000    0.000   10.500 
#    0.000    0.000    0.000    0.000    0.000    0.000 
#
# Total GULP energy -396490.201177 kJ/mol
# GULP energy per Si atom -12390.318787 kJ/mol
# Density = 1.834110 g / cm^3
# Si number density = 18.382945 Si / 1000 Ang^3
#
#
#
# Elastic Constant Matrix: (Units=GPa)
#
#
# Indices 1 2 3 4 5 6 
#
# 1 88.2765 36.2941 20.4834 0.0000 1.8493 0.0000
# 2 36.2941 77.6979 31.9876 0.0000 1.8266 0.0000
# 3 20.4834 31.9876 78.8939 0.0000 -2.0943 0.0000
# 4 0.0000 0.0000 0.0000 26.9243 0.0000 -6.3804
# 5 1.8493 1.8266 -2.0943 0.0000 20.6146 0.0000
# 6 0.0000 0.0000 0.0000 -6.3804 0.0000 33.7902
#
#
#
# Elastic Compliance Matrix: (Units=1/GPa)
#
#
# Indices 1 2 3 4 5 6 
#
# 1 0.014128 -0.006074 -0.001228 0.000000 -0.000854 0.000000
# 2 -0.006074 0.018144 -0.005823 0.000000 -0.001654 0.000000
# 3 -0.001228 -0.005823 0.015413 0.000000 0.002192 0.000000
# 4 0.000000 0.000000 0.000000 0.038881 0.000000 0.007342
# 5 -0.000854 -0.001654 0.002192 0.000000 0.048955 0.000000
# 6 0.000000 0.000000 0.000000 0.007342 0.000000 0.030981
#
#
# Mechanical properties :
#
#
# Convention : Reuss Voigt Hill
#
# Bulk Modulus (GPa) = 46.65338 46.93315 46.79327
# Shear Modulus (GPa) = 25.01279 26.67271 25.84275
#
# Velocity S-wave (km/s) = 3.69270 3.81326 3.75347
# Velocity P-wave (km/s) = 6.60417 6.70628 6.65542
#
# Compressibility (1/GPa) = 0.02143468
#
# Stress axis : x y z
#
# Youngs Moduli (GPa) = 70.78101 55.11501 64.87854
#
# Poissons Ratio (x) = 0.33476 0.07968
# Poissons Ratio (y) = 0.42991 0.37781
# Poissons Ratio (z) = 0.08693 0.32096
#
# Static dielectric constant tensor:
#      x y z
#    x 3.390320 0.000000 0.034890 
#    y 0.000000 3.306150 0.000000 
#    z 0.034890 0.000000 3.343950 
# 
# 
# High freq. dielectric constant tensor:
#      x y z
#    x 1.713850 0.000000 -0.000610 
#    y 0.000000 1.700840 0.000000 
#    z -0.000610 0.000000 1.710360 
# 
# From -- ./inp_files/335241.got.cif
#   From: 2010.06.25/outbox.cif.g09.slc.cpg/sg12_168_cif.got.tgz:335241.got - 2010.06.28 00:19:55.
