data_PCOD8105086
_publ_section_title
;
Structure prediction by ZEFSAII (Michael W. Deem and Ramdas Pophale) SiO2 
 PCOD8105086
Probable space group: C 2/M
;
_chemical_formula_sum "Si O2"
_cell_formula_units_Z 64
_cell_length_a 15.075875
_cell_length_b 24.527411
_cell_length_c 8.737910
_cell_angle_alpha 90.000000
_cell_angle_beta 68.592796
_cell_angle_gamma 90.000000
_cell_volume 3008.126650
_symmetry_space_group_name_H-M "C 2/M"
_symmetry_group_IT_number 12
_symmetry_cell_setting 'monoclinic'
loop_
_space_group_symop_operation_xyz
x,y,z
-x,y,-z
-x,-y,-z
x,-y,z
1/2+x,1/2+y,z
1/2-x,1/2+y,-z
1/2-x,1/2-y,-z
1/2+x,1/2-y,z
loop_
_atom_site_type_symbol
_atom_site_label
_atom_site_fract_x
_atom_site_fract_y
_atom_site_fract_z
Si Si1 0.708271 0.370721 0.167430
Si Si2 0.563229 0.439650 0.821421
Si Si3 0.606584 0.305470 0.979272
Si Si4 0.761362 0.559675 0.861176
Si Si5 0.589447 0.762300 0.543843
Si Si6 0.132193 0.865055 0.530124
Si Si7 0.401523 0.189228 0.122649
Si Si8 0.227058 0.654861 0.330920
O O1 0.641629 0.387536 0.351975
O O2 0.810585 0.349095 0.160504
O O3 0.644407 0.325975 0.119256
O O4 0.728887 0.423906 0.052099
O O5 0.524064 0.500000 0.803758
O O6 0.671090 0.444709 0.808343
O O7 0.557223 0.401701 0.673550
O O8 0.500000 0.414682 0.000000
O O9 0.616295 0.240512 0.977432
O O10 0.671120 0.332849 0.809947
O O11 0.500000 0.322748 0.000000
O O12 0.812582 0.500000 0.834925
O O13 0.825928 0.608413 0.741920
O O14 0.500000 0.778595 0.500000
O O15 0.599492 0.697910 0.552916
O O16 0.585004 0.790862 0.711421
O O17 0.673429 0.788456 0.388469
O O18 0.240694 0.869430 0.526239
O O19 0.500000 0.160679 0.000000
#
# Coordination Sequence:
#
# PCOD8105086 Si02
#       8
#     8   8   8   8   8   8   8   8
#     4  11  23  38  63  90 128 165 207 271 325 374
#     4   9  20  41  65  88 125 173 221 267 311 371
#     4  10  22  38  58  87 127 175 214 244 302 391
#     4   9  21  39  63  89 115 162 217 262 325 387
#     4  12  26  38  60  94 132 170 214 264 321 390
#     4  11  22  36  60  92 128 167 211 264 316 372
#     4  11  24  40  60  90 125 172 215 256 317 394
#     4  10  20  41  62  82 129 169 206 265 315 385
#
# _framework density 21.275698999999999
#
# number of rings (size 3 to 8) (size 9 to 14) (size 15 to 20)
#    0.000    1.625    2.500    1.500    7.000    6.500 
#    0.000    0.000    0.000    3.375    0.000    0.000 
#    0.000    0.000    0.000    0.000    0.000    0.000 
#
# Total GULP energy -396467.478559 kJ/mol
# GULP energy per Si atom -12389.608705 kJ/mol
# Density = 2.122727 g / cm^3
# Si number density = 21.275699 Si / 1000 Ang^3
#
#
#
# Elastic Constant Matrix: (Units=GPa)
#
#
# Indices 1 2 3 4 5 6 
#
# 1 72.7150 19.2641 39.7227 0.0000 5.6475 0.0000
# 2 19.2641 112.9256 55.2198 0.0000 -8.4676 0.0000
# 3 39.7227 55.2198 148.7267 0.0000 2.9542 0.0000
# 4 0.0000 0.0000 0.0000 21.6220 0.0000 -9.1628
# 5 5.6475 -8.4676 2.9542 0.0000 25.8538 0.0000
# 6 0.0000 0.0000 0.0000 -9.1628 0.0000 2.8291
#
#
#
# Elastic Compliance Matrix: (Units=1/GPa)
#
#
# Indices 1 2 3 4 5 6 
#
# 1 0.016463 -0.001170 -0.003892 0.000000 -0.003535 0.000000
# 2 -0.001170 0.011335 -0.003984 0.000000 0.004423 0.000000
# 3 -0.003892 -0.003984 0.009273 0.000000 -0.001514 0.000000
# 4 0.000000 0.000000 0.000000 -0.124154 0.000000 -0.402110
# 5 -0.003535 0.004423 -0.001514 0.000000 0.041073 0.000000
# 6 0.000000 0.000000 0.000000 -0.402110 0.000000 -0.948880
#
#
# Mechanical properties :
#
#
# Convention : Reuss Voigt Hill
#
# Bulk Modulus (GPa) = 52.69307 62.53118 57.61213
# Shear Modulus (GPa) = -5.15213 24.73834 9.79311
#
# Velocity S-wave (km/s) = -1.55784 3.41361 2.14778
# Velocity P-wave (km/s) = 4.64594 6.70759 5.76959
#
# Compressibility (1/GPa) = 0.01897783
#
# Stress axis : x y z
#
# Youngs Moduli (GPa) = 60.74155 88.22480 107.84569
#
# Poissons Ratio (x) = 0.10324 0.41978
# Poissons Ratio (y) = 0.07108 0.42963
# Poissons Ratio (z) = 0.23643 0.35146
#
# Static dielectric constant tensor:
#      x y z
#    x 3.749340 0.000000 0.154090 
#    y 0.000000 4.290930 0.000000 
#    z 0.154090 0.000000 4.199770 
# 
# 
# High freq. dielectric constant tensor:
#      x y z
#    x 1.809370 0.000000 0.013590 
#    y 0.000000 1.820660 0.000000 
#    z 0.013590 0.000000 1.846170 
# 
# From -- ./inp_files/66919.got.cif
#   From: 2010.06.25/outbox.cif.g09.slc.cpg/sg12_34_cif.got.tgz:66919.got - 2010.06.28 00:19:55.
