data_PCOD8105095
_publ_section_title
;
Structure prediction by ZEFSAII (Michael W. Deem and Ramdas Pophale) SiO2 
 PCOD8105095
Probable space group: C 2/M
;
_chemical_formula_sum "Si O2"
_cell_formula_units_Z 40
_cell_length_a 26.655636
_cell_length_b 8.279171
_cell_length_c 9.608361
_cell_angle_alpha 90.000000
_cell_angle_beta 108.016311
_cell_angle_gamma 90.000000
_cell_volume 2016.468064
_symmetry_space_group_name_H-M "C 2/M"
_symmetry_group_IT_number 12
_symmetry_cell_setting 'monoclinic'
loop_
_space_group_symop_operation_xyz
x,y,z
-x,y,-z
-x,-y,-z
x,-y,z
1/2+x,1/2+y,z
1/2-x,1/2+y,-z
1/2-x,1/2-y,-z
1/2+x,1/2-y,z
loop_
_atom_site_type_symbol
_atom_site_label
_atom_site_fract_x
_atom_site_fract_y
_atom_site_fract_z
Si Si1 0.004642 0.000000 0.216409
Si Si2 0.259088 0.314634 0.353387
Si Si3 0.181112 0.822705 0.057875
Si Si4 0.847720 0.684704 0.253811
Si Si5 0.031062 0.320071 0.666206
Si Si6 0.412043 0.500000 0.921547
O O1 0.998528 0.829667 0.288887
O O2 0.065277 0.000000 0.215118
O O3 0.962245 0.000000 0.060654
O O4 0.245700 0.500000 0.347366
O O5 0.250000 0.250000 0.500000
O O6 0.220253 0.235933 0.209107
O O7 0.318620 0.285201 0.350241
O O8 0.200134 0.000000 0.022607
O O9 0.122984 0.839433 0.078809
O O10 0.179026 0.709850 0.920769
O O11 0.841550 0.500000 0.290403
O O12 0.908680 0.737312 0.304753
O O13 0.030460 0.500000 0.742095
O O14 0.000000 0.349139 0.500000
#
# Coordination Sequence:
#
# PCOD8105095 Si02
#       6
#     4   8   8   8   8   4
#     4  11  19  42  62  96 127 173 202 268 317 367
#     4  12  26  42  62  90 126 163 206 259 322 378
#     4  10  20  41  63  91 122 162 209 255 302 379
#     4  11  22  40  65  92 123 167 211 260 309 374
#     4  10  22  39  62  94 129 164 216 260 311 383
#     4   9  22  36  68  90 126 160 215 248 315 373
#
# _framework density 19.836663000000001
#
# number of rings (size 3 to 8) (size 9 to 14) (size 15 to 20)
#    0.600    0.800    2.000    3.900    1.400    1.600 
#    0.000    6.000    0.000    0.000    0.000    0.000 
#    0.000    0.000    0.000    0.000    0.000    0.000 
#
# Total GULP energy -247805.017894 kJ/mol
# GULP energy per Si atom -12390.250895 kJ/mol
# Density = 1.979151 g / cm^3
# Si number density = 19.836663 Si / 1000 Ang^3
#
#
#
# Elastic Constant Matrix: (Units=GPa)
#
#
# Indices 1 2 3 4 5 6 
#
# 1 63.3670 19.9114 40.6619 0.0000 -22.0428 0.0000
# 2 19.9114 93.9829 10.0887 0.0000 -16.1104 0.0000
# 3 40.6619 10.0887 84.8301 0.0000 -5.4934 0.0000
# 4 0.0000 0.0000 0.0000 29.6785 0.0000 2.6212
# 5 -22.0428 -16.1104 -5.4934 0.0000 38.5350 0.0000
# 6 0.0000 0.0000 0.0000 2.6212 0.0000 25.9410
#
#
#
# Elastic Compliance Matrix: (Units=1/GPa)
#
#
# Indices 1 2 3 4 5 6 
#
# 1 0.029934 -0.002497 -0.013131 0.000000 0.014207 0.000000
# 2 -0.002497 0.011766 0.000024 0.000000 0.003494 0.000000
# 3 -0.013131 0.000024 0.017758 0.000000 -0.004970 0.000000
# 4 0.000000 0.000000 0.000000 0.033998 0.000000 -0.003435
# 5 0.014207 0.003494 -0.004970 0.000000 0.034829 0.000000
# 6 0.000000 0.000000 0.000000 -0.003435 0.000000 0.038896
#
#
# Mechanical properties :
#
#
# Convention : Reuss Voigt Hill
#
# Bulk Modulus (GPa) = 35.40003 42.61156 39.00580
# Shear Modulus (GPa) = 24.06091 30.26544 27.16317
#
# Velocity S-wave (km/s) = 3.48652 3.91030 3.70448
# Velocity P-wave (km/s) = 5.83886 6.47419 6.16471
#
# Compressibility (1/GPa) = 0.02824856
#
# Stress axis : x y z
#
# Youngs Moduli (GPa) = 33.40685 84.99352 56.31294
#
# Poissons Ratio (x) = 0.21222 0.73947
# Poissons Ratio (y) = 0.08341 -0.00134
# Poissons Ratio (z) = 0.43868 -0.00203
#
# Static dielectric constant tensor:
#      x y z
#    x 4.070150 0.000000 -0.278120 
#    y 0.000000 4.541090 0.000000 
#    z -0.278120 0.000000 3.666020 
# 
# 
# High freq. dielectric constant tensor:
#      x y z
#    x 1.783580 0.000000 0.006610 
#    y 0.000000 1.782320 0.000000 
#    z 0.006610 0.000000 1.761400 
# 
# From -- ./inp_files/101134.got.cif
#   From: 2010.06.25/outbox.cif.g09.slc.cpg/sg12_51_cif.got.tgz:101134.got - 2010.06.28 00:19:55.
