data_PCOD8105607
_publ_section_title
;
Structure prediction by ZEFSAII (Michael W. Deem and Ramdas Pophale) SiO2 
 PCOD8105607
Probable space group: C 2/M
;
_chemical_formula_sum "Si O2"
_cell_formula_units_Z 64
_cell_length_a 27.667680
_cell_length_b 9.753758
_cell_length_c 12.750648
_cell_angle_alpha 90.000000
_cell_angle_beta 89.999853
_cell_angle_gamma 90.000000
_cell_volume 3440.939025
_symmetry_space_group_name_H-M "C 2/M"
_symmetry_group_IT_number 12
_symmetry_cell_setting 'monoclinic'
loop_
_space_group_symop_operation_xyz
x,y,z
-x,y,-z
-x,-y,-z
x,-y,z
1/2+x,1/2+y,z
1/2-x,1/2+y,-z
1/2-x,1/2-y,-z
1/2+x,1/2-y,z
loop_
_atom_site_type_symbol
_atom_site_label
_atom_site_fract_x
_atom_site_fract_y
_atom_site_fract_z
Si Si1 0.864680 0.157456 0.694481
Si Si2 0.135320 0.157457 0.694482
Si Si3 0.056993 0.658944 0.771969
Si Si4 0.702043 0.660397 0.500000
Si Si5 0.205391 0.156759 0.881177
Si Si6 0.443006 0.841055 0.771969
Si Si7 0.052449 0.338491 0.000001
Si Si8 0.705391 0.343241 0.118824
O O1 0.828969 0.200205 0.601571
O O2 0.913041 0.249791 0.689481
O O3 0.838921 0.186555 0.804865
O O4 0.880590 0.000000 0.682607
O O5 0.086959 0.249790 0.689482
O O6 0.171031 0.200205 0.601572
O O7 0.161079 0.186556 0.804867
O O8 0.119410 0.000000 0.682609
O O9 0.067428 0.500000 0.748411
O O10 1.000000 0.689945 0.760959
O O11 0.077057 0.701258 0.889068
O O12 0.716165 0.500000 0.500000
O O13 0.750000 0.750000 0.500000
O O14 0.250000 0.250000 0.846423
O O15 0.222731 0.000000 0.871017
O O16 0.188767 0.191039 0.000000
O O17 0.422942 0.798737 0.889068
O O18 0.432572 0.000000 0.748413
O O19 0.044857 0.500000 0.000005
O O20 0.000000 0.267291 0.000000
O O21 0.722731 0.500000 0.128983
#
# Coordination Sequence:
#
# PCOD8105607 Si02
#       8
#     8   8   8   8   8   8   8   8
#     4  10  21  35  53  77 106 138 175 217 265 316
#     4  10  21  35  53  77 106 138 175 217 265 316
#     4   9  18  33  53  78 108 141 179 219 258 307
#     4  10  22  40  59  80 105 137 178 223 267 314
#     4   9  18  32  49  72 102 132 164 207 259 314
#     4   9  18  33  53  78 108 141 179 219 258 307
#     4   7  12  26  47  71 102 137 170 209 254 299
#     4   9  18  32  49  72 102 132 164 207 259 314
#
# _framework density 18.599574
#
# number of rings (size 3 to 8) (size 9 to 14) (size 15 to 20)
#    0.000    2.875    0.000    2.250    1.750    2.500 
#    0.000    0.625    0.000    6.000    0.000    0.000 
#    0.000    0.000    0.000    0.000    0.000    0.000 
#
# Total GULP energy -396567.117520 kJ/mol
# GULP energy per Si atom -12392.722422 kJ/mol
# Density = 1.855724 g / cm^3
# Si number density = 18.599574 Si / 1000 Ang^3
#
#
#
# Elastic Constant Matrix: (Units=GPa)
#
#
# Indices 1 2 3 4 5 6 
#
# 1 108.1227 74.3539 57.2652 0.0000 0.0010 0.0000
# 2 74.3539 79.6239 48.1936 0.0000 -0.0001 0.0000
# 3 57.2652 48.1936 83.1500 0.0000 0.0014 0.0000
# 4 0.0000 0.0000 0.0000 20.3828 0.0000 0.0002
# 5 0.0010 -0.0001 0.0014 0.0000 23.4546 0.0000
# 6 0.0000 0.0000 0.0000 0.0002 0.0000 39.0528
#
#
#
# Elastic Compliance Matrix: (Units=1/GPa)
#
#
# Indices 1 2 3 4 5 6 
#
# 1 0.027851 -0.022179 -0.006326 0.000000 -0.000001 0.000000
# 2 -0.022179 0.037008 -0.006175 0.000000 0.000002 0.000000
# 3 -0.006326 -0.006175 0.019962 0.000000 -0.000001 0.000000
# 4 0.000000 0.000000 0.000000 0.049061 0.000000 0.000000
# 5 -0.000001 0.000002 -0.000001 0.000000 0.042636 0.000000
# 6 0.000000 0.000000 0.000000 0.000000 0.000000 0.025606
#
#
# Mechanical properties :
#
#
# Convention : Reuss Voigt Hill
#
# Bulk Modulus (GPa) = 64.67914 70.05799 67.36857
# Shear Modulus (GPa) = 18.07413 22.65029 20.36221
#
# Velocity S-wave (km/s) = 3.12067 3.49346 3.31232
# Velocity P-wave (km/s) = 6.91627 7.34987 7.13637
#
# Compressibility (1/GPa) = 0.01546093
#
# Stress axis : x y z
#
# Youngs Moduli (GPa) = 35.90473 27.02149 50.09430
#
# Poissons Ratio (x) = 0.59931 0.31691
# Poissons Ratio (y) = 0.79633 0.30933
# Poissons Ratio (z) = 0.22715 0.16685
#
# Static dielectric constant tensor:
#      x y z
#    x 3.141420 0.000000 0.000010 
#    y 0.000000 3.264430 0.000000 
#    z 0.000010 0.000000 3.540860 
# 
# 
# High freq. dielectric constant tensor:
#      x y z
#    x 1.708370 0.000000 0.000000 
#    y 0.000000 1.708650 0.000000 
#    z 0.000000 0.000000 1.719430 
# 
# From -- ./inp_files/187623.got.cif
#   From: 2010.06.25/outbox.cif.g09.slc.cpg/sg12_94_cif.got.tgz:187623.got - 2010.06.28 00:19:55.
