data_PCOD8105767
_publ_section_title
;
Structure prediction by ZEFSAII (Michael W. Deem and Ramdas Pophale) SiO2 
 PCOD8105767
Probable space group: C 2/M
;
_chemical_formula_sum "Si O2"
_cell_formula_units_Z 48
_cell_length_a 23.577287
_cell_length_b 8.780698
_cell_length_c 11.919705
_cell_angle_alpha 90.000000
_cell_angle_beta 91.256692
_cell_angle_gamma 90.000000
_cell_volume 2467.083822
_symmetry_space_group_name_H-M "C 2/M"
_symmetry_group_IT_number 12
_symmetry_cell_setting 'monoclinic'
loop_
_space_group_symop_operation_xyz
x,y,z
-x,y,-z
-x,-y,-z
x,-y,z
1/2+x,1/2+y,z
1/2-x,1/2+y,-z
1/2-x,1/2-y,-z
1/2+x,1/2-y,z
loop_
_atom_site_type_symbol
_atom_site_label
_atom_site_fract_x
_atom_site_fract_y
_atom_site_fract_z
Si Si1 0.910612 0.319672 0.455505
Si Si2 0.266594 0.176291 0.175447
Si Si3 0.710407 0.678903 0.591601
Si Si4 0.480459 0.179741 0.670365
Si Si5 0.051516 0.323865 0.086553
Si Si6 0.335598 0.676313 0.991628
O O1 0.900543 0.500000 0.445914
O O2 0.853608 0.233327 0.424680
O O3 0.930945 0.273073 0.581466
O O4 0.958309 0.261571 0.369570
O O5 0.265344 0.274674 0.287175
O O6 0.207580 0.210557 0.111116
O O7 0.274293 0.000000 0.206577
O O8 0.319051 0.225779 0.099660
O O9 0.712929 0.500000 0.578666
O O10 0.750000 0.750000 0.500000
O O11 0.466562 0.243476 0.793036
O O12 0.484762 0.000000 0.674620
O O13 0.070446 0.500000 0.096251
O O14 0.102420 0.222661 0.044268
O O15 0.000000 0.303754 0.000000
O O16 0.334118 0.500000 0.025497
#
# Coordination Sequence:
#
# PCOD8105767 Si02
#       6
#     8   8   8   8   8   8
#     4   9  18  37  62  85 114 156 200 245 291 350
#     4  10  22  42  65  88 118 158 199 244 299 359
#     4  12  26  41  60  90 123 157 199 247 298 354
#     4   8  17  35  59  86 116 155 200 239 291 353
#     4  10  21  35  56  88 121 159 200 240 291 356
#     4  10  22  40  62  90 121 156 198 248 301 352
#
# _framework density 19.456168999999999
#
# number of rings (size 3 to 8) (size 9 to 14) (size 15 to 20)
#    0.000    2.167    0.000    3.500    4.667    2.333 
#    0.000    2.500    0.000    0.000    0.000    0.000 
#    0.000    0.000    0.000    0.000    0.000    0.000 
#
# Total GULP energy -297657.900569 kJ/mol
# GULP energy per Si atom -12402.412524 kJ/mol
# Density = 1.941189 g / cm^3
# Si number density = 19.456169 Si / 1000 Ang^3
#
#
#
# Elastic Constant Matrix: (Units=GPa)
#
#
# Indices 1 2 3 4 5 6 
#
# 1 96.9623 39.2129 37.3444 0.0000 -8.4010 0.0000
# 2 39.2129 83.8145 31.8390 0.0000 2.4909 0.0000
# 3 37.3444 31.8390 111.9743 0.0000 -6.2903 0.0000
# 4 0.0000 0.0000 0.0000 25.9325 0.0000 -4.7419
# 5 -8.4010 2.4909 -6.2903 0.0000 23.7994 0.0000
# 6 0.0000 0.0000 0.0000 -4.7419 0.0000 21.1954
#
#
#
# Elastic Compliance Matrix: (Units=1/GPa)
#
#
# Indices 1 2 3 4 5 6 
#
# 1 0.014114 -0.005675 -0.002822 0.000000 0.004830 0.000000
# 2 -0.005675 0.015799 -0.002847 0.000000 -0.004409 0.000000
# 3 -0.002822 -0.002847 0.010803 0.000000 0.002157 0.000000
# 4 0.000000 0.000000 0.000000 0.040206 0.000000 0.008995
# 5 0.004830 -0.004409 0.002157 0.000000 0.044754 0.000000
# 6 0.000000 0.000000 0.000000 0.008995 0.000000 0.049193
#
#
# Mechanical properties :
#
#
# Convention : Reuss Voigt Hill
#
# Bulk Modulus (GPa) = 55.47342 56.61597 56.04470
# Shear Modulus (GPa) = 24.56216 26.47580 25.51898
#
# Velocity S-wave (km/s) = 3.55693 3.69289 3.62555
# Velocity P-wave (km/s) = 6.74114 6.88082 6.81134
#
# Compressibility (1/GPa) = 0.01802665
#
# Stress axis : x y z
#
# Youngs Moduli (GPa) = 70.85384 63.29658 92.56997
#
# Poissons Ratio (x) = 0.35918 0.26125
# Poissons Ratio (y) = 0.40206 0.26358
# Poissons Ratio (z) = 0.19996 0.18023
#
# Static dielectric constant tensor:
#      x y z
#    x 3.072050 0.000000 0.558470 
#    y 0.000000 3.553960 0.000000 
#    z 0.558470 0.000000 3.111940 
# 
# 
# High freq. dielectric constant tensor:
#      x y z
#    x 1.764410 0.000000 -0.001650 
#    y 0.000000 1.741140 0.000000 
#    z -0.001650 0.000000 1.770530 
# 
# From -- ./inp_files/172292.got.cif
#   From: 2010.06.25/outbox.cif.g09.slc.cpg/sg12_87_cif.got.tgz:172292.got - 2010.06.28 00:19:55.
