data_PCOD8105611
_publ_section_title
;
Structure prediction by ZEFSAII (Michael W. Deem and Ramdas Pophale) SiO2 
 PCOD8105611
Probable space group: C 2/M
;
_chemical_formula_sum "Si O2"
_cell_formula_units_Z 56
_cell_length_a 9.074563
_cell_length_b 12.548626
_cell_length_c 25.533066
_cell_angle_alpha 90.000000
_cell_angle_beta 121.422957
_cell_angle_gamma 90.000000
_cell_volume 2481.121153
_symmetry_space_group_name_H-M "C 2/M"
_symmetry_group_IT_number 12
_symmetry_cell_setting 'monoclinic'
loop_
_space_group_symop_operation_xyz
x,y,z
-x,y,-z
-x,-y,-z
x,-y,z
1/2+x,1/2+y,z
1/2-x,1/2+y,-z
1/2-x,1/2-y,-z
1/2+x,1/2-y,z
loop_
_atom_site_type_symbol
_atom_site_label
_atom_site_fract_x
_atom_site_fract_y
_atom_site_fract_z
Si Si1 0.773914 0.627650 0.546207
Si Si2 0.495916 0.373165 0.417187
Si Si3 0.820725 0.695387 0.220985
Si Si4 0.621781 0.122562 0.657317
Si Si5 0.389119 0.123318 0.927997
Si Si6 0.003210 0.125135 0.301384
Si Si7 0.048571 0.260949 0.860358
O O1 0.784441 0.500000 0.547847
O O2 0.656197 0.664164 0.573031
O O3 0.683834 0.666890 0.474923
O O4 0.967286 0.675520 0.592894
O O5 0.507364 0.500000 0.416730
O O6 0.457230 0.332662 0.351182
O O7 0.907789 0.631886 0.285309
O O8 0.905609 0.662620 0.181084
O O9 0.613828 0.683053 0.182203
O O10 0.865549 0.821457 0.236809
O O11 0.805986 0.170634 0.675661
O O12 0.620958 0.000000 0.641846
O O13 0.211821 0.187017 0.902606
O O14 0.503278 0.164307 0.900635
O O15 0.344860 0.000000 0.911343
O O16 0.500000 0.142793 0.000000
O O17 0.988319 0.000000 0.290896
#
# Coordination Sequence:
#
# PCOD8105611 Si02
#       7
#     8   8   8   8   8   8   8
#     4   8  15  29  49  75 106 139 188 253 321 383
#     4   8  15  29  50  76 103 140 192 253 319 386
#     4  11  22  39  56  86 125 164 204 251 305 368
#     4  10  21  35  53  78 111 152 195 253 314 371
#     4  10  22  44  74 105 137 175 217 262 313 368
#     4  10  21  36  56  79 109 153 202 256 317 376
#     4  10  23  40  65  96 135 174 212 260 312 369
#
# _framework density 22.570440999999999
#
# number of rings (size 3 to 8) (size 9 to 14) (size 15 to 20)
#    0.000    2.429    1.429    1.286    2.000    4.000 
#    0.000    5.714    0.000    7.714    0.000    0.000 
#    0.000    0.000    0.000    0.000    0.000    0.000 
#
# Total GULP energy -347131.004992 kJ/mol
# GULP energy per Si atom -12397.535893 kJ/mol
# Density = 2.251907 g / cm^3
# Si number density = 22.570441 Si / 1000 Ang^3
#
#
#
# Elastic Constant Matrix: (Units=GPa)
#
#
# Indices 1 2 3 4 5 6 
#
# 1 123.7460 15.1907 49.4245 0.0000 2.7928 0.0000
# 2 15.1907 44.3375 26.2504 0.0000 10.8704 0.0000
# 3 49.4245 26.2504 112.1732 0.0000 0.8985 0.0000
# 4 0.0000 0.0000 0.0000 30.7013 0.0000 1.5021
# 5 2.7928 10.8704 0.8985 0.0000 38.8940 0.0000
# 6 0.0000 0.0000 0.0000 1.5021 0.0000 20.6665
#
#
#
# Elastic Compliance Matrix: (Units=1/GPa)
#
#
# Indices 1 2 3 4 5 6 
#
# 1 0.009845 -0.000828 -0.004141 0.000000 -0.000380 0.000000
# 2 -0.000828 0.028421 -0.006224 0.000000 -0.007740 0.000000
# 3 -0.004141 -0.006224 0.012182 0.000000 0.001755 0.000000
# 4 0.000000 0.000000 0.000000 0.032688 0.000000 -0.002376
# 5 -0.000380 -0.007740 0.001755 0.000000 0.027861 0.000000
# 6 0.000000 0.000000 0.000000 -0.002376 0.000000 0.048560
#
#
# Mechanical properties :
#
#
# Convention : Reuss Voigt Hill
#
# Bulk Modulus (GPa) = 35.63645 51.33199 43.48422
# Shear Modulus (GPa) = 26.13734 30.67844 28.40789
#
# Velocity S-wave (km/s) = 3.40668 3.69077 3.55157
# Velocity P-wave (km/s) = 5.59439 6.39959 6.01049
#
# Compressibility (1/GPa) = 0.02806116
#
# Stress axis : x y z
#
# Youngs Moduli (GPa) = 101.57179 35.18568 82.08958
#
# Poissons Ratio (x) = 0.02914 0.33994
# Poissons Ratio (y) = 0.08413 0.51092
# Poissons Ratio (z) = 0.42061 0.21899
#
# Static dielectric constant tensor:
#      x y z
#    x 4.224640 0.000000 0.066780 
#    y 0.000000 3.895060 0.000000 
#    z 0.066780 0.000000 4.335490 
# 
# 
# High freq. dielectric constant tensor:
#      x y z
#    x 1.891530 0.000000 0.001760 
#    y 0.000000 1.891850 0.000000 
#    z 0.001760 0.000000 1.898420 
# 
# From -- ./inp_files/356201.got.cif
#   From: 2010.06.25/outbox.cif.g09.slc.cpg/sg12_179_cif.got.tgz:356201.got - 2010.06.28 00:19:55.
