data_PCOD8105244
_publ_section_title
;
Structure prediction by ZEFSAII (Michael W. Deem and Ramdas Pophale) SiO2 
 PCOD8105244
Probable space group: C 2/M
;
_chemical_formula_sum "Si O2"
_cell_formula_units_Z 48
_cell_length_a 13.800113
_cell_length_b 25.834999
_cell_length_c 14.429822
_cell_angle_alpha 90.000000
_cell_angle_beta 149.333639
_cell_angle_gamma 90.000000
_cell_volume 2623.944231
_symmetry_space_group_name_H-M "C 2/M"
_symmetry_group_IT_number 12
_symmetry_cell_setting 'monoclinic'
loop_
_space_group_symop_operation_xyz
x,y,z
-x,y,-z
-x,-y,-z
x,-y,z
1/2+x,1/2+y,z
1/2-x,1/2+y,-z
1/2-x,1/2-y,-z
1/2+x,1/2-y,z
loop_
_atom_site_type_symbol
_atom_site_label
_atom_site_fract_x
_atom_site_fract_y
_atom_site_fract_z
Si Si1 0.376233 0.871289 0.165543
Si Si2 0.978248 0.940114 0.088085
Si Si3 0.160730 0.386605 0.552774
Si Si4 0.880549 0.737977 0.258974
Si Si5 0.565803 0.806262 0.949536
Si Si6 0.260190 0.728110 0.649316
O O1 0.550361 0.897087 0.365482
O O2 0.320434 0.816813 0.166161
O O3 0.444446 0.859758 0.116082
O O4 0.194267 0.908227 0.009590
O O5 0.181589 0.930870 0.304740
O O6 0.925509 0.000000 0.054320
O O7 0.000000 0.922729 0.000000
O O8 0.281516 0.333331 0.651145
O O9 0.000000 0.386236 0.500000
O O10 0.809007 0.737183 0.304373
O O11 0.106759 0.748434 0.447094
O O12 0.781683 0.785622 0.125519
O O13 0.451222 0.761784 0.797417
O O14 0.500000 0.816728 0.000000
#
# Coordination Sequence:
#
# PCOD8105244 Si02
#       6
#     8   8   8   8   8   8
#     4  11  21  35  53  78 108 144 176 214 267 312
#     4  11  23  37  57  81 105 134 169 219 276 326
#     4  11  19  34  55  79 110 142 173 212 260 320
#     4   9  16  29  48  73 105 143 176 209 251 303
#     4  10  21  32  50  77 109 145 184 217 246 296
#     4   9  16  30  47  73 108 143 176 207 249 301
#
# _framework density 18.293073
#
# number of rings (size 3 to 8) (size 9 to 14) (size 15 to 20)
#    0.000    1.833    5.000    1.500    0.000    6.333 
#    0.000    0.000    0.000    0.500    0.000    1.167 
#    0.000    0.000    0.000    0.000    0.000    0.000 
#
# Total GULP energy -297483.124415 kJ/mol
# GULP energy per Si atom -12395.130184 kJ/mol
# Density = 1.825144 g / cm^3
# Si number density = 18.293073 Si / 1000 Ang^3
#
#
#
# Elastic Constant Matrix: (Units=GPa)
#
#
# Indices 1 2 3 4 5 6 
#
# 1 50.3107 37.2773 46.9054 0.0001 1.1076 0.0000
# 2 37.2773 57.9272 39.4813 0.0000 5.3529 0.0000
# 3 46.9054 39.4813 116.4307 0.0003 -4.5000 0.0000
# 4 0.0001 0.0000 0.0003 20.4436 0.0002 5.6688
# 5 1.1076 5.3529 -4.5000 0.0002 23.2217 0.0000
# 6 0.0000 0.0000 0.0000 5.6688 0.0000 18.4833
#
#
#
# Elastic Compliance Matrix: (Units=1/GPa)
#
#
# Indices 1 2 3 4 5 6 
#
# 1 0.047275 -0.022811 -0.011279 0.000000 0.000818 0.000000
# 2 -0.022811 0.034544 -0.002811 0.000000 -0.007419 0.000000
# 3 -0.011279 -0.002811 0.014238 0.000000 0.003945 0.000000
# 4 0.000000 0.000000 0.000000 0.053462 0.000000 -0.016397
# 5 0.000818 -0.007419 0.003945 0.000000 0.045499 0.000000
# 6 0.000000 0.000000 0.000000 -0.016397 0.000000 0.059132
#
#
# Mechanical properties :
#
#
# Convention : Reuss Voigt Hill
#
# Bulk Modulus (GPa) = 44.93100 52.44407 48.68754
# Shear Modulus (GPa) = 14.90895 19.16336 17.03615
#
# Velocity S-wave (km/s) = 2.85793 3.24014 3.05501
# Velocity P-wave (km/s) = 5.95864 6.53675 6.25438
#
# Compressibility (1/GPa) = 0.02225635
#
# Stress axis : x y z
#
# Youngs Moduli (GPa) = 21.15267 28.94884 70.23395
#
# Poissons Ratio (x) = 0.66035 0.79214
# Poissons Ratio (y) = 0.48251 0.19741
# Poissons Ratio (z) = 0.23857 0.08137
#
# Static dielectric constant tensor:
#      x y z
#    x 3.350200 0.000000 0.033610 
#    y 0.000000 3.051280 0.000000 
#    z 0.033610 0.000000 4.081890 
# 
# 
# High freq. dielectric constant tensor:
#      x y z
#    x 1.693370 0.000000 -0.004230 
#    y 0.000000 1.663970 0.000000 
#    z -0.004230 0.000000 1.735620 
# 
# From -- ./inp_files/218545.got.cif
#   From: 2010.06.25/outbox.cif.g09.slc.cpg/sg12_110_cif.got.tgz:218545.got - 2010.06.28 00:19:55.
