data_PCOD8105346
_publ_section_title
;
Structure prediction by ZEFSAII (Michael W. Deem and Ramdas Pophale) SiO2 
 PCOD8105346
Probable space group: C 2/M
;
_chemical_formula_sum "Si O2"
_cell_formula_units_Z 64
_cell_length_a 12.882331
_cell_length_b 13.098305
_cell_length_c 34.805362
_cell_angle_alpha 90.000000
_cell_angle_beta 37.200805
_cell_angle_gamma 90.000000
_cell_volume 3550.841226
_symmetry_space_group_name_H-M "C 2/M"
_symmetry_group_IT_number 12
_symmetry_cell_setting 'monoclinic'
loop_
_space_group_symop_operation_xyz
x,y,z
-x,y,-z
-x,-y,-z
x,-y,z
1/2+x,1/2+y,z
1/2-x,1/2+y,-z
1/2-x,1/2-y,-z
1/2+x,1/2-y,z
loop_
_atom_site_type_symbol
_atom_site_label
_atom_site_fract_x
_atom_site_fract_y
_atom_site_fract_z
Si Si1 0.880676 0.119718 0.340119
Si Si2 0.671831 0.182481 0.469752
Si Si3 0.977868 0.116229 0.189602
Si Si4 0.704523 0.886582 0.543667
Si Si5 0.959744 0.748601 0.900338
Si Si6 0.295291 0.615392 0.801956
Si Si7 0.822095 0.380119 0.671644
Si Si8 0.117461 0.121426 0.002788
O O1 0.837742 0.168241 0.393909
O O2 0.750583 0.167549 0.346657
O O3 0.075877 0.145192 0.270725
O O4 0.852216 0.000000 0.351876
O O5 0.500000 0.144709 0.500000
O O6 0.690938 0.113805 0.501728
O O7 0.656836 0.303063 0.484190
O O8 0.054461 0.180718 0.132513
O O9 0.108353 0.125768 0.186242
O O10 0.790274 0.158704 0.258758
O O11 0.963053 0.000000 0.179619
O O12 0.522672 0.855874 0.616723
O O13 0.761333 0.000000 0.539998
O O14 0.808287 0.665948 0.941575
O O15 0.137734 0.690567 0.847509
O O16 0.960832 0.819650 0.937682
O O17 0.228871 0.500000 0.815978
O O18 0.785825 0.500000 0.679594
O O19 0.127456 0.000000 0.007749
O O20 0.000000 0.143862 0.000000
#
# Coordination Sequence:
#
# PCOD8105346 Si02
#       8
#     8   8   8   8   8   8   8   8
#     4   9  17  31  52  75 102 132 167 216 261 302
#     4  11  21  32  52  76  97 134 179 215 254 310
#     4   9  18  32  51  77 106 132 165 212 257 301
#     4  10  21  34  49  72 101 132 170 216 262 305
#     4  11  20  33  58  81  99 139 177 205 247 303
#     4   9  19  34  51  76 107 135 166 211 263 302
#     4   8  15  30  50  71  97 130 164 208 260 301
#     4  10  22  38  54  77 110 139 170 209 249 294
#
# _framework density 18.023897999999999
#
# number of rings (size 3 to 8) (size 9 to 14) (size 15 to 20)
#    0.000    2.375    1.250    3.375    1.750    0.750 
#    0.000    0.000    0.000    6.000    0.000    2.625 
#    0.000    0.000    0.000    0.000    0.000    0.000 
#
# Total GULP energy -396643.163744 kJ/mol
# GULP energy per Si atom -12395.098867 kJ/mol
# Density = 1.798287 g / cm^3
# Si number density = 18.023898 Si / 1000 Ang^3
#
#
#
# Elastic Constant Matrix: (Units=GPa)
#
#
# Indices 1 2 3 4 5 6 
#
# 1 47.8375 24.4099 32.5832 -0.0003 4.6686 -0.0005
# 2 24.4099 75.6335 38.6815 -0.0001 -2.8318 -0.0004
# 3 32.5832 38.6815 101.8003 0.0002 6.2463 -0.0025
# 4 -0.0003 -0.0001 0.0002 30.8467 0.0003 8.5562
# 5 4.6686 -2.8318 6.2463 0.0003 16.5639 0.0006
# 6 -0.0005 -0.0004 -0.0025 8.5562 0.0006 56.9136
#
#
#
# Elastic Compliance Matrix: (Units=1/GPa)
#
#
# Indices 1 2 3 4 5 6 
#
# 1 0.029269 -0.006365 -0.006528 0.000000 -0.006876 0.000000
# 2 -0.006365 0.018259 -0.005325 0.000000 0.006924 0.000000
# 3 -0.006528 -0.005325 0.014208 0.000000 -0.004428 0.000001
# 4 0.000000 0.000000 0.000000 0.033829 0.000000 -0.005086
# 5 -0.006876 0.006924 -0.004428 0.000000 0.065164 -0.000001
# 6 0.000000 0.000000 0.000001 -0.005086 -0.000001 0.018335
#
#
# Mechanical properties :
#
#
# Convention : Reuss Voigt Hill
#
# Bulk Modulus (GPa) = 39.52708 46.29115 42.90911
# Shear Modulus (GPa) = 22.32803 29.50463 25.91633
#
# Velocity S-wave (km/s) = 3.52348 4.05034 3.79606
# Velocity P-wave (km/s) = 6.20735 6.90019 6.56292
#
# Compressibility (1/GPa) = 0.02529911
#
# Stress axis : x y z
#
# Youngs Moduli (GPa) = 34.16545 54.76810 70.38459
#
# Poissons Ratio (x) = 0.34862 0.45944
# Poissons Ratio (y) = 0.21748 0.37482
# Poissons Ratio (z) = 0.22302 0.29166
#
# Static dielectric constant tensor:
#      x y z
#    x 3.178280 0.000000 0.062680 
#    y 0.000000 3.188590 0.000000 
#    z 0.062680 0.000000 3.545540 
# 
# 
# High freq. dielectric constant tensor:
#      x y z
#    x 1.680290 0.000000 0.003560 
#    y 0.000000 1.688520 0.000000 
#    z 0.003560 0.000000 1.712010 
# 
# From -- ./inp_files/374089.got.cif
#   From: 2010.06.25/outbox.cif.g09.slc.cpg/sg12_188_cif.got.tgz:374089.got - 2010.06.28 00:19:55.
