data_PCOD8105910
_publ_section_title
;
Structure prediction by ZEFSAII (Michael W. Deem and Ramdas Pophale) SiO2 
 PCOD8105910
Probable space group: C 2/M
;
_chemical_formula_sum "Si O2"
_cell_formula_units_Z 56
_cell_length_a 9.351222
_cell_length_b 28.075155
_cell_length_c 13.489173
_cell_angle_alpha 90.000000
_cell_angle_beta 61.879679
_cell_angle_gamma 90.000000
_cell_volume 3123.378554
_symmetry_space_group_name_H-M "C 2/M"
_symmetry_group_IT_number 12
_symmetry_cell_setting 'monoclinic'
loop_
_space_group_symop_operation_xyz
x,y,z
-x,y,-z
-x,-y,-z
x,-y,z
1/2+x,1/2+y,z
1/2-x,1/2+y,-z
1/2-x,1/2-y,-z
1/2+x,1/2-y,z
loop_
_atom_site_type_symbol
_atom_site_label
_atom_site_fract_x
_atom_site_fract_y
_atom_site_fract_z
Si Si1 0.273405 0.211277 0.373018
Si Si2 0.462169 0.293981 0.370700
Si Si3 0.181244 0.556451 0.221646
Si Si4 0.340077 0.056446 0.999647
Si Si5 0.071557 0.620460 0.580137
Si Si6 0.517486 0.444705 0.202723
Si Si7 0.086450 0.102637 0.576816
O O1 0.398047 0.255139 0.311876
O O2 0.136481 0.222115 0.499507
O O3 0.377507 0.164159 0.365235
O O4 0.159217 0.206160 0.313063
O O5 0.411356 0.347943 0.361605
O O6 0.157310 0.500000 0.247102
O O7 0.158988 0.570880 0.115148
O O8 0.358528 0.574245 0.198040
O O9 0.051362 0.585219 0.326930
O O10 0.338982 0.000000 0.012326
O O11 0.500000 0.077941 0.000000
O O12 0.180434 0.078901 0.104558
O O13 0.228534 0.587757 0.504233
O O14 0.000000 0.640704 0.500000
O O15 0.530926 0.500000 0.178744
O O16 0.504483 0.435800 0.325348
O O17 0.000000 0.110368 0.500000
#
# Coordination Sequence:
#
# PCOD8105910 Si02
#       7
#     8   8   8   8   8   8   8
#     4   9  18  28  46  67  96 131 167 203 243 289
#     4   9  17  30  45  67  96 132 166 204 243 289
#     4  10  21  36  53  72  99 135 173 210 246 294
#     4   9  19  35  55  75  92 121 170 220 256 287
#     4  11  21  32  48  75 105 138 167 201 247 307
#     4  10  21  36  53  72  99 136 172 208 250 294
#     4  11  21  34  47  73 110 136 165 205 251 303
#
# _framework density 17.929302
#
# number of rings (size 3 to 8) (size 9 to 14) (size 15 to 20)
#    0.000    2.143    4.286    0.429    8.000    2.857 
#    0.000    0.000    0.000    0.000    0.000    1.000 
#    0.000    0.000    0.000    0.000    0.000    0.000 
#
# Total GULP energy -346952.707239 kJ/mol
# GULP energy per Si atom -12391.168116 kJ/mol
# Density = 1.788849 g / cm^3
# Si number density = 17.929302 Si / 1000 Ang^3
#
#
#
# Elastic Constant Matrix: (Units=GPa)
#
#
# Indices 1 2 3 4 5 6 
#
# 1 134.2251 43.2211 59.6505 0.0000 -21.4420 0.0000
# 2 43.2211 33.4110 28.3998 0.0000 -9.6519 0.0000
# 3 59.6505 28.3998 85.9041 0.0000 -14.3767 0.0000
# 4 0.0000 0.0000 0.0000 1.0486 0.0000 -1.5418
# 5 -21.4420 -9.6519 -14.3767 0.0000 27.1264 0.0000
# 6 0.0000 0.0000 0.0000 -1.5418 0.0000 21.3712
#
#
#
# Elastic Compliance Matrix: (Units=1/GPa)
#
#
# Indices 1 2 3 4 5 6 
#
# 1 0.014719 -0.013556 -0.005047 0.000000 0.004136 0.000000
# 2 -0.013556 0.055866 -0.008255 0.000000 0.004788 0.000000
# 3 -0.005047 -0.008255 0.018342 0.000000 0.002795 0.000000
# 4 0.000000 0.000000 0.000000 1.066786 0.000000 0.076963
# 5 0.004136 0.004788 0.002795 0.000000 0.043319 0.000000
# 6 0.000000 0.000000 0.000000 0.076963 0.000000 0.052344
#
#
# Mechanical properties :
#
#
# Convention : Reuss Voigt Hill
#
# Bulk Modulus (GPa) = 28.39949 57.34256 42.87103
# Shear Modulus (GPa) = 3.79700 18.06052 10.92876
#
# Velocity S-wave (km/s) = 1.45683 3.17727 2.47158
# Velocity P-wave (km/s) = 4.32480 6.74627 5.66639
#
# Compressibility (1/GPa) = 0.03521190
#
# Stress axis : x y z
#
# Youngs Moduli (GPa) = 67.94060 17.89987 54.51946
#
# Poissons Ratio (x) = 0.24265 0.27514
# Poissons Ratio (y) = 0.92099 0.45007
# Poissons Ratio (z) = 0.34288 0.14777
#
# Static dielectric constant tensor:
#      x y z
#    x 3.926930 0.000000 -0.215330 
#    y 0.000000 3.085260 0.000000 
#    z -0.215330 0.000000 3.038440 
# 
# 
# High freq. dielectric constant tensor:
#      x y z
#    x 1.720160 0.000000 -0.015450 
#    y 0.000000 1.664020 0.000000 
#    z -0.015450 0.000000 1.646880 
# 
# From -- ./inp_files/199693.got.cif
#   From: 2010.06.25/outbox.cif.g09.slc.cpg/sg12_100_cif.got.tgz:199693.got - 2010.06.28 00:19:55.
