data_PCOD8105535
_publ_section_title
;
Structure prediction by ZEFSAII (Michael W. Deem and Ramdas Pophale) SiO2 
 PCOD8105535
Probable space group: C 2/M
;
_chemical_formula_sum "Si O2"
_cell_formula_units_Z 64
_cell_length_a 24.624913
_cell_length_b 8.951079
_cell_length_c 18.178882
_cell_angle_alpha 90.000000
_cell_angle_beta 63.375794
_cell_angle_gamma 90.000000
_cell_volume 3582.100586
_symmetry_space_group_name_H-M "C 2/M"
_symmetry_group_IT_number 12
_symmetry_cell_setting 'monoclinic'
loop_
_space_group_symop_operation_xyz
x,y,z
-x,y,-z
-x,-y,-z
x,-y,z
1/2+x,1/2+y,z
1/2-x,1/2+y,-z
1/2-x,1/2-y,-z
1/2+x,1/2-y,z
loop_
_atom_site_type_symbol
_atom_site_label
_atom_site_fract_x
_atom_site_fract_y
_atom_site_fract_z
Si Si1 0.781334 0.831462 0.547163
Si Si2 0.760559 0.821951 0.723440
Si Si3 0.944192 0.837603 0.979552
Si Si4 0.417000 0.671805 0.496511
Si Si5 0.002531 0.671584 0.670262
Si Si6 0.971487 0.821867 0.192965
Si Si7 0.382362 0.827619 0.666139
Si Si8 0.362585 0.321534 0.154416
O O1 0.750000 0.750000 0.500000
O O2 0.761396 0.765188 0.638318
O O3 0.853257 0.817555 0.492607
O O4 0.758784 0.000000 0.557357
O O5 0.819859 0.753703 0.727530
O O6 0.700871 0.761333 0.798738
O O7 0.764238 0.000000 0.726397
O O8 0.890436 0.759564 0.059494
O O9 0.919746 0.000000 0.969976
O O10 0.000000 0.861600 0.000000
O O11 0.971319 0.755941 0.890239
O O12 0.435929 0.500000 0.496910
O O13 0.467322 0.754810 0.418920
O O14 0.412718 0.749401 0.577755
O O15 0.022775 0.500000 0.662645
O O16 0.929697 0.686225 0.705148
O O17 0.025908 0.753441 0.728423
O O18 0.907504 0.777237 0.194085
O O19 0.976689 0.000000 0.194247
O O20 0.369030 0.000000 0.655307
O O21 0.353746 0.500000 0.157305
#
# Coordination Sequence:
#
# PCOD8105535 Si02
#       8
#     8   8   8   8   8   8   8   8
#     4   9  20  34  47  67  98 133 165 201 245 292
#     4  10  21  35  51  75 102 132 171 213 254 300
#     4   7  12  27  50  75 103 133 167 204 244 297
#     4  10  21  36  53  75  99 130 174 215 254 301
#     4  11  23  35  51  76 105 135 170 214 258 302
#     4   9  18  32  52  79 107 136 169 205 251 303
#     4  10  21  38  55  72  97 134 177 216 257 301
#     4   9  17  31  54  80 105 136 170 205 247 304
#
# _framework density 17.866613000000001
#
# number of rings (size 3 to 8) (size 9 to 14) (size 15 to 20)
#    0.000    2.625    0.000    4.125    1.750    7.000 
#    0.000    0.625    0.000    3.000    0.000    0.000 
#    0.000    0.000    0.000    0.000    0.000    0.000 
#
# Total GULP energy -396570.834094 kJ/mol
# GULP energy per Si atom -12392.838565 kJ/mol
# Density = 1.782595 g / cm^3
# Si number density = 17.866613 Si / 1000 Ang^3
#
#
#
# Elastic Constant Matrix: (Units=GPa)
#
#
# Indices 1 2 3 4 5 6 
#
# 1 67.4644 29.1580 35.4664 0.0000 -14.4362 -0.0001
# 2 29.1580 53.6035 22.9375 0.0001 -3.5576 0.0002
# 3 35.4664 22.9375 84.1521 0.0000 -25.1257 0.0000
# 4 0.0000 0.0001 0.0000 17.4709 0.0000 -2.2880
# 5 -14.4362 -3.5576 -25.1257 0.0000 22.9133 -0.0001
# 6 -0.0001 0.0002 0.0000 -2.2880 -0.0001 24.5460
#
#
#
# Elastic Compliance Matrix: (Units=1/GPa)
#
#
# Indices 1 2 3 4 5 6 
#
# 1 0.023413 -0.010195 -0.004694 0.000000 0.008021 0.000000
# 2 -0.010195 0.025876 -0.005166 0.000000 -0.008070 0.000000
# 3 -0.004694 -0.005166 0.021034 0.000000 0.019305 0.000000
# 4 0.000000 0.000000 0.000000 0.057945 0.000000 0.005401
# 5 0.008021 -0.008070 0.019305 0.000000 0.068612 0.000000
# 6 0.000000 0.000000 0.000000 0.005401 0.000000 0.041243
#
#
# Mechanical properties :
#
#
# Convention : Reuss Voigt Hill
#
# Bulk Modulus (GPa) = 33.09796 42.26042 37.67919
# Shear Modulus (GPa) = 17.34286 20.82992 19.08639
#
# Velocity S-wave (km/s) = 3.11896 3.41817 3.27199
# Velocity P-wave (km/s) = 5.61568 6.26763 5.95059
#
# Compressibility (1/GPa) = 0.03021334
#
# Stress axis : x y z
#
# Youngs Moduli (GPa) = 42.71199 38.64594 47.54297
#
# Poissons Ratio (x) = 0.39398 0.22315
# Poissons Ratio (y) = 0.43543 0.24561
# Poissons Ratio (z) = 0.20048 0.19965
#
# Static dielectric constant tensor:
#      x y z
#    x 3.253880 0.000000 -0.141320 
#    y 0.000000 3.214580 0.000000 
#    z -0.141320 0.000000 3.627410 
# 
# 
# High freq. dielectric constant tensor:
#      x y z
#    x 1.678910 0.000000 -0.012390 
#    y 0.000000 1.682090 0.000000 
#    z -0.012390 0.000000 1.686780 
# 
# From -- ./inp_files/323613.got.cif
#   From: 2010.06.25/outbox.cif.g09.slc.cpg/sg12_162_cif.got.tgz:323613.got - 2010.06.28 00:19:55.
