data_PCOD8105242
_publ_section_title
;
Structure prediction by ZEFSAII (Michael W. Deem and Ramdas Pophale) SiO2 
 PCOD8105242
Probable space group: C 2/M
;
_chemical_formula_sum "Si O2"
_cell_formula_units_Z 56
_cell_length_a 14.408558
_cell_length_b 29.336258
_cell_length_c 15.245105
_cell_angle_alpha 90.000000
_cell_angle_beta 152.405696
_cell_angle_gamma 90.000000
_cell_volume 2984.912762
_symmetry_space_group_name_H-M "C 2/M"
_symmetry_group_IT_number 12
_symmetry_cell_setting 'monoclinic'
loop_
_space_group_symop_operation_xyz
x,y,z
-x,y,-z
-x,-y,-z
x,-y,z
1/2+x,1/2+y,z
1/2-x,1/2+y,-z
1/2-x,1/2-y,-z
1/2+x,1/2-y,z
loop_
_atom_site_type_symbol
_atom_site_label
_atom_site_fract_x
_atom_site_fract_y
_atom_site_fract_z
Si Si1 0.785848 0.770476 0.800550
Si Si2 0.981157 0.289061 0.256108
Si Si3 0.147705 0.800690 0.325393
Si Si4 0.189080 0.828805 0.717670
Si Si5 0.136729 0.450298 0.983260
Si Si6 0.235453 0.073255 0.718106
Si Si7 0.698833 0.356351 0.923417
O O1 0.632886 0.782743 0.748135
O O2 0.720690 0.791390 0.651880
O O3 0.822610 0.716111 0.823608
O O4 0.000000 0.792931 0.000000
O O5 0.993494 0.241614 0.213164
O O6 0.204706 0.305975 0.468145
O O7 0.885122 0.327025 0.114088
O O8 0.005635 0.845224 0.194229
O O9 0.297363 0.873235 0.768490
O O10 0.136808 0.841759 0.773529
O O11 0.000000 0.816739 0.500000
O O12 0.192373 0.500000 0.989210
O O13 0.892169 0.447323 0.779013
O O14 0.221931 0.449054 0.152860
O O15 0.241381 0.409582 0.016127
O O16 0.000000 0.065195 0.500000
#
# Coordination Sequence:
#
# PCOD8105242 Si02
#       7
#     8   8   8   8   8   8   8
#     4  12  22  35  56  80 119 155 189 226 271 329
#     4  11  23  38  54  84 114 150 190 231 270 334
#     4  11  23  36  58  80 116 150 188 228 276 327
#     4  10  21  32  49  79 113 151 192 224 263 321
#     4  10  22  36  53  76 106 141 186 241 283 331
#     4   9  19  33  53  78 108 146 187 226 274 329
#     4  11  22  39  53  78 112 147 192 231 280 328
#
# _framework density 18.761016999999999
#
# number of rings (size 3 to 8) (size 9 to 14) (size 15 to 20)
#    0.000    1.429    2.857    3.429    8.000    3.429 
#    0.000    0.000    0.000    0.000    0.000    2.000 
#    0.000    2.286    0.000    0.000    0.000    0.000 
#
# Total GULP energy -346996.993867 kJ/mol
# GULP energy per Si atom -12392.749781 kJ/mol
# Density = 1.871832 g / cm^3
# Si number density = 18.761017 Si / 1000 Ang^3
#
#
#
# Elastic Constant Matrix: (Units=GPa)
#
#
# Indices 1 2 3 4 5 6 
#
# 1 77.6965 37.4484 14.0221 -0.0008 1.3626 -0.0002
# 2 37.4484 128.9534 36.2329 -0.0003 9.7862 0.0001
# 3 14.0221 36.2329 82.2743 -0.0008 4.1617 -0.0004
# 4 -0.0008 -0.0003 -0.0008 6.6313 -0.0007 1.4531
# 5 1.3626 9.7862 4.1617 -0.0007 25.1191 -0.0003
# 6 -0.0002 0.0001 -0.0004 1.4531 -0.0003 20.0437
#
#
#
# Elastic Compliance Matrix: (Units=1/GPa)
#
#
# Indices 1 2 3 4 5 6 
#
# 1 0.015026 -0.004226 -0.000748 0.000002 0.000955 0.000000
# 2 -0.004226 0.010242 -0.003630 -0.000001 -0.003159 0.000000
# 3 -0.000748 -0.003630 0.013924 0.000001 -0.000852 0.000000
# 4 0.000002 -0.000001 0.000001 0.153234 0.000004 -0.011109
# 5 0.000955 -0.003159 -0.000852 0.000004 0.041131 0.000000
# 6 0.000000 0.000000 0.000000 -0.011109 0.000000 0.050696
#
#
# Mechanical properties :
#
#
# Convention : Reuss Voigt Hill
#
# Bulk Modulus (GPa) = 45.49045 51.59233 48.54139
# Shear Modulus (GPa) = 16.19232 23.77353 19.98292
#
# Velocity S-wave (km/s) = 2.94101 3.56360 3.26717
# Velocity P-wave (km/s) = 5.98604 6.67022 6.33737
#
# Compressibility (1/GPa) = 0.02198263
#
# Stress axis : x y z
#
# Youngs Moduli (GPa) = 66.55305 97.63983 71.81926
#
# Poissons Ratio (x) = 0.41260 0.05373
# Poissons Ratio (y) = 0.28124 0.26073
# Poissons Ratio (z) = 0.04979 0.35447
#
# Static dielectric constant tensor:
#      x y z
#    x 3.206740 0.000000 0.007220 
#    y 0.000000 3.422700 0.000000 
#    z 0.007220 0.000000 3.654590 
# 
# 
# High freq. dielectric constant tensor:
#      x y z
#    x 1.694690 0.000000 0.009400 
#    y 0.000000 1.699470 0.000000 
#    z 0.009400 0.000000 1.749970 
# 
# From -- ./inp_files/219362.got.cif
#   From: 2010.06.25/outbox.cif.g09.slc.cpg/sg12_110_cif.got.tgz:219362.got - 2010.06.28 00:19:55.
