data_PCOD8105574
_publ_section_title
;
Structure prediction by ZEFSAII (Michael W. Deem and Ramdas Pophale) SiO2 
 PCOD8105574
Probable space group: C 2/M
;
_chemical_formula_sum "Si O2"
_cell_formula_units_Z 48
_cell_length_a 18.769965
_cell_length_b 9.180206
_cell_length_c 31.676756
_cell_angle_alpha 90.000000
_cell_angle_beta 151.667315
_cell_angle_gamma 90.000000
_cell_volume 2590.451985
_symmetry_space_group_name_H-M "C 2/M"
_symmetry_group_IT_number 12
_symmetry_cell_setting 'monoclinic'
loop_
_space_group_symop_operation_xyz
x,y,z
-x,y,-z
-x,-y,-z
x,-y,z
1/2+x,1/2+y,z
1/2-x,1/2+y,-z
1/2-x,1/2-y,-z
1/2+x,1/2-y,z
loop_
_atom_site_type_symbol
_atom_site_label
_atom_site_fract_x
_atom_site_fract_y
_atom_site_fract_z
Si Si1 0.697311 0.165676 0.268722
Si Si2 0.180785 0.829577 0.424219
Si Si3 0.835821 0.169685 0.252794
Si Si4 0.670230 0.827592 0.584711
Si Si5 0.434279 0.665799 0.919481
Si Si6 0.898862 0.331461 0.064795
O O1 0.801835 0.211680 0.283706
O O2 0.730734 0.266951 0.325670
O O3 0.522998 0.186643 0.166064
O O4 0.731592 0.000000 0.299492
O O5 0.250000 0.750000 0.500000
O O6 0.261543 0.772465 0.423983
O O7 0.005558 0.791984 0.329716
O O8 0.207309 0.000000 0.444447
O O9 0.732431 0.265689 0.168023
O O10 0.797576 0.000000 0.225680
O O11 0.500000 0.770203 0.500000
O O12 0.677549 0.000000 0.591409
O O13 0.427193 0.500000 0.899027
O O14 0.543303 0.761485 0.947941
O O15 0.500000 0.671526 0.000000
O O16 0.863250 0.500000 0.037834
O O17 0.750000 0.250000 0.000000
#
# Coordination Sequence:
#
# PCOD8105574 Si02
#       6
#     8   8   8   8   8   8
#     4   9  19  35  54  76 102 135 176 219 261 311
#     4  10  21  36  54  78 106 137 176 219 264 318
#     4   9  19  36  55  76 104 139 181 224 267 320
#     4  10  21  35  52  78 109 138 172 215 263 318
#     4  10  21  36  55  81 111 143 183 228 273 325
#     4  10  21  37  57  82 112 145 183 225 270 323
#
# _framework density 18.529584
#
# number of rings (size 3 to 8) (size 9 to 14) (size 15 to 20)
#    0.000    2.333    0.000    3.000    0.000    7.667 
#    0.000    3.333    0.000    0.000    0.000    0.000 
#    0.000    0.000    0.000    0.000    0.000    0.000 
#
# Total GULP energy -297667.559843 kJ/mol
# GULP energy per Si atom -12402.814993 kJ/mol
# Density = 1.848741 g / cm^3
# Si number density = 18.529584 Si / 1000 Ang^3
#
#
#
# Elastic Constant Matrix: (Units=GPa)
#
#
# Indices 1 2 3 4 5 6 
#
# 1 127.6387 53.6871 78.9642 0.0000 13.0166 0.0000
# 2 53.6871 90.3309 63.1216 -0.0001 2.0556 0.0003
# 3 78.9642 63.1216 110.6577 0.0000 6.2049 0.0001
# 4 0.0000 -0.0001 0.0000 37.7513 0.0000 -3.9140
# 5 13.0166 2.0556 6.2049 0.0000 36.1069 0.0000
# 6 0.0000 0.0003 0.0001 -3.9140 0.0000 28.3109
#
#
#
# Elastic Compliance Matrix: (Units=1/GPa)
#
#
# Indices 1 2 3 4 5 6 
#
# 1 0.014763 -0.002449 -0.008934 0.000000 -0.003648 0.000000
# 2 -0.002449 0.018835 -0.009073 0.000000 0.001370 0.000000
# 3 -0.008934 -0.009073 0.020576 0.000000 0.000201 0.000000
# 4 0.000000 0.000000 0.000000 0.026874 0.000000 0.003715
# 5 -0.003648 0.001370 0.000201 0.000000 0.028898 0.000000
# 6 0.000000 0.000000 0.000000 0.003715 0.000000 0.035836
#
#
# Mechanical properties :
#
#
# Convention : Reuss Voigt Hill
#
# Bulk Modulus (GPa) = 75.39707 80.01923 77.70815
# Shear Modulus (GPa) = 26.16232 29.29080 27.72656
#
# Velocity S-wave (km/s) = 3.76163 3.98019 3.87245
# Velocity P-wave (km/s) = 7.72301 8.02501 7.87546
#
# Compressibility (1/GPa) = 0.01326311
#
# Stress axis : x y z
#
# Youngs Moduli (GPa) = 67.73490 53.09322 48.60012
#
# Poissons Ratio (x) = 0.13001 0.43418
# Poissons Ratio (y) = 0.16587 0.44096
# Poissons Ratio (z) = 0.60512 0.48172
#
# Static dielectric constant tensor:
#      x y z
#    x 3.594590 0.000000 0.359220 
#    y 0.000000 3.483510 0.000000 
#    z 0.359220 0.000000 3.653970 
# 
# 
# High freq. dielectric constant tensor:
#      x y z
#    x 1.719510 0.000000 0.006310 
#    y 0.000000 1.721410 0.000000 
#    z 0.006310 0.000000 1.724910 
# 
# From -- ./inp_files/274024.got.cif
#   From: 2010.06.25/outbox.cif.g09.slc.cpg/sg12_138_cif.got.tgz:274024.got - 2010.06.28 00:19:55.
