data_PCOD8105122
_publ_section_title
;
Structure prediction by ZEFSAII (Michael W. Deem and Ramdas Pophale) SiO2 
 PCOD8105122
Probable space group: C 2/M
;
_chemical_formula_sum "Si O2"
_cell_formula_units_Z 64
_cell_length_a 30.323246
_cell_length_b 8.541841
_cell_length_c 12.176975
_cell_angle_alpha 90.000000
_cell_angle_beta 92.638592
_cell_angle_gamma 90.000000
_cell_volume 3150.691625
_symmetry_space_group_name_H-M "C 2/M"
_symmetry_group_IT_number 12
_symmetry_cell_setting 'monoclinic'
loop_
_space_group_symop_operation_xyz
x,y,z
-x,y,-z
-x,-y,-z
x,-y,z
1/2+x,1/2+y,z
1/2-x,1/2+y,-z
1/2-x,1/2-y,-z
1/2+x,1/2-y,z
loop_
_atom_site_type_symbol
_atom_site_label
_atom_site_fract_x
_atom_site_fract_y
_atom_site_fract_z
Si Si1 0.286122 0.186857 0.587722
Si Si2 0.619314 0.316938 0.400061
Si Si3 0.524583 0.182436 0.782532
Si Si4 0.451206 0.182222 0.449144
Si Si5 0.312880 0.317710 0.034599
Si Si6 0.766803 0.315797 0.830003
Si Si7 0.426910 0.815679 0.811556
Si Si8 0.088984 0.179622 0.958991
O O1 0.250000 0.250000 0.500000
O O2 0.332891 0.257809 0.555793
O O3 0.274401 0.251351 0.708718
O O4 0.287894 0.000000 0.583653
O O5 0.620355 0.500000 0.372859
O O6 0.584399 0.286166 0.492384
O O7 0.606099 0.218813 0.291328
O O8 0.548991 0.245020 0.676390
O O9 0.475472 0.252255 0.788563
O O10 0.553140 0.216617 0.892961
O O11 0.518110 0.000000 0.766222
O O12 0.500000 0.210945 0.500000
O O13 0.438011 0.000000 0.459053
O O14 0.304517 0.500000 0.012470
O O15 0.279407 0.252432 0.123731
O O16 0.362287 0.285677 0.083252
O O17 0.306010 0.233363 0.916611
O O18 0.765643 0.500000 0.820555
O O19 0.427326 0.000000 0.836912
O O20 0.409860 0.721993 0.913892
O O21 0.075710 0.000000 0.941030
#
# Coordination Sequence:
#
# PCOD8105122 Si02
#       8
#     8   8   8   8   8   8   8   8
#     4  11  24  42  63  89 123 161 204 253 306 363
#     4  12  25  40  63  94 124 158 203 252 311 372
#     4  10  22  39  60  84 114 157 201 246 301 360
#     4  10  20  41  66  88 118 157 205 254 302 361
#     4   9  19  36  57  83 115 149 187 236 294 351
#     4   9  19  37  61  85 111 148 193 240 291 350
#     4  11  22  40  62  84 116 159 205 250 299 359
#     4  11  23  36  54  86 125 158 192 243 304 363
#
# _framework density 20.312999000000001
#
# number of rings (size 3 to 8) (size 9 to 14) (size 15 to 20)
#    0.000    1.625    1.250    3.375    0.000    8.250 
#    0.000    1.250    0.000    0.000    0.000    0.000 
#    0.000    0.000    0.000    0.000    0.000    0.000 
#
# Total GULP energy -396885.841449 kJ/mol
# GULP energy per Si atom -12402.682545 kJ/mol
# Density = 2.026677 g / cm^3
# Si number density = 20.312999 Si / 1000 Ang^3
#
#
#
# Elastic Constant Matrix: (Units=GPa)
#
#
# Indices 1 2 3 4 5 6 
#
# 1 116.2113 22.2102 39.9323 0.0000 5.5306 0.0000
# 2 22.2102 34.2632 9.5455 0.0000 -6.1992 0.0000
# 3 39.9323 9.5455 85.8370 0.0000 -6.7314 0.0000
# 4 0.0000 0.0000 0.0000 28.8380 0.0000 0.7160
# 5 5.5306 -6.1992 -6.7314 0.0000 31.2834 0.0000
# 6 0.0000 0.0000 0.0000 0.7160 0.0000 27.9266
#
#
#
# Elastic Compliance Matrix: (Units=1/GPa)
#
#
# Indices 1 2 3 4 5 6 
#
# 1 0.011957 -0.007161 -0.005130 0.000000 -0.004637 0.000000
# 2 -0.007161 0.035310 0.000053 0.000000 0.008275 0.000000
# 3 -0.005130 0.000053 0.014344 0.000000 0.004004 0.000000
# 4 0.000000 0.000000 0.000000 0.034699 0.000000 -0.000890
# 5 -0.004637 0.008275 0.004004 0.000000 0.035287 0.000000
# 6 0.000000 0.000000 0.000000 -0.000890 0.000000 0.035831
#
#
# Mechanical properties :
#
#
# Convention : Reuss Voigt Hill
#
# Bulk Modulus (GPa) = 26.92709 42.18751 34.55730
# Shear Modulus (GPa) = 24.47616 28.58449 26.53033
#
# Velocity S-wave (km/s) = 3.47501 3.75534 3.61789
# Velocity P-wave (km/s) = 5.42086 6.29422 5.87380
#
# Compressibility (1/GPa) = 0.03713732
#
# Stress axis : x y z
#
# Youngs Moduli (GPa) = 83.63377 28.32080 69.71321
#
# Poissons Ratio (x) = 0.20279 0.35761
# Poissons Ratio (y) = 0.59886 -0.00373
# Poissons Ratio (z) = 0.42902 -0.00151
#
# Static dielectric constant tensor:
#      x y z
#    x 3.833570 0.000000 -0.271330 
#    y 0.000000 3.511420 0.000000 
#    z -0.271330 0.000000 3.855160 
# 
# 
# High freq. dielectric constant tensor:
#      x y z
#    x 1.804120 0.000000 -0.008490 
#    y 0.000000 1.783450 0.000000 
#    z -0.008490 0.000000 1.795820 
# 
# From -- ./inp_files/187429.got.cif
#   From: 2010.06.25/outbox.cif.g09.slc.cpg/sg12_94_cif.got.tgz:187429.got - 2010.06.28 00:19:55.
