data_PCOD8105120
_publ_section_title
;
Structure prediction by ZEFSAII (Michael W. Deem and Ramdas Pophale) SiO2 
 PCOD8105120
Probable space group: C 2/M
;
_chemical_formula_sum "Si O2"
_cell_formula_units_Z 64
_cell_length_a 19.013660
_cell_length_b 8.819436
_cell_length_c 30.565945
_cell_angle_alpha 90.000000
_cell_angle_beta 141.640739
_cell_angle_gamma 90.000000
_cell_volume 3180.895582
_symmetry_space_group_name_H-M "C 2/M"
_symmetry_group_IT_number 12
_symmetry_cell_setting 'monoclinic'
loop_
_space_group_symop_operation_xyz
x,y,z
-x,y,-z
-x,-y,-z
x,-y,z
1/2+x,1/2+y,z
1/2-x,1/2+y,-z
1/2-x,1/2-y,-z
1/2+x,1/2-y,z
loop_
_atom_site_type_symbol
_atom_site_label
_atom_site_fract_x
_atom_site_fract_y
_atom_site_fract_z
Si Si1 0.225709 0.672636 0.792054
Si Si2 0.368666 0.821557 0.430073
Si Si3 0.978174 0.677126 0.794778
Si Si4 0.632920 0.177505 0.065963
Si Si5 0.278809 0.180884 0.060350
Si Si6 0.280320 0.677009 0.560315
Si Si7 0.238338 0.822252 0.708115
Si Si8 0.475319 0.172306 0.698342
O O1 0.268214 0.500000 0.807981
O O2 0.320073 0.767686 0.864147
O O3 0.193252 0.740281 0.729149
O O4 0.110155 0.681625 0.762483
O O5 0.500000 0.778567 0.500000
O O6 0.300491 0.763607 0.439702
O O7 0.322871 0.739445 0.364678
O O8 0.352069 0.000000 0.415304
O O9 0.999695 0.500000 0.799599
O O10 0.873167 0.713179 0.775038
O O11 0.943157 0.739284 0.730119
O O12 0.095415 0.747379 0.868973
O O13 0.692060 0.265573 0.055170
O O14 0.656964 0.000000 0.072353
O O15 0.500000 0.213774 0.000000
O O16 0.275175 0.000000 0.056223
O O17 0.250000 0.250000 0.000000
O O18 0.266530 0.500000 0.548443
O O19 0.250000 0.750000 0.500000
O O20 0.410911 0.721110 0.632684
O O21 0.214016 0.000000 0.698980
O O22 0.433321 0.000000 0.670411
#
# Coordination Sequence:
#
# PCOD8105120 Si02
#       8
#     8   8   8   8   8   8   8   8
#     4  11  24  42  65  92 124 163 206 254 310 373
#     4  10  23  43  62  85 122 165 204 248 305 363
#     4   9  19  39  64  87 120 159 198 249 309 362
#     4  11  25  44  64  90 127 168 209 260 317 371
#     4  11  23  42  65  94 127 166 211 255 312 374
#     4  11  24  40  62  92 123 160 205 254 303 363
#     4  11  23  40  64  93 124 160 202 252 308 368
#     4  10  20  41  66  87 118 161 202 252 310 363
#
# _framework density 20.120118999999999
#
# number of rings (size 3 to 8) (size 9 to 14) (size 15 to 20)
#    0.000    1.500    2.500    1.875    3.500    2.750 
#    0.000    1.875    0.000    0.000    0.000    0.000 
#    0.000    0.000    0.000    0.000    0.000    0.000 
#
# Total GULP energy -396818.794001 kJ/mol
# GULP energy per Si atom -12400.587313 kJ/mol
# Density = 2.007432 g / cm^3
# Si number density = 20.120119 Si / 1000 Ang^3
#
#
#
# Elastic Constant Matrix: (Units=GPa)
#
#
# Indices 1 2 3 4 5 6 
#
# 1 76.7197 35.0660 33.9925 0.0000 -12.5210 -0.0001
# 2 35.0660 78.5506 42.5384 0.0000 -2.1921 -0.0004
# 3 33.9925 42.5384 128.9812 0.0000 -6.5618 0.0000
# 4 0.0000 0.0000 0.0000 37.6405 0.0000 -4.6755
# 5 -12.5210 -2.1921 -6.5618 0.0000 39.1141 0.0000
# 6 -0.0001 -0.0004 0.0000 -4.6755 0.0000 32.2883
#
#
#
# Elastic Compliance Matrix: (Units=1/GPa)
#
#
# Indices 1 2 3 4 5 6 
#
# 1 0.017875 -0.006607 -0.002279 0.000000 0.004969 0.000000
# 2 -0.006607 0.017941 -0.004269 0.000000 -0.001826 0.000000
# 3 -0.002279 -0.004269 0.009796 0.000000 0.000675 0.000000
# 4 0.000000 0.000000 0.000000 0.027054 0.000000 0.003917
# 5 0.004969 -0.001826 0.000675 0.000000 0.027168 0.000000
# 6 0.000000 0.000000 0.000000 0.003917 0.000000 0.031538
#
#
# Mechanical properties :
#
#
# Convention : Reuss Voigt Hill
#
# Bulk Modulus (GPa) = 51.80645 56.38281 54.09463
# Shear Modulus (GPa) = 30.46653 33.31888 31.89271
#
# Velocity S-wave (km/s) = 3.89554 4.07381 3.98567
# Velocity P-wave (km/s) = 6.78514 7.08603 6.93722
#
# Compressibility (1/GPa) = 0.01930262
#
# Stress axis : x y z
#
# Youngs Moduli (GPa) = 55.94389 55.73942 102.08411
#
# Poissons Ratio (x) = 0.36825 0.23267
# Poissons Ratio (y) = 0.36960 0.43575
# Poissons Ratio (z) = 0.12751 0.23793
#
# Static dielectric constant tensor:
#      x y z
#    x 4.389920 0.000000 0.224450 
#    y 0.000000 3.584670 0.000000 
#    z 0.224450 0.000000 3.811260 
# 
# 
# High freq. dielectric constant tensor:
#      x y z
#    x 1.793760 0.000000 -0.001880 
#    y 0.000000 1.778630 0.000000 
#    z -0.001880 0.000000 1.799350 
# 
# From -- ./inp_files/378487.got.cif
#   From: 2010.06.25/outbox.cif.g09.slc.cpg/sg12_190_cif.got.tgz:378487.got - 2010.06.28 00:19:55.
