data_PCOD8105466
_publ_section_title
;
Structure prediction by ZEFSAII (Michael W. Deem and Ramdas Pophale) SiO2 
 PCOD8105466
Probable space group: C 2/M
;
_chemical_formula_sum "Si O2"
_cell_formula_units_Z 32
_cell_length_a 29.678696
_cell_length_b 11.884334
_cell_length_c 9.188547
_cell_angle_alpha 90.000000
_cell_angle_beta 30.288863
_cell_angle_gamma 90.000000
_cell_volume 1634.582934
_symmetry_space_group_name_H-M "C 2/M"
_symmetry_group_IT_number 12
_symmetry_cell_setting 'monoclinic'
loop_
_space_group_symop_operation_xyz
x,y,z
-x,y,-z
-x,-y,-z
x,-y,z
1/2+x,1/2+y,z
1/2-x,1/2+y,-z
1/2-x,1/2-y,-z
1/2+x,1/2-y,z
loop_
_atom_site_type_symbol
_atom_site_label
_atom_site_fract_x
_atom_site_fract_y
_atom_site_fract_z
Si Si1 0.649894 0.000000 0.553079
Si Si2 0.239862 0.266660 0.356102
Si Si3 0.412700 0.623337 0.150862
Si Si4 0.565298 0.769712 0.195256
Si Si5 0.486407 0.000000 0.801591
O O1 0.714625 0.107767 0.376718
O O2 0.587312 0.000000 0.584107
O O3 0.586393 0.000000 0.869041
O O4 0.250000 0.250000 0.500000
O O5 0.158534 0.183799 0.543156
O O6 0.333387 0.228439 0.022366
O O7 0.376127 0.500000 0.208707
O O8 0.500000 0.611605 0.000000
O O9 0.435742 0.690578 0.941612
O O10 0.500000 0.718939 0.500000
O O11 0.528852 0.892252 0.256189
#
# Coordination Sequence:
#
# PCOD8105466 Si02
#       5
#     4   8   8   8   4
#     4  11  20  38  63  90 108 157 204 245 284 342
#     4  10  21  34  62  86 115 148 203 239 282 345
#     4  10  21  38  61  86 117 155 197 239 287 350
#     4  11  24  38  60  88 122 153 191 245 298 345
#     4  11  21  38  64  84 120 149 199 247 294 342
#
# _framework density 19.576858999999999
#
# number of rings (size 3 to 8) (size 9 to 14) (size 15 to 20)
#    0.000    1.500    5.000    1.875    8.750    0.500 
#    0.000    5.000    0.000    0.000    0.000    0.000 
#    0.000    0.000    0.000    0.000    0.000    0.000 
#
# Total GULP energy -198327.817131 kJ/mol
# GULP energy per Si atom -12395.488571 kJ/mol
# Density = 1.953230 g / cm^3
# Si number density = 19.576859 Si / 1000 Ang^3
#
#
#
# Elastic Constant Matrix: (Units=GPa)
#
#
# Indices 1 2 3 4 5 6 
#
# 1 65.1476 48.5554 41.4420 0.0000 -23.1940 0.0000
# 2 48.5554 168.2063 49.4828 0.0000 -13.7647 0.0000
# 3 41.4420 49.4828 147.1175 0.0000 -14.5918 0.0000
# 4 0.0000 0.0000 0.0000 19.2141 0.0000 -16.4912
# 5 -23.1940 -13.7647 -14.5918 0.0000 29.6863 0.0000
# 6 0.0000 0.0000 0.0000 -16.4912 0.0000 29.1231
#
#
#
# Elastic Compliance Matrix: (Units=1/GPa)
#
#
# Indices 1 2 3 4 5 6 
#
# 1 0.028516 -0.005487 -0.004446 0.000000 0.017550 0.000000
# 2 -0.005487 0.007777 -0.001196 0.000000 -0.001269 0.000000
# 3 -0.004446 -0.001196 0.008465 0.000000 0.000132 0.000000
# 4 0.000000 0.000000 0.000000 0.101258 0.000000 0.057338
# 5 0.017550 -0.001269 0.000132 0.000000 0.046874 0.000000
# 6 0.000000 0.000000 0.000000 0.057338 0.000000 0.066805
#
#
# Mechanical properties :
#
#
# Convention : Reuss Voigt Hill
#
# Bulk Modulus (GPa) = 44.44663 73.27021 58.85842
# Shear Modulus (GPa) = 17.27382 31.67077 24.47229
#
# Velocity S-wave (km/s) = 2.97368 4.02651 3.53946
# Velocity P-wave (km/s) = 5.87735 7.68929 6.84356
#
# Compressibility (1/GPa) = 0.02249889
#
# Stress axis : x y z
#
# Youngs Moduli (GPa) = 35.06760 128.58289 118.13067
#
# Poissons Ratio (x) = 0.70560 0.52526
# Poissons Ratio (y) = 0.19243 0.14127
# Poissons Ratio (z) = 0.15593 0.15377
#
# Static dielectric constant tensor:
#      x y z
#    x 3.702380 0.000000 -0.719390 
#    y 0.000000 4.305670 0.000000 
#    z -0.719390 0.000000 4.378360 
# 
# 
# High freq. dielectric constant tensor:
#      x y z
#    x 1.751320 0.000000 -0.032820 
#    y 0.000000 1.774310 0.000000 
#    z -0.032820 0.000000 1.755370 
# 
# From -- ./inp_files/70731.got.cif
#   From: 2010.06.25/outbox.cif.g09.slc.cpg/sg12_36_cif.got.tgz:70731.got - 2010.06.28 00:19:55.
