data_PCOD8105148
_publ_section_title
;
Structure prediction by ZEFSAII (Michael W. Deem and Ramdas Pophale) SiO2 
 PCOD8105148
Probable space group: C 2/M
;
_chemical_formula_sum "Si O2"
_cell_formula_units_Z 48
_cell_length_a 27.897139
_cell_length_b 14.994871
_cell_length_c 9.399668
_cell_angle_alpha 90.000000
_cell_angle_beta 143.630049
_cell_angle_gamma 90.000000
_cell_volume 2331.670473
_symmetry_space_group_name_H-M "C 2/M"
_symmetry_group_IT_number 12
_symmetry_cell_setting 'monoclinic'
loop_
_space_group_symop_operation_xyz
x,y,z
-x,y,-z
-x,-y,-z
x,-y,z
1/2+x,1/2+y,z
1/2-x,1/2+y,-z
1/2-x,1/2-y,-z
1/2+x,1/2-y,z
loop_
_atom_site_type_symbol
_atom_site_label
_atom_site_fract_x
_atom_site_fract_y
_atom_site_fract_z
Si Si1 0.166853 0.755821 0.884271
Si Si2 0.150782 0.833694 0.370247
Si Si3 0.537548 0.681805 0.349371
Si Si4 0.933932 0.671479 0.946060
Si Si5 0.378724 0.599140 0.009254
Si Si6 0.681220 0.101046 0.115838
O O1 0.095475 0.781465 0.608765
O O2 0.173055 0.829936 0.023481
O O3 0.250000 0.750000 0.000000
O O4 0.147597 0.658162 0.903078
O O5 0.087144 0.864418 0.339577
O O6 0.133260 0.728711 0.301363
O O7 0.240365 0.846535 0.642563
O O8 0.139899 0.891410 0.202767
O O9 0.475210 0.610087 0.265566
O O10 0.481040 0.761964 0.162066
O O11 0.886762 0.597121 0.923221
O O12 0.000000 0.625243 0.000000
O O13 0.353117 0.500000 0.996472
O O14 0.701291 0.000000 0.116993
#
# Coordination Sequence:
#
# PCOD8105148 Si02
#       6
#     8   8   8   8   8   8
#     4  12  25  43  62  88 131 173 211 258 309 376
#     4  10  20  41  67  97 128 164 205 259 319 383
#     4  10  21  40  67  92 126 167 206 256 321 380
#     4   9  20  38  67  93 121 165 214 260 320 369
#     4  11  24  40  67 101 129 160 205 265 327 381
#     4  12  24  39  64  94 128 171 215 259 311 373
#
# _framework density 20.586099999999998
#
# number of rings (size 3 to 8) (size 9 to 14) (size 15 to 20)
#    0.000    1.333    5.000    3.000    0.000    4.333 
#    0.000    1.667    0.000    1.000    0.000    0.000 
#    0.000    0.000    0.000    0.000    0.000    0.000 
#
# Total GULP energy -297544.426894 kJ/mol
# GULP energy per Si atom -12397.684454 kJ/mol
# Density = 2.053924 g / cm^3
# Si number density = 20.586100 Si / 1000 Ang^3
#
#
#
# Elastic Constant Matrix: (Units=GPa)
#
#
# Indices 1 2 3 4 5 6 
#
# 1 139.8000 49.4989 22.2158 0.0000 3.9835 0.0000
# 2 49.4989 97.0326 29.8931 0.0000 -9.8854 0.0000
# 3 22.2158 29.8931 82.5624 0.0000 -11.1081 0.0000
# 4 0.0000 0.0000 0.0000 17.6106 0.0000 -0.3464
# 5 3.9835 -9.8854 -11.1081 0.0000 28.9686 0.0000
# 6 0.0000 0.0000 0.0000 -0.3464 0.0000 14.8317
#
#
#
# Elastic Compliance Matrix: (Units=1/GPa)
#
#
# Indices 1 2 3 4 5 6 
#
# 1 0.009062 -0.004581 -0.001221 0.000000 -0.003277 0.000000
# 2 -0.004581 0.014086 -0.003307 0.000000 0.004169 0.000000
# 3 -0.001221 -0.003307 0.014243 0.000000 0.004501 0.000000
# 4 0.000000 0.000000 0.000000 0.056810 0.000000 0.001327
# 5 -0.003277 0.004169 0.004501 0.000000 0.038119 0.000000
# 6 0.000000 0.000000 0.000000 0.001327 0.000000 0.067454
#
#
# Mechanical properties :
#
#
# Convention : Reuss Voigt Hill
#
# Bulk Modulus (GPa) = 52.15071 58.06783 55.10927
# Shear Modulus (GPa) = 22.28329 26.80134 24.54231
#
# Velocity S-wave (km/s) = 3.29362 3.61212 3.45654
# Velocity P-wave (km/s) = 6.31283 6.75759 6.53900
#
# Compressibility (1/GPa) = 0.01917519
#
# Stress axis : x y z
#
# Youngs Moduli (GPa) = 110.34637 70.99284 70.20808
#
# Poissons Ratio (x) = 0.32520 0.08572
# Poissons Ratio (y) = 0.50547 0.23215
# Poissons Ratio (z) = 0.13472 0.23474
#
# Static dielectric constant tensor:
#      x y z
#    x 4.083410 0.000000 0.017320 
#    y 0.000000 3.363920 0.000000 
#    z 0.017320 0.000000 3.869590 
# 
# 
# High freq. dielectric constant tensor:
#      x y z
#    x 1.823660 0.000000 0.002890 
#    y 0.000000 1.771520 0.000000 
#    z 0.002890 0.000000 1.803580 
# 
# From -- ./inp_files/105058.got.cif
#   From: 2010.06.25/outbox.cif.g09.slc.cpg/sg12_53_cif.got.tgz:105058.got - 2010.06.28 00:19:55.
