data_PCOD8105746
_publ_section_title
;
Structure prediction by ZEFSAII (Michael W. Deem and Ramdas Pophale) SiO2 
 PCOD8105746
Probable space group: C 2/M
;
_chemical_formula_sum "Si O2"
_cell_formula_units_Z 48
_cell_length_a 27.406348
_cell_length_b 9.003095
_cell_length_c 11.324981
_cell_angle_alpha 90.000000
_cell_angle_beta 122.187567
_cell_angle_gamma 90.000000
_cell_volume 2364.881199
_symmetry_space_group_name_H-M "C 2/M"
_symmetry_group_IT_number 12
_symmetry_cell_setting 'monoclinic'
loop_
_space_group_symop_operation_xyz
x,y,z
-x,y,-z
-x,-y,-z
x,-y,z
1/2+x,1/2+y,z
1/2-x,1/2+y,-z
1/2-x,1/2-y,-z
1/2+x,1/2-y,z
loop_
_atom_site_type_symbol
_atom_site_label
_atom_site_fract_x
_atom_site_fract_y
_atom_site_fract_z
Si Si1 0.066374 0.825955 0.582331
Si Si2 0.358223 0.677827 0.808294
Si Si3 0.833040 0.326640 0.171949
Si Si4 0.033700 0.839707 0.923303
Si Si5 0.075644 0.823751 0.332890
Si Si6 0.771006 0.326677 0.849451
O O1 0.102579 0.738341 0.728245
O O2 0.092884 0.781830 0.488195
O O3 0.000000 0.775750 0.500000
O O4 0.072086 0.000000 0.615109
O O5 0.352924 0.500000 0.808802
O O6 0.375776 0.729797 0.697983
O O7 0.298342 0.754661 0.766840
O O8 0.406269 0.740556 0.964221
O O9 0.832484 0.500000 0.198658
O O10 0.791102 0.246047 0.210685
O O11 0.812670 0.291783 0.013409
O O12 0.988605 0.754121 0.778376
O O13 0.049722 0.000000 0.887349
O O14 0.000000 0.867905 0.000000
O O15 0.068053 0.000000 0.308965
O O16 0.761756 0.500000 0.816763
#
# Coordination Sequence:
#
# PCOD8105746 Si02
#       6
#     8   8   8   8   8   8
#     4  10  21  35  56  84 114 147 183 222 264 317
#     4   9  16  28  53  81 107 141 180 221 268 322
#     4  10  22  40  58  78 107 143 183 225 272 326
#     4   7  11  21  41  70 102 135 171 211 250 297
#     4   8  15  29  47  77 114 144 178 219 263 315
#     4  10  21  37  58  82 108 136 177 233 281 321
#
# _framework density 20.297001999999999
#
# number of rings (size 3 to 8) (size 9 to 14) (size 15 to 20)
#    0.000    3.000    0.000    3.000    2.333    2.333 
#    0.000    1.667    0.000    4.500    0.000    0.000 
#    0.000    0.000    0.000    0.000    0.000    0.000 
#
# Total GULP energy -297348.996696 kJ/mol
# GULP energy per Si atom -12389.541529 kJ/mol
# Density = 2.025081 g / cm^3
# Si number density = 20.297002 Si / 1000 Ang^3
#
#
#
# Elastic Constant Matrix: (Units=GPa)
#
#
# Indices 1 2 3 4 5 6 
#
# 1 103.4533 35.3488 13.4273 0.0000 2.1346 0.0000
# 2 35.3488 55.7798 22.4262 0.0000 5.5917 0.0000
# 3 13.4273 22.4262 60.3362 0.0000 7.8458 0.0000
# 4 0.0000 0.0000 0.0000 20.7043 0.0000 2.1681
# 5 2.1346 5.5917 7.8458 0.0000 27.9586 0.0000
# 6 0.0000 0.0000 0.0000 2.1681 0.0000 23.4264
#
#
#
# Elastic Compliance Matrix: (Units=1/GPa)
#
#
# Indices 1 2 3 4 5 6 
#
# 1 0.012350 -0.007936 0.000122 0.000000 0.000610 0.000000
# 2 -0.007936 0.026296 -0.007683 0.000000 -0.002497 0.000000
# 3 0.000122 -0.007683 0.019931 0.000000 -0.004066 0.000000
# 4 0.000000 0.000000 0.000000 0.048772 0.000000 -0.004514
# 5 0.000610 -0.002497 -0.004066 0.000000 0.037361 0.000000
# 6 0.000000 0.000000 0.000000 -0.004514 0.000000 0.043105
#
#
# Mechanical properties :
#
#
# Convention : Reuss Voigt Hill
#
# Bulk Modulus (GPa) = 36.25507 40.21931 38.23719
# Shear Modulus (GPa) = 21.92952 24.30900 23.11926
#
# Velocity S-wave (km/s) = 3.29056 3.46448 3.37864
# Velocity P-wave (km/s) = 5.68666 5.98848 5.83952
#
# Compressibility (1/GPa) = 0.02758235
#
# Stress axis : x y z
#
# Youngs Moduli (GPa) = 80.97470 38.02791 50.17312
#
# Poissons Ratio (x) = 0.30181 -0.00613
# Poissons Ratio (y) = 0.64265 0.38549
# Poissons Ratio (z) = -0.00990 0.29217
#
# Static dielectric constant tensor:
#      x y z
#    x 3.730230 0.000000 0.010650 
#    y 0.000000 3.128850 0.000000 
#    z 0.010650 0.000000 3.767120 
# 
# 
# High freq. dielectric constant tensor:
#      x y z
#    x 1.797710 0.000000 -0.002010 
#    y 0.000000 1.738800 0.000000 
#    z -0.002010 0.000000 1.781850 
# 
# From -- ./inp_files/180250.got.cif
#   From: 2010.06.25/outbox.cif.g09.slc.cpg/sg12_91_cif.got.tgz:180250.got - 2010.06.28 00:19:55.
