data_PCOD8105914
_publ_section_title
;
Structure prediction by ZEFSAII (Michael W. Deem and Ramdas Pophale) SiO2 
 PCOD8105914
Probable space group: C 2/M
;
_chemical_formula_sum "Si O2"
_cell_formula_units_Z 56
_cell_length_a 22.679859
_cell_length_b 10.017539
_cell_length_c 13.801427
_cell_angle_alpha 90.000000
_cell_angle_beta 105.901149
_cell_angle_gamma 90.000000
_cell_volume 3015.651660
_symmetry_space_group_name_H-M "C 2/M"
_symmetry_group_IT_number 12
_symmetry_cell_setting 'monoclinic'
loop_
_space_group_symop_operation_xyz
x,y,z
-x,y,-z
-x,-y,-z
x,-y,z
1/2+x,1/2+y,z
1/2-x,1/2+y,-z
1/2-x,1/2-y,-z
1/2+x,1/2-y,z
loop_
_atom_site_type_symbol
_atom_site_label
_atom_site_fract_x
_atom_site_fract_y
_atom_site_fract_z
Si Si1 0.855554 0.650710 0.922784
Si Si2 0.108833 0.855120 0.313425
Si Si3 0.784410 0.843374 0.763605
Si Si4 0.357487 0.843428 0.325156
Si Si5 0.911575 0.347128 0.146746
Si Si6 0.931589 0.841467 0.500208
Si Si7 0.528525 0.279307 0.109896
O O1 0.833640 0.500000 0.890415
O O2 0.804476 0.756141 0.865343
O O3 0.922974 0.667962 0.904650
O O4 0.861388 0.675387 0.040296
O O5 0.172775 0.789409 0.306149
O O6 0.077741 0.787256 0.393223
O O7 0.064207 0.874417 0.200227
O O8 0.126343 0.000000 0.360068
O O9 0.714856 0.817991 0.705169
O O10 0.797039 0.000000 0.791840
O O11 0.383282 0.793285 0.233799
O O12 0.385060 0.746678 0.417613
O O13 0.372196 0.000000 0.351714
O O14 0.928015 0.500000 0.165936
O O15 0.975166 0.277846 0.152032
O O16 0.000000 0.804140 0.500000
O O17 0.919791 0.000000 0.479951
O O18 0.500000 0.350422 0.000000
#
# Coordination Sequence:
#
# PCOD8105914 Si02
#       7
#     8   8   8   8   8   8   8
#     4   9  17  30  50  75 101 131 166 202 243 294
#     4   9  18  33  51  70  99 135 163 198 249 295
#     4   9  19  35  51  71 101 133 165 202 245 290
#     4  10  21  36  53  73  99 132 169 206 242 288
#     4   9  17  30  48  71 101 133 163 203 252 290
#     4  10  21  37  55  75 100 128 160 203 253 297
#     4   9  16  28  49  76 102 127 161 203 244 291
#
# _framework density 18.569783000000001
#
# number of rings (size 3 to 8) (size 9 to 14) (size 15 to 20)
#    0.000    2.714    0.000    1.286    0.000    4.000 
#    0.000    6.429    0.000    0.000    0.000    0.000 
#    0.000    0.000    0.000    0.000    0.000    0.000 
#
# Total GULP energy -346870.617477 kJ/mol
# GULP energy per Si atom -12388.236338 kJ/mol
# Density = 1.852752 g / cm^3
# Si number density = 18.569783 Si / 1000 Ang^3
#
#
#
# Elastic Constant Matrix: (Units=GPa)
#
#
# Indices 1 2 3 4 5 6 
#
# 1 108.4879 23.5513 70.4586 0.0000 2.3975 0.0000
# 2 23.5513 56.7104 41.4077 0.0000 10.3302 0.0000
# 3 70.4586 41.4077 119.2376 0.0000 -9.1276 0.0000
# 4 0.0000 0.0000 0.0000 24.6210 0.0000 6.7677
# 5 2.3975 10.3302 -9.1276 0.0000 32.2114 0.0000
# 6 0.0000 0.0000 0.0000 6.7677 0.0000 19.0295
#
#
#
# Elastic Compliance Matrix: (Units=1/GPa)
#
#
# Indices 1 2 3 4 5 6 
#
# 1 0.015520 0.001807 -0.010152 0.000000 -0.004611 0.000000
# 2 0.001807 0.027572 -0.011581 0.000000 -0.012258 0.000000
# 3 -0.010152 -0.011581 0.019165 0.000000 0.009900 0.000000
# 4 0.000000 0.000000 0.000000 0.045016 0.000000 -0.016010
# 5 -0.004611 -0.012258 0.009900 0.000000 0.038125 0.000000
# 6 0.000000 0.000000 0.000000 -0.016010 0.000000 0.058244
#
#
# Mechanical properties :
#
#
# Convention : Reuss Voigt Hill
#
# Bulk Modulus (GPa) = 44.63141 61.69678 53.16409
# Shear Modulus (GPa) = 19.92333 25.10694 22.51513
#
# Velocity S-wave (km/s) = 3.27905 3.68099 3.48582
# Velocity P-wave (km/s) = 6.19862 7.16677 6.70020
#
# Compressibility (1/GPa) = 0.02240575
#
# Stress axis : x y z
#
# Youngs Moduli (GPa) = 64.43171 36.26857 52.17890
#
# Poissons Ratio (x) = -0.06553 0.52969
# Poissons Ratio (y) = -0.11641 0.60428
# Poissons Ratio (z) = 0.65408 0.42003
#
# Static dielectric constant tensor:
#      x y z
#    x 3.554620 0.000000 -0.223240 
#    y 0.000000 3.171760 0.000000 
#    z -0.223240 0.000000 3.530120 
# 
# 
# High freq. dielectric constant tensor:
#      x y z
#    x 1.727730 0.000000 -0.008800 
#    y 0.000000 1.696020 0.000000 
#    z -0.008800 0.000000 1.719450 
# 
# From -- ./inp_files/174785.got.cif
#   From: 2010.06.25/outbox.cif.g09.slc.cpg/sg12_88_cif.got.tgz:174785.got - 2010.06.28 00:19:55.
