data_PCOD8105208
_publ_section_title
;
Structure prediction by ZEFSAII (Michael W. Deem and Ramdas Pophale) SiO2 
 PCOD8105208
Probable space group: C 2/M
;
_chemical_formula_sum "Si O2"
_cell_formula_units_Z 56
_cell_length_a 11.139963
_cell_length_b 31.136758
_cell_length_c 9.303146
_cell_angle_alpha 90.000000
_cell_angle_beta 57.809686
_cell_angle_gamma 90.000000
_cell_volume 2730.880620
_symmetry_space_group_name_H-M "C 2/M"
_symmetry_group_IT_number 12
_symmetry_cell_setting 'monoclinic'
loop_
_space_group_symop_operation_xyz
x,y,z
-x,y,-z
-x,-y,-z
x,-y,z
1/2+x,1/2+y,z
1/2-x,1/2+y,-z
1/2-x,1/2-y,-z
1/2+x,1/2-y,z
loop_
_atom_site_type_symbol
_atom_site_label
_atom_site_fract_x
_atom_site_fract_y
_atom_site_fract_z
Si Si1 0.909378 0.610098 0.924455
Si Si2 0.786076 0.688323 0.590364
Si Si3 0.185706 0.106254 0.518346
Si Si4 0.376221 0.373304 0.764332
Si Si5 0.484217 0.290645 0.844485
Si Si6 0.452515 0.200193 0.765444
Si Si7 0.057680 0.452120 0.622732
O O1 0.953700 0.659523 0.869535
O O2 0.948923 0.580040 0.767500
O O3 0.742085 0.603950 0.061894
O O4 0.000000 0.593241 0.000000
O O5 0.770465 0.637828 0.569381
O O6 0.636082 0.711678 0.668282
O O7 0.831031 0.692795 0.726447
O O8 0.897573 0.707993 0.408248
O O9 0.179461 0.127672 0.363963
O O10 0.277255 0.062652 0.464752
O O11 0.024201 0.100032 0.679268
O O12 0.390926 0.324736 0.814463
O O13 0.415255 0.243274 0.878700
O O14 0.500000 0.305322 0.000000
O O15 0.051204 0.500000 0.693364
O O16 0.000000 0.453259 0.500000
#
# Coordination Sequence:
#
# PCOD8105208 Si02
#       7
#     8   8   8   8   8   8   8
#     4  12  22  39  65  96 127 165 214 264 318 371
#     4  10  21  37  57  82 116 166 213 263 314 376
#     4  10  20  43  66  90 130 166 209 259 323 390
#     4  10  23  40  64  93 126 174 207 260 319 378
#     4  11  24  38  53  84 127 168 218 269 312 364
#     4  11  22  35  59  85 122 167 219 264 312 369
#     4  11  24  44  71  99 129 165 209 262 323 388
#
# _framework density 20.506205999999999
#
# number of rings (size 3 to 8) (size 9 to 14) (size 15 to 20)
#    0.000    1.286    2.857    2.571    0.000   10.571 
#    0.000    2.143    0.000    1.714    0.000    0.000 
#    0.000    0.000    0.000    0.000    0.000    0.000 
#
# Total GULP energy -347181.312925 kJ/mol
# GULP energy per Si atom -12399.332604 kJ/mol
# Density = 2.045953 g / cm^3
# Si number density = 20.506206 Si / 1000 Ang^3
#
#
#
# Elastic Constant Matrix: (Units=GPa)
#
#
# Indices 1 2 3 4 5 6 
#
# 1 99.2339 47.5252 38.5416 0.0000 -10.4475 0.0000
# 2 47.5252 117.2347 41.5359 0.0000 -11.5061 0.0000
# 3 38.5416 41.5359 87.3949 0.0000 -15.1807 0.0000
# 4 0.0000 0.0000 0.0000 14.1091 0.0000 7.3460
# 5 -10.4475 -11.5061 -15.1807 0.0000 37.6703 0.0000
# 6 0.0000 0.0000 0.0000 7.3460 0.0000 9.1992
#
#
#
# Elastic Compliance Matrix: (Units=1/GPa)
#
#
# Indices 1 2 3 4 5 6 
#
# 1 0.013640 -0.004044 -0.003926 0.000000 0.000966 0.000000
# 2 -0.004044 0.011512 -0.003518 0.000000 0.000977 0.000000
# 3 -0.003926 -0.003518 0.015559 0.000000 0.004107 0.000000
# 4 0.000000 0.000000 0.000000 0.121315 0.000000 -0.096876
# 5 0.000966 0.000977 0.004107 0.000000 0.028767 0.000000
# 6 0.000000 0.000000 0.000000 -0.096876 0.000000 0.186066
#
#
# Mechanical properties :
#
#
# Convention : Reuss Voigt Hill
#
# Bulk Modulus (GPa) = 56.38413 62.11876 59.25145
# Shear Modulus (GPa) = 12.32299 23.94644 18.13471
#
# Velocity S-wave (km/s) = 2.45407 3.42097 2.97703
# Velocity P-wave (km/s) = 5.96538 6.77956 6.38546
#
# Compressibility (1/GPa) = 0.01773549
#
# Stress axis : x y z
#
# Youngs Moduli (GPa) = 73.31204 86.86949 64.27184
#
# Poissons Ratio (x) = 0.35129 0.25232
# Poissons Ratio (y) = 0.29647 0.22611
# Poissons Ratio (z) = 0.28781 0.30560
#
# Static dielectric constant tensor:
#      x y z
#    x 3.829430 0.000000 -0.159530 
#    y 0.000000 3.513610 0.000000 
#    z -0.159530 0.000000 3.820800 
# 
# 
# High freq. dielectric constant tensor:
#      x y z
#    x 1.813640 0.000000 -0.006510 
#    y 0.000000 1.770390 0.000000 
#    z -0.006510 0.000000 1.810740 
# 
# From -- ./inp_files/54600.got.cif
#   From: 2010.06.25/outbox.cif.g09.slc.cpg/sg12_28_cif.got.tgz:54600.got - 2010.06.28 00:19:55.
