data_PCOD8105628
_publ_section_title
;
Structure prediction by ZEFSAII (Michael W. Deem and Ramdas Pophale) SiO2 
 PCOD8105628
Probable space group: C 2/M
;
_chemical_formula_sum "Si O2"
_cell_formula_units_Z 56
_cell_length_a 29.492746
_cell_length_b 16.373990
_cell_length_c 6.598603
_cell_angle_alpha 90.000000
_cell_angle_beta 113.456489
_cell_angle_gamma 90.000000
_cell_volume 2923.228561
_symmetry_space_group_name_H-M "C 2/M"
_symmetry_group_IT_number 12
_symmetry_cell_setting 'monoclinic'
loop_
_space_group_symop_operation_xyz
x,y,z
-x,y,-z
-x,-y,-z
x,-y,z
1/2+x,1/2+y,z
1/2-x,1/2+y,-z
1/2-x,1/2-y,-z
1/2+x,1/2-y,z
loop_
_atom_site_type_symbol
_atom_site_label
_atom_site_fract_x
_atom_site_fract_y
_atom_site_fract_z
Si Si1 0.801667 0.589385 0.418557
Si Si2 0.544719 0.906763 0.728131
Si Si3 0.714409 0.593295 0.944851
Si Si4 0.268634 0.186447 0.702627
Si Si5 0.108910 0.684625 0.561559
Si Si6 0.859181 0.212424 0.032098
Si Si7 0.446346 0.768574 0.926680
O O1 0.826089 0.500000 0.452595
O O2 0.781613 0.602733 0.609761
O O3 0.840728 0.660694 0.456887
O O4 0.759256 0.597845 0.178934
O O5 0.500000 0.884793 0.500000
O O6 0.593429 0.890039 0.680903
O O7 0.543662 0.000000 0.801416
O O8 0.545421 0.849985 0.926231
O O9 0.705938 0.500000 0.854264
O O10 0.726348 0.658225 0.786417
O O11 0.665515 0.623541 0.979035
O O12 0.250000 0.250000 0.500000
O O13 0.316709 0.222065 0.900214
O O14 0.116313 0.764722 0.710453
O O15 0.067910 0.704004 0.322825
O O16 0.903399 0.210231 0.943683
O O17 0.500000 0.723602 0.000000
#
# Coordination Sequence:
#
# PCOD8105628 Si02
#       7
#     8   8   8   8   8   8   8
#     4  11  22  35  55  84 121 161 196 236 283 344
#     4  10  21  35  53  79 115 156 199 245 294 347
#     4  11  24  41  59  88 125 155 191 243 298 356
#     4  12  21  37  60  87 120 156 197 235 287 357
#     4  11  21  38  55  79 118 159 200 244 289 343
#     4  11  23  38  62  86 113 158 201 243 297 355
#     4  11  23  39  58  83 113 154 206 254 296 345
#
# _framework density 19.1569
#
# number of rings (size 3 to 8) (size 9 to 14) (size 15 to 20)
#    0.000    1.000    5.714    2.143    0.000    1.429 
#    0.000    0.000    0.000    0.429    0.000    1.000 
#    0.000    0.000    0.000    0.000    0.000    0.000 
#
# Total GULP energy -347083.324039 kJ/mol
# GULP energy per Si atom -12395.833001 kJ/mol
# Density = 1.911330 g / cm^3
# Si number density = 19.156900 Si / 1000 Ang^3
#
#
#
# Elastic Constant Matrix: (Units=GPa)
#
#
# Indices 1 2 3 4 5 6 
#
# 1 115.6618 38.7660 14.7876 0.0000 -1.3725 0.0000
# 2 38.7660 71.9236 29.3542 0.0000 1.2343 0.0000
# 3 14.7876 29.3542 95.4766 0.0000 2.8020 0.0000
# 4 0.0000 0.0000 0.0000 21.8531 0.0000 8.7755
# 5 -1.3725 1.2343 2.8020 0.0000 27.8909 0.0000
# 6 0.0000 0.0000 0.0000 8.7755 0.0000 0.8522
#
#
#
# Elastic Compliance Matrix: (Units=1/GPa)
#
#
# Indices 1 2 3 4 5 6 
#
# 1 0.010570 -0.005755 0.000110 0.000000 0.000764 0.000000
# 2 -0.005755 0.019033 -0.004942 0.000000 -0.000629 0.000000
# 3 0.000110 -0.004942 0.012005 0.000000 -0.000982 0.000000
# 4 0.000000 0.000000 0.000000 -0.014596 0.000000 0.150301
# 5 0.000764 -0.000629 -0.000982 0.000000 0.036018 0.000000
# 6 0.000000 0.000000 0.000000 0.150301 0.000000 -0.374282
#
#
# Mechanical properties :
#
#
# Convention : Reuss Voigt Hill
#
# Bulk Modulus (GPa) = 48.93818 49.87527 49.40672
# Shear Modulus (GPa) = -17.65117 23.46286 2.90584
#
# Velocity S-wave (km/s) = -3.03875 3.50347 1.23295
# Velocity P-wave (km/s) = 3.64547 6.51594 5.27953
#
# Compressibility (1/GPa) = 0.02043395
#
# Stress axis : x y z
#
# Youngs Moduli (GPa) = 94.60941 52.53965 83.29882
#
# Poissons Ratio (x) = 0.30236 -0.00915
# Poissons Ratio (y) = 0.54447 0.41166
# Poissons Ratio (z) = -0.01039 0.25965
#
# Static dielectric constant tensor:
#      x y z
#    x 3.751790 0.000000 -0.055610 
#    y 0.000000 3.355380 0.000000 
#    z -0.055610 0.000000 3.627940 
# 
# 
# High freq. dielectric constant tensor:
#      x y z
#    x 1.750850 0.000000 -0.008600 
#    y 0.000000 1.706590 0.000000 
#    z -0.008600 0.000000 1.759120 
# 
# From -- ./inp_files/28741.got.cif
#   From: 2010.06.25/outbox.cif.g09.slc.cpg/sg12_15_cif.got.tgz:28741.got - 2010.06.28 00:19:55.
