data_PCOD8105855
_publ_section_title
;
Structure prediction by ZEFSAII (Michael W. Deem and Ramdas Pophale) SiO2 
 PCOD8105855
Probable space group: C 2/M
;
_chemical_formula_sum "Si O2"
_cell_formula_units_Z 64
_cell_length_a 20.583167
_cell_length_b 13.916620
_cell_length_c 26.847038
_cell_angle_alpha 90.000000
_cell_angle_beta 155.841401
_cell_angle_gamma 90.000000
_cell_volume 3147.354939
_symmetry_space_group_name_H-M "C 2/M"
_symmetry_group_IT_number 12
_symmetry_cell_setting 'monoclinic'
loop_
_space_group_symop_operation_xyz
x,y,z
-x,y,-z
-x,-y,-z
x,-y,z
1/2+x,1/2+y,z
1/2-x,1/2+y,-z
1/2-x,1/2-y,-z
1/2+x,1/2-y,z
loop_
_atom_site_type_symbol
_atom_site_label
_atom_site_fract_x
_atom_site_fract_y
_atom_site_fract_z
Si Si1 0.386948 0.209191 0.658418
Si Si2 0.471181 0.257924 0.610623
Si Si3 0.965685 0.695994 0.051599
Si Si4 0.586610 0.608586 0.945149
Si Si5 0.475749 0.106196 0.538131
Si Si6 0.082577 0.390472 0.875319
Si Si7 0.395205 0.602955 0.716290
Si Si8 0.736545 0.113998 0.175259
O O1 0.447202 0.196979 0.644395
O O2 0.196294 0.203066 0.527335
O O3 0.455514 0.127716 0.742440
O O4 0.459905 0.311321 0.727606
O O5 0.553166 0.182167 0.630249
O O6 0.583142 0.350130 0.694873
O O7 0.938566 0.812064 0.028941
O O8 0.956151 0.672067 0.103297
O O9 0.134871 0.665976 0.147294
O O10 0.829688 0.641639 0.925446
O O11 0.597496 0.500000 0.975380
O O12 0.437196 0.617687 0.803519
O O13 0.743252 0.633887 0.023038
O O14 0.500000 0.147120 0.500000
O O15 0.291589 0.099307 0.421276
O O16 0.554688 0.000000 0.598860
O O17 0.068473 0.500000 0.882064
O O18 0.467838 0.500000 0.748955
O O19 0.729749 0.000000 0.178143
#
# Coordination Sequence:
#
# PCOD8105855 Si02
#       8
#     8   8   8   8   8   8   8   8
#     4  10  21  39  57  88 121 157 195 245 307 356
#     4  10  23  38  60  87 121 156 199 248 295 352
#     4  11  22  42  62  85 121 159 201 253 301 353
#     4  10  21  35  60  94 118 146 194 251 307 357
#     4   9  19  36  59  85 115 156 197 237 295 358
#     4  11  22  36  60  89 119 157 200 251 304 355
#     4   9  18  33  55  86 117 147 193 247 291 351
#     4  11  25  42  61  86 118 163 211 246 290 356
#
# _framework density 20.334536
#
# number of rings (size 3 to 8) (size 9 to 14) (size 15 to 20)
#    0.000    1.875    1.250    2.625    3.500    1.500 
#    0.000    4.375    0.000    1.875    0.000    0.000 
#    0.000    0.000    0.000    0.000    0.000    0.000 
#
# Total GULP energy -396751.293566 kJ/mol
# GULP energy per Si atom -12398.477924 kJ/mol
# Density = 2.028825 g / cm^3
# Si number density = 20.334536 Si / 1000 Ang^3
#
#
#
# Elastic Constant Matrix: (Units=GPa)
#
#
# Indices 1 2 3 4 5 6 
#
# 1 82.6746 48.7923 14.4470 0.0104 -11.2656 0.0069
# 2 48.7923 112.5177 35.2921 -0.0187 0.5233 -0.0090
# 3 14.4470 35.2921 74.2419 0.0016 -2.2094 -0.0105
# 4 0.0104 -0.0187 0.0016 27.7546 -0.0084 -0.8520
# 5 -11.2656 0.5233 -2.2094 -0.0084 21.9043 -0.0039
# 6 0.0069 -0.0090 -0.0105 -0.8520 -0.0039 32.6010
#
#
#
# Elastic Compliance Matrix: (Units=1/GPa)
#
#
# Indices 1 2 3 4 5 6 
#
# 1 0.018046 -0.008059 0.000603 -0.000009 0.009534 -0.000005
# 2 -0.008059 0.014056 -0.005263 0.000011 -0.005011 0.000004
# 3 0.000603 -0.005263 0.015915 -0.000004 0.002041 0.000004
# 4 -0.000009 0.000011 -0.000004 0.036059 0.000008 0.000942
# 5 0.009534 -0.005011 0.002041 0.000008 0.050882 0.000004
# 6 -0.000005 0.000004 0.000004 0.000942 0.000004 0.030699
#
#
# Mechanical properties :
#
#
# Convention : Reuss Voigt Hill
#
# Bulk Modulus (GPa) = 44.28835 51.83300 48.06068
# Shear Modulus (GPa) = 25.17377 27.84550 26.50963
#
# Velocity S-wave (km/s) = 3.52231 3.70451 3.61456
# Velocity P-wave (km/s) = 6.19430 6.62143 6.41143
#
# Compressibility (1/GPa) = 0.02257930
#
# Stress axis : x y z
#
# Youngs Moduli (GPa) = 55.41548 71.14340 62.83538
#
# Poissons Ratio (x) = 0.57333 -0.03789
# Poissons Ratio (y) = 0.44658 0.33069
# Poissons Ratio (z) = -0.03342 0.37441
#
# Static dielectric constant tensor:
#      x y z
#    x 3.530040 0.000000 -0.055360 
#    y 0.000000 4.024650 -0.000030 
#    z -0.055360 -0.000030 3.652470 
# 
# 
# High freq. dielectric constant tensor:
#      x y z
#    x 1.780760 0.000000 -0.001620 
#    y 0.000000 1.800900 0.000000 
#    z -0.001620 0.000000 1.790360 
# 
# From -- ./inp_files/344101.got.cif
#   From: 2010.06.25/outbox.cif.g09.slc.cpg/sg12_173_cif.got.tgz:344101.got - 2010.06.28 00:19:55.
