data_PCOD8105992
_publ_section_title
;
Structure prediction by ZEFSAII (Michael W. Deem and Ramdas Pophale) SiO2 
 PCOD8105992
Probable space group: C 2/M
;
_chemical_formula_sum "Si O2"
_cell_formula_units_Z 56
_cell_length_a 10.211396
_cell_length_b 9.244272
_cell_length_c 33.657475
_cell_angle_alpha 90.000000
_cell_angle_beta 67.439174
_cell_angle_gamma 90.000000
_cell_volume 2934.022572
_symmetry_space_group_name_H-M "C 2/M"
_symmetry_group_IT_number 12
_symmetry_cell_setting 'monoclinic'
loop_
_space_group_symop_operation_xyz
x,y,z
-x,y,-z
-x,-y,-z
x,-y,z
1/2+x,1/2+y,z
1/2-x,1/2+y,-z
1/2-x,1/2-y,-z
1/2+x,1/2-y,z
loop_
_atom_site_type_symbol
_atom_site_label
_atom_site_fract_x
_atom_site_fract_y
_atom_site_fract_z
Si Si1 0.201822 0.330343 0.044922
Si Si2 0.723690 0.333064 0.191112
Si Si3 0.936492 0.670216 0.233925
Si Si4 0.176473 0.669612 0.667794
Si Si5 0.627718 0.165811 0.908762
Si Si6 0.968139 0.330350 0.621638
Si Si7 0.895811 0.669575 0.476883
O O1 0.231321 0.500000 0.036836
O O2 0.290982 0.272033 0.071418
O O3 0.037665 0.296996 0.071373
O O4 0.250000 0.250000 0.000000
O O5 0.681837 0.500000 0.200423
O O6 0.580983 0.243439 0.203612
O O7 0.819891 0.304913 0.141679
O O8 0.811204 0.279233 0.219239
O O9 0.960485 0.500000 0.228008
O O10 0.896118 0.719698 0.282891
O O11 0.207788 0.500000 0.664255
O O12 0.322648 0.749982 0.645252
O O13 0.074071 0.715802 0.644127
O O14 0.654948 0.000000 0.918680
O O15 0.937289 0.500000 0.625435
O O16 0.035164 0.279560 0.572360
O O17 0.864584 0.500000 0.480492
O O18 0.750000 0.750000 0.500000
O O19 0.000000 0.715291 0.500000
#
# Coordination Sequence:
#
# PCOD8105992 Si02
#       7
#     8   8   8   8   8   8   8
#     4  11  23  39  60  85 114 148 185 227 274 323
#     4  10  21  37  57  81 109 143 182 222 268 322
#     4  10  21  37  56  81 112 143 180 225 270 321
#     4  10  21  36  55  80 109 142 180 222 270 324
#     4  10  22  39  57  81 113 145 181 226 271 319
#     4  10  21  36  54  79 109 140 180 227 272 324
#     4  10  21  36  54  78 107 140 180 225 273 327
#
# _framework density 19.086424000000001
#
# number of rings (size 3 to 8) (size 9 to 14) (size 15 to 20)
#    0.000    1.857    0.000    3.429    0.000    7.143 
#    0.000    0.000    0.000    0.000    0.000    0.000 
#    0.000    0.000    0.000    0.000    0.000    0.000 
#
# Total GULP energy -347359.025472 kJ/mol
# GULP energy per Si atom -12405.679481 kJ/mol
# Density = 1.904298 g / cm^3
# Si number density = 19.086424 Si / 1000 Ang^3
#
#
#
# Elastic Constant Matrix: (Units=GPa)
#
#
# Indices 1 2 3 4 5 6 
#
# 1 143.6193 62.7725 57.1828 0.0000 -5.8430 0.0000
# 2 62.7725 61.2951 43.8941 0.0000 -6.4461 0.0000
# 3 57.1828 43.8941 118.9138 0.0000 0.3799 0.0000
# 4 0.0000 0.0000 0.0000 27.1657 0.0000 -7.5764
# 5 -5.8430 -6.4461 0.3799 0.0000 44.8804 0.0000
# 6 0.0000 0.0000 0.0000 -7.5764 0.0000 39.4795
#
#
#
# Elastic Compliance Matrix: (Units=1/GPa)
#
#
# Indices 1 2 3 4 5 6 
#
# 1 0.012883 -0.011906 -0.001800 0.000000 -0.000018 0.000000
# 2 -0.011906 0.033666 -0.006712 0.000000 0.003342 0.000000
# 3 -0.001800 -0.006712 0.011757 0.000000 -0.001298 0.000000
# 4 0.000000 0.000000 0.000000 0.038893 0.000000 0.007464
# 5 -0.000018 0.003342 -0.001298 0.000000 0.022770 0.000000
# 6 0.000000 0.000000 0.000000 0.007464 0.000000 0.026762
#
#
# Mechanical properties :
#
#
# Convention : Reuss Voigt Hill
#
# Bulk Modulus (GPa) = 57.24562 72.39189 64.81876
# Shear Modulus (GPa) = 25.85454 32.97038 29.41246
#
# Velocity S-wave (km/s) = 3.68449 4.16074 3.92983
# Velocity P-wave (km/s) = 6.93964 7.81621 7.39093
#
# Compressibility (1/GPa) = 0.01746858
#
# Stress axis : x y z
#
# Youngs Moduli (GPa) = 77.62370 29.70387 85.05651
#
# Poissons Ratio (x) = 0.35365 0.15311
# Poissons Ratio (y) = 0.92418 0.57092
# Poissons Ratio (z) = 0.13973 0.19938
#
# Static dielectric constant tensor:
#      x y z
#    x 3.492340 0.000000 0.056410 
#    y 0.000000 3.884970 0.000000 
#    z 0.056410 0.000000 3.654630 
# 
# 
# High freq. dielectric constant tensor:
#      x y z
#    x 1.756380 0.000000 0.003070 
#    y 0.000000 1.736320 0.000000 
#    z 0.003070 0.000000 1.762940 
# 
# From -- ./inp_files/373576.got.cif
#   From: 2010.06.25/outbox.cif.g09.slc.cpg/sg12_187_cif.got.tgz:373576.got - 2010.06.28 00:19:55.
