data_PCOD8105538
_publ_section_title
;
Structure prediction by ZEFSAII (Michael W. Deem and Ramdas Pophale) SiO2 
 PCOD8105538
Probable space group: C 2/M
;
_chemical_formula_sum "Si O2"
_cell_formula_units_Z 48
_cell_length_a 14.338601
_cell_length_b 23.447985
_cell_length_c 14.038646
_cell_angle_alpha 90.000000
_cell_angle_beta 29.459375
_cell_angle_gamma 90.000000
_cell_volume 2321.301944
_symmetry_space_group_name_H-M "C 2/M"
_symmetry_group_IT_number 12
_symmetry_cell_setting 'monoclinic'
loop_
_space_group_symop_operation_xyz
x,y,z
-x,y,-z
-x,-y,-z
x,-y,z
1/2+x,1/2+y,z
1/2-x,1/2+y,-z
1/2-x,1/2-y,-z
1/2+x,1/2-y,z
loop_
_atom_site_type_symbol
_atom_site_label
_atom_site_fract_x
_atom_site_fract_y
_atom_site_fract_z
Si Si1 0.333678 0.435573 0.907821
Si Si2 0.801618 0.742000 0.279575
Si Si3 0.891465 0.176521 0.933592
Si Si4 0.885468 0.936715 0.514960
Si Si5 0.481485 0.126365 0.127602
Si Si6 0.093404 0.757206 0.272045
O O1 0.286846 0.500000 0.986483
O O2 0.402642 0.392700 0.930710
O O3 0.495759 0.439517 0.686026
O O4 0.153620 0.403147 0.026593
O O5 0.955501 0.693810 0.173301
O O6 0.626846 0.752307 0.506557
O O7 0.718554 0.722704 0.251366
O O8 0.929113 0.799211 0.166345
O O9 0.901009 0.194226 0.813187
O O10 0.688437 0.197954 0.153838
O O11 0.702354 0.899836 0.659601
O O12 0.000000 0.907439 0.500000
O O13 0.823809 0.000000 0.602548
O O14 0.500000 0.112217 0.000000
#
# Coordination Sequence:
#
# PCOD8105538 Si02
#       6
#     8   8   8   8   8   8
#     4  11  24  38  54  80 113 154 199 241 287 340
#     4  11  23  37  60  89 117 153 189 236 294 355
#     4  11  21  39  59  84 118 153 191 240 289 346
#     4  10  21  35  51  75 113 158 199 234 273 332
#     4  12  21  32  55  83 115 152 187 234 282 345
#     4  10  22  38  60  89 118 149 190 234 293 352
#
# _framework density 20.678049999999999
#
# number of rings (size 3 to 8) (size 9 to 14) (size 15 to 20)
#    0.000    1.167    1.667    6.500    2.333    2.000 
#    0.000    0.000    0.000    2.000    0.000    2.333 
#    0.000    0.000    0.000    0.000    0.000    0.000 
#
# Total GULP energy -297480.658334 kJ/mol
# GULP energy per Si atom -12395.027431 kJ/mol
# Density = 2.063099 g / cm^3
# Si number density = 20.678050 Si / 1000 Ang^3
#
#
#
# Elastic Constant Matrix: (Units=GPa)
#
#
# Indices 1 2 3 4 5 6 
#
# 1 47.7335 16.7067 13.1032 0.4829 -13.5775 0.4509
# 2 16.7067 139.9693 39.4331 0.1291 -13.2645 0.1447
# 3 13.1032 39.4331 113.4083 1.9727 -8.6309 1.9049
# 4 0.4829 0.1291 1.9727 46.0767 -1.1209 10.7484
# 5 -13.5775 -13.2645 -8.6309 -1.1209 29.1814 -1.0249
# 6 0.4509 0.1447 1.9049 10.7484 -1.0249 36.6147
#
#
#
# Elastic Compliance Matrix: (Units=1/GPa)
#
#
# Indices 1 2 3 4 5 6 
#
# 1 0.024878 -0.001547 -0.001545 0.000050 0.010419 0.000057
# 2 -0.001547 0.008257 -0.002522 0.000123 0.002298 0.000146
# 3 -0.001545 -0.002522 0.009965 -0.000290 0.001058 -0.000375
# 4 0.000050 0.000123 -0.000290 0.023320 0.000650 -0.006813
# 5 0.010419 0.002298 0.001058 0.000650 0.040525 0.000751
# 6 0.000057 0.000146 -0.000375 -0.006813 0.000751 0.029351
#
#
# Mechanical properties :
#
#
# Convention : Reuss Voigt Hill
#
# Bulk Modulus (GPa) = 31.37621 48.84413 40.11017
# Shear Modulus (GPa) = 31.61612 37.83244 34.72428
#
# Velocity S-wave (km/s) = 3.91445 4.28202 4.10235
# Velocity P-wave (km/s) = 5.96969 6.93686 6.47137
#
# Compressibility (1/GPa) = 0.03187128
#
# Stress axis : x y z
#
# Youngs Moduli (GPa) = 40.19651 121.10868 100.35091
#
# Poissons Ratio (x) = 0.18733 0.15509
# Poissons Ratio (y) = 0.06217 0.25309
# Poissons Ratio (z) = 0.06212 0.30545
#
# Static dielectric constant tensor:
#      x y z
#    x 3.599850 -0.000900 -0.097530 
#    y -0.000900 3.982770 0.000640 
#    z -0.097530 0.000640 3.856840 
# 
# 
# High freq. dielectric constant tensor:
#      x y z
#    x 1.778870 -0.000020 -0.015650 
#    y -0.000020 1.799130 0.000050 
#    z -0.015650 0.000050 1.827030 
# 
# From -- ./inp_files/218407.got.cif
#   From: 2010.06.25/outbox.cif.g09.slc.cpg/sg12_110_cif.got.tgz:218407.got - 2010.06.28 00:19:55.
