data_PCOD8105835
_publ_section_title
;
Structure prediction by ZEFSAII (Michael W. Deem and Ramdas Pophale) SiO2 
 PCOD8105835
Probable space group: C 2/M
;
_chemical_formula_sum "Si O2"
_cell_formula_units_Z 64
_cell_length_a 10.226591
_cell_length_b 17.277564
_cell_length_c 19.999435
_cell_angle_alpha 90.000000
_cell_angle_beta 63.021544
_cell_angle_gamma 90.000000
_cell_volume 3149.163256
_symmetry_space_group_name_H-M "C 2/M"
_symmetry_group_IT_number 12
_symmetry_cell_setting 'monoclinic'
loop_
_space_group_symop_operation_xyz
x,y,z
-x,y,-z
-x,-y,-z
x,-y,z
1/2+x,1/2+y,z
1/2-x,1/2+y,-z
1/2-x,1/2-y,-z
1/2+x,1/2-y,z
loop_
_atom_site_type_symbol
_atom_site_label
_atom_site_fract_x
_atom_site_fract_y
_atom_site_fract_z
Si Si1 0.110516 0.736795 0.242041
Si Si2 0.326914 0.090566 0.203987
Si Si3 0.440353 0.588324 0.821322
Si Si4 0.677240 0.687975 0.708049
Si Si5 0.073926 0.411192 0.415098
Si Si6 0.408063 0.198319 0.899154
Si Si7 0.524304 0.085143 0.701187
Si Si8 0.385699 0.648414 0.974612
O O1 0.244610 0.754395 0.262483
O O2 0.131837 0.750702 0.157717
O O3 0.951660 0.769189 0.304162
O O4 0.105318 0.642915 0.248589
O O5 0.173266 0.124961 0.209187
O O6 0.457058 0.140063 0.140864
O O7 0.332748 0.097974 0.284064
O O8 0.340593 0.000000 0.178901
O O9 0.459847 0.500000 0.797577
O O10 0.597512 0.628070 0.776531
O O11 0.377592 0.596071 0.910252
O O12 0.787712 0.644382 0.632531
O O13 0.128790 0.500000 0.410813
O O14 0.000000 0.380754 0.500000
O O15 0.949979 0.405746 0.384886
O O16 0.441161 0.264003 0.946385
O O17 0.272508 0.146567 0.954142
O O18 0.460764 0.000000 0.730712
O O19 0.500000 0.610981 0.000000
#
# Coordination Sequence:
#
# PCOD8105835 Si02
#       8
#     8   8   8   8   8   8   8   8
#     4  10  21  35  59  86 112 153 197 239 295 342
#     4   9  20  37  58  83 109 146 192 246 297 342
#     4  11  24  39  58  82 113 150 196 253 304 350
#     4  11  22  37  59  90 120 153 199 246 288 355
#     4   9  18  36  63  92 123 160 196 234 288 352
#     4  10  22  35  58  78 114 148 194 239 294 356
#     4   8  16  33  56  84 114 143 188 233 276 337
#     4  11  24  37  53  80 109 151 194 242 300 351
#
# _framework density 20.322859000000001
#
# number of rings (size 3 to 8) (size 9 to 14) (size 15 to 20)
#    0.000    2.125    1.250    1.125    7.000    1.250 
#    0.000    7.500    0.000    0.750    0.000    4.375 
#    0.000    0.000    0.000    0.000    0.000    0.000 
#
# Total GULP energy -396524.744073 kJ/mol
# GULP energy per Si atom -12391.398252 kJ/mol
# Density = 2.027660 g / cm^3
# Si number density = 20.322859 Si / 1000 Ang^3
#
#
#
# Elastic Constant Matrix: (Units=GPa)
#
#
# Indices 1 2 3 4 5 6 
#
# 1 143.4803 37.7114 58.9052 0.0000 2.7050 0.0000
# 2 37.7114 36.8856 23.5592 0.0000 -3.8007 0.0000
# 3 58.9052 23.5592 120.5971 0.0000 -2.1307 0.0000
# 4 0.0000 0.0000 0.0000 26.6776 0.0000 0.7618
# 5 2.7050 -3.8007 -2.1307 0.0000 27.3566 0.0000
# 6 0.0000 0.0000 0.0000 0.7618 0.0000 31.4160
#
#
#
# Elastic Compliance Matrix: (Units=1/GPa)
#
#
# Indices 1 2 3 4 5 6 
#
# 1 0.010884 -0.009109 -0.003583 0.000000 -0.002621 0.000000
# 2 -0.009109 0.039007 -0.003063 0.000000 0.006081 0.000000
# 3 -0.003583 -0.003063 0.010654 0.000000 0.000759 0.000000
# 4 0.000000 0.000000 0.000000 0.037511 0.000000 -0.000910
# 5 -0.002621 0.006081 0.000759 0.000000 0.037717 0.000000
# 6 0.000000 0.000000 0.000000 -0.000910 0.000000 0.031853
#
#
# Mechanical properties :
#
#
# Convention : Reuss Voigt Hill
#
# Bulk Modulus (GPa) = 34.44243 60.14608 47.29425
# Shear Modulus (GPa) = 23.94443 29.14251 26.54347
#
# Velocity S-wave (km/s) = 3.43622 3.79090 3.61791
# Velocity P-wave (km/s) = 5.72083 6.98718 6.38548
#
# Compressibility (1/GPa) = 0.02903396
#
# Stress axis : x y z
#
# Youngs Moduli (GPa) = 91.87518 25.63611 93.86075
#
# Poissons Ratio (x) = 0.23353 0.33632
# Poissons Ratio (y) = 0.83694 0.28753
# Poissons Ratio (z) = 0.32920 0.07853
#
# Static dielectric constant tensor:
#      x y z
#    x 3.940230 0.000000 0.267150 
#    y 0.000000 4.035040 0.000000 
#    z 0.267150 0.000000 3.408680 
# 
# 
# High freq. dielectric constant tensor:
#      x y z
#    x 1.799830 0.000000 0.016250 
#    y 0.000000 1.815860 0.000000 
#    z 0.016250 0.000000 1.751800 
# 
# From -- ./inp_files/301700.got.cif
#   From: 2010.06.25/outbox.cif.g09.slc.cpg/sg12_151_cif.got.tgz:301700.got - 2010.06.28 00:19:55.
