data_PCOD8105401
_publ_section_title
;
Structure prediction by ZEFSAII (Michael W. Deem and Ramdas Pophale) SiO2 
 PCOD8105401
Probable space group: C 2/M
;
_chemical_formula_sum "Si O2"
_cell_formula_units_Z 36
_cell_length_a 15.867926
_cell_length_b 15.332142
_cell_length_c 25.070939
_cell_angle_alpha 90.000000
_cell_angle_beta 161.936450
_cell_angle_gamma 90.000000
_cell_volume 1891.279410
_symmetry_space_group_name_H-M "C 2/M"
_symmetry_group_IT_number 12
_symmetry_cell_setting 'monoclinic'
loop_
_space_group_symop_operation_xyz
x,y,z
-x,y,-z
-x,-y,-z
x,-y,z
1/2+x,1/2+y,z
1/2-x,1/2+y,-z
1/2-x,1/2-y,-z
1/2+x,1/2-y,z
loop_
_atom_site_type_symbol
_atom_site_label
_atom_site_fract_x
_atom_site_fract_y
_atom_site_fract_z
Si Si1 0.656293 0.400810 0.147326
Si Si2 0.500000 0.802268 0.500000
Si Si3 0.720889 0.900651 0.529833
Si Si4 0.546931 0.245187 0.156636
Si Si5 0.285522 0.099338 0.824025
O O1 0.574005 0.500000 0.112651
O O2 0.563017 0.337276 0.137067
O O3 0.985650 0.392552 0.342800
O O4 0.500000 0.371549 0.000000
O O5 0.632867 0.858351 0.532554
O O6 0.265023 0.740640 0.335449
O O7 0.997811 0.860664 0.671644
O O8 0.784324 0.000000 0.582516
O O9 0.598283 0.160374 0.152115
O O10 0.250000 0.250000 0.000000
O O11 0.249511 0.000000 0.780888
O O12 0.500000 0.101311 0.000000
#
# Coordination Sequence:
#
# PCOD8105401 Si02
#       5
#     8   4   8   8   8
#     4   9  19  35  56  80 104 135 175 218 264 313
#     4  10  21  34  53  80 110 140 174 216 266 318
#     4   9  18  34  56  80 106 138 177 220 264 312
#     4  11  23  36  53  79 109 142 178 217 264 315
#     4  10  21  37  57  79 104 139 181 222 264 312
#
# _framework density 19.034732999999999
#
# number of rings (size 3 to 8) (size 9 to 14) (size 15 to 20)
#    0.000    2.222    0.000    2.333    0.000    7.111 
#    0.000    0.556    0.000    0.000    0.000    0.000 
#    0.000    0.000    0.000    0.000    0.000    0.000 
#
# Total GULP energy -223094.699690 kJ/mol
# GULP energy per Si atom -12394.149983 kJ/mol
# Density = 1.899141 g / cm^3
# Si number density = 19.034733 Si / 1000 Ang^3
#
#
#
# Elastic Constant Matrix: (Units=GPa)
#
#
# Indices 1 2 3 4 5 6 
#
# 1 104.7098 48.1309 76.3403 -0.0217 14.4912 0.0705
# 2 48.1309 76.5338 46.3231 0.0504 5.7188 0.0763
# 3 76.3403 46.3231 162.2558 0.2350 7.9766 0.0618
# 4 -0.0217 0.0504 0.2350 22.4331 -0.0746 7.7117
# 5 14.4912 5.7188 7.9766 -0.0746 45.8417 0.0134
# 6 0.0705 0.0763 0.0618 7.7117 0.0134 1.1619
#
#
#
# Elastic Compliance Matrix: (Units=1/GPa)
#
#
# Indices 1 2 3 4 5 6 
#
# 1 0.017881 -0.007239 -0.006166 -0.000131 -0.003677 0.000631
# 2 -0.007239 0.018791 -0.001973 -0.000165 0.000287 0.000398
# 3 -0.006166 -0.001973 0.009601 0.000075 0.000525 -0.000510
# 4 -0.000131 -0.000165 0.000075 -0.034780 -0.000075 0.230847
# 5 -0.003677 0.000287 0.000525 -0.000075 0.022849 0.000412
# 6 0.000631 0.000398 -0.000510 0.230847 0.000412 -0.671513
#
#
# Mechanical properties :
#
#
# Convention : Reuss Voigt Hill
#
# Bulk Modulus (GPa) = 64.43838 76.12087 70.27963
# Shear Modulus (GPa) = -8.31612 25.40103 8.54245
#
# Velocity S-wave (km/s) = -2.09246 3.65698 2.12075
# Velocity P-wave (km/s) = 5.29987 7.60978 6.55734
#
# Compressibility (1/GPa) = 0.01551870
#
# Stress axis : x y z
#
# Youngs Moduli (GPa) = 55.92429 53.21672 104.15084
#
# Poissons Ratio (x) = 0.38525 0.64215
# Poissons Ratio (y) = 0.40485 0.20546
# Poissons Ratio (z) = 0.34480 0.10498
#
# Static dielectric constant tensor:
#      x y z
#    x 3.313220 0.000390 -0.059350 
#    y 0.000390 3.723480 -0.000600 
#    z -0.059350 -0.000600 4.025760 
# 
# 
# High freq. dielectric constant tensor:
#      x y z
#    x 1.720540 0.000010 0.000030 
#    y 0.000010 1.740660 -0.000030 
#    z 0.000030 -0.000030 1.766530 
# 
# From -- ./inp_files/61482.got.cif
#   From: 2010.06.25/outbox.cif.g09.slc.cpg/sg12_31_cif.got.tgz:61482.got - 2010.06.28 00:19:55.
