data_PCOD8105171
_publ_section_title
;
Structure prediction by ZEFSAII (Michael W. Deem and Ramdas Pophale) SiO2 
 PCOD8105171
Probable space group: C 2/M
;
_chemical_formula_sum "Si O2"
_cell_formula_units_Z 40
_cell_length_a 16.708383
_cell_length_b 12.293811
_cell_length_c 20.232953
_cell_angle_alpha 90.000000
_cell_angle_beta 29.418419
_cell_angle_gamma 90.000000
_cell_volume 2041.381905
_symmetry_space_group_name_H-M "C 2/M"
_symmetry_group_IT_number 12
_symmetry_cell_setting 'monoclinic'
loop_
_space_group_symop_operation_xyz
x,y,z
-x,y,-z
-x,-y,-z
x,-y,z
1/2+x,1/2+y,z
1/2-x,1/2+y,-z
1/2-x,1/2-y,-z
1/2+x,1/2-y,z
loop_
_atom_site_type_symbol
_atom_site_label
_atom_site_fract_x
_atom_site_fract_y
_atom_site_fract_z
Si Si1 0.813455 0.000000 0.613263
Si Si2 0.389525 0.626249 0.016305
Si Si3 0.186333 0.500000 0.846650
Si Si4 0.424904 0.626989 0.247761
Si Si5 0.120204 0.200929 0.233347
Si Si6 0.118223 0.774858 0.477586
O O1 0.785739 0.109108 0.590422
O O2 0.000000 0.000000 0.500000
O O3 0.694912 0.000000 0.761289
O O4 0.340701 0.500000 0.045177
O O5 0.224242 0.693474 0.140741
O O6 0.500000 0.648928 0.000000
O O7 0.489050 0.667366 0.881118
O O8 0.269985 0.607749 0.813726
O O9 0.000000 0.500000 0.000000
O O10 0.391457 0.500000 0.268701
O O11 0.541252 0.655112 0.224288
O O12 0.249344 0.680485 0.380788
O O13 0.981654 0.238476 0.383507
O O14 0.000000 0.765095 0.500000
#
# Coordination Sequence:
#
# PCOD8105171 Si02
#       6
#     4   8   4   8   8   8
#     4  10  20  42  62  94 128 154 208 262 303 357
#     4  10  23  43  64  87 124 167 210 260 308 372
#     4  12  24  38  70 100 122 168 207 256 315 372
#     4  11  25  42  61  91 128 165 205 263 317 362
#     4  12  22  42  63  93 131 158 207 262 310 374
#     4  11  22  40  67  89 123 167 205 256 309 373
#
# _framework density 19.594570000000001
#
# number of rings (size 3 to 8) (size 9 to 14) (size 15 to 20)
#    0.000    1.000    5.000    3.000    2.800    1.200 
#    1.800    0.000    0.000    0.000    0.000    0.000 
#    0.000    0.000    0.000    0.000    0.000    0.000 
#
# Total GULP energy -248096.850339 kJ/mol
# GULP energy per Si atom -12404.842517 kJ/mol
# Density = 1.954997 g / cm^3
# Si number density = 19.594570 Si / 1000 Ang^3
#
#
#
# Elastic Constant Matrix: (Units=GPa)
#
#
# Indices 1 2 3 4 5 6 
#
# 1 66.2518 29.1778 56.8231 -0.0002 17.7411 0.0003
# 2 29.1778 101.1538 77.0493 0.0002 -0.9673 0.0072
# 3 56.8231 77.0493 193.8198 -0.0009 24.3657 -0.0074
# 4 -0.0002 0.0002 -0.0009 52.0959 0.0007 -27.5098
# 5 17.7411 -0.9673 24.3657 0.0007 32.5769 0.0035
# 6 0.0003 0.0072 -0.0074 -27.5098 0.0035 -212.0259
#
#
#
# Elastic Compliance Matrix: (Units=1/GPa)
#
#
# Indices 1 2 3 4 5 6 
#
# 1 0.022645 -0.003537 -0.004050 0.000000 -0.009408 0.000000
# 2 -0.003537 0.015550 -0.006010 0.000000 0.006883 0.000001
# 3 -0.004050 -0.006010 0.009361 0.000000 -0.004974 -0.000001
# 4 0.000000 0.000000 0.000000 0.017965 0.000000 -0.002331
# 5 -0.009408 0.006883 -0.004974 0.000000 0.039745 0.000001
# 6 0.000000 0.000001 -0.000001 -0.002331 0.000001 -0.004414
#
#
# Mechanical properties :
#
#
# Convention : Reuss Voigt Hill
#
# Bulk Modulus (GPa) = 49.11119 76.36952 62.74035
# Shear Modulus (GPa) = 37.08327 -12.25893 12.41217
#
# Velocity S-wave (km/s) = 4.35504 -2.50397 2.51957
# Velocity P-wave (km/s) = 7.09976 5.54072 6.36813
#
# Compressibility (1/GPa) = 0.02036196
#
# Stress axis : x y z
#
# Youngs Moduli (GPa) = 44.16083 64.31017 106.82287
#
# Poissons Ratio (x) = 0.22745 0.43265
# Poissons Ratio (y) = 0.15619 0.64199
# Poissons Ratio (z) = 0.17886 0.38649
#
# Static dielectric constant tensor:
#      x y z
#    x 3.571010 0.000000 0.221100 
#    y 0.000000 3.955490 0.000000 
#    z 0.221100 0.000000 3.709020 
# 
# 
# High freq. dielectric constant tensor:
#      x y z
#    x 1.760050 0.000000 0.015220 
#    y 0.000000 1.776760 0.000000 
#    z 0.015220 0.000000 1.776880 
# 
# From -- ./inp_files/59132.got.cif
#   From: 2010.06.25/outbox.cif.g09.slc.cpg/sg12_30_cif.got.tgz:59132.got - 2010.06.28 00:19:55.
