data_PCOD8105813
_publ_section_title
;
Structure prediction by ZEFSAII (Michael W. Deem and Ramdas Pophale) SiO2 
 PCOD8105813
Probable space group: C 2/M
;
_chemical_formula_sum "Si O2"
_cell_formula_units_Z 48
_cell_length_a 20.107110
_cell_length_b 13.681978
_cell_length_c 11.226590
_cell_angle_alpha 90.000000
_cell_angle_beta 45.508274
_cell_angle_gamma 90.000000
_cell_volume 2203.180502
_symmetry_space_group_name_H-M "C 2/M"
_symmetry_group_IT_number 12
_symmetry_cell_setting 'monoclinic'
loop_
_space_group_symop_operation_xyz
x,y,z
-x,y,-z
-x,-y,-z
x,-y,z
1/2+x,1/2+y,z
1/2-x,1/2+y,-z
1/2-x,1/2-y,-z
1/2+x,1/2-y,z
loop_
_atom_site_type_symbol
_atom_site_label
_atom_site_fract_x
_atom_site_fract_y
_atom_site_fract_z
Si Si1 0.221515 0.392206 0.451247
Si Si2 0.794832 0.892744 0.971801
Si Si3 0.019453 0.610160 0.607930
Si Si4 0.399098 0.391871 0.596032
Si Si5 0.274030 0.808432 0.304257
Si Si6 0.629853 0.200093 0.054184
O O1 0.268124 0.500000 0.379478
O O2 0.129049 0.389029 0.489257
O O3 0.288586 0.306306 0.318055
O O4 0.197552 0.374818 0.620095
O O5 0.842180 0.904505 0.786534
O O6 0.854683 0.817248 0.975613
O O7 0.788237 0.000000 0.042562
O O8 0.692394 0.847245 0.081140
O O9 0.979271 0.500000 0.668296
O O10 0.000000 0.652755 0.500000
O O11 0.973982 0.675092 0.771816
O O12 0.500000 0.343445 0.500000
O O13 0.415010 0.500000 0.518802
O O14 0.336462 0.325565 0.586751
O O15 0.342728 0.841281 0.110549
#
# Coordination Sequence:
#
# PCOD8105813 Si02
#       6
#     8   8   8   8   8   8
#     4  10  23  41  61  86 118 160 200 245 303 357
#     4   9  19  32  49  83 119 151 191 239 298 351
#     4  10  23  39  61  91 120 151 197 255 302 352
#     4   9  18  32  55  85 115 150 191 239 288 342
#     4  10  22  39  59  86 118 158 200 244 294 358
#     4  10  21  35  58  85 118 159 195 247 296 351
#
# _framework density 21.786684999999999
#
# number of rings (size 3 to 8) (size 9 to 14) (size 15 to 20)
#    0.000    2.333    0.000    1.000    9.333    3.333 
#    0.000    1.667    0.000    0.000    0.000    3.500 
#    0.000    0.000    0.000    0.000    0.000    0.000 
#
# Total GULP energy -297457.781196 kJ/mol
# GULP energy per Si atom -12394.074216 kJ/mol
# Density = 2.173710 g / cm^3
# Si number density = 21.786685 Si / 1000 Ang^3
#
#
#
# Elastic Constant Matrix: (Units=GPa)
#
#
# Indices 1 2 3 4 5 6 
#
# 1 74.9441 7.0494 9.7396 0.0000 18.6084 0.0000
# 2 7.0494 105.8436 6.5032 0.0000 3.1036 0.0000
# 3 9.7396 6.5032 61.7174 0.0000 14.7078 0.0000
# 4 0.0000 0.0000 0.0000 33.4484 0.0000 10.8731
# 5 18.6084 3.1036 14.7078 0.0000 27.3861 0.0000
# 6 0.0000 0.0000 0.0000 10.8731 0.0000 36.4695
#
#
#
# Elastic Compliance Matrix: (Units=1/GPa)
#
#
# Indices 1 2 3 4 5 6 
#
# 1 0.016112 -0.000761 0.000144 0.000000 -0.010939 0.000000
# 2 -0.000761 0.009555 -0.000862 0.000000 -0.000102 0.000000
# 3 0.000144 -0.000862 0.018659 0.000000 -0.010021 0.000000
# 4 0.000000 0.000000 0.000000 0.033105 0.000000 -0.009870
# 5 -0.010939 -0.000102 -0.010021 0.000000 0.049342 0.000000
# 6 0.000000 0.000000 0.000000 -0.009870 0.000000 0.030363
#
#
# Mechanical properties :
#
#
# Convention : Reuss Voigt Hill
#
# Bulk Modulus (GPa) = 24.17323 32.12106 28.14714
# Shear Modulus (GPa) = 28.75496 34.07500 31.41498
#
# Velocity S-wave (km/s) = 3.63690 3.95907 3.80140
# Velocity P-wave (km/s) = 5.36242 5.97281 5.67583
#
# Compressibility (1/GPa) = 0.04136808
#
# Stress axis : x y z
#
# Youngs Moduli (GPa) = 62.06441 104.66179 53.59302
#
# Poissons Ratio (x) = 0.07967 -0.00774
# Poissons Ratio (y) = 0.04725 0.04621
# Poissons Ratio (z) = -0.00897 0.09024
#
# Static dielectric constant tensor:
#      x y z
#    x 3.773100 0.000000 0.047940 
#    y 0.000000 4.451000 0.000000 
#    z 0.047940 0.000000 3.588860 
# 
# 
# High freq. dielectric constant tensor:
#      x y z
#    x 1.823330 0.000000 0.010130 
#    y 0.000000 1.872410 0.000000 
#    z 0.010130 0.000000 1.834410 
# 
# From -- ./inp_files/167532.got.cif
#   From: 2010.06.25/outbox.cif.g09.slc.cpg/sg12_84_cif.got.tgz:167532.got - 2010.06.28 00:19:55.
