data_PCOD8105490
_publ_section_title
;
Structure prediction by ZEFSAII (Michael W. Deem and Ramdas Pophale) SiO2 
 PCOD8105490
Probable space group: C 2/M
;
_chemical_formula_sum "Si O2"
_cell_formula_units_Z 64
_cell_length_a 30.939673
_cell_length_b 8.884241
_cell_length_c 12.451785
_cell_angle_alpha 90.000000
_cell_angle_beta 86.764361
_cell_angle_gamma 90.000000
_cell_volume 3417.234484
_symmetry_space_group_name_H-M "C 2/M"
_symmetry_group_IT_number 12
_symmetry_cell_setting 'monoclinic'
loop_
_space_group_symop_operation_xyz
x,y,z
-x,y,-z
-x,-y,-z
x,-y,z
1/2+x,1/2+y,z
1/2-x,1/2+y,-z
1/2-x,1/2-y,-z
1/2+x,1/2-y,z
loop_
_atom_site_type_symbol
_atom_site_label
_atom_site_fract_x
_atom_site_fract_y
_atom_site_fract_z
Si Si1 0.120449 0.678975 0.094804
Si Si2 0.811561 0.677393 0.458229
Si Si3 0.067121 0.320533 0.302488
Si Si4 0.781748 0.320674 0.907828
Si Si5 0.954107 0.678339 0.048241
Si Si6 0.242227 0.322482 0.328869
Si Si7 0.528762 0.821452 0.719331
Si Si8 0.408044 0.820487 0.469516
O O1 0.120743 0.500000 0.091543
O O2 0.102428 0.736025 0.211845
O O3 0.169530 0.736954 0.072165
O O4 0.087674 0.743921 0.008796
O O5 0.807284 0.500000 0.445353
O O6 0.793585 0.727207 0.577875
O O7 0.787425 0.752478 0.361051
O O8 0.860574 0.734470 0.443095
O O9 0.066055 0.500000 0.304270
O O10 0.080342 0.254741 0.415749
O O11 0.019823 0.256605 0.278768
O O12 0.778574 0.500000 0.915298
O O13 0.769820 0.264369 0.788898
O O14 0.750000 0.250000 0.000000
O O15 0.955110 0.500000 0.031544
O O16 0.948715 0.725593 0.172568
O O17 0.000000 0.744374 0.000000
O O18 0.246947 0.500000 0.325643
O O19 0.557514 0.753490 0.619473
O O20 0.526777 0.000000 0.709127
O O21 0.409747 0.000000 0.471628
#
# Coordination Sequence:
#
# PCOD8105490 Si02
#       8
#     8   8   8   8   8   8   8   8
#     4   9  16  26  42  60  81 117 156 187 225 275
#     4   9  17  30  49  71  94 122 156 196 240 284
#     4   9  14  22  36  54  82 118 151 179 217 273
#     4  10  21  35  50  70  97 128 163 202 243 286
#     4   9  14  22  34  51  78 112 148 182 218 265
#     4   9  18  33  50  67  91 124 161 198 237 283
#     4   9  15  21  31  51  82 117 146 176 218 269
#     4   9  16  23  34  57  87 116 145 179 224 275
#
# _framework density 18.728594999999999
#
# number of rings (size 3 to 8) (size 9 to 14) (size 15 to 20)
#    0.000    2.875    1.250    1.125    0.000    6.000 
#    0.000    2.500    0.000    0.000    0.000    0.000 
#    0.000    3.500    0.000    0.250    0.000    0.000 
#
# Total GULP energy -396626.956595 kJ/mol
# GULP energy per Si atom -12394.592394 kJ/mol
# Density = 1.868597 g / cm^3
# Si number density = 18.728595 Si / 1000 Ang^3
#
#
#
# Elastic Constant Matrix: (Units=GPa)
#
#
# Indices 1 2 3 4 5 6 
#
# 1 177.6886 11.8283 97.9853 0.0000 1.6560 0.0000
# 2 11.8283 4.1252 12.1608 0.0000 1.0144 0.0000
# 3 97.9853 12.1608 147.8507 0.0000 7.9937 0.0000
# 4 0.0000 0.0000 0.0000 14.0667 0.0000 0.4676
# 5 1.6560 1.0144 7.9937 0.0000 36.3852 0.0000
# 6 0.0000 0.0000 0.0000 0.4676 0.0000 16.5211
#
#
#
# Elastic Compliance Matrix: (Units=1/GPa)
#
#
# Indices 1 2 3 4 5 6 
#
# 1 0.009281 -0.011314 -0.005277 0.000000 0.001052 0.000000
# 2 -0.011314 0.334160 -0.019745 0.000000 -0.004463 0.000000
# 3 -0.005277 -0.019745 0.011985 0.000000 -0.001842 0.000000
# 4 0.000000 0.000000 0.000000 0.071157 0.000000 -0.002014
# 5 0.001052 -0.004463 -0.001842 0.000000 0.027965 0.000000
# 6 0.000000 0.000000 0.000000 -0.002014 0.000000 0.060586
#
#
# Mechanical properties :
#
#
# Convention : Reuss Voigt Hill
#
# Bulk Modulus (GPa) = 3.53667 63.73480 33.63573
# Shear Modulus (GPa) = 7.33076 27.24061 17.28569
#
# Velocity S-wave (km/s) = 1.98058 3.81792 3.04132
# Velocity P-wave (km/s) = 2.66885 7.31710 5.50739
#
# Compressibility (1/GPa) = 0.28275218
#
# Stress axis : x y z
#
# Youngs Moduli (GPa) = 107.74342 2.99258 83.43962
#
# Poissons Ratio (x) = 0.03386 0.44034
# Poissons Ratio (y) = 1.21901 1.64755
# Poissons Ratio (z) = 0.56860 0.05909
#
# Static dielectric constant tensor:
#      x y z
#    x 3.699030 0.000000 0.063640 
#    y 0.000000 2.682900 0.000000 
#    z 0.063640 0.000000 3.663090 
# 
# 
# High freq. dielectric constant tensor:
#      x y z
#    x 1.740200 0.000000 0.005550 
#    y 0.000000 1.643060 0.000000 
#    z 0.005550 0.000000 1.739420 
# 
# From -- ./inp_files/182076.got.cif
#   From: 2010.06.25/outbox.cif.g09.slc.cpg/sg12_92_cif.got.tgz:182076.got - 2010.06.28 00:19:55.
