data_PCOD8105616
_publ_section_title
;
Structure prediction by ZEFSAII (Michael W. Deem and Ramdas Pophale) SiO2 
 PCOD8105616
Probable space group: C 2/M
;
_chemical_formula_sum "Si O2"
_cell_formula_units_Z 48
_cell_length_a 23.854004
_cell_length_b 9.424267
_cell_length_c 11.872044
_cell_angle_alpha 90.000000
_cell_angle_beta 90.393449
_cell_angle_gamma 90.000000
_cell_volume 2668.849765
_symmetry_space_group_name_H-M "C 2/M"
_symmetry_group_IT_number 12
_symmetry_cell_setting 'monoclinic'
loop_
_space_group_symop_operation_xyz
x,y,z
-x,y,-z
-x,-y,-z
x,-y,z
1/2+x,1/2+y,z
1/2-x,1/2+y,-z
1/2-x,1/2-y,-z
1/2+x,1/2-y,z
loop_
_atom_site_type_symbol
_atom_site_label
_atom_site_fract_x
_atom_site_fract_y
_atom_site_fract_z
Si Si1 0.482926 0.168036 0.179226
Si Si2 0.955709 0.835109 0.402192
Si Si3 0.165302 0.165110 0.515319
Si Si4 0.585521 0.167586 0.034242
Si Si5 0.209768 0.332583 0.082053
Si Si6 0.771936 0.663965 0.661461
O O1 0.473366 0.246296 0.295091
O O2 0.542127 0.221507 0.128668
O O3 0.482621 0.000000 0.200266
O O4 0.434165 0.213518 0.090813
O O5 0.894852 0.782914 0.442217
O O6 0.000000 0.803571 0.500000
O O7 0.954350 0.000000 0.369043
O O8 0.180224 0.247937 0.401627
O O9 0.210557 0.200653 0.612605
O O10 0.164431 0.000000 0.484815
O O11 0.647183 0.227002 0.060329
O O12 0.585354 0.000000 0.041260
O O13 0.213999 0.500000 0.058365
O O14 0.228102 0.293926 0.208326
O O15 0.250000 0.250000 0.000000
O O16 0.787120 0.500000 0.644539
#
# Coordination Sequence:
#
# PCOD8105616 Si02
#       6
#     8   8   8   8   8   8
#     4   9  18  35  58  78  99 135 176 212 254 304
#     4  10  22  36  51  76 110 139 166 210 262 305
#     4   9  19  36  54  73 103 139 170 207 258 307
#     4   8  17  35  55  77 106 134 166 215 264 298
#     4  10  21  35  53  79 108 136 169 211 257 305
#     4   9  19  35  55  77 101 133 173 214 253 298
#
# _framework density 17.985275999999999
#
# number of rings (size 3 to 8) (size 9 to 14) (size 15 to 20)
#    0.000    2.833    0.000    1.000    4.667    1.667 
#    0.000    2.500    0.000    0.000    0.000    0.000 
#    0.000    0.000    0.000    0.000    0.000    0.000 
#
# Total GULP energy -297605.570123 kJ/mol
# GULP energy per Si atom -12400.232088 kJ/mol
# Density = 1.794434 g / cm^3
# Si number density = 17.985276 Si / 1000 Ang^3
#
#
#
# Elastic Constant Matrix: (Units=GPa)
#
#
# Indices 1 2 3 4 5 6 
#
# 1 148.9746 44.7934 81.7069 0.0000 -9.5564 0.0000
# 2 44.7934 47.2910 62.5220 0.0000 -8.4670 0.0000
# 3 81.7069 62.5220 155.7399 0.0000 -13.4720 0.0000
# 4 0.0000 0.0000 0.0000 27.9068 0.0000 -8.6836
# 5 -9.5564 -8.4670 -13.4720 0.0000 24.9582 0.0000
# 6 0.0000 0.0000 0.0000 -8.6836 0.0000 24.3493
#
#
#
# Elastic Compliance Matrix: (Units=1/GPa)
#
#
# Indices 1 2 3 4 5 6 
#
# 1 0.010040 -0.005376 -0.003078 0.000000 0.000359 0.000000
# 2 -0.005376 0.048754 -0.016258 0.000000 0.005705 0.000000
# 3 -0.003078 -0.016258 0.014669 0.000000 0.001224 0.000000
# 4 0.000000 0.000000 0.000000 0.040306 0.000000 0.014374
# 5 0.000359 0.005705 0.001224 0.000000 0.042800 0.000000
# 6 0.000000 0.000000 0.000000 0.014374 0.000000 0.046195
#
#
# Mechanical properties :
#
#
# Convention : Reuss Voigt Hill
#
# Bulk Modulus (GPa) = 41.60145 81.11666 61.35905
# Shear Modulus (GPa) = 19.21574 26.30839 22.76207
#
# Velocity S-wave (km/s) = 3.27221 3.82877 3.56138
# Velocity P-wave (km/s) = 6.12025 8.04647 7.14854
#
# Compressibility (1/GPa) = 0.02403763
#
# Stress axis : x y z
#
# Youngs Moduli (GPa) = 99.59785 20.51112 68.17262
#
# Poissons Ratio (x) = 0.11027 0.20985
# Poissons Ratio (y) = 0.53546 1.10837
# Poissons Ratio (z) = 0.30658 0.33348
#
# Static dielectric constant tensor:
#      x y z
#    x 3.804360 0.000000 0.149290 
#    y 0.000000 3.087000 0.000000 
#    z 0.149290 0.000000 3.324650 
# 
# 
# High freq. dielectric constant tensor:
#      x y z
#    x 1.708290 0.000000 0.002870 
#    y 0.000000 1.673000 0.000000 
#    z 0.002870 0.000000 1.702000 
# 
# From -- ./inp_files/172116.got.cif
#   From: 2010.06.25/outbox.cif.g09.slc.cpg/sg12_87_cif.got.tgz:172116.got - 2010.06.28 00:19:55.
