data_PCOD8105958
_publ_section_title
;
Structure prediction by ZEFSAII (Michael W. Deem and Ramdas Pophale) SiO2 
 PCOD8105958
Probable space group: C 2/M
;
_chemical_formula_sum "Si O2"
_cell_formula_units_Z 48
_cell_length_a 24.893014
_cell_length_b 10.325860
_cell_length_c 11.761502
_cell_angle_alpha 90.000000
_cell_angle_beta 52.272585
_cell_angle_gamma 90.000000
_cell_volume 2391.140037
_symmetry_space_group_name_H-M "C 2/M"
_symmetry_group_IT_number 12
_symmetry_cell_setting 'monoclinic'
loop_
_space_group_symop_operation_xyz
x,y,z
-x,y,-z
-x,-y,-z
x,-y,z
1/2+x,1/2+y,z
1/2-x,1/2+y,-z
1/2-x,1/2-y,-z
1/2+x,1/2-y,z
loop_
_atom_site_type_symbol
_atom_site_label
_atom_site_fract_x
_atom_site_fract_y
_atom_site_fract_z
Si Si1 0.444283 0.354902 0.981492
Si Si2 0.184192 0.217076 0.717248
Si Si3 0.331236 0.141404 0.482855
Si Si4 0.909492 0.643922 0.851971
Si Si5 0.265047 0.857960 0.145319
Si Si6 0.846367 0.349819 0.711804
O O1 0.459604 0.500000 0.916217
O O2 0.370985 0.359202 0.136920
O O3 0.500000 0.309653 0.000000
O O4 0.449173 0.253816 0.870618
O O5 0.249679 0.129637 0.606161
O O6 0.149791 0.261098 0.643091
O O7 0.209954 0.340344 0.756592
O O8 0.367187 0.185804 0.554572
O O9 0.358453 0.000000 0.413573
O O10 0.939261 0.500000 0.841888
O O11 0.910808 0.670023 0.713423
O O12 0.829605 0.647698 0.980204
O O13 0.214500 0.744934 0.171747
O O14 0.230254 0.000000 0.181732
O O15 0.821259 0.500000 0.748419
#
# Coordination Sequence:
#
# PCOD8105958 Si02
#       6
#     8   8   8   8   8   8
#     4  10  21  36  54  74  94 121 161 206 248 289
#     4   9  17  29  46  70  99 130 160 197 241 283
#     4   9  16  27  46  71 100 132 160 189 230 285
#     4   9  18  31  46  67  96 126 158 198 240 285
#     4   9  16  25  40  65  96 128 162 198 236 282
#     4   9  17  28  43  67  98 130 161 192 233 285
#
# _framework density 20.074107999999999
#
# number of rings (size 3 to 8) (size 9 to 14) (size 15 to 20)
#    0.000    2.833    0.000    1.500    0.000    5.667 
#    0.000    0.833    0.000    1.000    0.000    5.833 
#    0.000    0.000    0.000    0.000    0.000    0.000 
#
# Total GULP energy -297372.255692 kJ/mol
# GULP energy per Si atom -12390.510654 kJ/mol
# Density = 2.002842 g / cm^3
# Si number density = 20.074108 Si / 1000 Ang^3
#
#
#
# Elastic Constant Matrix: (Units=GPa)
#
#
# Indices 1 2 3 4 5 6 
#
# 1 89.3129 52.1191 22.9976 0.0000 40.5780 0.0000
# 2 52.1191 116.5614 13.5752 0.0000 30.8881 0.0000
# 3 22.9976 13.5752 40.8875 0.0000 32.0026 0.0000
# 4 0.0000 0.0000 0.0000 13.4096 0.0000 6.9471
# 5 40.5780 30.8881 32.0026 0.0000 39.4117 0.0000
# 6 0.0000 0.0000 0.0000 6.9471 0.0000 29.4064
#
#
#
# Elastic Compliance Matrix: (Units=1/GPa)
#
#
# Indices 1 2 3 4 5 6 
#
# 1 0.025657 -0.003883 0.014137 0.000000 -0.034852 0.000000
# 2 -0.003883 0.012568 0.007111 0.000000 -0.011626 0.000000
# 3 0.014137 0.007111 0.082041 0.000000 -0.086747 0.000000
# 4 0.000000 0.000000 0.000000 0.084974 0.000000 -0.020075
# 5 -0.034852 -0.011626 -0.086747 0.000000 0.140808 0.000000
# 6 0.000000 0.000000 0.000000 -0.020075 0.000000 0.038749
#
#
# Mechanical properties :
#
#
# Convention : Reuss Voigt Hill
#
# Bulk Modulus (GPa) = 6.45174 47.12727 26.78951
# Shear Modulus (GPa) = 12.44613 26.98355 19.71484
#
# Velocity S-wave (km/s) = 2.49270 3.67031 3.13725
# Velocity P-wave (km/s) = 3.39200 6.44121 5.14756
#
# Compressibility (1/GPa) = 0.15499689
#
# Stress axis : x y z
#
# Youngs Moduli (GPa) = 38.97579 79.56614 12.18901
#
# Poissons Ratio (x) = 0.30896 -0.17232
# Poissons Ratio (y) = 0.15134 -0.08668
# Poissons Ratio (z) = -0.55100 -0.56582
#
# Static dielectric constant tensor:
#      x y z
#    x 3.444700 0.000000 0.457270 
#    y 0.000000 3.595280 0.000000 
#    z 0.457270 0.000000 3.536860 
# 
# 
# High freq. dielectric constant tensor:
#      x y z
#    x 1.757900 0.000000 0.041040 
#    y 0.000000 1.780610 0.000000 
#    z 0.041040 0.000000 1.760550 
# 
# From -- ./inp_files/153719.got.cif
#   From: 2010.06.25/outbox.cif.g09.slc.cpg/sg12_77_cif.got.tgz:153719.got - 2010.06.28 00:19:55.
