data_PCOD8105428
_publ_section_title
;
Structure prediction by ZEFSAII (Michael W. Deem and Ramdas Pophale) SiO2 
 PCOD8105428
Probable space group: C 2/M
;
_chemical_formula_sum "Si O2"
_cell_formula_units_Z 36
_cell_length_a 18.792089
_cell_length_b 10.202334
_cell_length_c 14.749704
_cell_angle_alpha 90.000000
_cell_angle_beta 38.875895
_cell_angle_gamma 90.000000
_cell_volume 1774.865560
_symmetry_space_group_name_H-M "C 2/M"
_symmetry_group_IT_number 12
_symmetry_cell_setting 'monoclinic'
loop_
_space_group_symop_operation_xyz
x,y,z
-x,y,-z
-x,-y,-z
x,-y,z
1/2+x,1/2+y,z
1/2-x,1/2+y,-z
1/2-x,1/2-y,-z
1/2+x,1/2-y,z
loop_
_atom_site_type_symbol
_atom_site_label
_atom_site_fract_x
_atom_site_fract_y
_atom_site_fract_z
Si Si1 0.182583 0.645526 0.449558
Si Si2 0.000000 0.252340 0.500000
Si Si3 0.639412 0.852813 0.702381
Si Si4 0.103926 0.351175 0.091682
Si Si5 0.851136 0.852987 0.799413
O O1 0.233800 0.500000 0.387209
O O2 0.074103 0.657537 0.492564
O O3 0.279769 0.750357 0.326372
O O4 0.142883 0.670156 0.591114
O O5 0.914463 0.161119 0.641303
O O6 0.507528 0.829461 0.860499
O O7 0.679195 0.000000 0.688771
O O8 0.101344 0.500000 0.133771
O O9 0.099833 0.250462 0.178525
O O10 0.216130 0.328647 0.919610
O O11 0.872499 0.000000 0.815467
#
# Coordination Sequence:
#
# PCOD8105428 Si02
#       5
#     8   4   8   8   8
#     4  10  21  35  56  83 111 148 188 229 279 330
#     4  12  22  36  54  86 122 148 178 230 284 338
#     4   9  18  36  58  81 108 144 188 233 276 330
#     4   9  18  37  59  81 109 148 191 229 275 331
#     4  10  21  34  55  84 115 148 186 230 276 329
#
# _framework density 20.283225999999999
#
# number of rings (size 3 to 8) (size 9 to 14) (size 15 to 20)
#    0.000    2.222    2.222    0.667    0.000    3.556 
#    0.000    1.111    0.000    5.333    0.000    0.000 
#    0.000    0.000    0.000    0.000    0.000    0.000 
#
# Total GULP energy -223135.455669 kJ/mol
# GULP energy per Si atom -12396.414204 kJ/mol
# Density = 2.023706 g / cm^3
# Si number density = 20.283226 Si / 1000 Ang^3
#
#
#
# Elastic Constant Matrix: (Units=GPa)
#
#
# Indices 1 2 3 4 5 6 
#
# 1 97.7346 56.7053 29.0967 0.0000 -26.5815 0.0000
# 2 56.7053 132.0639 48.7196 0.0000 -23.3881 0.0000
# 3 29.0967 48.7196 106.6975 0.0000 -19.3166 0.0000
# 4 0.0000 0.0000 0.0000 20.2618 0.0000 -7.5715
# 5 -26.5815 -23.3881 -19.3166 0.0000 30.9472 0.0000
# 6 0.0000 0.0000 0.0000 -7.5715 0.0000 24.9676
#
#
#
# Elastic Compliance Matrix: (Units=1/GPa)
#
#
# Indices 1 2 3 4 5 6 
#
# 1 0.015835 -0.004980 -0.000297 0.000000 0.009652 0.000000
# 2 -0.004980 0.011362 -0.003438 0.000000 0.002163 0.000000
# 3 -0.000297 -0.003438 0.011845 0.000000 0.004540 0.000000
# 4 0.000000 0.000000 0.000000 0.055662 0.000000 0.016880
# 5 0.009652 0.002163 0.004540 0.000000 0.045072 0.000000
# 6 0.000000 0.000000 0.000000 0.016880 0.000000 0.045171
#
#
# Mechanical properties :
#
#
# Convention : Reuss Voigt Hill
#
# Bulk Modulus (GPa) = 46.27225 67.28213 56.77719
# Shear Modulus (GPa) = 23.85716 28.70026 26.27871
#
# Velocity S-wave (km/s) = 3.43330 3.76570 3.60333
# Velocity P-wave (km/s) = 6.21123 7.22154 6.73535
#
# Compressibility (1/GPa) = 0.02161122
#
# Stress axis : x y z
#
# Youngs Moduli (GPa) = 63.15195 88.01266 84.42275
#
# Poissons Ratio (x) = 0.43833 0.02505
# Poissons Ratio (y) = 0.31452 0.29027
# Poissons Ratio (z) = 0.01874 0.30262
#
# Static dielectric constant tensor:
#      x y z
#    x 3.489880 0.000000 -0.396630 
#    y 0.000000 3.752080 0.000000 
#    z -0.396630 0.000000 3.768290 
# 
# 
# High freq. dielectric constant tensor:
#      x y z
#    x 1.771200 0.000000 -0.030840 
#    y 0.000000 1.798390 0.000000 
#    z -0.030840 0.000000 1.783350 
# 
# From -- ./inp_files/230774.got.cif
#   From: 2010.06.25/outbox.cif.g09.slc.cpg/sg12_116_cif.got.tgz:230774.got - 2010.06.28 00:19:55.
