data_PCOD8105202
_publ_section_title
;
Structure prediction by ZEFSAII (Michael W. Deem and Ramdas Pophale) SiO2 
 PCOD8105202
Probable space group: C 2/M
;
_chemical_formula_sum "Si O2"
_cell_formula_units_Z 52
_cell_length_a 16.688408
_cell_length_b 11.841951
_cell_length_c 19.047584
_cell_angle_alpha 90.000000
_cell_angle_beta 138.402306
_cell_angle_gamma 90.000000
_cell_volume 2499.068691
_symmetry_space_group_name_H-M "C 2/M"
_symmetry_group_IT_number 12
_symmetry_cell_setting 'monoclinic'
loop_
_space_group_symop_operation_xyz
x,y,z
-x,y,-z
-x,-y,-z
x,-y,z
1/2+x,1/2+y,z
1/2-x,1/2+y,-z
1/2-x,1/2-y,-z
1/2+x,1/2-y,z
loop_
_atom_site_type_symbol
_atom_site_label
_atom_site_fract_x
_atom_site_fract_y
_atom_site_fract_z
Si Si1 0.909805 0.500000 0.877057
Si Si2 0.773321 0.126522 0.920927
Si Si3 0.428250 0.257870 0.380730
Si Si4 0.494594 0.196484 0.273917
Si Si5 0.626684 0.000000 0.293297
Si Si6 0.672463 0.751223 0.178680
Si Si7 0.380627 0.500000 0.378472
Si Si8 0.987339 0.870190 0.155842
O O1 0.965944 0.500000 0.834810
O O2 0.827133 0.388152 0.825196
O O3 0.000000 0.500000 0.000000
O O4 0.631553 0.147757 0.837381
O O5 0.833757 0.211088 0.905334
O O6 0.792101 0.000000 0.904427
O O7 0.845507 0.140217 0.041858
O O8 0.500000 0.235140 0.500000
O O9 0.502095 0.208525 0.363108
O O10 0.294617 0.202170 0.295649
O O11 0.394537 0.387514 0.341425
O O12 0.511609 0.318189 0.248567
O O13 0.602555 0.111811 0.323377
O O14 0.764028 0.000000 0.354212
O O15 0.559939 0.702726 0.146666
O O16 0.500000 0.500000 0.500000
O O17 0.030456 0.000000 0.184838
#
# Coordination Sequence:
#
# PCOD8105202 Si02
#       8
#     4   8   8   8   4   8   4   8
#     4  12  22  36  62  97 127 172 213 252 301 389
#     4  10  21  38  58  88 124 174 206 247 317 387
#     4  10  22  42  67  90 118 167 216 267 320 383
#     4  11  23  39  64  90 131 159 209 265 319 377
#     4  12  22  44  65  96 131 169 206 263 324 371
#     4  11  21  38  62  88 126 166 218 261 309 379
#     4  10  20  42  70  91 121 163 210 260 319 377
#     4  11  22  37  58  90 128 165 205 259 313 382
#
# _framework density 20.807752000000001
#
# number of rings (size 3 to 8) (size 9 to 14) (size 15 to 20)
#    0.000    1.231    3.846    2.308    1.077    1.231 
#    1.385    7.308    0.000    0.000    0.000    0.000 
#    0.000    0.000    0.000    0.000    0.000    0.000 
#
# Total GULP energy -322153.034394 kJ/mol
# GULP energy per Si atom -12390.501323 kJ/mol
# Density = 2.076039 g / cm^3
# Si number density = 20.807752 Si / 1000 Ang^3
#
#
#
# Elastic Constant Matrix: (Units=GPa)
#
#
# Indices 1 2 3 4 5 6 
#
# 1 92.9299 42.8038 36.6769 0.0000 -4.0086 0.0000
# 2 42.8038 124.6268 22.8678 0.0000 -7.5080 0.0000
# 3 36.6769 22.8678 110.9627 0.0000 -9.8844 0.0000
# 4 0.0000 0.0000 0.0000 17.4176 0.0000 -4.5279
# 5 -4.0086 -7.5080 -9.8844 0.0000 30.3219 0.0000
# 6 0.0000 0.0000 0.0000 -4.5279 0.0000 40.8794
#
#
#
# Elastic Compliance Matrix: (Units=1/GPa)
#
#
# Indices 1 2 3 4 5 6 
#
# 1 0.014200 -0.004193 -0.003867 0.000000 -0.000422 0.000000
# 2 -0.004193 0.009649 -0.000452 0.000000 0.001687 0.000000
# 3 -0.003867 -0.000452 0.010637 0.000000 0.002844 0.000000
# 4 0.000000 0.000000 0.000000 0.059115 0.000000 0.006548
# 5 -0.000422 0.001687 0.002844 0.000000 0.034269 0.000000
# 6 0.000000 0.000000 0.000000 0.006548 0.000000 0.025187
#
#
# Mechanical properties :
#
#
# Convention : Reuss Voigt Hill
#
# Bulk Modulus (GPa) = 57.27013 59.24627 58.25820
# Shear Modulus (GPa) = 28.42494 32.80184 30.61339
#
# Velocity S-wave (km/s) = 3.70005 3.97473 3.83985
# Velocity P-wave (km/s) = 6.77031 7.04270 6.90785
#
# Compressibility (1/GPa) = 0.01746111
#
# Stress axis : x y z
#
# Youngs Moduli (GPa) = 70.42184 103.64112 94.01327
#
# Poissons Ratio (x) = 0.43456 0.36356
# Poissons Ratio (y) = 0.29528 0.04252
# Poissons Ratio (z) = 0.27233 0.04687
#
# Static dielectric constant tensor:
#      x y z
#    x 3.141720 0.000000 -0.693790 
#    y 0.000000 3.611880 0.000000 
#    z -0.693790 0.000000 2.588450 
# 
# 
# High freq. dielectric constant tensor:
#      x y z
#    x 1.805550 0.000000 0.005280 
#    y 0.000000 1.822910 0.000000 
#    z 0.005280 0.000000 1.805970 
# 
# From -- ./inp_files/315817.got.cif
#   From: 2010.06.25/outbox.cif.g09.slc.cpg/sg12_158_cif.got.tgz:315817.got - 2010.06.28 00:19:55.
