data_PCOD8105953
_publ_section_title
;
Structure prediction by ZEFSAII (Michael W. Deem and Ramdas Pophale) SiO2 
 PCOD8105953
Probable space group: C 2/M
;
_chemical_formula_sum "Si O2"
_cell_formula_units_Z 48
_cell_length_a 21.170919
_cell_length_b 16.476393
_cell_length_c 9.840831
_cell_angle_alpha 90.000000
_cell_angle_beta 131.553022
_cell_angle_gamma 90.000000
_cell_volume 2568.821138
_symmetry_space_group_name_H-M "C 2/M"
_symmetry_group_IT_number 12
_symmetry_cell_setting 'monoclinic'
loop_
_space_group_symop_operation_xyz
x,y,z
-x,y,-z
-x,-y,-z
x,-y,z
1/2+x,1/2+y,z
1/2-x,1/2+y,-z
1/2-x,1/2-y,-z
1/2+x,1/2-y,z
loop_
_atom_site_type_symbol
_atom_site_label
_atom_site_fract_x
_atom_site_fract_y
_atom_site_fract_z
Si Si1 0.678591 0.249313 0.219121
Si Si2 0.160209 0.210484 0.899297
Si Si3 0.981524 0.335660 0.328642
Si Si4 0.402486 0.591007 0.396213
Si Si5 0.631566 0.726783 0.445886
Si Si6 0.419242 0.908419 0.975702
O O1 0.633043 0.286997 0.285575
O O2 0.778617 0.258712 0.373298
O O3 0.646756 0.299876 0.042366
O O4 0.655173 0.153999 0.168015
O O5 0.152637 0.125738 0.808613
O O6 0.086623 0.266390 0.733125
O O7 0.250000 0.250000 0.000000
O O8 0.064849 0.296242 0.384057
O O9 0.000000 0.378875 0.500000
O O10 0.944442 0.400456 0.170095
O O11 0.500000 0.592242 0.500000
O O12 0.370061 0.500000 0.376151
O O13 0.389870 0.641416 0.515953
O O14 0.386953 0.000000 0.903341
O O15 0.500000 0.887800 0.000000
#
# Coordination Sequence:
#
# PCOD8105953 Si02
#       6
#     8   8   8   8   8   8
#     4  10  22  33  61  83 111 151 194 231 276 338
#     4  11  19  36  57  87 110 144 190 237 276 341
#     4  11  19  34  59  79 110 150 189 230 272 340
#     4  11  22  38  60  85 116 153 191 239 290 336
#     4  11  19  38  55  86 110 148 195 231 274 343
#     4  10  21  36  53  82 117 145 180 232 286 330
#
# _framework density 18.685614000000001
#
# number of rings (size 3 to 8) (size 9 to 14) (size 15 to 20)
#    0.000    1.333    6.667    0.000    0.000    1.000 
#    0.000    0.833    0.000    6.000    0.000    0.000 
#    0.000    0.000    0.000    0.000    0.000    0.000 
#
# Total GULP energy -297611.926587 kJ/mol
# GULP energy per Si atom -12400.496941 kJ/mol
# Density = 1.864308 g / cm^3
# Si number density = 18.685614 Si / 1000 Ang^3
#
#
#
# Elastic Constant Matrix: (Units=GPa)
#
#
# Indices 1 2 3 4 5 6 
#
# 1 83.5243 26.5494 30.4033 0.0000 -2.8093 0.0000
# 2 26.5494 87.8476 30.5284 0.0000 -9.8870 0.0000
# 3 30.4033 30.5284 99.2330 0.0000 -18.9820 0.0000
# 4 0.0000 0.0000 0.0000 23.8438 0.0000 -3.3272
# 5 -2.8093 -9.8870 -18.9820 0.0000 43.8147 0.0000
# 6 0.0000 0.0000 0.0000 -3.3272 0.0000 19.8931
#
#
#
# Elastic Compliance Matrix: (Units=1/GPa)
#
#
# Indices 1 2 3 4 5 6 
#
# 1 0.014273 -0.003200 -0.003655 0.000000 -0.001390 0.000000
# 2 -0.003200 0.013530 -0.002876 0.000000 0.001602 0.000000
# 3 -0.003655 -0.002876 0.012989 0.000000 0.004744 0.000000
# 4 0.000000 0.000000 0.000000 0.042942 0.000000 0.007182
# 5 -0.001390 0.001602 0.004744 0.000000 0.025151 0.000000
# 6 0.000000 0.000000 0.000000 0.007182 0.000000 0.051470
#
#
# Mechanical properties :
#
#
# Convention : Reuss Voigt Hill
#
# Bulk Modulus (GPa) = 46.87761 49.50745 48.19253
# Shear Modulus (GPa) = 26.74852 29.71859 28.23355
#
# Velocity S-wave (km/s) = 3.78763 3.99238 3.89135
# Velocity P-wave (km/s) = 6.65358 6.91408 6.78508
#
# Compressibility (1/GPa) = 0.02133215
#
# Stress axis : x y z
#
# Youngs Moduli (GPa) = 70.06099 73.90928 76.98769
#
# Poissons Ratio (x) = 0.23652 0.28135
# Poissons Ratio (y) = 0.22421 0.22138
# Poissons Ratio (z) = 0.25604 0.21253
#
# Static dielectric constant tensor:
#      x y z
#    x 3.813110 0.000000 -0.264070 
#    y 0.000000 3.207170 0.000000 
#    z -0.264070 0.000000 3.745960 
# 
# 
# High freq. dielectric constant tensor:
#      x y z
#    x 1.743500 0.000000 -0.005160 
#    y 0.000000 1.686630 0.000000 
#    z -0.005160 0.000000 1.737900 
# 
# From -- ./inp_files/87143.got.cif
#   From: 2010.06.25/outbox.cif.g09.slc.cpg/sg12_44_cif.got.tgz:87143.got - 2010.06.28 00:19:55.
