data_PCOD8105582
_publ_section_title
;
Structure prediction by ZEFSAII (Michael W. Deem and Ramdas Pophale) SiO2 
 PCOD8105582
Probable space group: C 2/M
;
_chemical_formula_sum "Si O2"
_cell_formula_units_Z 56
_cell_length_a 25.506306
_cell_length_b 13.759251
_cell_length_c 16.933301
_cell_angle_alpha 90.000000
_cell_angle_beta 28.695927
_cell_angle_gamma 90.000000
_cell_volume 2853.454806
_symmetry_space_group_name_H-M "C 2/M"
_symmetry_group_IT_number 12
_symmetry_cell_setting 'monoclinic'
loop_
_space_group_symop_operation_xyz
x,y,z
-x,y,-z
-x,-y,-z
x,-y,z
1/2+x,1/2+y,z
1/2-x,1/2+y,-z
1/2-x,1/2-y,-z
1/2+x,1/2-y,z
loop_
_atom_site_type_symbol
_atom_site_label
_atom_site_fract_x
_atom_site_fract_y
_atom_site_fract_z
Si Si1 0.400528 0.386724 0.850910
Si Si2 0.339730 0.225919 0.225488
Si Si3 0.459646 0.884575 0.199550
Si Si4 0.667718 0.225345 0.941492
Si Si5 0.856318 0.893638 0.469043
Si Si6 0.118029 0.887728 0.308656
Si Si7 0.247999 0.894617 0.562007
O O1 0.387205 0.500000 0.894393
O O2 0.523936 0.348012 0.694209
O O3 0.367306 0.372444 0.804218
O O4 0.329901 0.318115 0.002766
O O5 0.431477 0.163969 0.151341
O O6 0.372029 0.254472 0.094014
O O7 0.224720 0.169670 0.371379
O O8 0.323589 0.328018 0.288587
O O9 0.368037 0.851411 0.384340
O O10 0.456667 0.000000 0.189981
O O11 0.574699 0.853807 0.086851
O O12 0.787126 0.177845 0.779191
O O13 0.812689 0.904459 0.439641
O O14 0.865489 0.000000 0.497829
O O15 0.000000 0.854231 0.500000
O O16 0.136460 0.000000 0.306997
O O17 0.257920 0.000000 0.589889
#
# Coordination Sequence:
#
# PCOD8105582 Si02
#       7
#     8   8   8   8   8   8   8
#     4  10  21  38  57  78 107 138 172 216 262 311
#     4  11  20  31  51  78 110 145 178 211 252 310
#     4  10  21  35  52  78 111 143 176 218 265 306
#     4  12  23  34  54  81 110 141 169 210 268 320
#     4   9  17  32  55  77 101 139 181 219 257 297
#     4  10  22  40  61  82 101 128 173 224 268 312
#     4   9  18  33  52  75 106 144 184 218 247 297
#
# _framework density 19.625333000000001
#
# number of rings (size 3 to 8) (size 9 to 14) (size 15 to 20)
#    0.000    1.857    0.000    6.857    0.000    4.571 
#    0.000    0.000    0.000    4.714    0.000    0.000 
#    0.000    0.000    0.000    0.000    0.000    0.000 
#
# Total GULP energy -347022.111161 kJ/mol
# GULP energy per Si atom -12393.646827 kJ/mol
# Density = 1.958066 g / cm^3
# Si number density = 19.625333 Si / 1000 Ang^3
#
#
#
# Elastic Constant Matrix: (Units=GPa)
#
#
# Indices 1 2 3 4 5 6 
#
# 1 52.6591 44.9534 45.2843 0.0000 -2.5297 0.0000
# 2 44.9534 72.0313 27.6586 0.0000 6.8225 0.0000
# 3 45.2843 27.6586 61.1161 0.0000 -7.4019 0.0000
# 4 0.0000 0.0000 0.0000 16.6659 0.0000 -7.1950
# 5 -2.5297 6.8225 -7.4019 0.0000 39.1255 0.0000
# 6 0.0000 0.0000 0.0000 -7.1950 0.0000 24.0559
#
#
#
# Elastic Compliance Matrix: (Units=1/GPa)
#
#
# Indices 1 2 3 4 5 6 
#
# 1 0.110967 -0.046243 -0.060842 0.000000 0.003728 0.000000
# 2 -0.046243 0.036874 0.016821 0.000000 -0.006238 0.000000
# 3 -0.060842 0.016821 0.054242 0.000000 0.003395 0.000000
# 4 0.000000 0.000000 0.000000 0.068899 0.000000 0.020607
# 5 0.003728 -0.006238 0.003395 0.000000 0.027530 0.000000
# 6 0.000000 0.000000 0.000000 0.020607 0.000000 0.047733
#
#
# Mechanical properties :
#
#
# Convention : Reuss Voigt Hill
#
# Bulk Modulus (GPa) = 46.39401 46.84434 46.61917
# Shear Modulus (GPa) = 9.36400 20.49681 14.93040
#
# Velocity S-wave (km/s) = 2.18672 3.23523 2.76120
# Velocity P-wave (km/s) = 5.48332 6.15441 5.82853
#
# Compressibility (1/GPa) = 0.02155451
#
# Stress axis : x y z
#
# Youngs Moduli (GPa) = 9.01169 27.11914 18.43576
#
# Poissons Ratio (x) = 1.25408 1.12167
# Poissons Ratio (y) = 0.41673 -0.31011
# Poissons Ratio (z) = 0.54829 -0.45617
#
# Static dielectric constant tensor:
#      x y z
#    x 3.481100 0.000000 -0.208390 
#    y 0.000000 3.223750 0.000000 
#    z -0.208390 0.000000 3.903970 
# 
# 
# High freq. dielectric constant tensor:
#      x y z
#    x 1.752970 0.000000 -0.007810 
#    y 0.000000 1.758120 0.000000 
#    z -0.007810 0.000000 1.765230 
# 
# From -- ./inp_files/240881.got.cif
#   From: 2010.06.25/outbox.cif.g09.slc.cpg/sg12_121_cif.got.tgz:240881.got - 2010.06.28 00:19:55.
