data_PCOD8105071
_publ_section_title
;
Structure prediction by ZEFSAII (Michael W. Deem and Ramdas Pophale) SiO2 
 PCOD8105071
Probable space group: C 2/M
;
_chemical_formula_sum "Si O2"
_cell_formula_units_Z 56
_cell_length_a 12.013650
_cell_length_b 24.442267
_cell_length_c 9.760377
_cell_angle_alpha 90.000000
_cell_angle_beta 111.326496
_cell_angle_gamma 90.000000
_cell_volume 2669.787542
_symmetry_space_group_name_H-M "C 2/M"
_symmetry_group_IT_number 12
_symmetry_cell_setting 'monoclinic'
loop_
_space_group_symop_operation_xyz
x,y,z
-x,y,-z
-x,-y,-z
x,-y,z
1/2+x,1/2+y,z
1/2-x,1/2+y,-z
1/2-x,1/2-y,-z
1/2+x,1/2-y,z
loop_
_atom_site_type_symbol
_atom_site_label
_atom_site_fract_x
_atom_site_fract_y
_atom_site_fract_z
Si Si1 0.873934 0.809562 0.678363
Si Si2 0.780235 0.641660 0.170578
Si Si3 0.384322 0.560015 0.035402
Si Si4 0.769749 0.354250 0.615973
Si Si5 0.141187 0.437998 0.558333
Si Si6 0.051003 0.901382 0.660977
Si Si7 0.489194 0.795683 0.834896
O O1 0.806897 0.815142 0.794087
O O2 0.774213 0.806917 0.511228
O O3 0.962493 0.757908 0.730348
O O4 0.950192 0.862990 0.680668
O O5 0.712529 0.608512 0.020552
O O6 0.816028 0.594396 0.290840
O O7 0.889618 0.675900 0.160183
O O8 0.336536 0.500000 0.967976
O O9 0.500000 0.576636 0.000000
O O10 0.417522 0.554170 0.210625
O O11 0.808101 0.409510 0.554914
O O12 0.665411 0.365112 0.676502
O O13 0.880231 0.336129 0.758216
O O14 0.190574 0.500000 0.583536
O O15 0.000000 0.437232 0.500000
O O16 0.000000 0.929965 0.500000
O O17 0.500000 0.781322 0.000000
#
# Coordination Sequence:
#
# PCOD8105071 Si02
#       7
#     8   8   8   8   8   8   8
#     4  10  24  41  66  92 127 178 219 271 327 389
#     4  11  23  43  66  94 136 165 222 275 320 400
#     4  11  23  41  68  97 132 175 217 268 333 395
#     4  10  22  44  63  95 135 168 215 278 326 393
#     4  10  20  40  70  97 127 171 218 267 326 393
#     4  10  22  43  64  93 135 168 218 278 326 388
#     4  12  26  40  63  96 129 180 222 269 332 388
#
# _framework density 20.975453000000002
#
# number of rings (size 3 to 8) (size 9 to 14) (size 15 to 20)
#    0.000    1.429    2.857    1.714    4.000    1.429 
#    7.714    0.000    0.000    2.143    0.000    0.000 
#    0.000    0.000    0.000    0.000    0.000    0.000 
#
# Total GULP energy -347114.363567 kJ/mol
# GULP energy per Si atom -12396.941556 kJ/mol
# Density = 2.092771 g / cm^3
# Si number density = 20.975453 Si / 1000 Ang^3
#
#
#
# Elastic Constant Matrix: (Units=GPa)
#
#
# Indices 1 2 3 4 5 6 
#
# 1 100.3499 20.1275 34.1276 0.0000 9.9482 0.0000
# 2 20.1275 83.6886 31.7253 0.0000 14.2420 0.0000
# 3 34.1276 31.7253 113.0589 0.0000 -0.7814 0.0000
# 4 0.0000 0.0000 0.0000 22.2727 0.0000 7.2653
# 5 9.9482 14.2420 -0.7814 0.0000 24.2243 0.0000
# 6 0.0000 0.0000 0.0000 7.2653 0.0000 31.1474
#
#
#
# Elastic Compliance Matrix: (Units=1/GPa)
#
#
# Indices 1 2 3 4 5 6 
#
# 1 0.011701 -0.000791 -0.003341 0.000000 -0.004448 0.000000
# 2 -0.000791 0.015170 -0.004079 0.000000 -0.008726 0.000000
# 3 -0.003341 -0.004079 0.011026 0.000000 0.004126 0.000000
# 4 0.000000 0.000000 0.000000 0.048596 0.000000 -0.011335
# 5 -0.004448 -0.008726 0.004126 0.000000 0.048371 0.000000
# 6 0.000000 0.000000 0.000000 -0.011335 0.000000 0.034749
#
#
# Mechanical properties :
#
#
# Convention : Reuss Voigt Hill
#
# Bulk Modulus (GPa) = 46.56058 52.11760 49.33909
# Shear Modulus (GPa) = 25.88089 29.60333 27.74211
#
# Velocity S-wave (km/s) = 3.51645 3.76085 3.64070
# Velocity P-wave (km/s) = 6.22359 6.61510 6.42233
#
# Compressibility (1/GPa) = 0.02147739
#
# Stress axis : x y z
#
# Youngs Moduli (GPa) = 85.46378 65.91829 90.69139
#
# Poissons Ratio (x) = 0.05212 0.30299
# Poissons Ratio (y) = 0.06757 0.36989
# Poissons Ratio (z) = 0.28552 0.26885
#
# Static dielectric constant tensor:
#      x y z
#    x 3.770390 0.000000 0.115700 
#    y 0.000000 3.634930 0.000000 
#    z 0.115700 0.000000 3.983090 
# 
# 
# High freq. dielectric constant tensor:
#      x y z
#    x 1.829180 0.000000 0.006110 
#    y 0.000000 1.812180 0.000000 
#    z 0.006110 0.000000 1.829210 
# 
# From -- ./inp_files/53292.got.cif
#   From: 2010.06.25/outbox.cif.g09.slc.cpg/sg12_27_cif.got.tgz:53292.got - 2010.06.28 00:19:55.
