data_PCOD8105859
_publ_section_title
;
Structure prediction by ZEFSAII (Michael W. Deem and Ramdas Pophale) SiO2 
 PCOD8105859
Probable space group: C 2/M
;
_chemical_formula_sum "Si O2"
_cell_formula_units_Z 64
_cell_length_a 17.782953
_cell_length_b 15.346297
_cell_length_c 13.934396
_cell_angle_alpha 90.000000
_cell_angle_beta 59.408585
_cell_angle_gamma 90.000000
_cell_volume 3273.460572
_symmetry_space_group_name_H-M "C 2/M"
_symmetry_group_IT_number 12
_symmetry_cell_setting 'monoclinic'
loop_
_space_group_symop_operation_xyz
x,y,z
-x,y,-z
-x,-y,-z
x,-y,z
1/2+x,1/2+y,z
1/2-x,1/2+y,-z
1/2-x,1/2-y,-z
1/2+x,1/2-y,z
loop_
_atom_site_type_symbol
_atom_site_label
_atom_site_fract_x
_atom_site_fract_y
_atom_site_fract_z
Si Si1 0.113888 0.097556 0.250628
Si Si2 0.676254 0.245192 0.745616
Si Si3 0.102124 0.398808 0.933921
Si Si4 0.456837 0.281691 0.330419
Si Si5 0.446423 0.150030 0.618598
Si Si6 0.357024 0.687149 0.578716
Si Si7 0.261654 0.904959 0.801510
Si Si8 0.763553 0.649088 0.011019
O O1 0.132085 0.108237 0.352913
O O2 0.202227 0.117039 0.136606
O O3 0.041518 0.161009 0.253584
O O4 0.082190 0.000000 0.253058
O O5 0.648114 0.164383 0.828322
O O6 0.596911 0.275785 0.731975
O O7 0.756029 0.212282 0.627833
O O8 0.707790 0.327758 0.787582
O O9 0.121702 0.500000 0.895759
O O10 0.138725 0.373285 0.015605
O O11 0.000000 0.379720 0.000000
O O12 0.486549 0.183846 0.342502
O O13 0.399241 0.332500 0.448127
O O14 0.500000 0.097287 0.500000
O O15 0.409578 0.235053 0.591805
O O16 0.366162 0.097001 0.714595
O O17 0.228662 0.000000 0.786480
O O18 0.245403 0.902412 0.925512
O O19 0.750000 0.750000 0.000000
#
# Coordination Sequence:
#
# PCOD8105859 Si02
#       8
#     8   8   8   8   8   8   8   8
#     4  11  22  37  60  91 122 155 206 261 305 361
#     4  11  22  39  61  86 127 162 198 249 305 365
#     4  11  25  42  64  92 122 154 200 260 315 364
#     4  10  21  35  61  87 120 160 202 247 307 362
#     4   8  17  36  58  84 114 152 205 251 291 346
#     4   9  18  37  59  86 113 160 207 247 300 357
#     4  11  23  38  60  88 120 163 204 239 292 366
#     4  12  22  42  65  88 119 159 203 247 310 367
#
# _framework density 19.551174
#
# number of rings (size 3 to 8) (size 9 to 14) (size 15 to 20)
#    0.000    1.625    2.500    4.125    3.500    1.750 
#    0.000    0.000    0.000    9.375    0.000    0.000 
#    0.000    0.000    0.000    0.000    0.000    0.000 
#
# Total GULP energy -396690.515747 kJ/mol
# GULP energy per Si atom -12396.578617 kJ/mol
# Density = 1.950668 g / cm^3
# Si number density = 19.551174 Si / 1000 Ang^3
#
#
#
# Elastic Constant Matrix: (Units=GPa)
#
#
# Indices 1 2 3 4 5 6 
#
# 1 131.4405 38.4667 26.5403 0.0000 5.3360 0.0000
# 2 38.4667 106.5112 34.4447 0.0000 -3.0601 0.0000
# 3 26.5403 34.4447 77.9697 0.0000 2.0233 0.0000
# 4 0.0000 0.0000 0.0000 -5.6671 0.0000 12.6616
# 5 5.3360 -3.0601 2.0233 0.0000 28.5967 0.0000
# 6 0.0000 0.0000 0.0000 12.6616 0.0000 11.7489
#
#
#
# Elastic Compliance Matrix: (Units=1/GPa)
#
#
# Indices 1 2 3 4 5 6 
#
# 1 0.008819 -0.002662 -0.001779 0.000000 -0.001805 0.000000
# 2 -0.002662 0.011823 -0.004371 0.000000 0.002071 0.000000
# 3 -0.001779 -0.004371 0.015394 0.000000 -0.001225 0.000000
# 4 0.000000 0.000000 0.000000 -0.051780 0.000000 0.055803
# 5 -0.001805 0.002071 -0.001225 0.000000 0.035614 0.000000
# 6 0.000000 0.000000 0.000000 0.055803 0.000000 0.024976
#
#
# Mechanical properties :
#
#
# Convention : Reuss Voigt Hill
#
# Bulk Modulus (GPa) = 54.31043 57.20274 55.75659
# Shear Modulus (GPa) = 72.87835 21.36701 47.12268
#
# Velocity S-wave (km/s) = 6.11201 3.30945 4.91473
# Velocity P-wave (km/s) = 8.81179 6.62758 7.79655
#
# Compressibility (1/GPa) = 0.01841267
#
# Stress axis : x y z
#
# Youngs Moduli (GPa) = 113.38523 84.58185 64.96093
#
# Poissons Ratio (x) = 0.22512 0.11560
# Poissons Ratio (y) = 0.30178 0.28393
# Poissons Ratio (z) = 0.20176 0.36969
#
# Static dielectric constant tensor:
#      x y z
#    x 3.352090 0.000000 -0.995330 
#    y 0.000000 3.495570 0.000000 
#    z -0.995330 0.000000 2.208900 
# 
# 
# High freq. dielectric constant tensor:
#      x y z
#    x 1.759160 0.000000 -0.011120 
#    y 0.000000 1.749210 0.000000 
#    z -0.011120 0.000000 1.767640 
# 
# From -- ./inp_files/225254.got.cif
#   From: 2010.06.25/outbox.cif.g09.slc.cpg/sg12_113_cif.got.tgz:225254.got - 2010.06.28 00:19:55.
