data_PCOD8105669
_publ_section_title
;
Structure prediction by ZEFSAII (Michael W. Deem and Ramdas Pophale) SiO2 
 PCOD8105669
Probable space group: C 2/M
;
_chemical_formula_sum "Si O2"
_cell_formula_units_Z 56
_cell_length_a 12.679976
_cell_length_b 14.063486
_cell_length_c 17.339126
_cell_angle_alpha 90.000000
_cell_angle_beta 63.179230
_cell_angle_gamma 90.000000
_cell_volume 2759.364294
_symmetry_space_group_name_H-M "C 2/M"
_symmetry_group_IT_number 12
_symmetry_cell_setting 'monoclinic'
loop_
_space_group_symop_operation_xyz
x,y,z
-x,y,-z
-x,-y,-z
x,-y,z
1/2+x,1/2+y,z
1/2-x,1/2+y,-z
1/2-x,1/2-y,-z
1/2+x,1/2-y,z
loop_
_atom_site_type_symbol
_atom_site_label
_atom_site_fract_x
_atom_site_fract_y
_atom_site_fract_z
Si Si1 0.177726 0.889399 0.012779
Si Si2 0.132783 0.238001 0.438356
Si Si3 0.932659 0.309085 0.701066
Si Si4 0.331212 0.112024 0.443901
Si Si5 0.057075 0.392845 0.063944
Si Si6 0.007372 0.778159 0.823390
Si Si7 0.701102 0.392038 0.830027
O O1 0.309613 0.854316 0.988354
O O2 0.151309 0.868834 0.931606
O O3 0.162954 0.000000 0.036489
O O4 0.089543 0.834151 0.096268
O O5 0.137948 0.262767 0.346583
O O6 0.224820 0.153738 0.426839
O O7 0.165898 0.333111 0.475377
O O8 0.000000 0.202236 0.500000
O O9 0.977069 0.224307 0.742563
O O10 0.841259 0.373620 0.779601
O O11 0.043186 0.373095 0.639015
O O12 0.310279 0.000000 0.465218
O O13 0.056845 0.500000 0.096783
O O14 0.983503 0.329552 0.148218
O O15 0.000000 0.386327 0.000000
O O16 0.133958 0.827312 0.790225
O O17 0.674955 0.500000 0.816915
#
# Coordination Sequence:
#
# PCOD8105669 Si02
#       7
#     8   8   8   8   8   8   8
#     4  10  21  39  58  82 114 159 214 262 304 354
#     4   9  21  42  65  95 127 153 193 240 289 358
#     4  11  23  38  59  89 127 161 196 245 298 357
#     4  10  21  41  68  94 122 159 196 234 290 357
#     4  10  21  35  54  80 110 149 203 257 305 358
#     4  12  23  36  60  82 116 158 208 252 310 353
#     4  11  23  39  59  86 119 159 210 260 302 350
#
# _framework density 20.294529000000001
#
# number of rings (size 3 to 8) (size 9 to 14) (size 15 to 20)
#    0.000    1.571    1.429    3.429    2.000    5.143 
#    0.000    1.429    0.000    0.857    0.000    0.000 
#    0.000    0.000    0.000    0.000    0.000    0.000 
#
# Total GULP energy -347274.135172 kJ/mol
# GULP energy per Si atom -12402.647685 kJ/mol
# Density = 2.024834 g / cm^3
# Si number density = 20.294529 Si / 1000 Ang^3
#
#
#
# Elastic Constant Matrix: (Units=GPa)
#
#
# Indices 1 2 3 4 5 6 
#
# 1 122.3240 56.0267 25.0456 0.0000 6.4205 0.0000
# 2 56.0267 100.0120 36.2828 0.0000 0.5847 0.0000
# 3 25.0456 36.2828 73.6533 0.0000 8.7754 0.0000
# 4 0.0000 0.0000 0.0000 16.9532 0.0000 -3.2438
# 5 6.4205 0.5847 8.7754 0.0000 34.8313 0.0000
# 6 0.0000 0.0000 0.0000 -3.2438 0.0000 30.6942
#
#
#
# Elastic Compliance Matrix: (Units=1/GPa)
#
#
# Indices 1 2 3 4 5 6 
#
# 1 0.011149 -0.006012 -0.000615 0.000000 -0.001799 0.000000
# 2 -0.006012 0.015478 -0.005857 0.000000 0.002324 0.000000
# 3 -0.000615 -0.005857 0.017162 0.000000 -0.004112 0.000000
# 4 0.000000 0.000000 0.000000 0.060203 0.000000 0.006362
# 5 -0.001799 0.002324 -0.004112 0.000000 0.030038 0.000000
# 6 0.000000 0.000000 0.000000 0.006362 0.000000 0.033252
#
#
# Mechanical properties :
#
#
# Convention : Reuss Voigt Hill
#
# Bulk Modulus (GPa) = 53.13567 58.96659 56.05113
# Shear Modulus (GPa) = 25.18586 28.40472 26.79529
#
# Velocity S-wave (km/s) = 3.52663 3.74521 3.63756
# Velocity P-wave (km/s) = 6.54385 6.91525 6.73211
#
# Compressibility (1/GPa) = 0.01881975
#
# Stress axis : x y z
#
# Youngs Moduli (GPa) = 89.69415 64.60774 58.26951
#
# Poissons Ratio (x) = 0.38842 0.03585
# Poissons Ratio (y) = 0.53924 0.34130
# Poissons Ratio (z) = 0.05518 0.37842
#
# Static dielectric constant tensor:
#      x y z
#    x 3.910030 0.000000 0.007720 
#    y 0.000000 3.669460 0.000000 
#    z 0.007720 0.000000 3.576250 
# 
# 
# High freq. dielectric constant tensor:
#      x y z
#    x 1.811670 0.000000 -0.000340 
#    y 0.000000 1.784600 0.000000 
#    z -0.000340 0.000000 1.784300 
# 
# From -- ./inp_files/263256.got.cif
#   From: 2010.06.25/outbox.cif.g09.slc.cpg/sg12_132_cif.got.tgz:263256.got - 2010.06.28 00:19:55.
