data_PCOD8105256
_publ_section_title
;
Structure prediction by ZEFSAII (Michael W. Deem and Ramdas Pophale) SiO2 
 PCOD8105256
Probable space group: C 2/M
;
_chemical_formula_sum "Si O2"
_cell_formula_units_Z 24
_cell_length_a 20.525911
_cell_length_b 5.363634
_cell_length_c 19.396687
_cell_angle_alpha 90.000000
_cell_angle_beta 30.082804
_cell_angle_gamma 90.000000
_cell_volume 1070.395902
_symmetry_space_group_name_H-M "C 2/M"
_symmetry_group_IT_number 12
_symmetry_cell_setting 'monoclinic'
loop_
_space_group_symop_operation_xyz
x,y,z
-x,y,-z
-x,-y,-z
x,-y,z
1/2+x,1/2+y,z
1/2-x,1/2+y,-z
1/2-x,1/2-y,-z
1/2+x,1/2-y,z
loop_
_atom_site_type_symbol
_atom_site_label
_atom_site_fract_x
_atom_site_fract_y
_atom_site_fract_z
Si Si1 0.538867 0.500000 0.544753
Si Si2 0.084892 0.500000 0.133574
Si Si3 0.385675 0.500000 0.818264
Si Si4 0.406778 0.000000 0.019661
Si Si5 0.872592 0.500000 0.568551
Si Si6 0.151498 0.000000 0.879275
O O1 0.500000 0.500000 0.500000
O O2 0.416378 0.500000 0.708605
O O3 0.623592 0.749735 0.481571
O O4 0.051315 0.749749 0.206413
O O5 0.233071 0.500000 0.970216
O O6 0.009883 0.500000 0.128185
O O7 0.317564 0.251146 0.104526
O O8 0.500000 0.000000 0.000000
O O9 0.738389 0.500000 0.732193
O O10 0.000000 0.500000 0.500000
O O11 0.000000 0.000000 0.000000
#
# Coordination Sequence:
#
# PCOD8105256 Si02
#       6
#     4   4   4   4   4   4
#     4  10  21  35  53  85 120 158 191 240 293 374
#     4  10  21  35  57  82 122 160 193 250 295 369
#     4  10  21  36  53  86 122 160 192 234 322 359
#     4  10  21  36  59  87 113 159 201 256 289 342
#     4  10  21  32  53  86 115 155 188 242 308 343
#     4  10  21  36  55  86 121 150 196 254 294 345
#
# _framework density 22.421613000000001
#
# number of rings (size 3 to 8) (size 9 to 14) (size 15 to 20)
#    0.000    2.000    0.000    3.000    9.333    0.000 
#    0.000    0.000    0.000    0.000    0.000   93.333 
#    0.000    0.000    0.000    0.000    0.000    0.000 
#
# Total GULP energy -148664.201758 kJ/mol
# GULP energy per Si atom -12388.683480 kJ/mol
# Density = 2.237058 g / cm^3
# Si number density = 22.421613 Si / 1000 Ang^3
#
#
#
# Elastic Constant Matrix: (Units=GPa)
#
#
# Indices 1 2 3 4 5 6 
#
# 1 60.5362 14.3326 27.3737 0.0254 24.1526 -0.0107
# 2 14.3326 271.9708 57.3639 0.0347 17.4211 -0.0293
# 3 27.3737 57.3639 140.0007 0.0365 19.4890 -0.0351
# 4 0.0254 0.0347 0.0365 38.9968 -0.0350 13.1595
# 5 24.1526 17.4211 19.4890 -0.0350 42.8500 0.0258
# 6 -0.0107 -0.0293 -0.0351 13.1595 0.0258 13.0365
#
#
#
# Elastic Compliance Matrix: (Units=1/GPa)
#
#
# Indices 1 2 3 4 5 6 
#
# 1 0.022290 0.000151 -0.002842 -0.000051 -0.011333 0.000085
# 2 0.000151 0.004062 -0.001550 -0.000008 -0.001031 0.000016
# 3 -0.002842 -0.001550 0.008565 -0.000020 -0.001663 0.000041
# 4 -0.000051 -0.000008 -0.000020 0.038891 0.000097 -0.039258
# 5 -0.011333 -0.001031 -0.001663 0.000097 0.030901 -0.000175
# 6 0.000085 0.000016 0.000041 -0.039258 -0.000175 0.116337
#
#
# Mechanical properties :
#
#
# Convention : Reuss Voigt Hill
#
# Bulk Modulus (GPa) = 37.83071 74.51646 56.17358
# Shear Modulus (GPa) = 20.97834 43.87249 32.42542
#
# Velocity S-wave (km/s) = 3.06213 4.42827 3.80698
# Velocity P-wave (km/s) = 5.42321 7.71054 6.66572
#
# Compressibility (1/GPa) = 0.02643355
#
# Stress axis : x y z
#
# Youngs Moduli (GPa) = 44.86289 246.18629 116.74933
#
# Poissons Ratio (x) = -0.03712 0.33186
# Poissons Ratio (y) = -0.00676 0.18099
# Poissons Ratio (z) = 0.12752 0.38165
#
# Static dielectric constant tensor:
#      x y z
#    x 3.638950 -0.000280 0.412790 
#    y -0.000280 9.080910 -0.000440 
#    z 0.412790 -0.000440 3.940010 
# 
# 
# High freq. dielectric constant tensor:
#      x y z
#    x 1.818820 -0.000010 0.026830 
#    y -0.000010 1.935250 0.000000 
#    z 0.026830 0.000000 1.867820 
# 
# From -- ./inp_files/170911.got.cif
#   From: 2010.06.25/outbox.cif.g09.slc.cpg/sg12_86_cif.got.tgz:170911.got - 2010.06.28 00:19:55.
