data_PCOD8105272
_publ_section_title
;
Structure prediction by ZEFSAII (Michael W. Deem and Ramdas Pophale) SiO2 
 PCOD8105272
Probable space group: C 2/M
;
_chemical_formula_sum "Si O2"
_cell_formula_units_Z 64
_cell_length_a 5.153321
_cell_length_b 33.365044
_cell_length_c 17.061517
_cell_angle_alpha 90.000000
_cell_angle_beta 94.071339
_cell_angle_gamma 90.000000
_cell_volume 2926.167483
_symmetry_space_group_name_H-M "C 2/M"
_symmetry_group_IT_number 12
_symmetry_cell_setting 'monoclinic'
loop_
_space_group_symop_operation_xyz
x,y,z
-x,y,-z
-x,-y,-z
x,-y,z
1/2+x,1/2+y,z
1/2-x,1/2+y,-z
1/2-x,1/2-y,-z
1/2+x,1/2-y,z
loop_
_atom_site_type_symbol
_atom_site_label
_atom_site_fract_x
_atom_site_fract_y
_atom_site_fract_z
Si Si1 0.581912 0.046444 0.738372
Si Si2 0.756267 0.321999 0.039740
Si Si3 0.105076 0.227980 0.167856
Si Si4 0.920900 0.861732 0.360355
Si Si5 0.909693 0.772871 0.647501
Si Si6 0.401636 0.410094 0.208253
Si Si7 0.932380 0.405208 0.412509
Si Si8 0.259612 0.591131 0.029688
O O1 0.303102 0.056167 0.769788
O O2 0.561468 0.057344 0.646243
O O3 0.810234 0.071025 0.787027
O O4 0.643553 0.000000 0.749062
O O5 0.725896 0.312760 0.132143
O O6 0.500000 0.300801 0.000000
O O7 0.756952 0.369541 0.026488
O O8 0.000000 0.302218 0.000000
O O9 0.304813 0.262473 0.140377
O O10 0.115258 0.224264 0.260407
O O11 0.900478 0.871805 0.266658
O O12 0.639527 0.870856 0.392045
O O13 0.001764 0.816311 0.380236
O O14 0.140411 0.888393 0.406228
O O15 0.620889 0.758512 0.616148
O O16 0.304575 0.396216 0.120442
O O17 0.000000 0.421507 0.500000
O O18 0.500000 0.565367 0.000000
O O19 0.000000 0.566542 0.000000
#
# Coordination Sequence:
#
# PCOD8105272 Si02
#       8
#     8   8   8   8   8   8   8   8
#     4  10  21  39  65  96 124 158 190 227 290 357
#     4  10  21  33  47  70  97 141 185 238 296 354
#     4  10  21  35  49  70 103 144 184 237 309 363
#     4  10  21  37  63  88 117 167 201 246 294 351
#     4  10  21  37  56  82 113 155 204 258 302 349
#     4  10  21  38  61  88 120 157 206 249 290 351
#     4  10  21  39  63  98 129 155 188 229 290 358
#     4  10  21  36  54  80 109 148 198 260 297 336
#
# _framework density 21.871614000000001
#
# number of rings (size 3 to 8) (size 9 to 14) (size 15 to 20)
#    0.000    2.000    0.000    3.000    3.500    1.750 
#    9.000    0.000    0.000   19.500    0.000    0.000 
#    0.000    0.000    0.000    0.000    0.000    0.000 
#
# Total GULP energy -396448.981011 kJ/mol
# GULP energy per Si atom -12389.030657 kJ/mol
# Density = 2.182183 g / cm^3
# Si number density = 21.871614 Si / 1000 Ang^3
#
#
#
# Elastic Constant Matrix: (Units=GPa)
#
#
# Indices 1 2 3 4 5 6 
#
# 1 140.6399 -7.2252 20.1028 0.0000 3.2237 0.0000
# 2 -7.2252 57.5892 1.2537 0.0000 -2.2538 0.0000
# 3 20.1028 1.2537 70.5531 0.0000 13.3816 0.0000
# 4 0.0000 0.0000 0.0000 11.0776 0.0000 0.7151
# 5 3.2237 -2.2538 13.3816 0.0000 26.7815 0.0000
# 6 0.0000 0.0000 0.0000 0.7151 0.0000 19.0439
#
#
#
# Elastic Compliance Matrix: (Units=1/GPa)
#
#
# Indices 1 2 3 4 5 6 
#
# 1 0.007469 0.000996 -0.002200 0.000000 0.000284 0.000000
# 2 0.000996 0.017582 -0.000944 0.000000 0.001831 0.000000
# 3 -0.002200 -0.000944 0.016330 0.000000 -0.007974 0.000000
# 4 0.000000 0.000000 0.000000 0.090491 0.000000 -0.003398
# 5 0.000284 0.001831 -0.007974 0.000000 0.041443 0.000000
# 6 0.000000 0.000000 0.000000 -0.003398 0.000000 0.052638
#
#
# Mechanical properties :
#
#
# Convention : Reuss Voigt Hill
#
# Bulk Modulus (GPa) = 26.96423 33.00498 29.98461
# Shear Modulus (GPa) = 20.60923 28.35733 24.48328
#
# Velocity S-wave (km/s) = 3.07299 3.60465 3.34939
# Velocity P-wave (km/s) = 4.99462 5.69629 5.35696
#
# Compressibility (1/GPa) = 0.03708617
#
# Stress axis : x y z
#
# Youngs Moduli (GPa) = 133.87835 56.87779 61.23813
#
# Poissons Ratio (x) = -0.05666 0.13471
# Poissons Ratio (y) = -0.13336 0.05778
# Poissons Ratio (z) = 0.29451 0.05367
#
# Static dielectric constant tensor:
#      x y z
#    x 5.837040 0.000000 -0.165590 
#    y 0.000000 3.392960 0.000000 
#    z -0.165590 0.000000 3.826230 
# 
# 
# High freq. dielectric constant tensor:
#      x y z
#    x 1.896350 0.000000 -0.007000 
#    y 0.000000 1.811330 0.000000 
#    z -0.007000 0.000000 1.847620 
# 
# From -- ./inp_files/254019.got.cif
#   From: 2010.06.25/outbox.cif.g09.slc.cpg/sg12_128_cif.got.tgz:254019.got - 2010.06.28 00:19:55.
