data_PCOD8105312
_publ_section_title
;
Structure prediction by ZEFSAII (Michael W. Deem and Ramdas Pophale) SiO2 
 PCOD8105312
Probable space group: C 2/M
;
_chemical_formula_sum "Si O2"
_cell_formula_units_Z 56
_cell_length_a 11.740872
_cell_length_b 29.308011
_cell_length_c 13.679408
_cell_angle_alpha 90.000000
_cell_angle_beta 33.184096
_cell_angle_gamma 90.000000
_cell_volume 2576.344873
_symmetry_space_group_name_H-M "C 2/M"
_symmetry_group_IT_number 12
_symmetry_cell_setting 'monoclinic'
loop_
_space_group_symop_operation_xyz
x,y,z
-x,y,-z
-x,-y,-z
x,-y,z
1/2+x,1/2+y,z
1/2-x,1/2+y,-z
1/2-x,1/2-y,-z
1/2+x,1/2-y,z
loop_
_atom_site_type_symbol
_atom_site_label
_atom_site_fract_x
_atom_site_fract_y
_atom_site_fract_z
Si Si1 0.145497 0.423110 0.255568
Si Si2 0.923685 0.807549 0.305727
Si Si3 0.864339 0.647022 0.005274
Si Si4 0.459303 0.205580 0.294745
Si Si5 0.713237 0.325046 0.804087
Si Si6 0.742960 0.551429 0.035101
Si Si7 0.770413 0.050816 0.374494
O O1 0.250791 0.374041 0.173005
O O2 0.207279 0.450911 0.115397
O O3 0.231567 0.450206 0.286515
O O4 0.893709 0.417305 0.449063
O O5 0.777114 0.806697 0.506321
O O6 0.976237 0.755733 0.235227
O O7 0.799601 0.830146 0.303792
O O8 0.129045 0.835478 0.185746
O O9 0.876427 0.591645 0.989653
O O10 0.000000 0.662909 0.000000
O O11 0.962001 0.667918 0.837379
O O12 0.599348 0.206893 0.293169
O O13 0.500000 0.304524 0.000000
O O14 0.788174 0.500000 0.044276
O O15 0.505080 0.566376 0.226238
O O16 0.735605 0.000000 0.439803
#
# Coordination Sequence:
#
# PCOD8105312 Si02
#       7
#     8   8   8   8   8   8   8
#     4  11  20  34  58  91 131 165 206 261 325 396
#     4  11  26  45  69 100 137 173 220 276 330 397
#     4  12  27  45  69  94 131 181 225 279 329 388
#     4  11  26  45  68 100 132 176 224 269 335 394
#     4  12  23  39  69 101 134 173 214 267 334 397
#     4  11  23  41  62  90 128 169 220 273 325 387
#     4  10  21  33  56  91 126 168 208 260 330 394
#
# _framework density 21.736218999999998
#
# number of rings (size 3 to 8) (size 9 to 14) (size 15 to 20)
#    0.000    0.857    2.857    4.714    8.000    2.000 
#    0.000    0.000    0.000    0.000    0.000    5.000 
#    0.000    0.000    0.000    0.000    0.000    0.000 
#
# Total GULP energy -347212.131804 kJ/mol
# GULP energy per Si atom -12400.433279 kJ/mol
# Density = 2.168675 g / cm^3
# Si number density = 21.736219 Si / 1000 Ang^3
#
#
#
# Elastic Constant Matrix: (Units=GPa)
#
#
# Indices 1 2 3 4 5 6 
#
# 1 96.6813 26.1821 27.6338 0.0000 -10.5887 0.0000
# 2 26.1821 102.5581 39.0002 0.0000 -7.0832 0.0000
# 3 27.6338 39.0002 104.9056 0.0000 -8.0533 0.0000
# 4 0.0000 0.0000 0.0000 23.1827 0.0000 -3.9441
# 5 -10.5887 -7.0832 -8.0533 0.0000 17.3176 0.0000
# 6 0.0000 0.0000 0.0000 -3.9441 0.0000 26.8916
#
#
#
# Elastic Compliance Matrix: (Units=1/GPa)
#
#
# Indices 1 2 3 4 5 6 
#
# 1 0.012061 -0.001917 -0.002031 0.000000 0.005646 0.000000
# 2 -0.001917 0.011791 -0.003732 0.000000 0.001916 0.000000
# 3 -0.002031 -0.003732 0.011658 0.000000 0.002653 0.000000
# 4 0.000000 0.000000 0.000000 0.044239 0.000000 0.006488
# 5 0.005646 0.001916 0.002653 0.000000 0.063214 0.000000
# 6 0.000000 0.000000 0.000000 0.006488 0.000000 0.038138
#
#
# Mechanical properties :
#
#
# Convention : Reuss Voigt Hill
#
# Bulk Modulus (GPa) = 49.62315 54.41969 52.02142
# Shear Modulus (GPa) = 24.60885 27.56698 26.08792
#
# Velocity S-wave (km/s) = 3.36841 3.56511 3.46816
# Velocity P-wave (km/s) = 6.16502 6.48363 6.32633
#
# Compressibility (1/GPa) = 0.02015189
#
# Stress axis : x y z
#
# Youngs Moduli (GPa) = 82.91010 84.80872 85.77528
#
# Poissons Ratio (x) = 0.16256 0.17422
# Poissons Ratio (y) = 0.15892 0.32008
# Poissons Ratio (z) = 0.16840 0.31647
#
# Static dielectric constant tensor:
#      x y z
#    x 3.708350 0.000000 -0.138730 
#    y 0.000000 3.946700 0.000000 
#    z -0.138730 0.000000 4.004120 
# 
# 
# High freq. dielectric constant tensor:
#      x y z
#    x 1.814040 0.000000 -0.006400 
#    y 0.000000 1.863470 0.000000 
#    z -0.006400 0.000000 1.867780 
# 
# From -- ./inp_files/210014.got.cif
#   From: 2010.06.25/outbox.cif.g09.slc.cpg/sg12_106_cif.got.tgz:210014.got - 2010.06.28 00:19:55.
