data_PCOD8105317
_publ_section_title
;
Structure prediction by ZEFSAII (Michael W. Deem and Ramdas Pophale) SiO2 
 PCOD8105317
Probable space group: C 2/M
;
_chemical_formula_sum "Si O2"
_cell_formula_units_Z 56
_cell_length_a 14.851014
_cell_length_b 25.942904
_cell_length_c 9.463835
_cell_angle_alpha 90.000000
_cell_angle_beta 53.562347
_cell_angle_gamma 90.000000
_cell_volume 2933.390446
_symmetry_space_group_name_H-M "C 2/M"
_symmetry_group_IT_number 12
_symmetry_cell_setting 'monoclinic'
loop_
_space_group_symop_operation_xyz
x,y,z
-x,y,-z
-x,-y,-z
x,-y,z
1/2+x,1/2+y,z
1/2-x,1/2+y,-z
1/2-x,1/2-y,-z
1/2+x,1/2-y,z
loop_
_atom_site_type_symbol
_atom_site_label
_atom_site_fract_x
_atom_site_fract_y
_atom_site_fract_z
Si Si1 0.616011 0.352417 0.327970
Si Si2 0.595412 0.767230 0.303252
Si Si3 0.333242 0.703394 0.198665
Si Si4 0.856530 0.060090 0.255845
Si Si5 0.255060 0.860868 0.470697
Si Si6 0.403822 0.612023 0.949577
Si Si7 0.958877 0.305168 0.179385
O O1 0.500000 0.373569 0.500000
O O2 0.602544 0.293898 0.293517
O O3 0.713721 0.360128 0.348670
O O4 0.648468 0.384740 0.157664
O O5 0.500000 0.785927 0.500000
O O6 0.712734 0.791472 0.237292
O O7 0.563187 0.786049 0.175973
O O8 0.318930 0.677802 0.366151
O O9 0.389260 0.757664 0.178229
O O10 0.406752 0.668075 0.024299
O O11 0.757706 0.082152 0.448520
O O12 0.970750 0.090405 0.183913
O O13 0.869770 0.000000 0.271237
O O14 0.830029 0.072637 0.115125
O O15 0.383604 0.842769 0.346062
O O16 0.000000 0.335287 0.000000
#
# Coordination Sequence:
#
# PCOD8105317 Si02
#       7
#     8   8   8   8   8   8   8
#     4  11  20  33  52  85 121 161 190 237 292 347
#     4  11  22  35  55  79 124 173 212 231 269 347
#     4  11  22  38  55  85 124 171 207 234 284 354
#     4  10  22  42  64  85 112 153 203 257 310 361
#     4  11  22  39  57  82 121 159 200 250 296 349
#     4  10  21  33  59  87 117 151 192 241 298 361
#     4  12  25  35  54  87 126 163 206 242 290 353
#
# _framework density 19.090537999999999
#
# number of rings (size 3 to 8) (size 9 to 14) (size 15 to 20)
#    0.000    1.143    4.286    3.857   10.000    1.143 
#    0.000    2.143    0.000    0.429    0.000    9.000 
#    0.000    0.000    0.000    0.000    0.000    0.000 
#
# Total GULP energy -347097.750705 kJ/mol
# GULP energy per Si atom -12396.348239 kJ/mol
# Density = 1.904709 g / cm^3
# Si number density = 19.090538 Si / 1000 Ang^3
#
#
#
# Elastic Constant Matrix: (Units=GPa)
#
#
# Indices 1 2 3 4 5 6 
#
# 1 99.6085 39.5744 30.8242 0.0000 24.0058 0.0000
# 2 39.5744 82.1754 51.5276 0.0000 -8.4451 0.0000
# 3 30.8242 51.5276 105.7183 0.0000 25.3265 0.0000
# 4 0.0000 0.0000 0.0000 16.4902 0.0000 -3.7061
# 5 24.0058 -8.4451 25.3265 0.0000 35.9693 0.0000
# 6 0.0000 0.0000 0.0000 -3.7061 0.0000 12.7491
#
#
#
# Elastic Compliance Matrix: (Units=1/GPa)
#
#
# Indices 1 2 3 4 5 6 
#
# 1 0.019691 -0.016687 0.007794 0.000000 -0.022547 0.000000
# 2 -0.016687 0.037612 -0.021953 0.000000 0.035425 0.000000
# 3 0.007794 -0.021953 0.024501 0.000000 -0.027607 0.000000
# 4 0.000000 0.000000 0.000000 0.064881 0.000000 0.018860
# 5 -0.022547 0.035425 -0.027607 0.000000 0.070606 0.000000
# 6 0.000000 0.000000 0.000000 0.018860 0.000000 0.083920
#
#
# Mechanical properties :
#
#
# Convention : Reuss Voigt Hill
#
# Bulk Modulus (GPa) = 49.72700 59.03941 54.38320
# Shear Modulus (GPa) = 13.52788 24.08011 18.80399
#
# Velocity S-wave (km/s) = 2.66487 3.55542 3.14186
# Velocity P-wave (km/s) = 5.96433 6.91721 6.45837
#
# Compressibility (1/GPa) = 0.02010980
#
# Stress axis : x y z
#
# Youngs Moduli (GPa) = 50.78384 26.58742 40.81526
#
# Poissons Ratio (x) = 0.44367 -0.31810
# Poissons Ratio (y) = 0.84744 0.89604
# Poissons Ratio (z) = -0.39579 0.58369
#
# Static dielectric constant tensor:
#      x y z
#    x 3.426960 0.000000 0.129800 
#    y 0.000000 3.195580 0.000000 
#    z 0.129800 0.000000 3.891150 
# 
# 
# High freq. dielectric constant tensor:
#      x y z
#    x 1.729150 0.000000 0.017020 
#    y 0.000000 1.693070 0.000000 
#    z 0.017020 0.000000 1.761660 
# 
# From -- ./inp_files/66867.got.cif
#   From: 2010.06.25/outbox.cif.g09.slc.cpg/sg12_34_cif.got.tgz:66867.got - 2010.06.28 00:19:55.
