data_PCOD8105398
_publ_section_title
;
Structure prediction by ZEFSAII (Michael W. Deem and Ramdas Pophale) SiO2 
 PCOD8105398
Probable space group: C 2/M
;
_chemical_formula_sum "Si O2"
_cell_formula_units_Z 56
_cell_length_a 24.116561
_cell_length_b 19.922371
_cell_length_c 5.456798
_cell_angle_alpha 90.000000
_cell_angle_beta 81.031687
_cell_angle_gamma 90.000000
_cell_volume 2589.716232
_symmetry_space_group_name_H-M "C 2/M"
_symmetry_group_IT_number 12
_symmetry_cell_setting 'monoclinic'
loop_
_space_group_symop_operation_xyz
x,y,z
-x,y,-z
-x,-y,-z
x,-y,z
1/2+x,1/2+y,z
1/2-x,1/2+y,-z
1/2-x,1/2-y,-z
1/2+x,1/2-y,z
loop_
_atom_site_type_symbol
_atom_site_label
_atom_site_fract_x
_atom_site_fract_y
_atom_site_fract_z
Si Si1 0.151475 0.794549 0.642627
Si Si2 0.520626 0.320722 0.738777
Si Si3 0.961552 0.678572 0.732767
Si Si4 0.204680 0.424439 0.096876
Si Si5 0.285517 0.316405 0.915511
Si Si6 0.413222 0.926140 0.093163
Si Si7 0.358441 0.155895 0.510817
O O1 0.087048 0.815970 0.680622
O O2 0.180289 0.811570 0.361739
O O3 0.158306 0.713501 0.673302
O O4 0.176711 0.829526 0.867264
O O5 0.500000 0.356185 0.500000
O O6 0.490820 0.248093 0.783245
O O7 0.500000 0.360128 0.000000
O O8 0.897604 0.693175 0.686835
O O9 0.000000 0.643101 0.500000
O O10 0.958364 0.627002 0.960925
O O11 0.227116 0.500000 0.133814
O O12 0.247939 0.383256 0.898890
O O13 0.143202 0.427846 0.026282
O O14 0.197911 0.379151 0.347440
O O15 0.250000 0.250000 0.000000
O O16 0.396482 0.903366 0.375503
O O17 0.440494 0.000000 0.084250
#
# Coordination Sequence:
#
# PCOD8105398 Si02
#       7
#     8   8   8   8   8   8   8
#     4  12  24  38  63  91 128 159 204 264 306 375
#     4  11  21  37  60  88 119 165 195 244 319 371
#     4  10  21  34  53  78 111 158 199 254 306 360
#     4  10  23  41  61  84 122 167 209 254 312 374
#     4  12  25  41  61  95 126 161 211 265 319 366
#     4  10  22  37  56  81 112 162 221 257 296 364
#     4  11  20  36  59  84 116 159 210 251 306 364
#
# _framework density 21.623989000000002
#
# number of rings (size 3 to 8) (size 9 to 14) (size 15 to 20)
#    0.000    1.143    4.286    3.429    4.000    0.857 
#    0.000    0.714    0.000    0.000    0.000    0.000 
#    0.000   11.429    0.000    0.000    0.000    0.000 
#
# Total GULP energy -346949.077632 kJ/mol
# GULP energy per Si atom -12391.038487 kJ/mol
# Density = 2.157477 g / cm^3
# Si number density = 21.623989 Si / 1000 Ang^3
#
#
#
# Elastic Constant Matrix: (Units=GPa)
#
#
# Indices 1 2 3 4 5 6 
#
# 1 56.5800 19.5195 30.7051 0.0000 -9.5075 0.0000
# 2 19.5195 48.7087 0.4660 0.0000 -6.9440 0.0000
# 3 30.7051 0.4660 142.1655 0.0000 -14.1562 0.0000
# 4 0.0000 0.0000 0.0000 20.7278 0.0000 -8.3094
# 5 -9.5075 -6.9440 -14.1562 0.0000 34.4000 0.0000
# 6 0.0000 0.0000 0.0000 -8.3094 0.0000 21.4861
#
#
#
# Elastic Compliance Matrix: (Units=1/GPa)
#
#
# Indices 1 2 3 4 5 6 
#
# 1 0.023936 -0.009151 -0.004864 0.000000 0.002766 0.000000
# 2 -0.009151 0.024656 0.002231 0.000000 0.003366 0.000000
# 3 -0.004864 0.002231 0.008330 0.000000 0.002534 0.000000
# 4 0.000000 0.000000 0.000000 0.057096 0.000000 0.022081
# 5 0.002766 0.003366 0.002534 0.000000 0.031556 0.000000
# 6 0.000000 0.000000 0.000000 0.022081 0.000000 0.055081
#
#
# Mechanical properties :
#
#
# Convention : Reuss Voigt Hill
#
# Bulk Modulus (GPa) = 29.98291 38.75946 34.37119
# Shear Modulus (GPa) = 21.24571 28.44035 24.84303
#
# Velocity S-wave (km/s) = 3.13790 3.63053 3.39317
# Velocity P-wave (km/s) = 5.19848 5.96134 5.59293
#
# Compressibility (1/GPa) = 0.03335233
#
# Stress axis : x y z
#
# Youngs Moduli (GPa) = 41.77861 40.55825 120.05356
#
# Poissons Ratio (x) = 0.37115 0.58396
# Poissons Ratio (y) = 0.38232 -0.26782
# Poissons Ratio (z) = 0.20322 -0.09048
#
# Static dielectric constant tensor:
#      x y z
#    x 3.999850 0.000000 0.026450 
#    y 0.000000 3.582860 0.000000 
#    z 0.026450 0.000000 4.646140 
# 
# 
# High freq. dielectric constant tensor:
#      x y z
#    x 1.856520 0.000000 -0.001010 
#    y 0.000000 1.785300 0.000000 
#    z -0.001010 0.000000 1.869140 
# 
# From -- ./inp_files/25363.got.cif
#   From: 2010.06.25/outbox.cif.g09.slc.cpg/sg12_13_cif.got.tgz:25363.got - 2010.06.28 00:19:55.
