data_PCOD8105709
_publ_section_title
;
Structure prediction by ZEFSAII (Michael W. Deem and Ramdas Pophale) SiO2 
 PCOD8105709
Probable space group: C 2/M
;
_chemical_formula_sum "Si O2"
_cell_formula_units_Z 56
_cell_length_a 28.518254
_cell_length_b 9.165241
_cell_length_c 19.487962
_cell_angle_alpha 90.000000
_cell_angle_beta 145.734019
_cell_angle_gamma 90.000000
_cell_volume 2867.932946
_symmetry_space_group_name_H-M "C 2/M"
_symmetry_group_IT_number 12
_symmetry_cell_setting 'monoclinic'
loop_
_space_group_symop_operation_xyz
x,y,z
-x,y,-z
-x,-y,-z
x,-y,z
1/2+x,1/2+y,z
1/2-x,1/2+y,-z
1/2-x,1/2-y,-z
1/2+x,1/2-y,z
loop_
_atom_site_type_symbol
_atom_site_label
_atom_site_fract_x
_atom_site_fract_y
_atom_site_fract_z
Si Si1 0.499666 0.166319 0.801553
Si Si2 0.282090 0.668419 0.105126
Si Si3 0.357647 0.332453 0.453261
Si Si4 0.462786 0.332867 0.286654
Si Si5 0.312997 0.835375 0.530017
Si Si6 0.224717 0.329467 0.182905
Si Si7 0.440692 0.672764 0.991798
O O1 0.544779 0.232023 0.789522
O O2 0.401543 0.173981 0.673430
O O3 0.521106 0.259901 0.893631
O O4 0.530824 0.000000 0.848824
O O5 0.262014 0.500000 0.069680
O O6 0.381258 0.693791 0.234235
O O7 0.235857 0.724437 0.117832
O O8 0.250000 0.750000 0.000000
O O9 0.345232 0.500000 0.460015
O O10 0.456190 0.293727 0.569100
O O11 0.312810 0.234013 0.455025
O O12 0.312843 0.299722 0.327025
O O13 0.468039 0.500000 0.267591
O O14 0.250000 0.750000 0.500000
O O15 0.281876 0.000000 0.484510
O O16 0.201901 0.500000 0.158428
O O17 0.151316 0.239405 0.130924
O O18 0.433486 0.500000 0.991123
O O19 0.500000 0.715596 0.000000
#
# Coordination Sequence:
#
# PCOD8105709 Si02
#       7
#     8   8   8   8   8   8   8
#     4  10  21  37  57  82 110 144 187 233 281 334
#     4  10  21  36  57  86 116 151 192 236 283 335
#     4   9  19  36  57  83 115 151 189 232 282 337
#     4   9  18  35  59  85 116 151 187 230 281 335
#     4  10  21  35  55  82 111 146 187 233 281 334
#     4  10  22  39  59  85 117 150 190 238 286 340
#     4  11  25  41  57  80 110 148 191 236 289 343
#
# _framework density 19.526259
#
# number of rings (size 3 to 8) (size 9 to 14) (size 15 to 20)
#    0.000    2.143    0.000    2.143    2.000    7.429 
#    0.000    2.857    0.000    0.000    0.000    6.000 
#    0.000    0.000    0.000    0.000    0.000    0.000 
#
# Total GULP energy -347218.087531 kJ/mol
# GULP energy per Si atom -12400.645983 kJ/mol
# Density = 1.948182 g / cm^3
# Si number density = 19.526259 Si / 1000 Ang^3
#
#
#
# Elastic Constant Matrix: (Units=GPa)
#
#
# Indices 1 2 3 4 5 6 
#
# 1 119.7444 53.7308 53.1840 0.0000 10.9079 0.0000
# 2 53.7308 87.7836 42.7342 0.0000 0.0342 0.0000
# 3 53.1840 42.7342 105.1993 0.0000 -12.4808 0.0000
# 4 0.0000 0.0000 0.0000 29.3442 0.0000 -1.0429
# 5 10.9079 0.0342 -12.4808 0.0000 22.6253 0.0000
# 6 0.0000 0.0000 0.0000 -1.0429 0.0000 28.2585
#
#
#
# Elastic Compliance Matrix: (Units=1/GPa)
#
#
# Indices 1 2 3 4 5 6 
#
# 1 0.014808 -0.005986 -0.006314 0.000000 -0.010613 0.000000
# 2 -0.005986 0.016872 -0.003733 0.000000 0.000801 0.000000
# 3 -0.006314 -0.003733 0.015597 0.000000 0.011653 0.000000
# 4 0.000000 0.000000 0.000000 0.034123 0.000000 0.001259
# 5 -0.010613 0.000801 0.011653 0.000000 0.055742 0.000000
# 6 0.000000 0.000000 0.000000 0.001259 0.000000 0.035434
#
#
# Mechanical properties :
#
#
# Convention : Reuss Voigt Hill
#
# Bulk Modulus (GPa) = 65.73664 68.00281 66.86972
# Shear Modulus (GPa) = 23.84227 26.91749 25.37988
#
# Velocity S-wave (km/s) = 3.49812 3.71688 3.60916
# Velocity P-wave (km/s) = 7.07493 7.30221 7.18947
#
# Compressibility (1/GPa) = 0.01521222
#
# Stress axis : x y z
#
# Youngs Moduli (GPa) = 67.53032 59.26860 64.11691
#
# Poissons Ratio (x) = 0.35478 0.40482
# Poissons Ratio (y) = 0.40424 0.23932
# Poissons Ratio (z) = 0.42637 0.22122
#
# Static dielectric constant tensor:
#      x y z
#    x 3.391900 0.000000 0.254440 
#    y 0.000000 3.691750 0.000000 
#    z 0.254440 0.000000 3.760000 
# 
# 
# High freq. dielectric constant tensor:
#      x y z
#    x 1.758410 0.000000 0.009900 
#    y 0.000000 1.760300 0.000000 
#    z 0.009900 0.000000 1.769720 
# 
# From -- ./inp_files/292501.got.cif
#   From: 2010.06.25/outbox.cif.g09.slc.cpg/sg12_147_cif.got.tgz:292501.got - 2010.06.28 00:19:55.
