data_PCOD8105782
_publ_section_title
;
Structure prediction by ZEFSAII (Michael W. Deem and Ramdas Pophale) SiO2 
 PCOD8105782
Probable space group: C 2/M
;
_chemical_formula_sum "Si O2"
_cell_formula_units_Z 52
_cell_length_a 25.037467
_cell_length_b 21.776480
_cell_length_c 13.324756
_cell_angle_alpha 90.000000
_cell_angle_beta 156.605319
_cell_angle_gamma 90.000000
_cell_volume 2884.671848
_symmetry_space_group_name_H-M "C 2/M"
_symmetry_group_IT_number 12
_symmetry_cell_setting 'monoclinic'
loop_
_space_group_symop_operation_xyz
x,y,z
-x,y,-z
-x,-y,-z
x,-y,z
1/2+x,1/2+y,z
1/2-x,1/2+y,-z
1/2-x,1/2-y,-z
1/2+x,1/2-y,z
loop_
_atom_site_type_symbol
_atom_site_label
_atom_site_fract_x
_atom_site_fract_y
_atom_site_fract_z
Si Si1 0.636009 0.760589 0.385743
Si Si2 0.467890 0.628626 0.747969
Si Si3 0.641972 0.072212 0.702202
Si Si4 0.430858 0.427944 0.276610
Si Si5 0.500000 0.159696 0.000000
Si Si6 0.276464 0.070330 0.572957
Si Si7 0.261235 0.872823 0.332998
O O1 0.750000 0.750000 0.500000
O O2 0.587688 0.697541 0.350195
O O3 0.694753 0.802392 0.575823
O O4 0.514059 0.796984 0.121839
O O5 0.487542 0.607780 0.667856
O O6 0.372163 0.581945 0.641995
O O7 0.603601 0.625416 0.044029
O O8 0.500000 0.097445 0.500000
O O9 0.656734 0.101531 0.618852
O O10 0.634070 0.000000 0.674008
O O11 0.770824 0.089043 0.995513
O O12 0.500000 0.407723 0.500000
O O13 0.449828 0.500000 0.290623
O O14 0.627120 0.115754 0.198432
O O15 0.292104 0.085476 0.482651
O O16 0.317306 0.000000 0.661897
#
# Coordination Sequence:
#
# PCOD8105782 Si02
#       7
#     8   8   8   8   4   8   8
#     4  11  20  36  56  79 113 153 193 224 276 338
#     4  11  21  35  59  84 110 147 191 233 280 338
#     4   9  18  36  59  83 110 144 187 235 287 341
#     4   9  19  38  59  83 113 146 188 238 291 343
#     4  10  21  36  52  74 117 156 182 224 274 348
#     4  11  22  35  53  84 118 146 182 235 293 343
#     4  10  21  35  57  83 111 148 187 235 277 337
#
# _framework density 18.026313999999999
#
# number of rings (size 3 to 8) (size 9 to 14) (size 15 to 20)
#    0.000    1.846    3.077    2.538    0.000    2.462 
#    5.538    0.769    0.000    3.692    0.000    0.000 
#    0.000    0.000    0.000    0.000    0.000    0.000 
#
# Total GULP energy -322390.557215 kJ/mol
# GULP energy per Si atom -12399.636816 kJ/mol
# Density = 1.798529 g / cm^3
# Si number density = 18.026314 Si / 1000 Ang^3
#
#
#
# Elastic Constant Matrix: (Units=GPa)
#
#
# Indices 1 2 3 4 5 6 
#
# 1 115.2527 47.2906 73.1329 0.0000 6.0047 0.0000
# 2 47.2906 91.0935 37.1605 0.0000 -0.4436 0.0000
# 3 73.1329 37.1605 106.1724 0.0000 -0.1647 0.0000
# 4 0.0000 0.0000 0.0000 11.7055 0.0000 7.0408
# 5 6.0047 -0.4436 -0.1647 0.0000 30.7661 0.0000
# 6 0.0000 0.0000 0.0000 7.0408 0.0000 28.4924
#
#
#
# Elastic Compliance Matrix: (Units=1/GPa)
#
#
# Indices 1 2 3 4 5 6 
#
# 1 0.017364 -0.004841 -0.010271 0.000000 -0.003514 0.000000
# 2 -0.004841 0.014157 -0.001618 0.000000 0.001140 0.000000
# 3 -0.010271 -0.001618 0.017063 0.000000 0.002073 0.000000
# 4 0.000000 0.000000 0.000000 0.100345 0.000000 -0.024797
# 5 -0.003514 0.001140 0.002073 0.000000 0.033217 0.000000
# 6 0.000000 0.000000 0.000000 -0.024797 0.000000 0.041225
#
#
# Mechanical properties :
#
#
# Convention : Reuss Voigt Hill
#
# Bulk Modulus (GPa) = 66.12968 69.74297 67.93632
# Shear Modulus (GPa) = 19.09321 24.52177 21.80749
#
# Velocity S-wave (km/s) = 3.25804 3.69227 3.48193
# Velocity P-wave (km/s) = 7.13567 7.54657 7.34399
#
# Compressibility (1/GPa) = 0.01512180
#
# Stress axis : x y z
#
# Youngs Moduli (GPa) = 57.59110 70.63729 58.60513
#
# Poissons Ratio (x) = 0.34198 0.60196
# Poissons Ratio (y) = 0.27882 0.09485
# Poissons Ratio (z) = 0.59154 0.11432
#
# Static dielectric constant tensor:
#      x y z
#    x 3.269590 0.000000 0.025950 
#    y 0.000000 3.679580 0.000000 
#    z 0.025950 0.000000 3.665950 
# 
# 
# High freq. dielectric constant tensor:
#      x y z
#    x 1.678620 0.000000 0.002400 
#    y 0.000000 1.701160 0.000000 
#    z 0.002400 0.000000 1.712430 
# 
# From -- ./inp_files/169874.got.cif
#   From: 2010.06.25/outbox.cif.g09.slc.cpg/sg12_85_cif.got.tgz:169874.got - 2010.06.28 00:19:55.
