data_PCOD8105100
_publ_section_title
;
Structure prediction by ZEFSAII (Michael W. Deem and Ramdas Pophale) SiO2 
 PCOD8105100
Probable space group: C 2/M
;
_chemical_formula_sum "Si O2"
_cell_formula_units_Z 48
_cell_length_a 28.394877
_cell_length_b 8.994835
_cell_length_c 15.822597
_cell_angle_alpha 90.000000
_cell_angle_beta 37.516483
_cell_angle_gamma 90.000000
_cell_volume 2461.052411
_symmetry_space_group_name_H-M "C 2/M"
_symmetry_group_IT_number 12
_symmetry_cell_setting 'monoclinic'
loop_
_space_group_symop_operation_xyz
x,y,z
-x,y,-z
-x,-y,-z
x,-y,z
1/2+x,1/2+y,z
1/2-x,1/2+y,-z
1/2-x,1/2-y,-z
1/2+x,1/2-y,z
loop_
_atom_site_type_symbol
_atom_site_label
_atom_site_fract_x
_atom_site_fract_y
_atom_site_fract_z
Si Si1 0.693200 0.829366 0.643892
Si Si2 0.387770 0.829246 0.596741
Si Si3 0.604676 0.675339 0.062265
Si Si4 0.266527 0.175499 0.227439
Si Si5 0.483075 0.171603 0.118772
Si Si6 0.943287 0.670771 0.703997
O O1 0.750000 0.750000 0.500000
O O2 0.701731 0.768595 0.727099
O O3 0.606782 0.805141 0.733077
O O4 0.716999 0.000000 0.610232
O O5 0.322559 0.720812 0.654047
O O6 0.466438 0.790271 0.435537
O O7 0.398267 0.801574 0.681167
O O8 0.364388 0.000000 0.613276
O O9 0.611431 0.500000 0.046394
O O10 0.530525 0.729234 0.115792
O O11 0.594802 0.722016 0.173320
O O12 0.683600 0.745657 0.915679
O O13 0.275569 0.000000 0.204016
O O14 0.508647 0.000000 0.092877
O O15 0.500000 0.225544 0.000000
O O16 0.934707 0.500000 0.745266
#
# Coordination Sequence:
#
# PCOD8105100 Si02
#       6
#     8   8   8   8   8   8
#     4  10  23  40  60  86 118 156 196 238 290 350
#     4   9  20  40  65  91 117 152 197 243 292 351
#     4  12  25  38  59  91 121 154 201 247 291 347
#     4  11  23  41  61  86 121 159 197 242 297 351
#     4  10  20  41  64  82 114 159 199 237 290 350
#     4   9  20  41  65  88 119 156 194 238 296 358
#
# _framework density 19.503851000000001
#
# number of rings (size 3 to 8) (size 9 to 14) (size 15 to 20)
#    0.000    1.833    1.667    3.000    2.333    4.333 
#    0.000    1.667    0.000    0.000    0.000    0.000 
#    0.000    0.000    0.000    0.000    0.000    0.000 
#
# Total GULP energy -297709.139543 kJ/mol
# GULP energy per Si atom -12404.547481 kJ/mol
# Density = 1.945946 g / cm^3
# Si number density = 19.503851 Si / 1000 Ang^3
#
#
#
# Elastic Constant Matrix: (Units=GPa)
#
#
# Indices 1 2 3 4 5 6 
#
# 1 55.3194 30.3092 13.6169 0.0023 -7.3153 0.0001
# 2 30.3092 88.5589 42.4812 0.0103 1.3680 -0.0031
# 3 13.6169 42.4812 97.5158 0.0040 8.1410 -0.0017
# 4 0.0023 0.0103 0.0040 36.7630 -0.0019 -2.3873
# 5 -7.3153 1.3680 8.1410 -0.0019 32.2377 -0.0001
# 6 0.0001 -0.0031 -0.0017 -2.3873 -0.0001 32.1997
#
#
#
# Elastic Compliance Matrix: (Units=1/GPa)
#
#
# Indices 1 2 3 4 5 6 
#
# 1 0.023226 -0.007906 -0.000273 0.000001 0.005675 -0.000001
# 2 -0.007906 0.016997 -0.006222 -0.000004 -0.000944 0.000001
# 3 -0.000273 -0.006222 0.013266 0.000000 -0.003148 0.000000
# 4 0.000001 -0.000004 0.000000 0.027333 0.000002 0.002026
# 5 0.005675 -0.000944 -0.003148 0.000002 0.033142 0.000000
# 6 -0.000001 0.000001 0.000000 0.002026 0.000000 0.031206
#
#
# Mechanical properties :
#
#
# Convention : Reuss Voigt Hill
#
# Bulk Modulus (GPa) = 40.50545 46.02321 43.26433
# Shear Modulus (GPa) = 27.44231 30.57252 29.00741
#
# Velocity S-wave (km/s) = 3.75510 3.96348 3.86069
# Velocity P-wave (km/s) = 6.29397 6.67785 6.48875
#
# Compressibility (1/GPa) = 0.02468803
#
# Stress axis : x y z
#
# Youngs Moduli (GPa) = 43.05519 58.83486 75.38071
#
# Poissons Ratio (x) = 0.46514 0.02057
# Poissons Ratio (y) = 0.34039 0.46899
# Poissons Ratio (z) = 0.01175 0.36605
#
# Static dielectric constant tensor:
#      x y z
#    x 3.654070 0.000000 0.001230 
#    y 0.000000 3.426580 0.000000 
#    z 0.001230 0.000000 3.570880 
# 
# 
# High freq. dielectric constant tensor:
#      x y z
#    x 1.764230 0.000000 -0.000730 
#    y 0.000000 1.749840 0.000000 
#    z -0.000730 0.000000 1.770630 
# 
# From -- ./inp_files/244715.got.cif
#   From: 2010.06.25/outbox.cif.g09.slc.cpg/sg12_123_cif.got.tgz:244715.got - 2010.06.28 00:19:55.
