data_PCOD8105029
_publ_section_title
;
Structure prediction by ZEFSAII (Michael W. Deem and Ramdas Pophale) SiO2 
 PCOD8105029
Probable space group: C 2/M
;
_chemical_formula_sum "Si O2"
_cell_formula_units_Z 36
_cell_length_a 17.603185
_cell_length_b 19.329881
_cell_length_c 4.989781
_cell_angle_alpha 90.000000
_cell_angle_beta 79.709577
_cell_angle_gamma 90.000000
_cell_volume 1670.549931
_symmetry_space_group_name_H-M "C 2/M"
_symmetry_group_IT_number 12
_symmetry_cell_setting 'monoclinic'
loop_
_space_group_symop_operation_xyz
x,y,z
-x,y,-z
-x,-y,-z
x,-y,z
1/2+x,1/2+y,z
1/2-x,1/2+y,-z
1/2-x,1/2-y,-z
1/2+x,1/2-y,z
loop_
_atom_site_type_symbol
_atom_site_label
_atom_site_fract_x
_atom_site_fract_y
_atom_site_fract_z
Si Si1 0.660102 0.863491 0.159885
Si Si2 0.414654 0.577661 0.586295
Si Si3 0.161786 0.868233 0.854378
Si Si4 0.834446 0.274784 0.367462
Si Si5 0.443899 0.000000 0.784348
O O1 0.746285 0.878081 0.210819
O O2 0.623998 0.808116 0.396421
O O3 0.610269 0.932814 0.184074
O O4 0.664718 0.832908 0.861180
O O5 0.500000 0.609064 0.500000
O O6 0.419367 0.500000 0.697052
O O7 0.372613 0.575202 0.325440
O O8 0.366948 0.623794 0.824482
O O9 0.126958 0.794772 0.771476
O O10 0.750000 0.250000 0.500000
O O11 0.500000 0.000000 0.500000
O O12 0.500000 0.000000 0.000000
#
# Coordination Sequence:
#
# PCOD8105029 Si02
#       5
#     8   8   8   8   4
#     4  11  23  42  69  94 124 169 216 266 331 376
#     4  11  24  39  57  89 137 170 197 252 318 368
#     4  11  21  40  67  94 122 164 225 259 306 388
#     4  10  20  40  66  97 128 159 208 282 326 365
#     4  12  28  48  66  96 139 174 221 280 334 394
#
# _framework density 21.549787999999999
#
# number of rings (size 3 to 8) (size 9 to 14) (size 15 to 20)
#    0.000    1.111    0.000    9.333    3.111    1.778 
#    0.000   11.111    0.000    0.000    0.000    0.000 
#    0.000    0.000    0.000    0.000    0.000    0.000 
#
# Total GULP energy -223151.884201 kJ/mol
# GULP energy per Si atom -12397.326900 kJ/mol
# Density = 2.150074 g / cm^3
# Si number density = 21.549788 Si / 1000 Ang^3
#
#
#
# Elastic Constant Matrix: (Units=GPa)
#
#
# Indices 1 2 3 4 5 6 
#
# 1 98.4090 45.7989 41.4448 0.0000 -0.4662 0.0000
# 2 45.7989 133.6132 47.7075 0.0000 -9.7914 0.0000
# 3 41.4448 47.7075 135.2820 0.0000 6.1613 0.0000
# 4 0.0000 0.0000 0.0000 45.3283 0.0000 6.9934
# 5 -0.4662 -9.7914 6.1613 0.0000 31.3824 0.0000
# 6 0.0000 0.0000 0.0000 6.9934 0.0000 10.4256
#
#
#
# Elastic Compliance Matrix: (Units=1/GPa)
#
#
# Indices 1 2 3 4 5 6 
#
# 1 0.012926 -0.003489 -0.002713 0.000000 -0.000364 0.000000
# 2 -0.003489 0.009855 -0.002567 0.000000 0.003527 0.000000
# 3 -0.002713 -0.002567 0.009250 0.000000 -0.002657 0.000000
# 4 0.000000 0.000000 0.000000 0.024608 0.000000 -0.016507
# 5 -0.000364 0.003527 -0.002657 0.000000 0.033482 0.000000
# 6 0.000000 0.000000 0.000000 -0.016507 0.000000 0.106990
#
#
# Mechanical properties :
#
#
# Convention : Reuss Voigt Hill
#
# Bulk Modulus (GPa) = 69.00041 70.80074 69.90058
# Shear Modulus (GPa) = 22.78110 32.91747 27.84929
#
# Velocity S-wave (km/s) = 3.25489 3.91257 3.59879
# Velocity P-wave (km/s) = 6.79811 7.30320 7.05518
#
# Compressibility (1/GPa) = 0.01449267
#
# Stress axis : x y z
#
# Youngs Moduli (GPa) = 77.36226 101.46872 108.11299
#
# Poissons Ratio (x) = 0.35399 0.29333
# Poissons Ratio (y) = 0.26989 0.27756
# Poissons Ratio (z) = 0.20990 0.26050
#
# Static dielectric constant tensor:
#      x y z
#    x 3.749430 0.000000 0.049180 
#    y 0.000000 4.178530 0.000000 
#    z 0.049180 0.000000 4.235240 
# 
# 
# High freq. dielectric constant tensor:
#      x y z
#    x 1.823090 0.000000 0.008880 
#    y 0.000000 1.854740 0.000000 
#    z 0.008880 0.000000 1.870410 
# 
# From -- ./inp_files/15046.got.cif
#   From: 2010.06.25/outbox.cif.g09.slc.cpg/sg12_8_cif.got.tgz:15046.got - 2010.06.28 00:19:55.
