data_PCOD8105487
_publ_section_title
;
Structure prediction by ZEFSAII (Michael W. Deem and Ramdas Pophale) SiO2 
 PCOD8105487
Probable space group: C 2/M
;
_chemical_formula_sum "Si O2"
_cell_formula_units_Z 48
_cell_length_a 18.372271
_cell_length_b 9.255329
_cell_length_c 18.177348
_cell_angle_alpha 90.000000
_cell_angle_beta 120.529375
_cell_angle_gamma 90.000000
_cell_volume 2662.406602
_symmetry_space_group_name_H-M "C 2/M"
_symmetry_group_IT_number 12
_symmetry_cell_setting 'monoclinic'
loop_
_space_group_symop_operation_xyz
x,y,z
-x,y,-z
-x,-y,-z
x,-y,z
1/2+x,1/2+y,z
1/2-x,1/2+y,-z
1/2-x,1/2-y,-z
1/2+x,1/2-y,z
loop_
_atom_site_type_symbol
_atom_site_label
_atom_site_fract_x
_atom_site_fract_y
_atom_site_fract_z
Si Si1 0.253470 0.659970 0.176403
Si Si2 0.169467 0.329535 0.991040
Si Si3 0.824896 0.329774 0.498128
Si Si4 0.923486 0.164608 0.169595
Si Si5 0.835650 0.330998 0.337334
Si Si6 0.501440 0.831039 0.334548
O O1 0.245322 0.500000 0.205390
O O2 0.172898 0.692999 0.081786
O O3 0.336370 0.672171 0.168914
O O4 0.259641 0.766653 0.248796
O O5 0.172022 0.500000 0.972664
O O6 0.250000 0.250000 0.000000
O O7 0.087019 0.253987 0.912467
O O8 0.808884 0.500000 0.492489
O O9 0.750000 0.250000 0.500000
O O10 0.829307 0.272181 0.416845
O O11 0.911786 0.288228 0.582229
O O12 0.995418 0.241054 0.255726
O O13 0.950088 0.000000 0.165833
O O14 0.823157 0.500000 0.329561
O O15 0.926654 0.286274 0.351900
O O16 0.496258 0.000000 0.312704
#
# Coordination Sequence:
#
# PCOD8105487 Si02
#       6
#     8   8   8   8   8   8
#     4   8  15  25  38  61  92 122 152 187 227 271
#     4   9  15  23  36  58  91 126 156 187 226 273
#     4  10  21  35  50  70  94 122 156 193 236 283
#     4   9  16  25  39  63  93 122 154 190 230 276
#     4   9  17  30  49  70  92 121 158 196 231 272
#     4   9  17  31  50  69  92 123 158 195 233 274
#
# _framework density 18.028801000000001
#
# number of rings (size 3 to 8) (size 9 to 14) (size 15 to 20)
#    0.000    3.000    0.000    2.500    0.000    8.000 
#    0.000    0.000    0.000    5.000    0.000    1.167 
#    0.000    9.333    0.000    0.000    0.000    0.000 
#
# Total GULP energy -297447.707065 kJ/mol
# GULP energy per Si atom -12393.654461 kJ/mol
# Density = 1.798777 g / cm^3
# Si number density = 18.028801 Si / 1000 Ang^3
#
#
#
# Elastic Constant Matrix: (Units=GPa)
#
#
# Indices 1 2 3 4 5 6 
#
# 1 45.3504 30.0157 48.2338 0.0000 -0.8749 0.0000
# 2 30.0157 81.5841 77.4373 0.0000 2.4225 0.0000
# 3 48.2338 77.4373 191.9900 0.0000 5.9414 0.0000
# 4 0.0000 0.0000 0.0000 36.7048 0.0000 0.9671
# 5 -0.8749 2.4225 5.9414 0.0000 1.2862 0.0000
# 6 0.0000 0.0000 0.0000 0.9671 0.0000 17.8509
#
#
#
# Elastic Compliance Matrix: (Units=1/GPa)
#
#
# Indices 1 2 3 4 5 6 
#
# 1 0.038597 -0.008139 -0.008985 0.000000 0.083092 0.000000
# 2 -0.008139 0.021577 -0.006101 0.000000 -0.017992 0.000000
# 3 -0.008985 -0.006101 0.011389 0.000000 -0.047229 0.000000
# 4 0.000000 0.000000 0.000000 0.027283 0.000000 -0.001478
# 5 0.083092 -0.017992 -0.047229 0.000000 1.086089 0.000000
# 6 0.000000 0.000000 0.000000 -0.001478 0.000000 0.056100
#
#
# Mechanical properties :
#
#
# Convention : Reuss Voigt Hill
#
# Bulk Modulus (GPa) = 39.82267 70.03314 54.92790
# Shear Modulus (GPa) = 3.85845 22.05087 12.95466
#
# Velocity S-wave (km/s) = 1.46452 3.50107 2.68349
# Velocity P-wave (km/s) = 4.99961 7.43457 6.33517
#
# Compressibility (1/GPa) = 0.02511133
#
# Stress axis : x y z
#
# Youngs Moduli (GPa) = 25.90871 46.34512 87.80772
#
# Poissons Ratio (x) = 0.37720 0.78899
# Poissons Ratio (y) = 0.21087 0.53575
# Poissons Ratio (z) = 0.23280 0.28277
#
# Static dielectric constant tensor:
#      x y z
#    x 2.749950 0.000000 0.023400 
#    y 0.000000 3.376200 0.000000 
#    z 0.023400 0.000000 4.022090 
# 
# 
# High freq. dielectric constant tensor:
#      x y z
#    x 1.626430 0.000000 0.005420 
#    y 0.000000 1.699690 0.000000 
#    z 0.005420 0.000000 1.724080 
# 
# From -- ./inp_files/274133.got.cif
#   From: 2010.06.25/outbox.cif.g09.slc.cpg/sg12_138_cif.got.tgz:274133.got - 2010.06.28 00:19:55.
