data_PCOD8105626
_publ_section_title
;
Structure prediction by ZEFSAII (Michael W. Deem and Ramdas Pophale) SiO2 
 PCOD8105626
Probable space group: C 2/M
;
_chemical_formula_sum "Si O2"
_cell_formula_units_Z 56
_cell_length_a 28.786284
_cell_length_b 8.861937
_cell_length_c 14.293747
_cell_angle_alpha 90.000000
_cell_angle_beta 120.848317
_cell_angle_gamma 90.000000
_cell_volume 3130.507241
_symmetry_space_group_name_H-M "C 2/M"
_symmetry_group_IT_number 12
_symmetry_cell_setting 'monoclinic'
loop_
_space_group_symop_operation_xyz
x,y,z
-x,y,-z
-x,-y,-z
x,-y,z
1/2+x,1/2+y,z
1/2-x,1/2+y,-z
1/2-x,1/2-y,-z
1/2+x,1/2-y,z
loop_
_atom_site_type_symbol
_atom_site_label
_atom_site_fract_x
_atom_site_fract_y
_atom_site_fract_z
Si Si1 0.421093 0.170160 0.674515
Si Si2 0.442240 0.177831 0.985361
Si Si3 0.531095 0.322994 0.800879
Si Si4 0.365300 0.170322 0.425193
Si Si5 0.948765 0.178425 0.388067
Si Si6 0.758167 0.673654 0.408791
Si Si7 0.640647 0.325915 0.238250
O O1 0.468420 0.284611 0.749496
O O2 0.408948 0.173607 0.553002
O O3 0.369682 0.230879 0.678064
O O4 0.436177 0.000000 0.722881
O O5 0.392944 0.256604 0.881275
O O6 0.434221 0.000000 0.972067
O O7 0.500000 0.225696 0.000000
O O8 0.436351 0.233479 0.085989
O O9 0.540508 0.500000 0.823871
O O10 0.549048 0.265771 0.716922
O O11 0.391251 0.266461 0.368532
O O12 0.308638 0.242959 0.402192
O O13 0.356029 0.000000 0.379756
O O14 0.000000 0.243842 0.500000
O O15 0.950620 0.000000 0.394539
O O16 0.772409 0.500000 0.444757
O O17 0.750000 0.750000 0.500000
O O18 0.705104 0.689722 0.288588
O O19 0.624274 0.500000 0.235019
#
# Coordination Sequence:
#
# PCOD8105626 Si02
#       7
#     8   8   8   8   8   8   8
#     4  11  20  31  51  80 114 146 181 220 262 320
#     4  11  23  37  55  80 111 143 180 226 274 325
#     4  11  22  36  55  79 111 146 183 223 268 323
#     4  10  21  35  53  79 113 148 182 220 266 322
#     4  10  21  36  54  80 111 143 181 224 269 321
#     4  10  21  36  54  81 112 145 183 223 269 321
#     4  11  22  35  55  80 110 147 184 222 269 322
#
# _framework density 17.888475
#
# number of rings (size 3 to 8) (size 9 to 14) (size 15 to 20)
#    0.000    1.429    4.286    1.714    0.000    3.714 
#    0.000    0.000    0.000    0.857    0.000    0.000 
#    0.000    0.000    0.000    0.000    0.000    0.000 
#
# Total GULP energy -347193.069289 kJ/mol
# GULP energy per Si atom -12399.752475 kJ/mol
# Density = 1.784776 g / cm^3
# Si number density = 17.888475 Si / 1000 Ang^3
#
#
#
# Elastic Constant Matrix: (Units=GPa)
#
#
# Indices 1 2 3 4 5 6 
#
# 1 111.6513 28.8434 45.6051 0.0000 -5.6365 0.0000
# 2 28.8434 44.8083 34.7745 0.0000 -5.8588 0.0000
# 3 45.6051 34.7745 95.6330 0.0000 -5.9971 0.0000
# 4 0.0000 0.0000 0.0000 24.7999 0.0000 -2.2531
# 5 -5.6365 -5.8588 -5.9971 0.0000 29.6580 0.0000
# 6 0.0000 0.0000 0.0000 -2.2531 0.0000 28.7400
#
#
#
# Elastic Compliance Matrix: (Units=1/GPa)
#
#
# Indices 1 2 3 4 5 6 
#
# 1 0.011742 -0.004412 -0.003960 0.000000 0.000559 0.000000
# 2 -0.004412 0.033202 -0.009734 0.000000 0.003752 0.000000
# 3 -0.003960 -0.009734 0.015919 0.000000 0.000543 0.000000
# 4 0.000000 0.000000 0.000000 0.040612 0.000000 0.003184
# 5 0.000559 0.003752 0.000543 0.000000 0.034675 0.000000
# 6 0.000000 0.000000 0.000000 0.003184 0.000000 0.035044
#
#
# Mechanical properties :
#
#
# Convention : Reuss Voigt Hill
#
# Bulk Modulus (GPa) = 40.56641 52.28207 46.42424
# Shear Modulus (GPa) = 23.18863 26.16423 24.67643
#
# Velocity S-wave (km/s) = 3.60431 3.82858 3.71814
# Velocity P-wave (km/s) = 6.32835 6.98815 6.66642
#
# Compressibility (1/GPa) = 0.02465094
#
# Stress axis : x y z
#
# Youngs Moduli (GPa) = 85.16441 30.11858 62.81927
#
# Poissons Ratio (x) = 0.13288 0.24877
# Poissons Ratio (y) = 0.37574 0.61147
# Poissons Ratio (z) = 0.33726 0.29317
#
# Static dielectric constant tensor:
#      x y z
#    x 3.337210 0.000000 -0.022760 
#    y 0.000000 3.306360 0.000000 
#    z -0.022760 0.000000 3.281640 
# 
# 
# High freq. dielectric constant tensor:
#      x y z
#    x 1.680980 0.000000 -0.000350 
#    y 0.000000 1.695780 0.000000 
#    z -0.000350 0.000000 1.681340 
# 
# From -- ./inp_files/243622.got.cif
#   From: 2010.06.25/outbox.cif.g09.slc.cpg/sg12_122_cif.got.tgz:243622.got - 2010.06.28 00:19:55.
