data_PCOD8105342
_publ_section_title
;
Structure prediction by ZEFSAII (Michael W. Deem and Ramdas Pophale) SiO2 
 PCOD8105342
Probable space group: C 2/M
;
_chemical_formula_sum "Si O2"
_cell_formula_units_Z 56
_cell_length_a 29.675639
_cell_length_b 9.849974
_cell_length_c 32.058716
_cell_angle_alpha 90.000000
_cell_angle_beta 161.008553
_cell_angle_gamma 90.000000
_cell_volume 3049.543817
_symmetry_space_group_name_H-M "C 2/M"
_symmetry_group_IT_number 12
_symmetry_cell_setting 'monoclinic'
loop_
_space_group_symop_operation_xyz
x,y,z
-x,y,-z
-x,-y,-z
x,-y,z
1/2+x,1/2+y,z
1/2-x,1/2+y,-z
1/2-x,1/2-y,-z
1/2+x,1/2-y,z
loop_
_atom_site_type_symbol
_atom_site_label
_atom_site_fract_x
_atom_site_fract_y
_atom_site_fract_z
Si Si1 0.891583 0.838776 0.480009
Si Si2 0.311964 0.838590 0.768273
Si Si3 0.063919 0.150747 0.323483
Si Si4 0.798311 0.161838 0.240572
Si Si5 0.250983 0.654310 0.040759
Si Si6 0.238670 0.343118 0.428067
Si Si7 0.609823 0.161764 0.000660
O O1 0.816862 0.786435 0.372564
O O2 0.795092 0.790818 0.433490
O O3 0.045979 0.777579 0.619947
O O4 0.903949 0.000000 0.490913
O O5 0.287676 0.788888 0.794200
O O6 0.317865 0.000000 0.771243
O O7 0.457854 0.780331 0.878899
O O8 0.102997 0.256491 0.321184
O O9 0.141140 0.186811 0.433670
O O10 0.903241 0.158652 0.193792
O O11 0.105343 0.000000 0.344350
O O12 0.720615 0.218148 0.131462
O O13 0.804384 0.000000 0.244855
O O14 0.211975 0.500000 0.993426
O O15 0.149335 0.708938 0.988312
O O16 0.250000 0.750000 0.000000
O O17 0.194045 0.500000 0.387404
O O18 0.611829 0.000000 0.004190
#
# Coordination Sequence:
#
# PCOD8105342 Si02
#       7
#     8   8   8   8   8   8   8
#     4   9  16  24  38  61  89 118 148 183 228 276
#     4   9  16  24  37  61  90 118 151 188 226 274
#     4   9  18  32  46  65  92 123 160 198 235 276
#     4   9  15  25  40  59  89 124 151 181 229 283
#     4  10  21  34  49  68  96 128 161 199 239 282
#     4   9  17  29  48  69  92 124 158 192 233 283
#     4   9  17  28  42  60  86 122 156 186 227 280
#
# _framework density 18.363402000000001
#
# number of rings (size 3 to 8) (size 9 to 14) (size 15 to 20)
#    0.000    2.857    0.000    1.714    2.000    7.429 
#    0.000    0.000    0.000    0.000    0.000    0.000 
#    0.000    6.857    0.000    0.000    0.000    0.000 
#
# Total GULP energy -347088.677518 kJ/mol
# GULP energy per Si atom -12396.024197 kJ/mol
# Density = 1.832161 g / cm^3
# Si number density = 18.363402 Si / 1000 Ang^3
#
#
#
# Elastic Constant Matrix: (Units=GPa)
#
#
# Indices 1 2 3 4 5 6 
#
# 1 138.1230 26.7615 38.8757 0.0126 1.7549 0.0009
# 2 26.7615 26.2399 7.8496 0.0032 0.9125 -0.0003
# 3 38.8757 7.8496 90.0024 -0.0060 1.2939 0.0027
# 4 0.0126 0.0032 -0.0060 12.6135 0.0037 1.1356
# 5 1.7549 0.9125 1.2939 0.0037 30.8235 0.0024
# 6 0.0009 -0.0003 0.0027 1.1356 0.0024 15.9060
#
#
#
# Elastic Compliance Matrix: (Units=1/GPa)
#
#
# Indices 1 2 3 4 5 6 
#
# 1 0.010005 -0.009145 -0.003522 -0.000009 -0.000151 0.000001
# 2 -0.009145 0.047522 -0.000182 -0.000003 -0.000879 0.000002
# 3 -0.003522 -0.000182 0.012653 0.000010 -0.000325 -0.000003
# 4 -0.000009 -0.000003 0.000010 0.079793 -0.000009 -0.005697
# 5 -0.000151 -0.000879 -0.000325 -0.000009 0.032491 -0.000004
# 6 0.000001 0.000002 -0.000003 -0.005697 -0.000004 0.063276
#
#
# Mechanical properties :
#
#
# Convention : Reuss Voigt Hill
#
# Bulk Modulus (GPa) = 22.48110 44.59320 33.53715
# Shear Modulus (GPa) = 17.46640 23.92716 20.69678
#
# Velocity S-wave (km/s) = 3.08742 3.61360 3.36082
# Velocity P-wave (km/s) = 4.99785 6.46121 5.77606
#
# Compressibility (1/GPa) = 0.04448181
#
# Stress axis : x y z
#
# Youngs Moduli (GPa) = 99.95079 21.04302 79.03541
#
# Poissons Ratio (x) = 0.19244 0.27834
# Poissons Ratio (y) = 0.91405 0.01438
# Poissons Ratio (z) = 0.35200 0.00383
#
# Static dielectric constant tensor:
#      x y z
#    x 3.561250 0.000000 0.075060 
#    y 0.000000 2.792980 -0.000010 
#    z 0.075060 -0.000010 3.601710 
# 
# 
# High freq. dielectric constant tensor:
#      x y z
#    x 1.724150 0.000000 0.002620 
#    y 0.000000 1.625230 0.000000 
#    z 0.002620 0.000000 1.726430 
# 
# From -- ./inp_files/370727.got.cif
#   From: 2010.06.25/outbox.cif.g09.slc.cpg/sg12_186_cif.got.tgz:370727.got - 2010.06.28 00:19:55.
