data_PCOD8105415
_publ_section_title
;
Structure prediction by ZEFSAII (Michael W. Deem and Ramdas Pophale) SiO2 
 PCOD8105415
Probable space group: C 2/M
;
_chemical_formula_sum "Si O2"
_cell_formula_units_Z 40
_cell_length_a 16.823370
_cell_length_b 12.237171
_cell_length_c 19.468956
_cell_angle_alpha 90.000000
_cell_angle_beta 148.825396
_cell_angle_gamma 90.000000
_cell_volume 2074.775359
_symmetry_space_group_name_H-M "C 2/M"
_symmetry_group_IT_number 12
_symmetry_cell_setting 'monoclinic'
loop_
_space_group_symop_operation_xyz
x,y,z
-x,y,-z
-x,-y,-z
x,-y,z
1/2+x,1/2+y,z
1/2-x,1/2+y,-z
1/2-x,1/2-y,-z
1/2+x,1/2-y,z
loop_
_atom_site_type_symbol
_atom_site_label
_atom_site_fract_x
_atom_site_fract_y
_atom_site_fract_z
Si Si1 0.037091 0.000000 0.137405
Si Si2 0.967044 0.236271 0.121376
Si Si3 0.501020 0.622673 0.612160
Si Si4 0.251037 0.000000 0.173292
Si Si5 0.747683 0.622858 0.675816
Si Si6 0.155336 0.714302 0.824296
O O1 0.201074 0.000000 0.217238
O O2 0.015126 0.108672 0.167831
O O3 0.903149 0.000000 0.983448
O O4 0.914771 0.298975 0.151567
O O5 0.114739 0.297953 0.202077
O O6 0.833611 0.249074 0.965346
O O7 0.481029 0.500000 0.625237
O O8 0.633202 0.627183 0.654073
O O9 0.340869 0.661736 0.458953
O O10 0.547654 0.696338 0.710200
O O11 0.353656 0.105059 0.228621
O O12 0.809658 0.500000 0.711166
#
# Coordination Sequence:
#
# PCOD8105415 Si02
#       6
#     4   8   8   4   8   8
#     4   9  18  34  53  75 108 145 176 216 275 327
#     4  10  21  34  54  81 109 141 181 226 271 324
#     4   9  19  36  56  78 107 142 179 222 271 322
#     4   9  18  34  53  75 108 145 176 216 275 327
#     4   9  19  36  56  78 107 142 179 222 271 322
#     4  10  21  34  54  81 109 141 181 226 271 324
#
# _framework density 19.279195000000001
#
# number of rings (size 3 to 8) (size 9 to 14) (size 15 to 20)
#    0.000    2.600    0.000    2.400    2.800    4.000 
#    0.000    3.000    0.000    3.600    0.000    0.000 
#    0.000    0.000    0.000    0.000    0.000    0.000 
#
# Total GULP energy -247889.123771 kJ/mol
# GULP energy per Si atom -12394.456189 kJ/mol
# Density = 1.923531 g / cm^3
# Si number density = 19.279195 Si / 1000 Ang^3
#
#
#
# Elastic Constant Matrix: (Units=GPa)
#
#
# Indices 1 2 3 4 5 6 
#
# 1 38.5191 10.6122 -0.6928 0.0017 2.6762 0.0004
# 2 10.6122 61.8637 21.2946 0.0040 6.1597 0.0016
# 3 -0.6928 21.2946 53.7514 0.0046 -1.8507 0.0020
# 4 0.0017 0.0040 0.0046 25.2469 0.0016 -1.2127
# 5 2.6762 6.1597 -1.8507 0.0016 23.2008 0.0004
# 6 0.0004 0.0016 0.0020 -1.2127 0.0004 33.1475
#
#
#
# Elastic Compliance Matrix: (Units=1/GPa)
#
#
# Indices 1 2 3 4 5 6 
#
# 1 0.027608 -0.005426 0.002452 -0.000001 -0.001548 0.000000
# 2 -0.005426 0.020531 -0.008393 -0.000001 -0.005495 0.000000
# 3 0.002452 -0.008393 0.022088 -0.000003 0.003707 -0.000001
# 4 -0.000001 -0.000001 -0.000003 0.039679 -0.000003 0.001452
# 5 -0.001548 -0.005495 0.003707 -0.000003 0.045035 -0.000001
# 6 0.000000 0.000000 -0.000001 0.001452 -0.000001 0.030221
#
#
# Mechanical properties :
#
#
# Convention : Reuss Voigt Hill
#
# Bulk Modulus (GPa) = 21.05525 24.06246 22.55886
# Shear Modulus (GPa) = 22.34864 24.51372 23.43118
#
# Velocity S-wave (km/s) = 3.40841 3.56969 3.48998
# Velocity P-wave (km/s) = 5.14146 5.43125 5.28834
#
# Compressibility (1/GPa) = 0.04749410
#
# Stress axis : x y z
#
# Youngs Moduli (GPa) = 36.22188 48.70583 45.27251
#
# Poissons Ratio (x) = 0.26426 -0.11101
# Poissons Ratio (y) = 0.19653 0.37997
# Poissons Ratio (z) = -0.08882 0.40879
#
# Static dielectric constant tensor:
#      x y z
#    x 3.356780 0.000000 -0.012660 
#    y 0.000000 3.782340 0.000000 
#    z -0.012660 0.000000 3.649190 
# 
# 
# High freq. dielectric constant tensor:
#      x y z
#    x 1.738820 0.000000 0.005820 
#    y 0.000000 1.748960 0.000000 
#    z 0.005820 0.000000 1.733570 
# 
# From -- ./inp_files/315857.got.cif
#   From: 2010.06.25/outbox.cif.g09.slc.cpg/sg12_158_cif.got.tgz:315857.got - 2010.06.28 00:19:55.
