data_PCOD8105431
_publ_section_title
;
Structure prediction by ZEFSAII (Michael W. Deem and Ramdas Pophale) SiO2 
 PCOD8105431
Probable space group: C 2/M
;
_chemical_formula_sum "Si O2"
_cell_formula_units_Z 56
_cell_length_a 11.078359
_cell_length_b 25.602582
_cell_length_c 12.510423
_cell_angle_alpha 90.000000
_cell_angle_beta 49.948655
_cell_angle_gamma 90.000000
_cell_volume 2716.178430
_symmetry_space_group_name_H-M "C 2/M"
_symmetry_group_IT_number 12
_symmetry_cell_setting 'monoclinic'
loop_
_space_group_symop_operation_xyz
x,y,z
-x,y,-z
-x,-y,-z
x,-y,z
1/2+x,1/2+y,z
1/2-x,1/2+y,-z
1/2-x,1/2-y,-z
1/2+x,1/2-y,z
loop_
_atom_site_type_symbol
_atom_site_label
_atom_site_fract_x
_atom_site_fract_y
_atom_site_fract_z
Si Si1 0.320615 0.174936 0.812788
Si Si2 0.300323 0.367413 0.912677
Si Si3 0.623936 0.754274 0.663177
Si Si4 0.829217 0.722898 0.130069
Si Si5 0.646278 0.361594 0.714584
Si Si6 0.699344 0.441739 0.271441
Si Si7 0.175297 0.059247 0.521407
O O1 0.480196 0.208626 0.706823
O O2 0.182391 0.217818 0.907245
O O3 0.278656 0.141436 0.731395
O O4 0.314850 0.136111 0.918108
O O5 0.303678 0.311200 0.852086
O O6 0.476648 0.385855 0.848192
O O7 0.227502 0.406610 0.864988
O O8 0.750000 0.750000 0.500000
O O9 0.698258 0.779999 0.727073
O O10 0.584757 0.694158 0.708175
O O11 0.000000 0.701105 0.000000
O O12 0.730421 0.397936 0.577021
O O13 0.759146 0.500000 0.214929
O O14 0.511882 0.438475 0.376689
O O15 0.750575 0.424921 0.363001
O O16 0.228558 0.000000 0.521841
#
# Coordination Sequence:
#
# PCOD8105431 Si02
#       7
#     8   8   8   8   8   8   8
#     4  11  21  38  54  80 117 155 191 238 284 356
#     4  11  19  34  59  82 111 155 195 239 296 351
#     4  11  24  38  54  81 117 153 197 244 289 341
#     4  11  21  35  57  79 109 153 197 230 282 348
#     4  10  21  34  55  86 115 154 195 238 296 352
#     4   8  16  30  53  84 114 148 195 252 296 339
#     4   8  15  32  54  83 121 154 193 244 300 352
#
# _framework density 20.617203
#
# number of rings (size 3 to 8) (size 9 to 14) (size 15 to 20)
#    0.000    2.000    2.857    3.429    2.000    2.286 
#    0.000    0.714    0.000    3.857    0.000    3.000 
#    0.000    0.000    0.000    0.000    0.000    0.000 
#
# Total GULP energy -346869.346071 kJ/mol
# GULP energy per Si atom -12388.190931 kJ/mol
# Density = 2.057028 g / cm^3
# Si number density = 20.617203 Si / 1000 Ang^3
#
#
#
# Elastic Constant Matrix: (Units=GPa)
#
#
# Indices 1 2 3 4 5 6 
#
# 1 85.7345 42.0339 60.8498 0.0000 28.3646 0.0000
# 2 42.0339 86.3742 55.8238 0.0000 33.3395 0.0000
# 3 60.8498 55.8238 142.7145 0.0000 31.0843 0.0000
# 4 0.0000 0.0000 0.0000 30.7451 0.0000 13.8082
# 5 28.3646 33.3395 31.0843 0.0000 36.2285 0.0000
# 6 0.0000 0.0000 0.0000 13.8082 0.0000 20.2238
#
#
#
# Elastic Compliance Matrix: (Units=1/GPa)
#
#
# Indices 1 2 3 4 5 6 
#
# 1 0.019632 -0.002933 -0.005489 0.000000 -0.007962 0.000000
# 2 -0.002933 0.020718 -0.003937 0.000000 -0.013392 0.000000
# 3 -0.005489 -0.003937 0.011268 0.000000 -0.001748 0.000000
# 4 0.000000 0.000000 0.000000 0.046910 0.000000 -0.032029
# 5 -0.007962 -0.013392 -0.001748 0.000000 0.047660 0.000000
# 6 0.000000 0.000000 0.000000 -0.032029 0.000000 0.071315
#
#
# Mechanical properties :
#
#
# Convention : Reuss Voigt Hill
#
# Bulk Modulus (GPa) = 37.17416 70.24870 53.71143
# Shear Modulus (GPa) = 19.90541 27.84719 23.87630
#
# Velocity S-wave (km/s) = 3.11058 3.67914 3.40674
# Velocity P-wave (km/s) = 5.56514 7.22461 6.44848
#
# Compressibility (1/GPa) = 0.02690041
#
# Stress axis : x y z
#
# Youngs Moduli (GPa) = 50.93758 48.26623 88.74763
#
# Poissons Ratio (x) = 0.14157 0.48715
# Poissons Ratio (y) = 0.14941 0.34937
# Poissons Ratio (z) = 0.27960 0.19001
#
# Static dielectric constant tensor:
#      x y z
#    x 4.595750 0.000000 -0.022490 
#    y 0.000000 3.955040 0.000000 
#    z -0.022490 0.000000 3.848770 
# 
# 
# High freq. dielectric constant tensor:
#      x y z
#    x 1.789730 0.000000 0.022800 
#    y 0.000000 1.783710 0.000000 
#    z 0.022800 0.000000 1.794090 
# 
# From -- ./inp_files/136919.got.cif
#   From: 2010.06.25/outbox.cif.g09.slc.cpg/sg12_69_cif.got.tgz:136919.got - 2010.06.28 00:19:55.
