data_PCOD8105658
_publ_section_title
;
Structure prediction by ZEFSAII (Michael W. Deem and Ramdas Pophale) SiO2 
 PCOD8105658
Probable space group: C 2/M
;
_chemical_formula_sum "Si O2"
_cell_formula_units_Z 64
_cell_length_a 9.957964
_cell_length_b 27.375427
_cell_length_c 14.651164
_cell_angle_alpha 90.000000
_cell_angle_beta 57.424878
_cell_angle_gamma 90.000000
_cell_volume 3365.654201
_symmetry_space_group_name_H-M "C 2/M"
_symmetry_group_IT_number 12
_symmetry_cell_setting 'monoclinic'
loop_
_space_group_symop_operation_xyz
x,y,z
-x,y,-z
-x,-y,-z
x,-y,z
1/2+x,1/2+y,z
1/2-x,1/2+y,-z
1/2-x,1/2-y,-z
1/2+x,1/2-y,z
loop_
_atom_site_type_symbol
_atom_site_label
_atom_site_fract_x
_atom_site_fract_y
_atom_site_fract_z
Si Si1 0.178815 0.904466 0.900731
Si Si2 0.340050 0.944355 0.677628
Si Si3 0.317433 0.699415 0.068418
Si Si4 0.156896 0.443138 0.650751
Si Si5 0.126048 0.057143 0.594318
Si Si6 0.310237 0.194085 0.082324
Si Si7 0.196214 0.102576 0.232162
Si Si8 0.337653 0.056594 0.016619
O O1 0.203635 0.938113 0.803897
O O2 0.211719 0.848047 0.857554
O O3 0.303925 0.918430 0.932953
O O4 0.000000 0.912587 0.000000
O O5 0.504766 0.919934 0.652606
O O6 0.270354 0.924784 0.607546
O O7 0.383600 0.000000 0.645249
O O8 0.244386 0.750838 0.130727
O O9 0.500000 0.712847 0.000000
O O10 0.262669 0.681466 0.988951
O O11 0.129033 0.500000 0.686265
O O12 0.314369 0.437418 0.531198
O O13 0.177066 0.413501 0.737213
O O14 0.979943 0.094322 0.662703
O O15 0.079203 0.000000 0.630767
O O16 0.237208 0.158121 0.186173
O O17 0.500000 0.188908 0.000000
O O18 0.202374 0.067978 0.140737
O O19 0.353924 0.000000 0.991274
O O20 0.500000 0.078864 0.000000
#
# Coordination Sequence:
#
# PCOD8105658 Si02
#       8
#     8   8   8   8   8   8   8   8
#     4  11  21  33  52  79 110 143 176 220 266 320
#     4  10  21  35  54  78 107 147 188 222 268 324
#     4   9  20  37  56  77 111 143 179 222 264 316
#     4  10  21  37  55  77 107 143 188 235 274 316
#     4  10  21  37  55  77 107 142 187 238 276 313
#     4  10  21  37  55  81 112 143 180 220 266 329
#     4  12  21  32  53  80 106 144 179 221 273 324
#     4  11  22  33  46  72 114 151 175 206 255 321
#
# _framework density 19.015618
#
# number of rings (size 3 to 8) (size 9 to 14) (size 15 to 20)
#    0.000    1.625    1.250    4.125    3.500    6.500 
#    0.000    0.000    0.000    0.000    0.000    5.250 
#    0.000    0.000    0.000    0.000    0.000    0.000 
#
# Total GULP energy -396535.184244 kJ/mol
# GULP energy per Si atom -12391.724508 kJ/mol
# Density = 1.897234 g / cm^3
# Si number density = 19.015618 Si / 1000 Ang^3
#
#
#
# Elastic Constant Matrix: (Units=GPa)
#
#
# Indices 1 2 3 4 5 6 
#
# 1 75.4851 22.7136 0.7445 0.0000 7.0897 0.0000
# 2 22.7136 69.7864 19.5682 0.0000 4.2144 0.0000
# 3 0.7445 19.5682 57.9197 0.0000 6.2901 0.0000
# 4 0.0000 0.0000 0.0000 21.2698 0.0000 -2.3651
# 5 7.0897 4.2144 6.2901 0.0000 28.7610 0.0000
# 6 0.0000 0.0000 0.0000 -2.3651 0.0000 15.3754
#
#
#
# Elastic Compliance Matrix: (Units=1/GPa)
#
#
# Indices 1 2 3 4 5 6 
#
# 1 0.015131 -0.005268 0.001953 0.000000 -0.003385 0.000000
# 2 -0.005268 0.017702 -0.005913 0.000000 -0.000002 0.000000
# 3 0.001953 -0.005913 0.019663 0.000000 -0.003915 0.000000
# 4 0.000000 0.000000 0.000000 0.047833 0.000000 0.007358
# 5 -0.003385 -0.000002 -0.003915 0.000000 0.036460 0.000000
# 6 0.000000 0.000000 0.000000 0.007358 0.000000 0.066171
#
#
# Mechanical properties :
#
#
# Convention : Reuss Voigt Hill
#
# Bulk Modulus (GPa) = 29.37638 32.13819 30.75729
# Shear Modulus (GPa) = 21.48103 23.75891 22.61997
#
# Velocity S-wave (km/s) = 3.36468 3.53858 3.45272
# Velocity P-wave (km/s) = 5.52963 5.79940 5.66612
#
# Compressibility (1/GPa) = 0.03404095
#
# Stress axis : x y z
#
# Youngs Moduli (GPa) = 66.08731 56.49034 50.85692
#
# Poissons Ratio (x) = 0.29760 -0.09932
# Poissons Ratio (y) = 0.34815 0.30070
# Poissons Ratio (z) = -0.12907 0.33401
#
# Static dielectric constant tensor:
#      x y z
#    x 3.800020 0.000000 -0.024670 
#    y 0.000000 3.492700 0.000000 
#    z -0.024670 0.000000 3.297260 
# 
# 
# High freq. dielectric constant tensor:
#      x y z
#    x 1.765610 0.000000 -0.000830 
#    y 0.000000 1.714670 0.000000 
#    z -0.000830 0.000000 1.711340 
# 
# From -- ./inp_files/201293.got.cif
#   From: 2010.06.25/outbox.cif.g09.slc.cpg/sg12_101_cif.got.tgz:201293.got - 2010.06.28 00:19:55.
