data_PCOD8105943
_publ_section_title
;
Structure prediction by ZEFSAII (Michael W. Deem and Ramdas Pophale) SiO2 
 PCOD8105943
Probable space group: C 2/M
;
_chemical_formula_sum "Si O2"
_cell_formula_units_Z 64
_cell_length_a 34.578116
_cell_length_b 16.989626
_cell_length_c 9.909782
_cell_angle_alpha 90.000000
_cell_angle_beta 37.046800
_cell_angle_gamma 90.000000
_cell_volume 3507.378412
_symmetry_space_group_name_H-M "C 2/M"
_symmetry_group_IT_number 12
_symmetry_cell_setting 'monoclinic'
loop_
_space_group_symop_operation_xyz
x,y,z
-x,y,-z
-x,-y,-z
x,-y,z
1/2+x,1/2+y,z
1/2-x,1/2+y,-z
1/2-x,1/2-y,-z
1/2+x,1/2-y,z
loop_
_atom_site_type_symbol
_atom_site_label
_atom_site_fract_x
_atom_site_fract_y
_atom_site_fract_z
Si Si1 0.871796 0.408771 0.588684
Si Si2 0.132621 0.684319 0.906020
Si Si3 0.575882 0.210314 0.770443
Si Si4 0.278566 0.591726 0.956499
Si Si5 0.710761 0.312098 0.828390
Si Si6 0.073576 0.585429 0.283415
Si Si7 0.757322 0.907376 0.513143
Si Si8 0.815859 0.820124 0.582850
O O1 0.889411 0.500000 0.520237
O O2 0.909518 0.363977 0.365263
O O3 0.896709 0.377412 0.663437
O O4 0.795814 0.394687 0.799224
O O5 0.107456 0.694657 0.826641
O O6 0.153686 0.767576 0.910195
O O7 0.189769 0.621570 0.758827
O O8 0.077975 0.647516 0.150635
O O9 0.611254 0.286989 0.607851
O O10 0.500000 0.225243 0.000000
O O11 0.297326 0.500000 0.910070
O O12 0.297585 0.624308 0.758051
O O13 0.316542 0.642424 0.963883
O O14 0.737758 0.378218 0.653320
O O15 0.767599 0.253350 0.711400
O O16 0.107226 0.500000 0.161290
O O17 0.000000 0.568285 0.500000
O O18 0.812302 0.871022 0.455885
O O19 0.762362 0.000000 0.501932
#
# Coordination Sequence:
#
# PCOD8105943 Si02
#       8
#     8   8   8   8   8   8   8   8
#     4  10  21  37  56  85 120 151 188 234 288 351
#     4  11  21  37  55  86 113 146 192 234 284 346
#     4  12  24  38  57  82 119 164 199 229 275 341
#     4  11  22  36  60  90 114 145 185 238 311 354
#     4  11  20  36  58  84 118 143 178 244 300 342
#     4  10  21  36  53  77 113 155 195 228 265 329
#     4  11  20  35  60  85 115 149 183 238 297 340
#     4  11  21  38  56  87 120 150 193 242 280 348
#
# _framework density 18.247247000000002
#
# number of rings (size 3 to 8) (size 9 to 14) (size 15 to 20)
#    0.000    1.125    3.750    4.500    1.750    3.250 
#    0.000    0.000    0.000    1.500    0.000    0.875 
#    0.000    0.000    0.000    0.000    0.000    0.000 
#
# Total GULP energy -396762.830184 kJ/mol
# GULP energy per Si atom -12398.838443 kJ/mol
# Density = 1.820572 g / cm^3
# Si number density = 18.247247 Si / 1000 Ang^3
#
#
#
# Elastic Constant Matrix: (Units=GPa)
#
#
# Indices 1 2 3 4 5 6 
#
# 1 61.6779 36.7131 23.3430 0.0000 22.4500 0.0000
# 2 36.7131 115.5503 36.7691 0.0000 9.1732 0.0000
# 3 23.3430 36.7691 75.3570 0.0000 4.7764 0.0000
# 4 0.0000 0.0000 0.0000 46.4425 0.0000 15.6913
# 5 22.4500 9.1732 4.7764 0.0000 30.8080 0.0000
# 6 0.0000 0.0000 0.0000 15.6913 0.0000 27.6522
#
#
#
# Elastic Compliance Matrix: (Units=1/GPa)
#
#
# Indices 1 2 3 4 5 6 
#
# 1 0.028085 -0.006028 -0.004621 0.000000 -0.017955 0.000000
# 2 -0.006028 0.011702 -0.003939 0.000000 0.001519 0.000000
# 3 -0.004621 -0.003939 0.016498 0.000000 0.001982 0.000000
# 4 0.000000 0.000000 0.000000 0.026639 0.000000 -0.015117
# 5 -0.017955 0.001519 0.001982 0.000000 0.044783 0.000000
# 6 0.000000 0.000000 0.000000 -0.015117 0.000000 0.044742
#
#
# Mechanical properties :
#
#
# Convention : Reuss Voigt Hill
#
# Bulk Modulus (GPa) = 36.88593 49.58175 43.23384
# Shear Modulus (GPa) = 23.73476 31.36452 27.54964
#
# Velocity S-wave (km/s) = 3.61048 4.15042 3.88983
# Velocity P-wave (km/s) = 6.13507 7.08513 6.62715
#
# Compressibility (1/GPa) = 0.02711061
#
# Stress axis : x y z
#
# Youngs Moduli (GPa) = 35.60575 85.45385 60.61397
#
# Poissons Ratio (x) = 0.51509 0.28008
# Poissons Ratio (y) = 0.21462 0.23876
# Poissons Ratio (z) = 0.16453 0.33660
#
# Static dielectric constant tensor:
#      x y z
#    x 3.592830 0.000000 0.199110 
#    y 0.000000 3.424370 0.000000 
#    z 0.199110 0.000000 3.357800 
# 
# 
# High freq. dielectric constant tensor:
#      x y z
#    x 1.711170 0.000000 0.026540 
#    y 0.000000 1.708690 0.000000 
#    z 0.026540 0.000000 1.689250 
# 
# From -- ./inp_files/112818.got.cif
#   From: 2010.06.25/outbox.cif.g09.slc.cpg/sg12_57_cif.got.tgz:112818.got - 2010.06.28 00:19:55.
