data_PCOD8105798
_publ_section_title
;
Structure prediction by ZEFSAII (Michael W. Deem and Ramdas Pophale) SiO2 
 PCOD8105798
Probable space group: C 2/M
;
_chemical_formula_sum "Si O2"
_cell_formula_units_Z 64
_cell_length_a 32.091036
_cell_length_b 13.247131
_cell_length_c 9.430720
_cell_angle_alpha 90.000000
_cell_angle_beta 127.211565
_cell_angle_gamma 90.000000
_cell_volume 3192.904727
_symmetry_space_group_name_H-M "C 2/M"
_symmetry_group_IT_number 12
_symmetry_cell_setting 'monoclinic'
loop_
_space_group_symop_operation_xyz
x,y,z
-x,y,-z
-x,-y,-z
x,-y,z
1/2+x,1/2+y,z
1/2-x,1/2+y,-z
1/2-x,1/2-y,-z
1/2+x,1/2-y,z
loop_
_atom_site_type_symbol
_atom_site_label
_atom_site_fract_x
_atom_site_fract_y
_atom_site_fract_z
Si Si1 0.747627 0.883186 0.397631
Si Si2 0.900548 0.226119 0.041259
Si Si3 0.271734 0.880348 0.957426
Si Si4 0.836919 0.263571 0.639570
Si Si5 0.390309 0.881206 0.245352
Si Si6 0.399375 0.732421 0.495012
Si Si7 0.665461 0.619140 0.866565
Si Si8 0.503397 0.617388 0.174065
O O1 0.735293 0.837929 0.216468
O O2 0.799344 0.833404 0.568642
O O3 0.697275 0.862185 0.392982
O O4 0.759675 0.000000 0.418925
O O5 0.912213 0.332714 0.144785
O O6 0.854855 0.167445 0.030276
O O7 0.951769 0.156952 0.146146
O O8 0.883540 0.248251 0.846705
O O9 0.225079 0.840216 0.963707
O O10 0.267488 0.000000 0.938100
O O11 0.328735 0.851342 0.134613
O O12 0.861378 0.277882 0.535769
O O13 0.417947 0.827254 0.436163
O O14 0.401549 0.000000 0.267469
O O15 0.370275 0.648846 0.340569
O O16 0.448469 0.679944 0.667241
O O17 0.664475 0.500000 0.880192
O O18 0.510711 0.500000 0.225876
O O19 0.500000 0.635201 0.000000
#
# Coordination Sequence:
#
# PCOD8105798 Si02
#       8
#     8   8   8   8   8   8   8   8
#     4  10  21  35  57  89 127 167 205 247 297 363
#     4  11  23  40  63  91 124 160 207 259 306 368
#     4   9  17  34  58  84 117 163 206 240 297 362
#     4  11  22  37  59  94 125 160 207 252 304 357
#     4  10  23  42  65  89 123 169 208 254 306 360
#     4  11  23  40  63  89 123 160 207 260 305 367
#     4  10  21  36  58  90 126 163 203 252 305 366
#     4  11  24  43  68  94 123 157 196 249 317 379
#
# _framework density 20.044443000000001
#
# number of rings (size 3 to 8) (size 9 to 14) (size 15 to 20)
#    0.000    1.625    3.750    0.750    0.000    8.000 
#    0.000    5.625    0.000    0.750    0.000    0.000 
#    0.000    0.000    0.000    0.000    0.000    0.000 
#
# Total GULP energy -396860.743213 kJ/mol
# GULP energy per Si atom -12401.898225 kJ/mol
# Density = 1.999882 g / cm^3
# Si number density = 20.044443 Si / 1000 Ang^3
#
#
#
# Elastic Constant Matrix: (Units=GPa)
#
#
# Indices 1 2 3 4 5 6 
#
# 1 74.6391 29.1230 11.1806 0.0000 -2.4702 0.0000
# 2 29.1230 93.4130 31.6297 0.0000 -1.1971 0.0000
# 3 11.1806 31.6297 80.4165 0.0000 -0.8603 0.0000
# 4 0.0000 0.0000 0.0000 25.4132 0.0000 0.6311
# 5 -2.4702 -1.1971 -0.8603 0.0000 29.3675 0.0000
# 6 0.0000 0.0000 0.0000 0.6311 0.0000 28.7942
#
#
#
# Elastic Compliance Matrix: (Units=1/GPa)
#
#
# Indices 1 2 3 4 5 6 
#
# 1 0.015294 -0.004659 -0.000282 0.000000 0.001088 0.000000
# 2 -0.004659 0.013773 -0.004769 0.000000 0.000030 0.000000
# 3 -0.000282 -0.004769 0.014353 0.000000 0.000202 0.000000
# 4 0.000000 0.000000 0.000000 0.039371 0.000000 -0.000863
# 5 0.001088 0.000030 0.000202 0.000000 0.034150 0.000000
# 6 0.000000 0.000000 0.000000 -0.000863 0.000000 0.034748
#
#
# Mechanical properties :
#
#
# Convention : Reuss Voigt Hill
#
# Bulk Modulus (GPa) = 41.66853 43.59279 42.63066
# Shear Modulus (GPa) = 27.91616 28.48402 28.20009
#
# Velocity S-wave (km/s) = 3.73596 3.77376 3.75491
# Velocity P-wave (km/s) = 6.28037 6.38621 6.33351
#
# Compressibility (1/GPa) = 0.02399893
#
# Stress axis : x y z
#
# Youngs Moduli (GPa) = 65.38601 72.60729 69.67426
#
# Poissons Ratio (x) = 0.33824 0.01968
# Poissons Ratio (y) = 0.30460 0.33229
# Poissons Ratio (z) = 0.01847 0.34627
#
# Static dielectric constant tensor:
#      x y z
#    x 3.749200 0.000000 -0.075240 
#    y 0.000000 3.619730 0.000000 
#    z -0.075240 0.000000 3.639530 
# 
# 
# High freq. dielectric constant tensor:
#      x y z
#    x 1.780680 0.000000 -0.006710 
#    y 0.000000 1.784420 0.000000 
#    z -0.006710 0.000000 1.781940 
# 
# From -- ./inp_files/111670.got.cif
#   From: 2010.06.25/outbox.cif.g09.slc.cpg/sg12_56_cif.got.tgz:111670.got - 2010.06.28 00:19:55.
