data_PCOD8105922
_publ_section_title
;
Structure prediction by ZEFSAII (Michael W. Deem and Ramdas Pophale) SiO2 
 PCOD8105922
Probable space group: C 2/M
;
_chemical_formula_sum "Si O2"
_cell_formula_units_Z 48
_cell_length_a 31.117886
_cell_length_b 9.242743
_cell_length_c 9.017584
_cell_angle_alpha 90.000000
_cell_angle_beta 88.309559
_cell_angle_gamma 90.000000
_cell_volume 2592.460281
_symmetry_space_group_name_H-M "C 2/M"
_symmetry_group_IT_number 12
_symmetry_cell_setting 'monoclinic'
loop_
_space_group_symop_operation_xyz
x,y,z
-x,y,-z
-x,-y,-z
x,-y,z
1/2+x,1/2+y,z
1/2-x,1/2+y,-z
1/2-x,1/2-y,-z
1/2+x,1/2-y,z
loop_
_atom_site_type_symbol
_atom_site_label
_atom_site_fract_x
_atom_site_fract_y
_atom_site_fract_z
Si Si1 0.753610 0.834493 0.350531
Si Si2 0.838899 0.669092 0.671823
Si Si3 0.416091 0.834096 0.863481
Si Si4 0.653564 0.669289 0.638855
Si Si5 0.427132 0.671699 0.163824
Si Si6 0.000364 0.334684 0.670308
O O1 0.750000 0.750000 0.500000
O O2 0.710070 0.799133 0.261433
O O3 0.800889 0.798968 0.277778
O O4 0.752422 0.000000 0.397100
O O5 0.846305 0.500000 0.638944
O O6 0.871467 0.720861 0.795816
O O7 0.848403 0.750839 0.517987
O O8 0.452447 0.816625 0.735859
O O9 0.412826 0.000000 0.918263
O O10 0.427230 0.733175 0.999160
O O11 0.647904 0.500000 0.606748
O O12 0.615695 0.726102 0.747873
O O13 0.429665 0.500000 0.154863
O O14 0.468541 0.729348 0.244306
O O15 0.016502 0.500000 0.686038
O O16 0.000000 0.286336 0.500000
#
# Coordination Sequence:
#
# PCOD8105922 Si02
#       6
#     8   8   8   8   8   8
#     4   8  14  27  48  73 100 128 162 206 251 292
#     4   9  17  31  54  79  99 127 170 213 250 294
#     4  10  21  36  53  75 103 133 165 205 253 298
#     4   9  18  32  50  74 104 135 166 205 252 296
#     4  11  23  36  51  74 105 139 170 201 243 297
#     4  10  21  38  59  79  99 126 163 209 256 298
#
# _framework density 18.515229999999999
#
# number of rings (size 3 to 8) (size 9 to 14) (size 15 to 20)
#    0.000    2.500    0.000    2.000    0.000    6.333 
#    0.000    0.833    0.000    0.000    0.000    0.000 
#    0.000    0.000    0.000    0.000    0.000    0.000 
#
# Total GULP energy -297410.546829 kJ/mol
# GULP energy per Si atom -12392.106118 kJ/mol
# Density = 1.847309 g / cm^3
# Si number density = 18.515230 Si / 1000 Ang^3
#
#
#
# Elastic Constant Matrix: (Units=GPa)
#
#
# Indices 1 2 3 4 5 6 
#
# 1 125.3971 31.5117 37.0053 0.0000 28.3573 0.0000
# 2 31.5117 46.5585 29.9667 0.0000 12.4645 0.0000
# 3 37.0053 29.9667 86.2273 0.0000 23.3195 0.0000
# 4 0.0000 0.0000 0.0000 21.0125 0.0000 -0.6272
# 5 28.3573 12.4645 23.3195 0.0000 20.1543 0.0000
# 6 0.0000 0.0000 0.0000 -0.6272 0.0000 24.2934
#
#
#
# Elastic Compliance Matrix: (Units=1/GPa)
#
#
# Indices 1 2 3 4 5 6 
#
# 1 0.012432 -0.004603 0.000328 0.000000 -0.015025 0.000000
# 2 -0.004603 0.030464 -0.007667 0.000000 -0.003493 0.000000
# 3 0.000328 -0.007667 0.018867 0.000000 -0.017550 0.000000
# 4 0.000000 0.000000 0.000000 0.047627 0.000000 0.001230
# 5 -0.015025 -0.003493 -0.017550 0.000000 0.093223 0.000000
# 6 0.000000 0.000000 0.000000 0.001230 0.000000 0.041195
#
#
# Mechanical properties :
#
#
# Convention : Reuss Voigt Hill
#
# Bulk Modulus (GPa) = 26.40025 50.57226 38.48625
# Shear Modulus (GPa) = 17.83674 23.73865 20.78770
#
# Velocity S-wave (km/s) = 3.10716 3.58455 3.35436
# Velocity P-wave (km/s) = 5.21174 6.67122 5.98612
#
# Compressibility (1/GPa) = 0.03787844
#
# Stress axis : x y z
#
# Youngs Moduli (GPa) = 80.43492 32.82614 53.00153
#
# Poissons Ratio (x) = 0.15110 -0.01736
# Poissons Ratio (y) = 0.37023 0.40637
# Poissons Ratio (z) = -0.02634 0.25168
#
# Static dielectric constant tensor:
#      x y z
#    x 4.191180 0.000000 0.012500 
#    y 0.000000 3.301220 0.000000 
#    z 0.012500 0.000000 3.089580 
# 
# 
# High freq. dielectric constant tensor:
#      x y z
#    x 1.747850 0.000000 0.003480 
#    y 0.000000 1.715320 0.000000 
#    z 0.003480 0.000000 1.687070 
# 
# From -- ./inp_files/108557.got.cif
#   From: 2010.06.25/outbox.cif.g09.slc.cpg/sg12_55_cif.got.tgz:108557.got - 2010.06.28 00:19:55.
