data_PCOD8105544
_publ_section_title
;
Structure prediction by ZEFSAII (Michael W. Deem and Ramdas Pophale) SiO2 
 PCOD8105544
Probable space group: C 2/M
;
_chemical_formula_sum "Si O2"
_cell_formula_units_Z 56
_cell_length_a 27.311593
_cell_length_b 8.852747
_cell_length_c 15.950210
_cell_angle_alpha 90.000000
_cell_angle_beta 130.070247
_cell_angle_gamma 90.000000
_cell_volume 2951.196387
_symmetry_space_group_name_H-M "C 2/M"
_symmetry_group_IT_number 12
_symmetry_cell_setting 'monoclinic'
loop_
_space_group_symop_operation_xyz
x,y,z
-x,y,-z
-x,-y,-z
x,-y,z
1/2+x,1/2+y,z
1/2-x,1/2+y,-z
1/2-x,1/2-y,-z
1/2+x,1/2-y,z
loop_
_atom_site_type_symbol
_atom_site_label
_atom_site_fract_x
_atom_site_fract_y
_atom_site_fract_z
Si Si1 0.527235 0.820485 0.346904
Si Si2 0.362735 0.323736 0.439918
Si Si3 0.789341 0.323590 0.116884
Si Si4 0.498746 0.178449 0.867540
Si Si5 0.587138 0.323394 0.688828
Si Si6 0.239374 0.176203 0.244477
Si Si7 0.103517 0.678892 0.110673
O O1 0.598823 0.763652 0.445213
O O2 0.506753 0.757970 0.232699
O O3 0.480714 0.750170 0.365112
O O4 0.524615 0.000000 0.348609
O O5 0.361655 0.500000 0.459309
O O6 0.397338 0.288434 0.390285
O O7 0.290381 0.262637 0.358878
O O8 0.796941 0.500000 0.108931
O O9 0.859517 0.251039 0.193234
O O10 0.752920 0.286506 0.162627
O O11 0.750000 0.250000 0.000000
O O12 0.438487 0.232648 0.856293
O O13 0.496749 0.000000 0.863970
O O14 0.565568 0.228704 0.984248
O O15 0.584309 0.500000 0.704212
O O16 0.169380 0.232882 0.189891
O O17 0.245454 0.000000 0.270102
O O18 0.116428 0.500000 0.125314
#
# Coordination Sequence:
#
# PCOD8105544 Si02
#       7
#     8   8   8   8   8   8   8
#     4  11  21  34  55  83 112 142 180 228 275 317
#     4  10  21  38  56  77 106 147 189 222 263 323
#     4  10  21  35  51  76 111 144 179 221 266 319
#     4   8  18  35  56  83 109 139 179 221 266 323
#     4  10  21  36  53  76 108 146 186 222 264 319
#     4  10  21  36  55  81 109 139 177 225 276 318
#     4   9  17  36  61  80 106 143 181 217 264 329
#
# _framework density 18.975355
#
# number of rings (size 3 to 8) (size 9 to 14) (size 15 to 20)
#    0.000    2.286    0.000    3.429    2.000    5.143 
#    0.000    4.286    0.000    0.000    0.000    0.000 
#    0.000    0.000    0.000    0.000    0.000    0.000 
#
# Total GULP energy -347258.538585 kJ/mol
# GULP energy per Si atom -12402.090664 kJ/mol
# Density = 1.893217 g / cm^3
# Si number density = 18.975355 Si / 1000 Ang^3
#
#
#
# Elastic Constant Matrix: (Units=GPa)
#
#
# Indices 1 2 3 4 5 6 
#
# 1 67.8081 22.8998 37.4745 0.0000 18.2987 0.0000
# 2 22.8998 65.2026 33.7593 0.0000 2.4122 0.0000
# 3 37.4745 33.7593 114.4896 0.0000 14.2250 0.0000
# 4 0.0000 0.0000 0.0000 36.4004 0.0000 8.8237
# 5 18.2987 2.4122 14.2250 0.0000 29.1189 0.0000
# 6 0.0000 0.0000 0.0000 8.8237 0.0000 25.8357
#
#
#
# Elastic Compliance Matrix: (Units=1/GPa)
#
#
# Indices 1 2 3 4 5 6 
#
# 1 0.021837 -0.005046 -0.004266 0.000000 -0.011221 0.000000
# 2 -0.005046 0.019304 -0.004510 0.000000 0.003775 0.000000
# 3 -0.004266 -0.004510 0.011797 0.000000 -0.002709 0.000000
# 4 0.000000 0.000000 0.000000 0.029952 0.000000 -0.010229
# 5 -0.011221 0.003775 -0.002709 0.000000 0.042404 0.000000
# 6 0.000000 0.000000 0.000000 -0.010229 0.000000 0.042200
#
#
# Mechanical properties :
#
#
# Convention : Reuss Voigt Hill
#
# Bulk Modulus (GPa) = 39.53163 48.41859 43.97511
# Shear Modulus (GPa) = 24.56185 28.49545 26.52865
#
# Velocity S-wave (km/s) = 3.60169 3.87939 3.74312
# Velocity P-wave (km/s) = 6.17856 6.75561 6.47352
#
# Compressibility (1/GPa) = 0.02529620
#
# Stress axis : x y z
#
# Youngs Moduli (GPa) = 45.79384 51.80238 84.76762
#
# Poissons Ratio (x) = 0.26138 0.36159
# Poissons Ratio (y) = 0.23106 0.38227
# Poissons Ratio (z) = 0.19534 0.23361
#
# Static dielectric constant tensor:
#      x y z
#    x 3.482850 0.000000 -0.031630 
#    y 0.000000 3.369930 0.000000 
#    z -0.031630 0.000000 3.737430 
# 
# 
# High freq. dielectric constant tensor:
#      x y z
#    x 1.722300 0.000000 0.010410 
#    y 0.000000 1.732850 0.000000 
#    z 0.010410 0.000000 1.748880 
# 
# From -- ./inp_files/288488.got.cif
#   From: 2010.06.25/outbox.cif.g09.slc.cpg/sg12_145_cif.got.tgz:288488.got - 2010.06.28 00:19:55.
