data_PCOD8105902
_publ_section_title
;
Structure prediction by ZEFSAII (Michael W. Deem and Ramdas Pophale) SiO2 
 PCOD8105902
Probable space group: C 2/M
;
_chemical_formula_sum "Si O2"
_cell_formula_units_Z 64
_cell_length_a 27.747110
_cell_length_b 8.841376
_cell_length_c 14.308043
_cell_angle_alpha 90.000000
_cell_angle_beta 103.968595
_cell_angle_gamma 90.000000
_cell_volume 3406.287130
_symmetry_space_group_name_H-M "C 2/M"
_symmetry_group_IT_number 12
_symmetry_cell_setting 'monoclinic'
loop_
_space_group_symop_operation_xyz
x,y,z
-x,y,-z
-x,-y,-z
x,-y,z
1/2+x,1/2+y,z
1/2-x,1/2+y,-z
1/2-x,1/2-y,-z
1/2+x,1/2-y,z
loop_
_atom_site_type_symbol
_atom_site_label
_atom_site_fract_x
_atom_site_fract_y
_atom_site_fract_z
Si Si1 0.363607 0.820449 0.116133
Si Si2 0.872074 0.173548 0.730447
Si Si3 0.304086 0.320031 0.530065
Si Si4 0.160809 0.325387 0.103111
Si Si5 0.233255 0.823158 0.896706
Si Si6 0.430176 0.678596 0.288787
Si Si7 0.612218 0.178917 0.550103
Si Si8 0.956182 0.174970 0.629157
O O1 0.316890 0.762572 0.157987
O O2 0.412884 0.742239 0.180174
O O3 0.367140 0.000000 0.124688
O O4 0.356447 0.761759 0.006176
O O5 0.829378 0.230719 0.639458
O O6 0.870986 0.255731 0.828781
O O7 0.925791 0.204208 0.710072
O O8 0.863273 0.000000 0.748096
O O9 0.301808 0.500000 0.519554
O O10 0.250000 0.250000 0.500000
O O11 0.337074 0.255778 0.461146
O O12 0.148457 0.500000 0.096154
O O13 0.219783 0.297301 0.150586
O O14 0.222106 0.000000 0.904316
O O15 0.250000 0.750000 0.000000
O O16 0.421924 0.500000 0.291386
O O17 0.397450 0.762819 0.350573
O O18 0.487537 0.722610 0.327096
O O19 0.565357 0.224510 0.464380
O O20 0.618892 0.000000 0.552849
O O21 0.951096 0.000000 0.595960
#
# Coordination Sequence:
#
# PCOD8105902 Si02
#       8
#     8   8   8   8   8   8   8   8
#     4  10  21  36  52  77 111 140 177 227 271 320
#     4   9  19  35  56  79 104 138 180 222 262 315
#     4  10  21  38  57  82 116 149 183 224 269 316
#     4   9  19  34  53  77 106 141 178 218 264 317
#     4   9  17  31  50  73 102 137 176 215 260 312
#     4  11  22  37  58  80 106 142 179 223 279 328
#     4  11  22  36  57  84 111 142 180 220 268 328
#     4   9  20  39  58  79 107 138 178 226 273 324
#
# _framework density 18.788786999999999
#
# number of rings (size 3 to 8) (size 9 to 14) (size 15 to 20)
#    0.000    2.250    0.000    4.500    0.000    9.000 
#    0.000    3.125    0.000    3.750    0.000    0.000 
#    0.000    0.000    0.000    0.000    0.000    0.000 
#
# Total GULP energy -396741.884236 kJ/mol
# GULP energy per Si atom -12398.183882 kJ/mol
# Density = 1.874602 g / cm^3
# Si number density = 18.788787 Si / 1000 Ang^3
#
#
#
# Elastic Constant Matrix: (Units=GPa)
#
#
# Indices 1 2 3 4 5 6 
#
# 1 115.2394 44.0322 58.5594 0.0000 7.4088 0.0000
# 2 44.0322 79.0229 34.3658 0.0000 2.3567 0.0000
# 3 58.5594 34.3658 89.1468 0.0000 -3.5120 0.0000
# 4 0.0000 0.0000 0.0000 33.4807 0.0000 0.3440
# 5 7.4088 2.3567 -3.5120 0.0000 29.7758 0.0000
# 6 0.0000 0.0000 0.0000 0.3440 0.0000 31.5157
#
#
#
# Elastic Compliance Matrix: (Units=1/GPa)
#
#
# Indices 1 2 3 4 5 6 
#
# 1 0.014856 -0.004604 -0.008153 0.000000 -0.004294 0.000000
# 2 -0.004604 0.016738 -0.003451 0.000000 -0.000586 0.000000
# 3 -0.008153 -0.003451 0.018078 0.000000 0.004434 0.000000
# 4 0.000000 0.000000 0.000000 0.029871 0.000000 -0.000326
# 5 -0.004294 -0.000586 0.004434 0.000000 0.035222 0.000000
# 6 0.000000 0.000000 0.000000 -0.000326 0.000000 0.031734
#
#
# Mechanical properties :
#
#
# Convention : Reuss Voigt Hill
#
# Bulk Modulus (GPa) = 57.95179 61.92486 59.93833
# Shear Modulus (GPa) = 27.07566 28.71788 27.89677
#
# Velocity S-wave (km/s) = 3.80024 3.91379 3.85743
# Velocity P-wave (km/s) = 7.08283 7.31120 7.19792
#
# Compressibility (1/GPa) = 0.01725572
#
# Stress axis : x y z
#
# Youngs Moduli (GPa) = 67.31418 59.74282 55.31568
#
# Poissons Ratio (x) = 0.27506 0.45098
# Poissons Ratio (y) = 0.30992 0.19091
# Poissons Ratio (z) = 0.54880 0.20619
#
# Static dielectric constant tensor:
#      x y z
#    x 3.679410 0.000000 0.038860 
#    y 0.000000 3.458640 0.000000 
#    z 0.038860 0.000000 3.418580 
# 
# 
# High freq. dielectric constant tensor:
#      x y z
#    x 1.730870 0.000000 0.002140 
#    y 0.000000 1.734800 0.000000 
#    z 0.002140 0.000000 1.717780 
# 
# From -- ./inp_files/244254.got.cif
#   From: 2010.06.25/outbox.cif.g09.slc.cpg/sg12_123_cif.got.tgz:244254.got - 2010.06.28 00:19:55.
