data_PCOD8105680
_publ_section_title
;
Structure prediction by ZEFSAII (Michael W. Deem and Ramdas Pophale) SiO2 
 PCOD8105680
Probable space group: C 2/M
;
_chemical_formula_sum "Si O2"
_cell_formula_units_Z 56
_cell_length_a 33.718519
_cell_length_b 8.924531
_cell_length_c 11.298886
_cell_angle_alpha 90.000000
_cell_angle_beta 124.070811
_cell_angle_gamma 90.000000
_cell_volume 2816.444624
_symmetry_space_group_name_H-M "C 2/M"
_symmetry_group_IT_number 12
_symmetry_cell_setting 'monoclinic'
loop_
_space_group_symop_operation_xyz
x,y,z
-x,y,-z
-x,-y,-z
x,-y,z
1/2+x,1/2+y,z
1/2-x,1/2+y,-z
1/2-x,1/2-y,-z
1/2+x,1/2-y,z
loop_
_atom_site_type_symbol
_atom_site_label
_atom_site_fract_x
_atom_site_fract_y
_atom_site_fract_z
Si Si1 0.731081 0.676369 0.849738
Si Si2 0.554813 0.824277 0.585437
Si Si3 0.862288 0.321779 0.671505
Si Si4 0.408115 0.173308 0.097723
Si Si5 0.554487 0.671310 0.058457
Si Si6 0.810727 0.674037 0.814065
Si Si7 0.366250 0.675847 0.430509
O O1 0.739667 0.500000 0.876154
O O2 0.762152 0.740222 0.790019
O O3 0.675508 0.714419 0.733861
O O4 0.750000 0.750000 0.000000
O O5 0.500000 0.767906 0.500000
O O6 0.581143 0.780823 0.750411
O O7 0.583118 0.741942 0.527599
O O8 0.556598 0.000000 0.561397
O O9 0.860901 0.500000 0.656658
O O10 0.915018 0.274302 0.802096
O O11 0.824401 0.259992 0.707382
O O12 0.849905 0.247111 0.526661
O O13 0.420974 0.000000 0.095865
O O14 0.440792 0.274733 0.068551
O O15 0.352717 0.206867 0.978651
O O16 0.571693 0.500000 0.099032
O O17 0.500000 0.690946 0.000000
O O18 0.804186 0.500000 0.782312
O O19 0.372206 0.500000 0.458632
#
# Coordination Sequence:
#
# PCOD8105680 Si02
#       7
#     8   8   8   8   8   8   8
#     4  10  21  38  61  88 119 154 195 240 290 349
#     4  10  22  39  59  84 112 152 202 244 286 344
#     4  10  21  38  60  83 112 154 200 243 286 340
#     4   9  18  34  56  81 109 144 191 240 282 333
#     4  10  21  35  54  82 114 148 186 234 294 350
#     4   8  16  34  58  82 110 148 190 237 286 332
#     4  11  24  39  57  87 124 156 188 240 305 356
#
# _framework density 19.883224999999999
#
# number of rings (size 3 to 8) (size 9 to 14) (size 15 to 20)
#    0.000    2.286    0.000    3.000    2.000    4.857 
#    0.000    5.000    0.000    0.000    0.000    0.000 
#    0.000    0.000    0.000    0.000    0.000    0.000 
#
# Total GULP energy -347167.667412 kJ/mol
# GULP energy per Si atom -12398.845265 kJ/mol
# Density = 1.983797 g / cm^3
# Si number density = 19.883225 Si / 1000 Ang^3
#
#
#
# Elastic Constant Matrix: (Units=GPa)
#
#
# Indices 1 2 3 4 5 6 
#
# 1 136.1284 47.1424 48.9011 0.0000 -1.6167 0.0000
# 2 47.1424 58.4169 34.9268 0.0000 -0.0495 0.0000
# 3 48.9011 34.9268 94.7117 0.0000 -13.4373 0.0000
# 4 0.0000 0.0000 0.0000 28.9578 0.0000 -2.8190
# 5 -1.6167 -0.0495 -13.4373 0.0000 26.0052 0.0000
# 6 0.0000 0.0000 0.0000 -2.8190 0.0000 22.8690
#
#
#
# Elastic Compliance Matrix: (Units=1/GPa)
#
#
# Indices 1 2 3 4 5 6 
#
# 1 0.010861 -0.006835 -0.003230 0.000000 -0.001007 0.000000
# 2 -0.006835 0.026753 -0.006896 0.000000 -0.003937 0.000000
# 3 -0.003230 -0.006896 0.015905 0.000000 0.008004 0.000000
# 4 0.000000 0.000000 0.000000 0.034952 0.000000 0.004308
# 5 -0.001007 -0.003937 0.008004 0.000000 0.042520 0.000000
# 6 0.000000 0.000000 0.000000 0.004308 0.000000 0.044258
#
#
# Mechanical properties :
#
#
# Convention : Reuss Voigt Hill
#
# Bulk Modulus (GPa) = 51.02468 61.24416 56.13442
# Shear Modulus (GPa) = 23.17995 26.11884 24.64940
#
# Velocity S-wave (km/s) = 3.41809 3.62831 3.52477
# Velocity P-wave (km/s) = 6.42617 6.95857 6.69766
#
# Compressibility (1/GPa) = 0.01959836
#
# Stress axis : x y z
#
# Youngs Moduli (GPa) = 92.06964 37.37861 62.87435
#
# Poissons Ratio (x) = 0.25547 0.20311
# Poissons Ratio (y) = 0.62925 0.43356
# Poissons Ratio (z) = 0.29742 0.25775
#
# Static dielectric constant tensor:
#      x y z
#    x 4.024030 0.000000 -0.153390 
#    y 0.000000 3.482250 0.000000 
#    z -0.153390 0.000000 3.633760 
# 
# 
# High freq. dielectric constant tensor:
#      x y z
#    x 1.786300 0.000000 -0.005290 
#    y 0.000000 1.759210 0.000000 
#    z -0.005290 0.000000 1.773690 
# 
# From -- ./inp_files/187698.got.cif
#   From: 2010.06.25/outbox.cif.g09.slc.cpg/sg12_94_cif.got.tgz:187698.got - 2010.06.28 00:19:55.
