data_PCOD8105309
_publ_section_title
;
Structure prediction by ZEFSAII (Michael W. Deem and Ramdas Pophale) SiO2 
 PCOD8105309
Probable space group: C 2/M
;
_chemical_formula_sum "Si O2"
_cell_formula_units_Z 48
_cell_length_a 14.743075
_cell_length_b 16.165908
_cell_length_c 24.237584
_cell_angle_alpha 90.000000
_cell_angle_beta 25.908654
_cell_angle_gamma 90.000000
_cell_volume 2524.044322
_symmetry_space_group_name_H-M "C 2/M"
_symmetry_group_IT_number 12
_symmetry_cell_setting 'monoclinic'
loop_
_space_group_symop_operation_xyz
x,y,z
-x,y,-z
-x,-y,-z
x,-y,z
1/2+x,1/2+y,z
1/2-x,1/2+y,-z
1/2-x,1/2-y,-z
1/2+x,1/2-y,z
loop_
_atom_site_type_symbol
_atom_site_label
_atom_site_fract_x
_atom_site_fract_y
_atom_site_fract_z
Si Si1 0.343065 0.329512 0.250017
Si Si2 0.698391 0.225008 0.825768
Si Si3 0.239149 0.500000 0.355320
Si Si4 0.500000 0.724896 0.500000
Si Si5 0.254554 0.826155 0.082086
Si Si6 0.755629 0.500000 0.131797
Si Si7 0.390454 0.500000 0.396441
Si Si8 0.881334 0.171084 0.450580
O O1 0.310337 0.311769 0.202630
O O2 0.306123 0.424948 0.280059
O O3 0.177346 0.280916 0.377068
O O4 0.574839 0.297566 0.138698
O O5 0.736578 0.236818 0.870179
O O6 0.886576 0.171576 0.699342
O O7 0.485086 0.174576 0.929844
O O8 0.350413 0.500000 0.352953
O O9 0.000000 0.500000 0.500000
O O10 0.390543 0.670209 0.512164
O O11 0.187633 0.917870 0.136562
O O12 0.644552 0.500000 0.253629
O O13 0.000000 0.500000 0.000000
O O14 0.291779 0.582005 0.479240
O O15 0.750000 0.250000 0.500000
#
# Coordination Sequence:
#
# PCOD8105309 Si02
#       8
#     8   8   4   4   8   4   4   8
#     4  11  21  36  55  83 113 150 192 236 290 338
#     4  10  21  33  56  81 112 151 179 237 283 345
#     4  12  22  36  55  84 113 148 196 247 285 339
#     4  10  22  36  56  80 120 154 188 235 284 355
#     4  11  19  36  55  84 114 141 192 232 290 341
#     4  12  18  32  59  85 111 139 181 249 288 328
#     4  12  22  37  60  86 112 153 192 243 295 338
#     4  11  22  38  57  86 118 156 195 234 296 347
#
# _framework density 19.017099000000002
#
# number of rings (size 3 to 8) (size 9 to 14) (size 15 to 20)
#    0.000    1.000    5.833    2.500    2.333    0.333 
#    0.000    0.000    0.000    2.000    0.000   10.500 
#    0.000    0.000    0.000    0.000    0.000    0.000 
#
# Total GULP energy -297369.876730 kJ/mol
# GULP energy per Si atom -12390.411530 kJ/mol
# Density = 1.897382 g / cm^3
# Si number density = 19.017099 Si / 1000 Ang^3
#
#
#
# Elastic Constant Matrix: (Units=GPa)
#
#
# Indices 1 2 3 4 5 6 
#
# 1 96.5542 57.0547 21.5434 -0.0001 5.4287 -0.0021
# 2 57.0547 136.6284 28.9745 -0.0033 13.6014 -0.0020
# 3 21.5434 28.9745 90.2553 -0.0758 -10.2360 -0.0091
# 4 -0.0001 -0.0033 -0.0758 25.7777 -0.0056 5.2640
# 5 5.4287 13.6014 -10.2360 -0.0056 31.7602 0.0038
# 6 -0.0021 -0.0020 -0.0091 5.2640 0.0038 27.3666
#
#
#
# Elastic Compliance Matrix: (Units=1/GPa)
#
#
# Indices 1 2 3 4 5 6 
#
# 1 0.013963 -0.005419 -0.001662 -0.000006 -0.000602 0.000001
# 2 -0.005419 0.010577 -0.002606 -0.000008 -0.004443 0.000002
# 3 -0.001662 -0.002606 0.012945 0.000040 0.005572 -0.000004
# 4 -0.000006 -0.000008 0.000040 0.040380 0.000025 -0.007767
# 5 -0.000602 -0.004443 0.005572 0.000025 0.035287 -0.000008
# 6 0.000001 0.000002 -0.000004 -0.007767 -0.000008 0.038035
#
#
# Mechanical properties :
#
#
# Convention : Reuss Voigt Hill
#
# Bulk Modulus (GPa) = 55.21063 59.84258 57.52661
# Shear Modulus (GPa) = 28.31301 31.37192 29.84247
#
# Velocity S-wave (km/s) = 3.86271 4.06602 3.96567
# Velocity P-wave (km/s) = 6.99922 7.31980 7.16130
#
# Compressibility (1/GPa) = 0.01811245
#
# Stress axis : x y z
#
# Youngs Moduli (GPa) = 71.61561 94.54558 77.25066
#
# Poissons Ratio (x) = 0.51232 0.12837
# Poissons Ratio (y) = 0.38806 0.20132
# Poissons Ratio (z) = 0.11900 0.24639
#
# Static dielectric constant tensor:
#      x y z
#    x 3.652080 -0.000020 0.024910 
#    y -0.000020 3.630090 0.000160 
#    z 0.024910 0.000160 3.063330 
# 
# 
# High freq. dielectric constant tensor:
#      x y z
#    x 1.734820 0.000000 -0.017690 
#    y 0.000000 1.719000 0.000000 
#    z -0.017690 0.000000 1.751330 
# 
# From -- ./inp_files/340117.got.cif
#   From: 2010.06.25/outbox.cif.g09.slc.cpg/sg12_171_cif.got.tgz:340117.got - 2010.06.28 00:19:55.
