data_PCOD8105667
_publ_section_title
;
Structure prediction by ZEFSAII (Michael W. Deem and Ramdas Pophale) SiO2 
 PCOD8105667
Probable space group: C 2/M
;
_chemical_formula_sum "Si O2"
_cell_formula_units_Z 56
_cell_length_a 22.609634
_cell_length_b 8.837790
_cell_length_c 14.594792
_cell_angle_alpha 90.000000
_cell_angle_beta 103.345568
_cell_angle_gamma 90.000000
_cell_volume 2837.566171
_symmetry_space_group_name_H-M "C 2/M"
_symmetry_group_IT_number 12
_symmetry_cell_setting 'monoclinic'
loop_
_space_group_symop_operation_xyz
x,y,z
-x,y,-z
-x,-y,-z
x,-y,z
1/2+x,1/2+y,z
1/2-x,1/2+y,-z
1/2-x,1/2-y,-z
1/2+x,1/2-y,z
loop_
_atom_site_type_symbol
_atom_site_label
_atom_site_fract_x
_atom_site_fract_y
_atom_site_fract_z
Si Si1 0.531351 0.676079 0.192177
Si Si2 0.618742 0.178012 0.364577
Si Si3 0.895637 0.180315 0.117286
Si Si4 0.840878 0.174267 0.286128
Si Si5 0.365884 0.675168 0.910771
Si Si6 0.717092 0.320709 0.278870
Si Si7 0.069294 0.174368 0.521263
O O1 0.531198 0.500000 0.220516
O O2 0.561222 0.767803 0.285430
O O3 0.464118 0.741376 0.152809
O O4 0.568499 0.701233 0.111806
O O5 0.681393 0.252186 0.352287
O O6 0.608426 0.226188 0.465410
O O7 0.625708 0.000000 0.360239
O O8 0.855361 0.233334 0.188888
O O9 0.899007 0.000000 0.113302
O O10 0.866695 0.248543 0.012991
O O11 0.786918 0.273366 0.308692
O O12 0.901321 0.195397 0.368118
O O13 0.820212 0.000000 0.277400
O O14 0.351807 0.500000 0.917571
O O15 0.313293 0.743688 0.826410
O O16 0.710342 0.500000 0.282096
O O17 0.000000 0.232879 0.500000
O O18 0.071188 0.000000 0.490158
#
# Coordination Sequence:
#
# PCOD8105667 Si02
#       7
#     8   8   8   8   8   8   8
#     4   9  16  30  54  82 111 143 179 219 265 319
#     4  11  22  36  57  82 109 141 177 223 273 317
#     4   9  16  29  52  81 110 142 181 222 264 312
#     4  10  21  35  54  80 109 140 177 224 269 312
#     4   8  15  28  51  81 107 138 183 225 258 306
#     4  10  21  38  57  77 106 144 184 222 263 316
#     4  10  21  39  61  84 110 141 177 214 260 321
#
# _framework density 19.735223000000001
#
# number of rings (size 3 to 8) (size 9 to 14) (size 15 to 20)
#    0.000    2.429    0.000    3.857    0.000    6.000 
#    0.000    2.143    0.000   11.143    0.000    0.000 
#    0.000    0.000    0.000    0.000    0.000    0.000 
#
# Total GULP energy -347197.683209 kJ/mol
# GULP energy per Si atom -12399.917257 kJ/mol
# Density = 1.969031 g / cm^3
# Si number density = 19.735223 Si / 1000 Ang^3
#
#
#
# Elastic Constant Matrix: (Units=GPa)
#
#
# Indices 1 2 3 4 5 6 
#
# 1 112.9613 28.4942 31.4347 0.0000 -5.5496 0.0000
# 2 28.4942 65.2608 29.6417 0.0000 -5.8220 0.0000
# 3 31.4347 29.6417 102.2432 0.0000 -16.7549 0.0000
# 4 0.0000 0.0000 0.0000 14.8070 0.0000 -3.1772
# 5 -5.5496 -5.8220 -16.7549 0.0000 24.3529 0.0000
# 6 0.0000 0.0000 0.0000 -3.1772 0.0000 23.2710
#
#
#
# Elastic Compliance Matrix: (Units=1/GPa)
#
#
# Indices 1 2 3 4 5 6 
#
# 1 0.010345 -0.003537 -0.002150 0.000000 0.000033 0.000000
# 2 -0.003537 0.018870 -0.004256 0.000000 0.000777 0.000000
# 3 -0.002150 -0.004256 0.012880 0.000000 0.007355 0.000000
# 4 0.000000 0.000000 0.000000 0.069574 0.000000 0.009499
# 5 0.000033 0.000777 0.007355 0.000000 0.046316 0.000000
# 6 0.000000 0.000000 0.000000 0.009499 0.000000 0.044269
#
#
# Mechanical properties :
#
#
# Convention : Reuss Voigt Hill
#
# Bulk Modulus (GPa) = 45.02539 51.06737 48.04638
# Shear Modulus (GPa) = 21.78248 25.21251 23.49749
#
# Velocity S-wave (km/s) = 3.32586 3.57814 3.45430
# Velocity P-wave (km/s) = 6.13292 6.55769 6.34886
#
# Compressibility (1/GPa) = 0.02220969
#
# Stress axis : x y z
#
# Youngs Moduli (GPa) = 96.66801 52.99438 77.63680
#
# Poissons Ratio (x) = 0.18746 0.16688
# Poissons Ratio (y) = 0.34196 0.33040
# Poissons Ratio (z) = 0.20779 0.22553
#
# Static dielectric constant tensor:
#      x y z
#    x 3.536340 0.000000 0.038200 
#    y 0.000000 3.193730 0.000000 
#    z 0.038200 0.000000 3.834880 
# 
# 
# High freq. dielectric constant tensor:
#      x y z
#    x 1.768540 0.000000 -0.001330 
#    y 0.000000 1.727500 0.000000 
#    z -0.001330 0.000000 1.778540 
# 
# From -- ./inp_files/230899.got.cif
#   From: 2010.06.25/outbox.cif.g09.slc.cpg/sg12_116_cif.got.tgz:230899.got - 2010.06.28 00:19:55.
