data_PCOD8105663
_publ_section_title
;
Structure prediction by ZEFSAII (Michael W. Deem and Ramdas Pophale) SiO2 
 PCOD8105663
Probable space group: C 2/M
;
_chemical_formula_sum "Si O2"
_cell_formula_units_Z 48
_cell_length_a 28.781181
_cell_length_b 9.671077
_cell_length_c 11.505365
_cell_angle_alpha 90.000000
_cell_angle_beta 127.763962
_cell_angle_gamma 90.000000
_cell_volume 2531.674701
_symmetry_space_group_name_H-M "C 2/M"
_symmetry_group_IT_number 12
_symmetry_cell_setting 'monoclinic'
loop_
_space_group_symop_operation_xyz
x,y,z
-x,y,-z
-x,-y,-z
x,-y,z
1/2+x,1/2+y,z
1/2-x,1/2+y,-z
1/2-x,1/2-y,-z
1/2+x,1/2-y,z
loop_
_atom_site_type_symbol
_atom_site_label
_atom_site_fract_x
_atom_site_fract_y
_atom_site_fract_z
Si Si1 0.721944 0.158669 0.724933
Si Si2 0.329980 0.655387 0.168883
Si Si3 0.390370 0.160095 0.589133
Si Si4 0.932109 0.660678 0.906449
Si Si5 0.552963 0.655909 0.504510
Si Si6 0.851251 0.840608 0.939074
O O1 0.715423 0.244997 0.834237
O O2 0.675389 0.202351 0.553719
O O3 0.788120 0.181310 0.778122
O O4 0.712200 0.000000 0.745694
O O5 0.303833 0.500000 0.126700
O O6 0.390181 0.659815 0.329940
O O7 0.342766 0.707196 0.058799
O O8 0.396841 0.193793 0.734473
O O9 0.439180 0.248165 0.595908
O O10 0.403562 0.000000 0.584313
O O11 0.927634 0.500000 0.932901
O O12 0.901814 0.747936 0.961131
O O13 0.000000 0.705582 0.000000
O O14 0.500000 0.716115 0.500000
O O15 0.538735 0.500000 0.440333
O O16 0.871434 0.000000 0.962479
#
# Coordination Sequence:
#
# PCOD8105663 Si02
#       6
#     8   8   8   8   8   8
#     4   9  18  34  55  80 107 134 169 213 260 309
#     4   9  18  32  50  78 111 137 167 209 256 308
#     4   9  19  36  54  73 102 136 171 215 258 300
#     4  10  23  40  54  73 103 139 179 219 256 302
#     4   9  18  31  50  76 104 135 170 209 254 304
#     4  10  21  35  54  80 107 137 173 212 257 309
#
# _framework density 18.959781
#
# number of rings (size 3 to 8) (size 9 to 14) (size 15 to 20)
#    0.000    2.667    0.000    0.500    2.333    3.333 
#    0.000    0.000    0.000    0.000    0.000    0.000 
#    0.000    0.000    0.000    0.000    0.000    0.000 
#
# Total GULP energy -297585.563172 kJ/mol
# GULP energy per Si atom -12399.398466 kJ/mol
# Density = 1.891663 g / cm^3
# Si number density = 18.959781 Si / 1000 Ang^3
#
#
#
# Elastic Constant Matrix: (Units=GPa)
#
#
# Indices 1 2 3 4 5 6 
#
# 1 115.1265 58.5912 34.9071 0.0000 1.4983 0.0000
# 2 58.5912 66.6794 31.3117 0.0000 -5.5172 0.0000
# 3 34.9071 31.3117 73.1925 0.0000 -11.4829 0.0000
# 4 0.0000 0.0000 0.0000 22.5904 0.0000 -4.4588
# 5 1.4983 -5.5172 -11.4829 0.0000 16.2967 0.0000
# 6 0.0000 0.0000 0.0000 -4.4588 0.0000 36.3534
#
#
#
# Elastic Compliance Matrix: (Units=1/GPa)
#
#
# Indices 1 2 3 4 5 6 
#
# 1 0.016991 -0.014021 -0.003480 0.000000 -0.008760 0.000000
# 2 -0.014021 0.030346 -0.005038 0.000000 0.008013 0.000000
# 3 -0.003480 -0.005038 0.019405 0.000000 0.012287 0.000000
# 4 0.000000 0.000000 0.000000 0.045365 0.000000 0.005564
# 5 -0.008760 0.008013 0.012287 0.000000 0.073538 0.000000
# 6 0.000000 0.000000 0.000000 0.005564 0.000000 0.028190
#
#
# Mechanical properties :
#
#
# Convention : Reuss Voigt Hill
#
# Bulk Modulus (GPa) = 46.15749 56.06872 51.11311
# Shear Modulus (GPa) = 18.78761 23.72734 21.25748
#
# Velocity S-wave (km/s) = 3.15130 3.54143 3.35205
# Velocity P-wave (km/s) = 6.13504 6.80874 6.48065
#
# Compressibility (1/GPa) = 0.02166496
#
# Stress axis : x y z
#
# Youngs Moduli (GPa) = 58.85608 32.95347 51.53265
#
# Poissons Ratio (x) = 0.46203 0.17931
# Poissons Ratio (y) = 0.82519 0.25963
# Poissons Ratio (z) = 0.20480 0.16603
#
# Static dielectric constant tensor:
#      x y z
#    x 3.342330 0.000000 0.138980 
#    y 0.000000 3.596420 0.000000 
#    z 0.138980 0.000000 3.581280 
# 
# 
# High freq. dielectric constant tensor:
#      x y z
#    x 1.726190 0.000000 0.011410 
#    y 0.000000 1.730940 0.000000 
#    z 0.011410 0.000000 1.743870 
# 
# From -- ./inp_files/180247.got.cif
#   From: 2010.06.25/outbox.cif.g09.slc.cpg/sg12_91_cif.got.tgz:180247.got - 2010.06.28 00:19:55.
