data_PCOD8105638
_publ_section_title
;
Structure prediction by ZEFSAII (Michael W. Deem and Ramdas Pophale) SiO2 
 PCOD8105638
Probable space group: C 2/M
;
_chemical_formula_sum "Si O2"
_cell_formula_units_Z 44
_cell_length_a 28.882449
_cell_length_b 13.763151
_cell_length_c 12.811487
_cell_angle_alpha 90.000000
_cell_angle_beta 152.604674
_cell_angle_gamma 90.000000
_cell_volume 2343.308600
_symmetry_space_group_name_H-M "C 2/M"
_symmetry_group_IT_number 12
_symmetry_cell_setting 'monoclinic'
loop_
_space_group_symop_operation_xyz
x,y,z
-x,y,-z
-x,-y,-z
x,-y,z
1/2+x,1/2+y,z
1/2-x,1/2+y,-z
1/2-x,1/2-y,-z
1/2+x,1/2-y,z
loop_
_atom_site_type_symbol
_atom_site_label
_atom_site_fract_x
_atom_site_fract_y
_atom_site_fract_z
Si Si1 0.490276 0.500000 0.359549
Si Si2 0.133011 0.666374 0.985233
Si Si3 0.314698 0.198623 0.371726
Si Si4 0.974782 0.611214 0.833235
Si Si5 0.385720 0.000000 0.222874
Si Si6 0.976431 0.205756 0.573534
Si Si7 0.244311 0.000000 0.141509
O O1 0.500000 0.500000 0.500000
O O2 0.544446 0.596695 0.424196
O O3 0.372530 0.500000 0.107856
O O4 0.239327 0.710431 0.238157
O O5 0.137142 0.593459 0.894895
O O6 0.074129 0.760929 0.830823
O O7 0.076467 0.615415 0.968139
O O8 0.388583 0.184517 0.618894
O O9 0.381637 0.225405 0.404495
O O10 0.266065 0.095264 0.252494
O O11 0.935628 0.500000 0.752957
O O12 0.000000 0.645778 0.000000
O O13 0.500000 0.000000 0.500000
O O14 0.306721 0.000000 0.158985
O O15 0.000000 0.207055 0.500000
#
# Coordination Sequence:
#
# PCOD8105638 Si02
#       7
#     4   8   8   8   4   8   4
#     4  10  22  36  50  78 118 162 197 226 274 330
#     4  11  22  37  58  90 112 152 197 241 287 341
#     4  11  23  37  60  88 114 152 200 238 288 344
#     4  10  21  42  65  84 111 146 189 247 308 355
#     4  12  24  36  56  87 129 158 198 240 277 328
#     4  10  21  35  53  80 121 158 192 233 276 332
#     4  12  22  38  58  83 119 166 196 229 274 337
#
# _framework density 18.776869000000001
#
# number of rings (size 3 to 8) (size 9 to 14) (size 15 to 20)
#    0.000    1.273    3.636    3.818    5.091    2.182 
#    0.000    0.000    0.000    0.000    0.000    3.818 
#    0.000    0.000    0.000    0.000    0.000    0.000 
#
# Total GULP energy -272632.263246 kJ/mol
# GULP energy per Si atom -12392.375602 kJ/mol
# Density = 1.873413 g / cm^3
# Si number density = 18.776869 Si / 1000 Ang^3
#
#
#
# Elastic Constant Matrix: (Units=GPa)
#
#
# Indices 1 2 3 4 5 6 
#
# 1 58.3484 9.0580 32.7322 0.0000 -15.1136 0.0000
# 2 9.0580 106.7154 44.0487 0.0000 -9.3288 0.0000
# 3 32.7322 44.0487 113.6027 0.0000 -2.0757 0.0000
# 4 0.0000 0.0000 0.0000 45.1766 0.0000 18.9774
# 5 -15.1136 -9.3288 -2.0757 0.0000 24.4684 0.0000
# 6 0.0000 0.0000 0.0000 18.9774 0.0000 45.1572
#
#
#
# Elastic Compliance Matrix: (Units=1/GPa)
#
#
# Indices 1 2 3 4 5 6 
#
# 1 0.025368 0.002546 -0.008005 0.000000 0.015961 0.000000
# 2 0.002546 0.011795 -0.005204 0.000000 0.005628 0.000000
# 3 -0.008005 -0.005204 0.013020 0.000000 -0.005824 0.000000
# 4 0.000000 0.000000 0.000000 0.026881 0.000000 -0.011297
# 5 0.015961 0.005628 -0.005824 0.000000 0.052380 0.000000
# 6 0.000000 0.000000 0.000000 -0.011297 0.000000 0.026892
#
#
# Mechanical properties :
#
#
# Convention : Reuss Voigt Hill
#
# Bulk Modulus (GPa) = 34.65297 50.03824 42.34560
# Shear Modulus (GPa) = 26.69792 35.81561 31.25676
#
# Velocity S-wave (km/s) = 3.77484 4.37215 4.08443
# Velocity P-wave (km/s) = 6.12327 7.22457 6.69659
#
# Compressibility (1/GPa) = 0.02885756
#
# Stress axis : x y z
#
# Youngs Moduli (GPa) = 39.41978 84.78400 76.80205
#
# Poissons Ratio (x) = -0.21588 0.61479
# Poissons Ratio (y) = -0.10037 0.39969
# Poissons Ratio (z) = 0.31555 0.44122
#
# Static dielectric constant tensor:
#      x y z
#    x 3.274600 0.000000 0.035700 
#    y 0.000000 3.998750 0.000000 
#    z 0.035700 0.000000 3.508850 
# 
# 
# High freq. dielectric constant tensor:
#      x y z
#    x 1.696720 0.000000 0.005510 
#    y 0.000000 1.748760 0.000000 
#    z 0.005510 0.000000 1.733000 
# 
# From -- ./inp_files/183404.got.cif
#   From: 2010.06.25/outbox.cif.g09.slc.cpg/sg12_92_cif.got.tgz:183404.got - 2010.06.28 00:19:55.
