data_PCOD8105565
_publ_section_title
;
Structure prediction by ZEFSAII (Michael W. Deem and Ramdas Pophale) SiO2 
 PCOD8105565
Probable space group: C 2/M
;
_chemical_formula_sum "Si O2"
_cell_formula_units_Z 56
_cell_length_a 11.161445
_cell_length_b 27.522894
_cell_length_c 12.445893
_cell_angle_alpha 90.000000
_cell_angle_beta 48.859637
_cell_angle_gamma 90.000000
_cell_volume 2879.342269
_symmetry_space_group_name_H-M "C 2/M"
_symmetry_group_IT_number 12
_symmetry_cell_setting 'monoclinic'
loop_
_space_group_symop_operation_xyz
x,y,z
-x,y,-z
-x,-y,-z
x,-y,z
1/2+x,1/2+y,z
1/2-x,1/2+y,-z
1/2-x,1/2-y,-z
1/2+x,1/2-y,z
loop_
_atom_site_type_symbol
_atom_site_label
_atom_site_fract_x
_atom_site_fract_y
_atom_site_fract_z
Si Si1 0.066763 0.637529 0.209205
Si Si2 0.361633 0.646564 0.885234
Si Si3 0.874144 0.778974 0.286616
Si Si4 0.107680 0.555809 0.339150
Si Si5 0.972100 0.055372 0.140191
Si Si6 0.945588 0.712508 0.423031
Si Si7 0.855224 0.686953 0.165077
O O1 0.072864 0.581799 0.244677
O O2 0.051684 0.665337 0.332828
O O3 0.912260 0.650436 0.227177
O O4 0.227032 0.653384 0.054582
O O5 0.512902 0.679725 0.829915
O O6 0.421850 0.590789 0.847508
O O7 0.292618 0.661508 0.808996
O O8 0.982675 0.747429 0.302089
O O9 0.738719 0.801506 0.444732
O O10 0.806716 0.740760 0.237300
O O11 0.070588 0.500000 0.335836
O O12 0.287247 0.563475 0.273738
O O13 0.000000 0.575517 0.500000
O O14 0.025289 0.000000 0.133072
O O15 0.000000 0.068851 0.000000
O O16 0.000000 0.738189 0.500000
O O17 0.000000 0.695438 0.000000
#
# Coordination Sequence:
#
# PCOD8105565 Si02
#       7
#     8   8   8   8   8   8   8
#     4  10  21  36  56  82 114 150 187 236 279 340
#     4  11  22  37  60  84 112 156 188 231 292 331
#     4  10  22  36  55  80 110 153 194 234 278 326
#     4  10  21  38  61  87 116 146 183 234 292 345
#     4  10  21  38  60  90 116 141 186 239 282 334
#     4  10  21  35  52  76 112 147 189 237 273 331
#     4   9  21  39  54  81 118 149 194 232 274 344
#
# _framework density 19.448888
#
# number of rings (size 3 to 8) (size 9 to 14) (size 15 to 20)
#    0.000    2.000    1.429    1.286    4.000    6.857 
#    0.000    0.714    0.000    2.571    0.000    3.000 
#    0.000    0.000    0.000    0.000    0.000    0.000 
#
# Total GULP energy -346992.984912 kJ/mol
# GULP energy per Si atom -12392.606604 kJ/mol
# Density = 1.940462 g / cm^3
# Si number density = 19.448888 Si / 1000 Ang^3
#
#
#
# Elastic Constant Matrix: (Units=GPa)
#
#
# Indices 1 2 3 4 5 6 
#
# 1 60.3091 46.4517 24.9968 0.0000 0.2901 0.0000
# 2 46.4517 108.1238 40.5203 0.0000 1.7031 0.0000
# 3 24.9968 40.5203 100.1699 0.0000 -5.6047 0.0000
# 4 0.0000 0.0000 0.0000 29.7634 0.0000 -1.9671
# 5 0.2901 1.7031 -5.6047 0.0000 30.2787 0.0000
# 6 0.0000 0.0000 0.0000 -1.9671 0.0000 25.1045
#
#
#
# Elastic Compliance Matrix: (Units=1/GPa)
#
#
# Indices 1 2 3 4 5 6 
#
# 1 0.025205 -0.009981 -0.002258 0.000000 -0.000098 0.000000
# 2 -0.009981 0.014916 -0.003622 0.000000 -0.001414 0.000000
# 3 -0.002258 -0.003622 0.012150 0.000000 0.002474 0.000000
# 4 0.000000 0.000000 0.000000 0.033773 0.000000 0.002646
# 5 -0.000098 -0.001414 0.002474 0.000000 0.033565 0.000000
# 6 0.000000 0.000000 0.000000 0.002646 0.000000 0.040041
#
#
# Mechanical properties :
#
#
# Convention : Reuss Voigt Hill
#
# Bulk Modulus (GPa) = 48.66279 54.72669 51.69474
# Shear Modulus (GPa) = 25.22417 27.47158 26.34788
#
# Velocity S-wave (km/s) = 3.60522 3.76240 3.68465
# Velocity P-wave (km/s) = 6.51194 6.86105 6.68877
#
# Compressibility (1/GPa) = 0.02054958
#
# Stress axis : x y z
#
# Youngs Moduli (GPa) = 39.67467 67.04054 82.30294
#
# Poissons Ratio (x) = 0.66912 0.18583
# Poissons Ratio (y) = 0.39598 0.29813
# Poissons Ratio (z) = 0.08958 0.24285
#
# Static dielectric constant tensor:
#      x y z
#    x 3.536060 0.000000 -0.062160 
#    y 0.000000 3.564110 0.000000 
#    z -0.062160 0.000000 3.705410 
# 
# 
# High freq. dielectric constant tensor:
#      x y z
#    x 1.741460 0.000000 -0.010310 
#    y 0.000000 1.746000 0.000000 
#    z -0.010310 0.000000 1.771170 
# 
# From -- ./inp_files/53282.got.cif
#   From: 2010.06.25/outbox.cif.g09.slc.cpg/sg12_27_cif.got.tgz:53282.got - 2010.06.28 00:19:55.
