data_PCOD8105918
_publ_section_title
;
Structure prediction by ZEFSAII (Michael W. Deem and Ramdas Pophale) SiO2 
 PCOD8105918
Probable space group: C 2/M
;
_chemical_formula_sum "Si O2"
_cell_formula_units_Z 48
_cell_length_a 23.136949
_cell_length_b 10.277002
_cell_length_c 10.987578
_cell_angle_alpha 90.000000
_cell_angle_beta 70.198051
_cell_angle_gamma 90.000000
_cell_volume 2458.123928
_symmetry_space_group_name_H-M "C 2/M"
_symmetry_group_IT_number 12
_symmetry_cell_setting 'monoclinic'
loop_
_space_group_symop_operation_xyz
x,y,z
-x,y,-z
-x,-y,-z
x,-y,z
1/2+x,1/2+y,z
1/2-x,1/2+y,-z
1/2-x,1/2-y,-z
1/2+x,1/2-y,z
loop_
_atom_site_type_symbol
_atom_site_label
_atom_site_fract_x
_atom_site_fract_y
_atom_site_fract_z
Si Si1 0.365977 0.151879 0.594581
Si Si2 0.275238 0.351449 0.267137
Si Si3 0.628389 0.640328 0.608495
Si Si4 0.858484 0.645939 0.083683
Si Si5 0.070807 0.647822 0.202806
Si Si6 0.464333 0.278684 0.139891
O O1 0.295748 0.185140 0.673130
O O2 0.389206 0.241304 0.467108
O O3 0.406470 0.193019 0.681174
O O4 0.374375 0.000000 0.553979
O O5 0.283750 0.500000 0.213639
O O6 0.304762 0.334745 0.380064
O O7 0.306595 0.251225 0.151710
O O8 0.628219 0.500000 0.540267
O O9 0.580400 0.625578 0.755023
O O10 0.834156 0.500000 0.128306
O O11 0.921934 0.663898 0.113907
O O12 0.872633 0.663708 0.930901
O O13 0.048752 0.500000 0.223758
O O14 0.012375 0.730213 0.205397
O O15 0.500000 0.346583 0.000000
#
# Coordination Sequence:
#
# PCOD8105918 Si02
#       6
#     8   8   8   8   8   8
#     4  10  21  36  53  74 104 141 174 206 251 305
#     4   9  19  35  53  75 104 136 171 212 256 302
#     4  10  21  36  54  77 103 132 171 215 255 300
#     4   9  17  31  55  82 103 130 171 215 254 295
#     4   9  18  33  52  77 107 136 170 211 252 299
#     4   9  18  34  55  78 103 131 166 210 258 304
#
# _framework density 19.527087000000002
#
# number of rings (size 3 to 8) (size 9 to 14) (size 15 to 20)
#    0.000    2.667    0.000    1.000    0.000    7.667 
#    0.000    6.667    0.000    0.000    0.000    0.000 
#    0.000    0.000    0.000    0.000    0.000    0.000 
#
# Total GULP energy -297469.769937 kJ/mol
# GULP energy per Si atom -12394.573747 kJ/mol
# Density = 1.948264 g / cm^3
# Si number density = 19.527087 Si / 1000 Ang^3
#
#
#
# Elastic Constant Matrix: (Units=GPa)
#
#
# Indices 1 2 3 4 5 6 
#
# 1 81.3415 16.0757 28.2830 0.0000 4.2669 0.0000
# 2 16.0757 81.9642 31.9043 0.0000 0.3619 0.0000
# 3 28.2830 31.9043 62.8088 0.0000 1.8179 0.0000
# 4 0.0000 0.0000 0.0000 26.9418 0.0000 2.3884
# 5 4.2669 0.3619 1.8179 0.0000 27.3149 0.0000
# 6 0.0000 0.0000 0.0000 2.3884 0.0000 11.2332
#
#
#
# Elastic Compliance Matrix: (Units=1/GPa)
#
#
# Indices 1 2 3 4 5 6 
#
# 1 0.014680 -0.000397 -0.006354 0.000000 -0.001865 0.000000
# 2 -0.000397 0.015221 -0.007563 0.000000 0.000364 0.000000
# 3 -0.006354 -0.007563 0.022636 0.000000 -0.000414 0.000000
# 4 0.000000 0.000000 0.000000 0.037830 0.000000 -0.008043
# 5 -0.001865 0.000364 -0.000414 0.000000 0.036924 0.000000
# 6 0.000000 0.000000 0.000000 -0.008043 0.000000 0.090732
#
#
# Mechanical properties :
#
#
# Convention : Reuss Voigt Hill
#
# Bulk Modulus (GPa) = 41.82884 42.07118 41.95001
# Shear Modulus (GPa) = 19.63695 23.08807 21.36251
#
# Velocity S-wave (km/s) = 3.17460 3.44228 3.31115
# Velocity P-wave (km/s) = 5.90804 6.11481 6.01231
#
# Compressibility (1/GPa) = 0.02390695
#
# Stress axis : x y z
#
# Youngs Moduli (GPa) = 68.12119 65.70010 44.17651
#
# Poissons Ratio (x) = 0.02611 0.28072
# Poissons Ratio (y) = 0.02708 0.33411
# Poissons Ratio (z) = 0.43287 0.49689
#
# Static dielectric constant tensor:
#      x y z
#    x 3.525240 0.000000 0.049110 
#    y 0.000000 3.377000 0.000000 
#    z 0.049110 0.000000 3.492280 
# 
# 
# High freq. dielectric constant tensor:
#      x y z
#    x 1.758630 0.000000 -0.002270 
#    y 0.000000 1.748070 0.000000 
#    z -0.002270 0.000000 1.751530 
# 
# From -- ./inp_files/94979.got.cif
#   From: 2010.06.25/outbox.cif.g09.slc.cpg/sg12_48_cif.got.tgz:94979.got - 2010.06.28 00:19:55.
