data_PCOD8105848
_publ_section_title
;
Structure prediction by ZEFSAII (Michael W. Deem and Ramdas Pophale) SiO2 
 PCOD8105848
Probable space group: C 2/M
;
_chemical_formula_sum "Si O2"
_cell_formula_units_Z 56
_cell_length_a 10.985610
_cell_length_b 19.021003
_cell_length_c 15.678681
_cell_angle_alpha 90.000000
_cell_angle_beta 61.759141
_cell_angle_gamma 90.000000
_cell_volume 2886.199728
_symmetry_space_group_name_H-M "C 2/M"
_symmetry_group_IT_number 12
_symmetry_cell_setting 'monoclinic'
loop_
_space_group_symop_operation_xyz
x,y,z
-x,y,-z
-x,-y,-z
x,-y,z
1/2+x,1/2+y,z
1/2-x,1/2+y,-z
1/2-x,1/2-y,-z
1/2+x,1/2-y,z
loop_
_atom_site_type_symbol
_atom_site_label
_atom_site_fract_x
_atom_site_fract_y
_atom_site_fract_z
Si Si1 0.025180 0.296377 0.088147
Si Si2 0.849337 0.424351 0.590881
Si Si3 0.733697 0.373716 0.791639
Si Si4 0.928846 0.845547 0.844617
Si Si5 0.833572 0.726599 0.554478
Si Si6 0.271796 0.281879 0.753234
Si Si7 0.265868 0.079759 0.965748
O O1 0.104503 0.229472 0.100495
O O2 0.105116 0.369187 0.066940
O O3 0.882286 0.309910 0.183658
O O4 0.000000 0.274444 0.000000
O O5 0.778743 0.500000 0.589765
O O6 0.842073 0.417893 0.697264
O O7 0.775503 0.353278 0.583491
O O8 0.000000 0.425630 0.500000
O O9 0.588842 0.366238 0.789177
O O10 0.794984 0.295681 0.786627
O O11 0.704646 0.411448 0.890880
O O12 0.875111 0.837233 0.764838
O O13 0.847599 0.904583 0.924475
O O14 0.750000 0.750000 0.500000
O O15 0.794038 0.778292 0.644536
O O16 0.000000 0.726896 0.500000
O O17 0.316000 0.000000 0.961900
#
# Coordination Sequence:
#
# PCOD8105848 Si02
#       7
#     8   8   8   8   8   8   8
#     4  11  21  37  59  82 112 157 205 243 287 355
#     4   9  19  37  60  86 119 156 195 243 303 362
#     4  10  21  35  60  88 118 151 199 250 293 349
#     4  11  21  38  61  85 116 156 200 244 297 357
#     4  10  23  38  63  96 124 152 201 262 311 360
#     4  10  21  37  63  86 115 154 200 246 298 355
#     4  12  24  37  56  85 124 159 199 250 297 354
#
# _framework density 19.402677000000001
#
# number of rings (size 3 to 8) (size 9 to 14) (size 15 to 20)
#    0.000    1.571    2.857    3.000    6.000    3.143 
#    0.000    0.000    0.000    1.286    0.000    0.000 
#    0.000    0.000    0.000    0.000    0.000    0.000 
#
# Total GULP energy -346938.802758 kJ/mol
# GULP energy per Si atom -12390.671527 kJ/mol
# Density = 1.935852 g / cm^3
# Si number density = 19.402677 Si / 1000 Ang^3
#
#
#
# Elastic Constant Matrix: (Units=GPa)
#
#
# Indices 1 2 3 4 5 6 
#
# 1 61.3053 21.3921 37.4452 0.0000 11.0322 0.0000
# 2 21.3921 81.4358 32.3435 0.0000 7.9778 0.0000
# 3 37.4452 32.3435 133.1924 0.0000 9.6852 0.0000
# 4 0.0000 0.0000 0.0000 -20.5622 0.0000 4.6880
# 5 11.0322 7.9778 9.6852 0.0000 35.4920 0.0000
# 6 0.0000 0.0000 0.0000 4.6880 0.0000 11.8992
#
#
#
# Elastic Compliance Matrix: (Units=1/GPa)
#
#
# Indices 1 2 3 4 5 6 
#
# 1 0.021213 -0.003198 -0.004856 0.000000 -0.004550 0.000000
# 2 -0.003198 0.014243 -0.002448 0.000000 -0.001539 0.000000
# 3 -0.004856 -0.002448 0.009506 0.000000 -0.000534 0.000000
# 4 0.000000 0.000000 0.000000 -0.044625 0.000000 0.017581
# 5 -0.004550 -0.001539 -0.000534 0.000000 0.030081 0.000000
# 6 0.000000 0.000000 0.000000 0.017581 0.000000 0.077113
#
#
# Mechanical properties :
#
#
# Convention : Reuss Voigt Hill
#
# Bulk Modulus (GPa) = 41.73934 50.92169 46.33051
# Shear Modulus (GPa) = 36.62444 17.68263 27.15354
#
# Velocity S-wave (km/s) = 4.34936 3.02213 3.74501
# Velocity P-wave (km/s) = 6.83970 6.20317 6.52920
#
# Compressibility (1/GPa) = 0.02395821
#
# Stress axis : x y z
#
# Youngs Moduli (GPa) = 47.14177 70.21217 105.19192
#
# Poissons Ratio (x) = 0.22453 0.51084
# Poissons Ratio (y) = 0.15075 0.25747
# Poissons Ratio (z) = 0.22893 0.17185
#
# Static dielectric constant tensor:
#      x y z
#    x 3.152460 0.000000 0.052010 
#    y 0.000000 3.664830 0.000000 
#    z 0.052010 0.000000 3.736720 
# 
# 
# High freq. dielectric constant tensor:
#      x y z
#    x 1.730860 0.000000 -0.006700 
#    y 0.000000 1.744660 0.000000 
#    z -0.006700 0.000000 1.770200 
# 
# From -- ./inp_files/206552.got.cif
#   From: 2010.06.25/outbox.cif.g09.slc.cpg/sg12_104_cif.got.tgz:206552.got - 2010.06.28 00:19:55.
