data_PCOD8105994
_publ_section_title
;
Structure prediction by ZEFSAII (Michael W. Deem and Ramdas Pophale) SiO2 
 PCOD8105994
Probable space group: C 2/M
;
_chemical_formula_sum "Si O2"
_cell_formula_units_Z 48
_cell_length_a 24.969489
_cell_length_b 9.172799
_cell_length_c 11.650071
_cell_angle_alpha 90.000000
_cell_angle_beta 88.373892
_cell_angle_gamma 90.000000
_cell_volume 2667.258901
_symmetry_space_group_name_H-M "C 2/M"
_symmetry_group_IT_number 12
_symmetry_cell_setting 'monoclinic'
loop_
_space_group_symop_operation_xyz
x,y,z
-x,y,-z
-x,-y,-z
x,-y,z
1/2+x,1/2+y,z
1/2-x,1/2+y,-z
1/2-x,1/2-y,-z
1/2+x,1/2-y,z
loop_
_atom_site_type_symbol
_atom_site_label
_atom_site_fract_x
_atom_site_fract_y
_atom_site_fract_z
Si Si1 0.432944 0.830253 0.123082
Si Si2 0.857886 0.168212 0.731101
Si Si3 0.444351 0.168439 0.861816
Si Si4 0.305475 0.332311 0.504176
Si Si5 0.252571 0.670270 0.879579
Si Si6 0.339076 0.668650 0.249730
O O1 0.493129 0.799360 0.161013
O O2 0.394960 0.729177 0.200553
O O3 0.418198 0.000000 0.140216
O O4 0.426588 0.784108 0.990631
O O5 0.911612 0.246711 0.767736
O O6 0.840174 0.230578 0.608031
O O7 0.811272 0.196350 0.825712
O O8 0.872352 0.000000 0.719765
O O9 0.431851 0.000000 0.846127
O O10 0.291199 0.500000 0.529978
O O11 0.250000 0.250000 0.500000
O O12 0.339769 0.313354 0.386772
O O13 0.239511 0.500000 0.895952
O O14 0.209786 0.738978 0.796551
O O15 0.250000 0.750000 0.000000
O O16 0.332463 0.500000 0.213849
#
# Coordination Sequence:
#
# PCOD8105994 Si02
#       6
#     8   8   8   8   8   8
#     4   9  19  37  58  80 110 144 180 223 273 326
#     4  10  21  36  54  78 108 142 180 223 272 322
#     4   9  19  36  58  82 107 142 183 223 270 325
#     4  10  21  38  56  77 107 145 187 226 268 322
#     4  11  22  35  53  79 112 144 177 221 274 328
#     4  11  22  35  55  82 109 141 184 226 271 326
#
# _framework density 17.996003000000002
#
# number of rings (size 3 to 8) (size 9 to 14) (size 15 to 20)
#    0.000    2.000    1.667    3.000    0.000    6.667 
#    0.000    2.500    0.000    5.000    0.000    0.000 
#    0.000    0.000    0.000    0.000    0.000    0.000 
#
# Total GULP energy -297662.757453 kJ/mol
# GULP energy per Si atom -12402.614894 kJ/mol
# Density = 1.795504 g / cm^3
# Si number density = 17.996003 Si / 1000 Ang^3
#
#
#
# Elastic Constant Matrix: (Units=GPa)
#
#
# Indices 1 2 3 4 5 6 
#
# 1 85.2690 42.6017 31.6998 0.0000 19.4745 0.0000
# 2 42.6017 77.6032 38.3436 0.0000 7.8716 0.0000
# 3 31.6998 38.3436 86.0744 0.0000 24.9440 0.0000
# 4 0.0000 0.0000 0.0000 29.5540 0.0000 3.4947
# 5 19.4745 7.8716 24.9440 0.0000 34.6043 0.0000
# 6 0.0000 0.0000 0.0000 3.4947 0.0000 37.3337
#
#
#
# Elastic Compliance Matrix: (Units=1/GPa)
#
#
# Indices 1 2 3 4 5 6 
#
# 1 0.018161 -0.008968 -0.000408 0.000000 -0.007887 0.000000
# 2 -0.008968 0.021057 -0.007776 0.000000 0.005863 0.000000
# 3 -0.000408 -0.007776 0.018522 0.000000 -0.011353 0.000000
# 4 0.000000 0.000000 0.000000 0.034215 0.000000 -0.003203
# 5 -0.007887 0.005863 -0.011353 0.000000 0.040187 0.000000
# 6 0.000000 0.000000 0.000000 -0.003203 0.000000 0.027085
#
#
# Mechanical properties :
#
#
# Convention : Reuss Voigt Hill
#
# Bulk Modulus (GPa) = 42.67064 52.69296 47.68180
# Shear Modulus (GPa) = 24.83308 29.38517 27.10913
#
# Velocity S-wave (km/s) = 3.71876 4.04527 3.88544
# Velocity P-wave (km/s) = 6.49627 7.15282 6.83244
#
# Compressibility (1/GPa) = 0.02343532
#
# Stress axis : x y z
#
# Youngs Moduli (GPa) = 55.06248 47.49002 53.98914
#
# Poissons Ratio (x) = 0.42591 0.02202
# Poissons Ratio (y) = 0.49383 0.41984
# Poissons Ratio (z) = 0.02245 0.36930
#
# Static dielectric constant tensor:
#      x y z
#    x 3.264730 0.000000 0.053460 
#    y 0.000000 3.360320 0.000000 
#    z 0.053460 0.000000 3.519960 
# 
# 
# High freq. dielectric constant tensor:
#      x y z
#    x 1.695490 0.000000 0.003790 
#    y 0.000000 1.699070 0.000000 
#    z 0.003790 0.000000 1.700990 
# 
# From -- ./inp_files/172044.got.cif
#   From: 2010.06.25/outbox.cif.g09.slc.cpg/sg12_87_cif.got.tgz:172044.got - 2010.06.28 00:19:55.
