data_PCOD8105692
_publ_section_title
;
Structure prediction by ZEFSAII (Michael W. Deem and Ramdas Pophale) SiO2 
 PCOD8105692
Probable space group: C 2/M
;
_chemical_formula_sum "Si O2"
_cell_formula_units_Z 56
_cell_length_a 33.381280
_cell_length_b 7.589103
_cell_length_c 11.930062
_cell_angle_alpha 90.000000
_cell_angle_beta 59.369350
_cell_angle_gamma 90.000000
_cell_volume 2600.588649
_symmetry_space_group_name_H-M "C 2/M"
_symmetry_group_IT_number 12
_symmetry_cell_setting 'monoclinic'
loop_
_space_group_symop_operation_xyz
x,y,z
-x,y,-z
-x,-y,-z
x,-y,z
1/2+x,1/2+y,z
1/2-x,1/2+y,-z
1/2-x,1/2-y,-z
1/2+x,1/2-y,z
loop_
_atom_site_type_symbol
_atom_site_label
_atom_site_fract_x
_atom_site_fract_y
_atom_site_fract_z
Si Si1 0.200633 0.705847 0.520009
Si Si2 0.699229 0.209415 0.271025
Si Si3 0.628192 0.299989 0.196692
Si Si4 0.477346 0.290551 0.653453
Si Si5 0.568894 0.000000 0.902229
Si Si6 0.140032 0.804975 0.799150
Si Si7 0.996326 0.500000 0.207690
Si Si8 0.299695 0.706344 0.080598
O O1 0.190721 0.500000 0.539394
O O2 0.250000 0.750000 0.500000
O O3 0.198446 0.780065 0.398043
O O4 0.159657 0.801398 0.645813
O O5 0.652756 0.285902 0.281825
O O6 0.746928 0.281275 0.143664
O O7 0.698874 0.000000 0.268734
O O8 0.621397 0.500000 0.169631
O O9 0.576255 0.220399 0.274189
O O10 0.663390 0.203975 0.058395
O O11 0.500000 0.249921 0.500000
O O12 0.481944 0.500000 0.674148
O O13 0.501828 0.175259 0.716437
O O14 0.597733 0.176105 0.878588
O O15 0.550579 0.000000 0.799753
O O16 0.534056 0.000000 0.055541
O O17 0.182912 0.753262 0.818975
O O18 0.121290 0.000000 0.854299
O O19 0.298035 0.500000 0.057919
#
# Coordination Sequence:
#
# PCOD8105692 Si02
#       8
#     8   8   8   8   4   8   4   8
#     4  11  21  37  58  86 126 172 223 267 309 374
#     4  10  21  35  54  84 125 164 205 258 309 366
#     4  10  21  37  59  89 121 155 209 260 306 384
#     4  10  23  45  72  99 127 168 217 272 339 410
#     4  11  26  44  64 106 130 166 226 276 325 423
#     4  11  22  41  65  89 129 176 216 267 324 380
#     4  11  25  46  72  96 137 165 212 282 352 397
#     4   9  18  36  58  83 122 168 207 251 310 371
#
# _framework density 21.533584999999999
#
# number of rings (size 3 to 8) (size 9 to 14) (size 15 to 20)
#    0.000    1.714    2.143    1.929    1.000    4.571 
#    2.571    2.857    0.000    0.000    0.000    0.000 
#    0.000    0.000    0.000    0.000    0.000    0.000 
#
# Total GULP energy -347059.870161 kJ/mol
# GULP energy per Si atom -12394.995363 kJ/mol
# Density = 2.148457 g / cm^3
# Si number density = 21.533585 Si / 1000 Ang^3
#
#
#
# Elastic Constant Matrix: (Units=GPa)
#
#
# Indices 1 2 3 4 5 6 
#
# 1 66.2276 29.0403 7.3843 0.0000 8.0300 0.0000
# 2 29.0403 75.5114 12.7490 0.0000 5.4485 0.0000
# 3 7.3843 12.7490 96.5424 0.0000 14.4654 0.0000
# 4 0.0000 0.0000 0.0000 17.6308 0.0000 2.9831
# 5 8.0300 5.4485 14.4654 0.0000 35.1189 0.0000
# 6 0.0000 0.0000 0.0000 2.9831 0.0000 26.2379
#
#
#
# Elastic Compliance Matrix: (Units=1/GPa)
#
#
# Indices 1 2 3 4 5 6 
#
# 1 0.018503 -0.006883 -0.000035 0.000000 -0.003149 0.000000
# 2 -0.006883 0.016175 -0.001566 0.000000 -0.000291 0.000000
# 3 -0.000035 -0.001566 0.011223 0.000000 -0.004372 0.000000
# 4 0.000000 0.000000 0.000000 0.057831 0.000000 -0.006575
# 5 -0.003149 -0.000291 -0.004372 0.000000 0.031040 0.000000
# 6 0.000000 0.000000 0.000000 -0.006575 0.000000 0.038860
#
#
# Mechanical properties :
#
#
# Convention : Reuss Voigt Hill
#
# Bulk Modulus (GPa) = 34.56119 37.40317 35.98218
# Shear Modulus (GPa) = 24.96935 28.40469 26.68702
#
# Velocity S-wave (km/s) = 3.40892 3.63586 3.52422
# Velocity P-wave (km/s) = 5.61952 5.91890 5.77115
#
# Compressibility (1/GPa) = 0.02893419
#
# Stress axis : x y z
#
# Youngs Moduli (GPa) = 54.04467 61.82190 89.10567
#
# Poissons Ratio (x) = 0.42552 0.00308
# Poissons Ratio (y) = 0.37199 0.13954
# Poissons Ratio (z) = 0.00187 0.09682
#
# Static dielectric constant tensor:
#      x y z
#    x 3.920000 0.000000 0.011090 
#    y 0.000000 3.757670 0.000000 
#    z 0.011090 0.000000 4.186260 
# 
# 
# High freq. dielectric constant tensor:
#      x y z
#    x 1.837760 0.000000 0.004170 
#    y 0.000000 1.834630 0.000000 
#    z 0.004170 0.000000 1.858400 
# 
# From -- ./inp_files/187329.got.cif
#   From: 2010.06.25/outbox.cif.g09.slc.cpg/sg12_94_cif.got.tgz:187329.got - 2010.06.28 00:19:55.
