data_PCOD8105517
_publ_section_title
;
Structure prediction by ZEFSAII (Michael W. Deem and Ramdas Pophale) SiO2 
 PCOD8105517
Probable space group: C 2/M
;
_chemical_formula_sum "Si O2"
_cell_formula_units_Z 64
_cell_length_a 14.197625
_cell_length_b 9.442607
_cell_length_c 30.053850
_cell_angle_alpha 90.000000
_cell_angle_beta 60.099752
_cell_angle_gamma 90.000000
_cell_volume 3492.802455
_symmetry_space_group_name_H-M "C 2/M"
_symmetry_group_IT_number 12
_symmetry_cell_setting 'monoclinic'
loop_
_space_group_symop_operation_xyz
x,y,z
-x,y,-z
-x,-y,-z
x,-y,z
1/2+x,1/2+y,z
1/2-x,1/2+y,-z
1/2-x,1/2-y,-z
1/2+x,1/2-y,z
loop_
_atom_site_type_symbol
_atom_site_label
_atom_site_fract_x
_atom_site_fract_y
_atom_site_fract_z
Si Si1 0.279612 0.335752 0.209555
Si Si2 0.556012 0.659915 0.614781
Si Si3 0.645459 0.164742 0.325748
Si Si4 0.958337 0.664389 0.057629
Si Si5 0.519566 0.334562 0.126481
Si Si6 0.296591 0.165405 0.589015
Si Si7 0.283107 0.664542 0.858312
Si Si8 0.348769 0.665077 0.497668
O O1 0.259684 0.500000 0.203983
O O2 0.236280 0.292652 0.268364
O O3 0.407368 0.298938 0.178333
O O4 0.212347 0.248874 0.188872
O O5 0.528083 0.500000 0.634763
O O6 0.467025 0.758046 0.658857
O O7 0.672747 0.702370 0.606589
O O8 0.553865 0.677723 0.561274
O O9 0.687284 0.212225 0.364110
O O10 0.620310 0.000000 0.330193
O O11 0.984040 0.500000 0.059576
O O12 0.024265 0.751547 0.078975
O O13 0.829911 0.695460 0.090028
O O14 0.000000 0.715659 0.000000
O O15 0.530178 0.500000 0.113158
O O16 0.618912 0.282059 0.133601
O O17 0.375813 0.259630 0.538496
O O18 0.322550 0.000000 0.574842
O O19 0.297017 0.500000 0.843566
O O20 0.318922 0.500000 0.512239
O O21 0.250000 0.750000 0.500000
#
# Coordination Sequence:
#
# PCOD8105517 Si02
#       8
#     8   8   8   8   8   8   8   8
#     4   9  19  35  51  70  97 127 162 208 254 291
#     4   9  19  34  51  72  98 127 160 198 242 292
#     4  10  21  35  51  72  98 127 161 201 248 299
#     4   9  18  32  49  74 110 141 164 200 247 290
#     4   9  18  33  53  74  97 130 172 210 243 287
#     4   9  19  35  52  72  99 130 161 196 242 295
#     4   9  18  33  53  75  98 131 172 206 243 293
#     4   9  17  31  51  73  98 128 160 196 239 290
#
# _framework density 18.323395999999999
#
# number of rings (size 3 to 8) (size 9 to 14) (size 15 to 20)
#    0.000    2.875    0.000    1.125    0.000    6.250 
#    0.000    5.000    0.000    0.000    0.000    0.000 
#    0.000    0.000    0.000    0.000    0.000    0.000 
#
# Total GULP energy -396757.188441 kJ/mol
# GULP energy per Si atom -12398.662139 kJ/mol
# Density = 1.828169 g / cm^3
# Si number density = 18.323396 Si / 1000 Ang^3
#
#
#
# Elastic Constant Matrix: (Units=GPa)
#
#
# Indices 1 2 3 4 5 6 
#
# 1 94.5360 30.5769 34.7125 0.0000 10.3674 0.0000
# 2 30.5769 51.9077 39.4180 0.0000 5.1882 0.0000
# 3 34.7125 39.4180 102.0184 0.0000 7.8983 0.0000
# 4 0.0000 0.0000 0.0000 31.8644 0.0000 2.5158
# 5 10.3674 5.1882 7.8983 0.0000 21.2504 0.0000
# 6 0.0000 0.0000 0.0000 2.5158 0.0000 26.3997
#
#
#
# Elastic Compliance Matrix: (Units=1/GPa)
#
#
# Indices 1 2 3 4 5 6 
#
# 1 0.013790 -0.006192 -0.001952 0.000000 -0.004490 0.000000
# 2 -0.006192 0.030211 -0.009502 0.000000 -0.000823 0.000000
# 3 -0.001952 -0.009502 0.014296 0.000000 -0.002041 0.000000
# 4 0.000000 0.000000 0.000000 0.031621 0.000000 -0.003013
# 5 -0.004490 -0.000823 -0.002041 0.000000 0.050208 0.000000
# 6 0.000000 0.000000 0.000000 -0.003013 0.000000 0.038166
#
#
# Mechanical properties :
#
#
# Convention : Reuss Voigt Hill
#
# Bulk Modulus (GPa) = 43.47083 50.87522 47.17303
# Shear Modulus (GPa) = 22.59862 25.48653 24.04258
#
# Velocity S-wave (km/s) = 3.51568 3.73356 3.62626
# Velocity P-wave (km/s) = 6.34474 6.81259 6.58282
#
# Compressibility (1/GPa) = 0.02300393
#
# Stress axis : x y z
#
# Youngs Moduli (GPa) = 72.51674 33.10102 69.95041
#
# Poissons Ratio (x) = 0.20496 0.13654
# Poissons Ratio (y) = 0.44902 0.66468
# Poissons Ratio (z) = 0.14155 0.31453
#
# Static dielectric constant tensor:
#      x y z
#    x 3.276230 0.000000 0.075290 
#    y 0.000000 3.365480 0.000000 
#    z 0.075290 0.000000 3.563210 
# 
# 
# High freq. dielectric constant tensor:
#      x y z
#    x 1.703380 0.000000 0.002240 
#    y 0.000000 1.706800 0.000000 
#    z 0.002240 0.000000 1.708810 
# 
# From -- ./inp_files/374994.got.cif
#   From: 2010.06.25/outbox.cif.g09.slc.cpg/sg12_188_cif.got.tgz:374994.got - 2010.06.28 00:19:55.
