data_PCOD8105664
_publ_section_title
;
Structure prediction by ZEFSAII (Michael W. Deem and Ramdas Pophale) SiO2 
 PCOD8105664
Probable space group: C 2/M
;
_chemical_formula_sum "Si O2"
_cell_formula_units_Z 56
_cell_length_a 29.514945
_cell_length_b 8.584982
_cell_length_c 20.478834
_cell_angle_alpha 90.000000
_cell_angle_beta 147.071039
_cell_angle_gamma 90.000000
_cell_volume 2820.753043
_symmetry_space_group_name_H-M "C 2/M"
_symmetry_group_IT_number 12
_symmetry_cell_setting 'monoclinic'
loop_
_space_group_symop_operation_xyz
x,y,z
-x,y,-z
-x,-y,-z
x,-y,z
1/2+x,1/2+y,z
1/2-x,1/2+y,-z
1/2-x,1/2-y,-z
1/2+x,1/2-y,z
loop_
_atom_site_type_symbol
_atom_site_label
_atom_site_fract_x
_atom_site_fract_y
_atom_site_fract_z
Si Si1 0.609031 0.180766 0.553720
Si Si2 0.536132 0.321182 0.703090
Si Si3 0.835959 0.818292 0.249109
Si Si4 0.155728 0.682720 0.067429
Si Si5 0.172146 0.317011 0.367448
Si Si6 0.994980 0.317012 0.197289
Si Si7 0.278683 0.817651 0.716425
O O1 0.537190 0.284076 0.435543
O O2 0.613719 0.221499 0.635782
O O3 0.694547 0.219206 0.619911
O O4 0.587871 0.000000 0.518876
O O5 0.529563 0.500000 0.716958
O O6 0.623939 0.287336 0.773105
O O7 0.531028 0.214082 0.760156
O O8 0.740018 0.760458 0.132782
O O9 0.841022 0.000000 0.274888
O O10 0.147797 0.500000 0.048658
O O11 0.159953 0.726965 0.149301
O O12 0.074527 0.759155 0.935113
O O13 0.174424 0.500000 0.380381
O O14 0.250000 0.250000 0.500000
O O15 0.176039 0.272565 0.295827
O O16 0.085996 0.244988 0.291353
O O17 0.000079 0.500000 0.191741
O O18 0.255431 0.000000 0.691474
#
# Coordination Sequence:
#
# PCOD8105664 Si02
#       7
#     8   8   8   8   8   8   8
#     4  11  21  33  53  82 110 135 172 222 270 311
#     4  11  22  35  52  75 106 145 182 214 258 317
#     4   9  19  36  56  77 104 141 179 213 257 317
#     4   8  16  34  57  78 103 135 174 219 262 308
#     4  10  21  35  54  80 107 138 175 215 261 313
#     4  10  21  36  54  79 108 136 174 224 267 304
#     4   9  18  35  57  78 105 143 178 210 259 319
#
# _framework density 19.852854000000001
#
# number of rings (size 3 to 8) (size 9 to 14) (size 15 to 20)
#    0.000    2.286    0.000    3.857    0.000    7.429 
#    0.000    5.714    0.000    0.000    0.000    6.000 
#    0.000    0.000    0.000    0.000    0.000    0.000 
#
# Total GULP energy -347184.169547 kJ/mol
# GULP energy per Si atom -12399.434627 kJ/mol
# Density = 1.980767 g / cm^3
# Si number density = 19.852854 Si / 1000 Ang^3
#
#
#
# Elastic Constant Matrix: (Units=GPa)
#
#
# Indices 1 2 3 4 5 6 
#
# 1 147.9868 15.4373 68.8644 0.0000 -2.2176 0.0000
# 2 15.4373 24.7646 8.9996 0.0000 0.6675 0.0000
# 3 68.8644 8.9996 153.7165 0.0000 6.4341 0.0000
# 4 0.0000 0.0000 0.0000 19.1686 0.0000 -3.2770
# 5 -2.2176 0.6675 6.4341 0.0000 12.9941 0.0000
# 6 0.0000 0.0000 0.0000 -3.2770 0.0000 26.3169
#
#
#
# Elastic Compliance Matrix: (Units=1/GPa)
#
#
# Indices 1 2 3 4 5 6 
#
# 1 0.009123 -0.004338 -0.003990 0.000000 0.003756 0.000000
# 2 -0.004338 0.043332 -0.000479 0.000000 -0.002729 0.000000
# 3 -0.003990 -0.000479 0.008525 0.000000 -0.004878 0.000000
# 4 0.000000 0.000000 0.000000 0.053303 0.000000 0.006637
# 5 0.003756 -0.002729 -0.004878 0.000000 0.080154 0.000000
# 6 0.000000 0.000000 0.000000 0.006637 0.000000 0.038825
#
#
# Mechanical properties :
#
#
# Convention : Reuss Voigt Hill
#
# Bulk Modulus (GPa) = 23.05998 57.00784 40.03391
# Shear Modulus (GPa) = 18.84423 27.24037 23.04230
#
# Velocity S-wave (km/s) = 3.08424 3.70822 3.41053
# Velocity P-wave (km/s) = 4.93194 6.86382 5.97646
#
# Compressibility (1/GPa) = 0.04336517
#
# Stress axis : x y z
#
# Youngs Moduli (GPa) = 109.61286 23.07757 117.29734
#
# Poissons Ratio (x) = 0.10011 0.46805
# Poissons Ratio (y) = 0.47551 0.05622
# Poissons Ratio (z) = 0.43739 0.01106
#
# Static dielectric constant tensor:
#      x y z
#    x 3.824330 0.000000 0.172840 
#    y 0.000000 3.298290 0.000000 
#    z 0.172840 0.000000 3.861100 
# 
# 
# High freq. dielectric constant tensor:
#      x y z
#    x 1.782290 0.000000 0.002400 
#    y 0.000000 1.745530 0.000000 
#    z 0.002400 0.000000 1.775060 
# 
# From -- ./inp_files/329449.got.cif
#   From: 2010.06.25/outbox.cif.g09.slc.cpg/sg12_165_cif.got.tgz:329449.got - 2010.06.28 00:19:55.
