data_PCOD8105586
_publ_section_title
;
Structure prediction by ZEFSAII (Michael W. Deem and Ramdas Pophale) SiO2 
 PCOD8105586
Probable space group: C 2/M
;
_chemical_formula_sum "Si O2"
_cell_formula_units_Z 48
_cell_length_a 23.344758
_cell_length_b 8.717047
_cell_length_c 26.462257
_cell_angle_alpha 90.000000
_cell_angle_beta 151.544770
_cell_angle_gamma 90.000000
_cell_volume 2565.800936
_symmetry_space_group_name_H-M "C 2/M"
_symmetry_group_IT_number 12
_symmetry_cell_setting 'monoclinic'
loop_
_space_group_symop_operation_xyz
x,y,z
-x,y,-z
-x,-y,-z
x,-y,z
1/2+x,1/2+y,z
1/2-x,1/2+y,-z
1/2-x,1/2-y,-z
1/2+x,1/2-y,z
loop_
_atom_site_type_symbol
_atom_site_label
_atom_site_fract_x
_atom_site_fract_y
_atom_site_fract_z
Si Si1 0.180424 0.818599 0.109620
Si Si2 0.431155 0.676525 0.292075
Si Si3 0.439421 0.323120 0.504849
Si Si4 0.315138 0.319091 0.680783
Si Si5 0.929962 0.818958 0.872303
Si Si6 0.366088 0.819985 0.616397
O O1 0.295030 0.728687 0.177825
O O2 0.148390 0.758718 0.141135
O O3 0.205505 0.000000 0.128621
O O4 0.069756 0.774350 0.987003
O O5 0.446556 0.500000 0.288251
O O6 0.464476 0.702613 0.376367
O O7 0.514728 0.778680 0.321520
O O8 0.500000 0.267480 0.500000
O O9 0.398165 0.500000 0.469411
O O10 0.325407 0.218558 0.427957
O O11 0.332319 0.500000 0.689837
O O12 0.377705 0.250842 0.779751
O O13 0.380402 0.241351 0.684183
O O14 0.917634 0.000000 0.862720
O O15 0.250000 0.750000 0.500000
O O16 0.347547 0.000000 0.603303
#
# Coordination Sequence:
#
# PCOD8105586 Si02
#       6
#     8   8   8   8   8   8
#     4   9  17  35  60  84 114 151 189 228 276 330
#     4  11  22  36  55  82 115 147 186 231 278 332
#     4  10  21  35  52  78 114 149 180 225 283 335
#     4  11  21  35  57  84 112 145 188 232 278 335
#     4   8  17  34  58  86 115 149 187 230 277 329
#     4  12  24  40  59  80 108 148 190 231 281 335
#
# _framework density 18.707608
#
# number of rings (size 3 to 8) (size 9 to 14) (size 15 to 20)
#    0.000    1.833    1.667    4.500    0.000    1.000 
#    0.000    5.000    0.000    0.000    0.000    0.000 
#    0.000    0.000    0.000    0.000    0.000    0.000 
#
# Total GULP energy -297670.538897 kJ/mol
# GULP energy per Si atom -12402.939121 kJ/mol
# Density = 1.866503 g / cm^3
# Si number density = 18.707608 Si / 1000 Ang^3
#
#
#
# Elastic Constant Matrix: (Units=GPa)
#
#
# Indices 1 2 3 4 5 6 
#
# 1 99.8891 24.5773 28.6791 -0.0001 7.6284 0.0000
# 2 24.5773 73.2617 22.3973 -0.0001 0.1820 -0.0001
# 3 28.6791 22.3973 89.1329 -0.0001 9.5206 0.0000
# 4 -0.0001 -0.0001 -0.0001 20.1747 0.0000 2.9211
# 5 7.6284 0.1820 9.5206 0.0000 32.0321 0.0000
# 6 0.0000 -0.0001 0.0000 2.9211 0.0000 31.0813
#
#
#
# Elastic Compliance Matrix: (Units=1/GPa)
#
#
# Indices 1 2 3 4 5 6 
#
# 1 0.011717 -0.003073 -0.002790 0.000000 -0.001944 0.000000
# 2 -0.003073 0.015626 -0.003105 0.000000 0.001566 0.000000
# 3 -0.002790 -0.003105 0.013245 0.000000 -0.003255 0.000000
# 4 0.000000 0.000000 0.000000 0.050251 0.000000 -0.004723
# 5 -0.001944 0.001566 -0.003255 0.000000 0.032640 0.000000
# 6 0.000000 0.000000 0.000000 -0.004723 0.000000 0.032618
#
#
# Mechanical properties :
#
#
# Convention : Reuss Voigt Hill
#
# Bulk Modulus (GPa) = 44.14748 45.95458 45.05103
# Shear Modulus (GPa) = 27.53575 29.09963 28.31769
#
# Velocity S-wave (km/s) = 3.84070 3.94826 3.89485
# Velocity P-wave (km/s) = 6.58163 6.73817 6.66036
#
# Compressibility (1/GPa) = 0.02265135
#
# Stress axis : x y z
#
# Youngs Moduli (GPa) = 85.34852 63.99630 75.50118
#
# Poissons Ratio (x) = 0.19665 0.21066
# Poissons Ratio (y) = 0.26226 0.23443
# Poissons Ratio (z) = 0.23814 0.19871
#
# Static dielectric constant tensor:
#      x y z
#    x 3.624750 0.000000 -0.195870 
#    y 0.000000 3.286100 0.000000 
#    z -0.195870 0.000000 3.642430 
# 
# 
# High freq. dielectric constant tensor:
#      x y z
#    x 1.729680 0.000000 -0.001370 
#    y 0.000000 1.715760 0.000000 
#    z -0.001370 0.000000 1.726340 
# 
# From -- ./inp_files/348895.got.cif
#   From: 2010.06.25/outbox.cif.g09.slc.cpg/sg12_175_cif.got.tgz:348895.got - 2010.06.28 00:19:55.
