data_PCOD8105313
_publ_section_title
;
Structure prediction by ZEFSAII (Michael W. Deem and Ramdas Pophale) SiO2 
 PCOD8105313
Probable space group: C 2/M
;
_chemical_formula_sum "Si O2"
_cell_formula_units_Z 56
_cell_length_a 12.087850
_cell_length_b 27.733895
_cell_length_c 12.712886
_cell_angle_alpha 90.000000
_cell_angle_beta 137.852699
_cell_angle_gamma 90.000000
_cell_volume 2859.906277
_symmetry_space_group_name_H-M "C 2/M"
_symmetry_group_IT_number 12
_symmetry_cell_setting 'monoclinic'
loop_
_space_group_symop_operation_xyz
x,y,z
-x,y,-z
-x,-y,-z
x,-y,z
1/2+x,1/2+y,z
1/2-x,1/2+y,-z
1/2-x,1/2-y,-z
1/2+x,1/2-y,z
loop_
_atom_site_type_symbol
_atom_site_label
_atom_site_fract_x
_atom_site_fract_y
_atom_site_fract_z
Si Si1 0.359717 0.892851 0.476899
Si Si2 0.353604 0.855369 0.975943
Si Si3 0.437946 0.817317 0.263958
Si Si4 0.814314 0.057252 0.237596
Si Si5 0.377104 0.341416 0.829623
Si Si6 0.816484 0.055903 0.473364
Si Si7 0.603944 0.720221 0.843241
O O1 0.500000 0.915079 0.500000
O O2 0.418441 0.842520 0.568507
O O3 0.191968 0.883129 0.294823
O O4 0.325234 0.930683 0.544449
O O5 0.298734 0.911345 0.921393
O O6 0.191818 0.822145 0.837650
O O7 0.500000 0.841040 0.000000
O O8 0.411587 0.846592 0.136484
O O9 0.270326 0.816406 0.211867
O O10 0.492532 0.761211 0.291313
O O11 0.768234 0.075131 0.323515
O O12 0.005461 0.072501 0.357873
O O13 0.782562 0.000000 0.194724
O O14 0.475086 0.300612 0.835529
O O15 0.500000 0.366538 0.000000
O O16 0.828935 0.000000 0.466043
O O17 0.750000 0.750000 0.000000
#
# Coordination Sequence:
#
# PCOD8105313 Si02
#       7
#     8   8   8   8   8   8   8
#     4  10  22  38  58  85 114 149 188 232 285 335
#     4  11  21  32  56  84 113 150 193 235 281 332
#     4  10  23  37  55  83 117 149 191 235 281 331
#     4   9  19  36  58  86 114 148 188 230 286 342
#     4  11  20  38  59  77 107 153 188 231 282 337
#     4   9  18  36  61  83 114 149 185 231 285 344
#     4  10  21  33  57  79 109 151 194 228 278 329
#
# _framework density 19.581060999999998
#
# number of rings (size 3 to 8) (size 9 to 14) (size 15 to 20)
#    0.000    2.000    2.857    2.571    4.000    1.143 
#    0.000    0.714    6.286    1.286    0.000    0.000 
#    0.000    0.000    0.000    0.000    0.000    0.000 
#
# Total GULP energy -347000.280558 kJ/mol
# GULP energy per Si atom -12392.867163 kJ/mol
# Density = 1.953649 g / cm^3
# Si number density = 19.581061 Si / 1000 Ang^3
#
#
#
# Elastic Constant Matrix: (Units=GPa)
#
#
# Indices 1 2 3 4 5 6 
#
# 1 142.4101 35.3006 23.9015 0.0000 3.8301 0.0000
# 2 35.3006 58.2434 21.6316 0.0000 -5.5384 0.0000
# 3 23.9015 21.6316 71.3675 0.0000 -2.1140 0.0000
# 4 0.0000 0.0000 0.0000 25.2210 0.0000 -2.8352
# 5 3.8301 -5.5384 -2.1140 0.0000 17.4653 0.0000
# 6 0.0000 0.0000 0.0000 -2.8352 0.0000 29.4164
#
#
#
# Elastic Compliance Matrix: (Units=1/GPa)
#
#
# Indices 1 2 3 4 5 6 
#
# 1 0.008612 -0.005021 -0.001471 0.000000 -0.003659 0.000000
# 2 -0.005021 0.022805 -0.005002 0.000000 0.007727 0.000000
# 3 -0.001471 -0.005002 0.016041 0.000000 0.000678 0.000000
# 4 0.000000 0.000000 0.000000 0.040084 0.000000 0.003863
# 5 -0.003659 0.007727 0.000678 0.000000 0.060591 0.000000
# 6 0.000000 0.000000 0.000000 0.003863 0.000000 0.034367
#
#
# Mechanical properties :
#
#
# Convention : Reuss Voigt Hill
#
# Bulk Modulus (GPa) = 40.86571 48.18761 44.52666
# Shear Modulus (GPa) = 23.40348 27.16636 25.28492
#
# Velocity S-wave (km/s) = 3.46093 3.72880 3.59736
# Velocity P-wave (km/s) = 6.07339 6.57277 6.32801
#
# Compressibility (1/GPa) = 0.02447039
#
# Stress axis : x y z
#
# Youngs Moduli (GPa) = 116.11875 43.84985 62.34178
#
# Poissons Ratio (x) = 0.22018 0.09168
# Poissons Ratio (y) = 0.58307 0.31182
# Poissons Ratio (z) = 0.17076 0.21932
#
# Static dielectric constant tensor:
#      x y z
#    x 3.755740 0.000000 0.011480 
#    y 0.000000 3.625390 0.000000 
#    z 0.011480 0.000000 3.776690 
# 
# 
# High freq. dielectric constant tensor:
#      x y z
#    x 1.777200 0.000000 0.004980 
#    y 0.000000 1.743470 0.000000 
#    z 0.004980 0.000000 1.751750 
# 
# From -- ./inp_files/209181.got.cif
#   From: 2010.06.25/outbox.cif.g09.slc.cpg/sg12_105_cif.got.tgz:209181.got - 2010.06.28 00:19:55.
