data_PCOD8105190
_publ_section_title
;
Structure prediction by ZEFSAII (Michael W. Deem and Ramdas Pophale) SiO2 
 PCOD8105190
Probable space group: C 2/M
;
_chemical_formula_sum "Si O2"
_cell_formula_units_Z 32
_cell_length_a 5.033171
_cell_length_b 25.915459
_cell_length_c 12.133183
_cell_angle_alpha 90.000000
_cell_angle_beta 79.248504
_cell_angle_gamma 90.000000
_cell_volume 1554.833247
_symmetry_space_group_name_H-M "C 2/M"
_symmetry_group_IT_number 12
_symmetry_cell_setting 'monoclinic'
loop_
_space_group_symop_operation_xyz
x,y,z
-x,y,-z
-x,-y,-z
x,-y,z
1/2+x,1/2+y,z
1/2-x,1/2+y,-z
1/2-x,1/2-y,-z
1/2+x,1/2-y,z
loop_
_atom_site_type_symbol
_atom_site_label
_atom_site_fract_x
_atom_site_fract_y
_atom_site_fract_z
Si Si1 0.014777 0.943116 0.290144
Si Si2 0.500000 0.785777 0.000000
Si Si3 0.977695 0.614415 0.371756
Si Si4 0.288061 0.500000 0.920804
Si Si5 0.099164 0.285765 0.757649
O O1 0.758438 0.905528 0.297782
O O2 0.230143 0.922663 0.361182
O O3 0.914231 0.000000 0.337512
O O4 0.164393 0.949066 0.159335
O O5 0.460164 0.815534 0.119809
O O6 0.250000 0.750000 0.000000
O O7 0.907713 0.671466 0.335611
O O8 0.000000 0.616257 0.500000
O O9 0.500000 0.500000 0.000000
O O10 0.000000 0.500000 0.000000
O O11 0.392610 0.259789 0.742823
#
# Coordination Sequence:
#
# PCOD8105190 Si02
#       5
#     8   4   8   4   8
#     4  10  24  42  62  92 124 162 208 256 316 360
#     4   8  16  34  58  78 109 150 193 250 304 360
#     4  12  24  40  62  93 126 167 218 253 299 378
#     4  10  20  42  67  88 127 162 200 259 315 373
#     4  10  21  39  60  86 122 160 206 259 314 362
#
# _framework density 20.580984999999998
#
# number of rings (size 3 to 8) (size 9 to 14) (size 15 to 20)
#    0.750    1.000    0.000    4.500    0.000    4.000 
#    6.750    0.000    0.000    0.000    0.000    0.000 
#    0.000    0.000    0.000    0.000    0.000    0.000 
#
# Total GULP energy -198246.746735 kJ/mol
# GULP energy per Si atom -12390.421671 kJ/mol
# Density = 2.053414 g / cm^3
# Si number density = 20.580985 Si / 1000 Ang^3
#
#
#
# Elastic Constant Matrix: (Units=GPa)
#
#
# Indices 1 2 3 4 5 6 
#
# 1 111.0224 13.7953 21.0120 0.0000 10.3301 0.0000
# 2 13.7953 74.9022 43.5373 0.0000 6.4852 0.0000
# 3 21.0120 43.5373 103.3318 0.0000 16.3048 0.0000
# 4 0.0000 0.0000 0.0000 19.4134 0.0000 1.1805
# 5 10.3301 6.4852 16.3048 0.0000 39.8391 0.0000
# 6 0.0000 0.0000 0.0000 1.1805 0.0000 23.8003
#
#
#
# Elastic Compliance Matrix: (Units=1/GPa)
#
#
# Indices 1 2 3 4 5 6 
#
# 1 0.009525 -0.000845 -0.001297 0.000000 -0.001802 0.000000
# 2 -0.000845 0.017757 -0.007364 0.000000 0.000342 0.000000
# 3 -0.001297 -0.007364 0.013686 0.000000 -0.004066 0.000000
# 4 0.000000 0.000000 0.000000 0.051667 0.000000 -0.002563
# 5 -0.001802 0.000342 -0.004066 0.000000 0.027177 0.000000
# 6 0.000000 0.000000 0.000000 -0.002563 0.000000 0.042143
#
#
# Mechanical properties :
#
#
# Convention : Reuss Voigt Hill
#
# Bulk Modulus (GPa) = 45.54319 49.54951 47.54635
# Shear Modulus (GPa) = 26.55568 30.67135 28.61352
#
# Velocity S-wave (km/s) = 3.59597 3.86460 3.73270
# Velocity P-wave (km/s) = 6.27839 6.63635 6.45985
#
# Compressibility (1/GPa) = 0.02195718
#
# Stress axis : x y z
#
# Youngs Moduli (GPa) = 104.98469 56.31589 73.07003
#
# Poissons Ratio (x) = 0.04756 0.09475
# Poissons Ratio (y) = 0.08867 0.53808
# Poissons Ratio (z) = 0.13614 0.41470
#
# Static dielectric constant tensor:
#      x y z
#    x 3.843340 0.000000 0.088880 
#    y 0.000000 3.440870 0.000000 
#    z 0.088880 0.000000 4.039800 
# 
# 
# High freq. dielectric constant tensor:
#      x y z
#    x 1.826160 0.000000 0.013720 
#    y 0.000000 1.775940 0.000000 
#    z 0.013720 0.000000 1.814710 
# 
# From -- ./inp_files/114847.got.cif
#   From: 2010.06.25/outbox.cif.g09.slc.cpg/sg12_58_cif.got.tgz:114847.got - 2010.06.28 00:19:55.
