data_PCOD8105833
_publ_section_title
;
Structure prediction by ZEFSAII (Michael W. Deem and Ramdas Pophale) SiO2 
 PCOD8105833
Probable space group: C 2/M
;
_chemical_formula_sum "Si O2"
_cell_formula_units_Z 56
_cell_length_a 22.335311
_cell_length_b 7.742042
_cell_length_c 16.115586
_cell_angle_alpha 90.000000
_cell_angle_beta 93.131079
_cell_angle_gamma 90.000000
_cell_volume 2782.561843
_symmetry_space_group_name_H-M "C 2/M"
_symmetry_group_IT_number 12
_symmetry_cell_setting 'monoclinic'
loop_
_space_group_symop_operation_xyz
x,y,z
-x,y,-z
-x,-y,-z
x,-y,z
1/2+x,1/2+y,z
1/2-x,1/2+y,-z
1/2-x,1/2-y,-z
1/2+x,1/2-y,z
loop_
_atom_site_type_symbol
_atom_site_label
_atom_site_fract_x
_atom_site_fract_y
_atom_site_fract_z
Si Si1 0.779439 0.696082 0.889769
Si Si2 0.474107 0.304451 0.746259
Si Si3 0.313754 0.701745 0.541317
Si Si4 0.491929 0.000000 0.363405
Si Si5 0.099057 0.500000 0.499134
Si Si6 0.156398 0.195571 0.950757
Si Si7 0.973382 0.695131 0.083288
Si Si8 0.162379 0.800167 0.268913
O O1 0.779694 0.500000 0.920988
O O2 0.712315 0.769079 0.900853
O O3 0.796240 0.703959 0.794558
O O4 0.827716 0.796267 0.949943
O O5 0.476982 0.500000 0.709807
O O6 0.511548 0.173442 0.691901
O O7 0.501632 0.309570 0.840026
O O8 0.405926 0.235841 0.743275
O O9 0.329984 0.500000 0.526534
O O10 0.250000 0.750000 0.500000
O O11 0.362482 0.824424 0.501883
O O12 0.311742 0.742959 0.638823
O O13 0.552111 0.000000 0.421231
O O14 0.433004 0.000000 0.414891
O O15 0.098527 0.307932 0.924843
O O16 0.140868 0.000000 0.925322
O O17 0.996579 0.500000 0.097641
O O18 0.000000 0.773028 0.000000
O O19 0.166080 0.000000 0.247906
#
# Coordination Sequence:
#
# PCOD8105833 Si02
#       8
#     8   8   8   4   4   8   8   8
#     4  10  21  35  59  85 114 159 201 250 307 366
#     4  11  23  41  64  92 129 166 213 267 309 378
#     4  11  23  42  67  97 131 164 209 266 321 389
#     4  11  24  44  69  98 130 174 215 264 329 391
#     4  11  24  44  72  98 130 171 214 266 330 396
#     4  10  21  38  54  81 122 158 202 252 306 366
#     4  11  23  38  60  88 120 166 213 259 313 365
#     4  10  22  38  61  91 117 155 203 250 310 371
#
# _framework density 20.125339
#
# number of rings (size 3 to 8) (size 9 to 14) (size 15 to 20)
#    0.000    1.429    2.857    2.143    2.000    5.714 
#    2.571    1.429    0.000    0.000    0.000    0.000 
#    0.000    0.000    0.000    0.000    0.000    0.000 
#
# Total GULP energy -347298.668120 kJ/mol
# GULP energy per Si atom -12403.523861 kJ/mol
# Density = 2.007953 g / cm^3
# Si number density = 20.125339 Si / 1000 Ang^3
#
#
#
# Elastic Constant Matrix: (Units=GPa)
#
#
# Indices 1 2 3 4 5 6 
#
# 1 118.7964 35.6840 72.9293 0.0000 2.3079 0.0000
# 2 35.6840 98.5864 42.1926 0.0000 -13.4567 0.0000
# 3 72.9293 42.1926 135.3584 0.0000 -7.6687 0.0000
# 4 0.0000 0.0000 0.0000 22.9422 0.0000 2.6121
# 5 2.3079 -13.4567 -7.6687 0.0000 35.2770 0.0000
# 6 0.0000 0.0000 0.0000 2.6121 0.0000 28.5636
#
#
#
# Elastic Compliance Matrix: (Units=1/GPa)
#
#
# Indices 1 2 3 4 5 6 
#
# 1 0.013233 -0.002423 -0.006557 0.000000 -0.003215 0.000000
# 2 -0.002423 0.012651 -0.002385 0.000000 0.004466 0.000000
# 3 -0.006557 -0.002385 0.011782 0.000000 0.002080 0.000000
# 4 0.000000 0.000000 0.000000 0.044046 0.000000 -0.004028
# 5 -0.003215 0.004466 0.002080 0.000000 0.030713 0.000000
# 6 0.000000 0.000000 0.000000 -0.004028 0.000000 0.035378
#
#
# Mechanical properties :
#
#
# Convention : Reuss Voigt Hill
#
# Bulk Modulus (GPa) = 66.94958 72.70590 69.82774
# Shear Modulus (GPa) = 28.48826 30.81892 29.65359
#
# Velocity S-wave (km/s) = 3.76645 3.91749 3.84271
# Velocity P-wave (km/s) = 7.22865 7.52777 7.37972
#
# Compressibility (1/GPa) = 0.01493661
#
# Stress axis : x y z
#
# Youngs Moduli (GPa) = 75.56752 79.04808 84.87602
#
# Poissons Ratio (x) = 0.19149 0.55652
# Poissons Ratio (y) = 0.18306 0.20244
# Poissons Ratio (z) = 0.49549 0.18854
#
# Static dielectric constant tensor:
#      x y z
#    x 3.603730 0.000000 -0.004810 
#    y 0.000000 3.718490 0.000000 
#    z -0.004810 0.000000 3.563570 
# 
# 
# High freq. dielectric constant tensor:
#      x y z
#    x 1.783140 0.000000 0.003250 
#    y 0.000000 1.795200 0.000000 
#    z 0.003250 0.000000 1.778190 
# 
# From -- ./inp_files/231108.got.cif
#   From: 2010.06.25/outbox.cif.g09.slc.cpg/sg12_116_cif.got.tgz:231108.got - 2010.06.28 00:19:55.
