data_PCOD8105486
_publ_section_title
;
Structure prediction by ZEFSAII (Michael W. Deem and Ramdas Pophale) SiO2 
 PCOD8105486
Probable space group: C 2/M
;
_chemical_formula_sum "Si O2"
_cell_formula_units_Z 64
_cell_length_a 22.504243
_cell_length_b 18.451966
_cell_length_c 7.840767
_cell_angle_alpha 90.000000
_cell_angle_beta 91.655127
_cell_angle_gamma 90.000000
_cell_volume 3254.500719
_symmetry_space_group_name_H-M "C 2/M"
_symmetry_group_IT_number 12
_symmetry_cell_setting 'monoclinic'
loop_
_space_group_symop_operation_xyz
x,y,z
-x,y,-z
-x,-y,-z
x,-y,z
1/2+x,1/2+y,z
1/2-x,1/2+y,-z
1/2-x,1/2-y,-z
1/2+x,1/2-y,z
loop_
_atom_site_type_symbol
_atom_site_label
_atom_site_fract_x
_atom_site_fract_y
_atom_site_fract_z
Si Si1 0.119524 0.419735 0.775307
Si Si2 0.650420 0.414420 0.290269
Si Si3 0.357214 0.414765 0.324119
Si Si4 0.267514 0.831062 0.313208
Si Si5 0.133408 0.419615 0.175412
Si Si6 0.006396 0.585866 0.185986
Si Si7 0.242789 0.672792 0.288937
Si Si8 0.434194 0.586025 0.015196
O O1 0.134349 0.500000 0.699912
O O2 0.168235 0.361677 0.726693
O O3 0.052980 0.393006 0.708708
O O4 0.117060 0.426339 0.977518
O O5 0.654578 0.500000 0.278898
O O6 0.628924 0.390448 0.479180
O O7 0.715556 0.384930 0.250023
O O8 0.605218 0.383250 0.144782
O O9 0.346574 0.500000 0.315413
O O10 0.297726 0.378479 0.247964
O O11 0.409761 0.390921 0.199827
O O12 0.256397 0.753643 0.220557
O O13 0.267895 0.822064 0.513308
O O14 0.153649 0.500000 0.243901
O O15 0.072113 0.393719 0.267692
O O16 0.184169 0.359950 0.199451
O O17 0.005203 0.500000 0.166621
O O18 0.000000 0.623272 0.000000
O O19 0.435986 0.500000 0.001164
O O20 0.500000 0.618990 0.000000
#
# Coordination Sequence:
#
# PCOD8105486 Si02
#       8
#     8   8   8   8   8   8   8   8
#     4   9  17  30  52  78 102 132 168 207 252 303
#     4   9  18  33  53  76 104 136 170 214 265 310
#     4   9  18  33  53  76 104 136 170 214 265 310
#     4  10  21  35  50  70 102 138 172 210 255 307
#     4   9  17  30  52  78 102 132 168 207 252 303
#     4   7  12  26  47  73 103 129 158 199 248 301
#     4  10  21  35  50  70 102 138 172 210 255 307
#     4   9  18  32  53  80 104 127 167 220 262 310
#
# _framework density 19.665074000000001
#
# number of rings (size 3 to 8) (size 9 to 14) (size 15 to 20)
#    0.000    3.000    0.000    2.250    1.750    2.500 
#    0.000    3.125    2.750    2.250    0.000    0.000 
#    0.000    0.000    0.000    0.000    0.000    0.000 
#
# Total GULP energy -396425.112252 kJ/mol
# GULP energy per Si atom -12388.284758 kJ/mol
# Density = 1.962032 g / cm^3
# Si number density = 19.665074 Si / 1000 Ang^3
#
#
#
# Elastic Constant Matrix: (Units=GPa)
#
#
# Indices 1 2 3 4 5 6 
#
# 1 148.5759 48.1402 18.1166 0.0000 -29.3192 0.0000
# 2 48.1402 60.7046 8.6027 0.0000 -10.4102 0.0000
# 3 18.1166 8.6027 34.7291 0.0000 -15.2360 0.0000
# 4 0.0000 0.0000 0.0000 13.3185 0.0000 -2.5870
# 5 -29.3192 -10.4102 -15.2360 0.0000 19.2854 0.0000
# 6 0.0000 0.0000 0.0000 -2.5870 0.0000 21.0946
#
#
#
# Elastic Compliance Matrix: (Units=1/GPa)
#
#
# Indices 1 2 3 4 5 6 
#
# 1 0.011930 -0.007017 0.002770 0.000000 0.016537 0.000000
# 2 -0.007017 0.022283 -0.001932 0.000000 -0.000166 0.000000
# 3 0.002770 -0.001932 0.044716 0.000000 0.038495 0.000000
# 4 0.000000 0.000000 0.000000 0.076916 0.000000 0.009433
# 5 0.016537 -0.000166 0.038495 0.000000 0.107317 0.000000
# 6 0.000000 0.000000 0.000000 0.009433 0.000000 0.048562
#
#
# Mechanical properties :
#
#
# Convention : Reuss Voigt Hill
#
# Bulk Modulus (GPa) = 15.02158 43.74764 29.38461
# Shear Modulus (GPa) = 14.43946 22.01635 18.22791
#
# Velocity S-wave (km/s) = 2.71268 3.34962 3.04784
# Velocity P-wave (km/s) = 4.17933 6.10366 5.23075
#
# Compressibility (1/GPa) = 0.06657089
#
# Stress axis : x y z
#
# Youngs Moduli (GPa) = 83.82345 44.87647 22.36328
#
# Poissons Ratio (x) = 0.31491 -0.06195
# Poissons Ratio (y) = 0.58821 0.04321
# Poissons Ratio (z) = -0.23219 0.08670
#
# Static dielectric constant tensor:
#      x y z
#    x 4.098950 0.000000 -0.075640 
#    y 0.000000 3.609380 0.000000 
#    z -0.075640 0.000000 3.493540 
# 
# 
# High freq. dielectric constant tensor:
#      x y z
#    x 1.778880 0.000000 -0.004940 
#    y 0.000000 1.725860 0.000000 
#    z -0.004940 0.000000 1.750340 
# 
# From -- ./inp_files/87987.got.cif
#   From: 2010.06.25/outbox.cif.g09.slc.cpg/sg12_44_cif.got.tgz:87987.got - 2010.06.28 00:19:55.
