data_PCOD8105281
_publ_section_title
;
Structure prediction by ZEFSAII (Michael W. Deem and Ramdas Pophale) SiO2 
 PCOD8105281
Probable space group: C 2/M
;
_chemical_formula_sum "Si O2"
_cell_formula_units_Z 48
_cell_length_a 15.399333
_cell_length_b 8.658632
_cell_length_c 28.494857
_cell_angle_alpha 90.000000
_cell_angle_beta 36.975326
_cell_angle_gamma 90.000000
_cell_volume 2285.243048
_symmetry_space_group_name_H-M "C 2/M"
_symmetry_group_IT_number 12
_symmetry_cell_setting 'monoclinic'
loop_
_space_group_symop_operation_xyz
x,y,z
-x,y,-z
-x,-y,-z
x,-y,z
1/2+x,1/2+y,z
1/2-x,1/2+y,-z
1/2-x,1/2-y,-z
1/2+x,1/2-y,z
loop_
_atom_site_type_symbol
_atom_site_label
_atom_site_fract_x
_atom_site_fract_y
_atom_site_fract_z
Si Si1 0.114617 0.181248 0.487459
Si Si2 0.583515 0.169703 0.674604
Si Si3 0.177863 0.181957 0.169989
Si Si4 0.853651 0.683787 0.915999
Si Si5 0.561779 0.833771 0.360131
Si Si6 0.335929 0.684767 0.191802
O O1 0.267083 0.253569 0.405534
O O2 0.000000 0.242654 0.500000
O O3 0.054166 0.225032 0.564423
O O4 0.136591 0.000000 0.477710
O O5 0.491827 0.281960 0.747429
O O6 0.490674 0.138831 0.669235
O O7 0.608947 0.000000 0.687748
O O8 0.211541 0.257201 0.105194
O O9 0.284979 0.250277 0.163231
O O10 0.201541 0.000000 0.157422
O O11 0.852987 0.500000 0.916836
O O12 0.013618 0.744162 0.857544
O O13 0.750000 0.750000 0.000000
O O14 0.723680 0.766336 0.282506
O O15 0.566268 0.000000 0.384432
O O16 0.346266 0.500000 0.183649
#
# Coordination Sequence:
#
# PCOD8105281 Si02
#       6
#     8   8   8   8   8   8
#     4  10  21  33  49  79 115 154 202 253 302 358
#     4   9  19  37  56  79 115 159 203 253 310 362
#     4  11  23  41  66  97 128 167 214 258 312 377
#     4  12  26  45  69  98 130 166 205 255 313 375
#     4   9  19  35  56  80 112 154 199 250 305 361
#     4  10  22  43  67  96 130 166 210 261 315 374
#
# _framework density 21.00433
#
# number of rings (size 3 to 8) (size 9 to 14) (size 15 to 20)
#    0.000    1.833    0.000    5.000    2.333    5.000 
#    0.000    3.333    0.000    0.000    0.000    0.000 
#    0.000    0.000    0.000    0.000    0.000    0.000 
#
# Total GULP energy -297418.159368 kJ/mol
# GULP energy per Si atom -12392.423307 kJ/mol
# Density = 2.095652 g / cm^3
# Si number density = 21.004330 Si / 1000 Ang^3
#
#
#
# Elastic Constant Matrix: (Units=GPa)
#
#
# Indices 1 2 3 4 5 6 
#
# 1 41.1708 21.0169 -1.5041 -0.0002 1.7422 -0.0002
# 2 21.0169 107.2559 16.2715 0.0013 3.9250 0.0011
# 3 -1.5041 16.2715 67.0805 -0.0001 1.8341 0.0001
# 4 -0.0002 0.0013 -0.0001 1.8440 0.0000 -20.3188
# 5 1.7422 3.9250 1.8341 0.0000 37.6962 0.0001
# 6 -0.0002 0.0011 0.0001 -20.3188 0.0001 19.6621
#
#
#
# Elastic Compliance Matrix: (Units=1/GPa)
#
#
# Indices 1 2 3 4 5 6 
#
# 1 0.027262 -0.005616 0.001995 -0.000001 -0.000772 -0.000001
# 2 -0.005616 0.010867 -0.002742 0.000001 -0.000739 0.000001
# 3 0.001995 -0.002742 0.015633 0.000000 -0.000567 0.000000
# 4 -0.000001 0.000001 0.000000 -0.052210 0.000000 -0.053954
# 5 -0.000772 -0.000739 -0.000567 0.000000 0.026668 0.000000
# 6 -0.000001 0.000001 0.000000 -0.053954 0.000000 -0.004897
#
#
# Mechanical properties :
#
#
# Convention : Reuss Voigt Hill
#
# Bulk Modulus (GPa) = 24.36956 31.89730 28.13343
# Shear Modulus (GPa) = 100.54680 23.82199 62.18440
#
# Velocity S-wave (km/s) = 6.92629 3.37136 5.44700
# Velocity P-wave (km/s) = 8.69437 5.51124 7.27894
#
# Compressibility (1/GPa) = 0.04103481
#
# Stress axis : x y z
#
# Youngs Moduli (GPa) = 36.68160 92.02193 63.96825
#
# Poissons Ratio (x) = 0.51682 -0.12760
# Poissons Ratio (y) = 0.20601 0.17538
# Poissons Ratio (z) = -0.07317 0.25230
#
# Static dielectric constant tensor:
#      x y z
#    x 3.774120 0.000000 -0.149210 
#    y 0.000000 3.957620 0.000000 
#    z -0.149210 0.000000 4.230360 
# 
# 
# High freq. dielectric constant tensor:
#      x y z
#    x 1.819220 0.000000 -0.005480 
#    y 0.000000 1.818730 0.000000 
#    z -0.005480 0.000000 1.832710 
# 
# From -- ./inp_files/377899.got.cif
#   From: 2010.06.25/outbox.cif.g09.slc.cpg/sg12_189_cif.got.tgz:377899.got - 2010.06.28 00:19:55.
