data_PCOD8105959
_publ_section_title
;
Structure prediction by ZEFSAII (Michael W. Deem and Ramdas Pophale) SiO2 
 PCOD8105959
Probable space group: C 2/M
;
_chemical_formula_sum "Si O2"
_cell_formula_units_Z 56
_cell_length_a 19.675051
_cell_length_b 9.142058
_cell_length_c 19.067221
_cell_angle_alpha 90.000000
_cell_angle_beta 66.259787
_cell_angle_gamma 90.000000
_cell_volume 3139.415387
_symmetry_space_group_name_H-M "C 2/M"
_symmetry_group_IT_number 12
_symmetry_cell_setting 'monoclinic'
loop_
_space_group_symop_operation_xyz
x,y,z
-x,y,-z
-x,-y,-z
x,-y,z
1/2+x,1/2+y,z
1/2-x,1/2+y,-z
1/2-x,1/2-y,-z
1/2+x,1/2-y,z
loop_
_atom_site_type_symbol
_atom_site_label
_atom_site_fract_x
_atom_site_fract_y
_atom_site_fract_z
Si Si1 0.171632 0.827378 0.216811
Si Si2 0.527542 0.673859 0.198975
Si Si3 0.375429 0.327951 0.326775
Si Si4 0.821731 0.832689 0.492569
Si Si5 0.434408 0.332132 0.972644
Si Si6 0.774868 0.827729 0.657232
Si Si7 0.713792 0.172637 0.949132
O O1 0.094750 0.761490 0.218253
O O2 0.188679 0.763609 0.287028
O O3 0.239452 0.783481 0.138582
O O4 0.162820 0.000000 0.224461
O O5 0.526658 0.500000 0.204042
O O6 0.449357 0.736255 0.259819
O O7 0.538758 0.724774 0.114314
O O8 0.366682 0.500000 0.315329
O O9 0.384624 0.297529 0.407771
O O10 0.303839 0.248735 0.324389
O O11 0.750000 0.750000 0.500000
O O12 0.835424 0.795141 0.569314
O O13 0.799947 0.000000 0.496047
O O14 0.406944 0.500000 0.978623
O O15 0.500000 0.315377 0.000000
O O16 0.368784 0.231072 0.028320
O O17 0.759089 0.000000 0.671501
O O18 0.713343 0.000000 0.962021
O O19 0.750000 0.250000 0.000000
#
# Coordination Sequence:
#
# PCOD8105959 Si02
#       7
#     8   8   8   8   8   8   8
#     4   9  18  32  50  70  96 129 160 195 244 293
#     4   9  17  32  49  68  98 130 157 194 245 291
#     4   9  17  29  49  73  96 125 159 198 239 282
#     4   8  14  26  44  69  96 121 155 193 234 283
#     4  10  21  36  54  75 101 133 168 205 251 302
#     4   9  17  30  49  71  96 126 158 196 239 287
#     4  11  21  36  56  75  99 133 171 208 249 299
#
# _framework density 17.837717000000001
#
# number of rings (size 3 to 8) (size 9 to 14) (size 15 to 20)
#    0.000    2.714    1.429    0.429    2.000    0.286 
#    0.000    2.143    0.000    4.286    0.000    0.000 
#    0.000   11.429    0.000    0.000    0.000    0.000 
#
# Total GULP energy -346928.882141 kJ/mol
# GULP energy per Si atom -12390.317219 kJ/mol
# Density = 1.779712 g / cm^3
# Si number density = 17.837717 Si / 1000 Ang^3
#
#
#
# Elastic Constant Matrix: (Units=GPa)
#
#
# Indices 1 2 3 4 5 6 
#
# 1 108.7431 21.1862 75.9282 0.0000 11.3997 0.0000
# 2 21.1862 27.9297 19.9561 0.0000 2.5296 0.0000
# 3 75.9282 19.9561 138.1187 0.0000 18.3069 0.0000
# 4 0.0000 0.0000 0.0000 19.9837 0.0000 -3.1679
# 5 11.3997 2.5296 18.3069 0.0000 34.4329 0.0000
# 6 0.0000 0.0000 0.0000 -3.1679 0.0000 20.6571
#
#
#
# Elastic Compliance Matrix: (Units=1/GPa)
#
#
# Indices 1 2 3 4 5 6 
#
# 1 0.015930 -0.006500 -0.007727 0.000000 -0.000688 0.000000
# 2 -0.006500 0.042579 -0.002635 0.000000 0.000425 0.000000
# 3 -0.007727 -0.002635 0.012376 0.000000 -0.003828 0.000000
# 4 0.000000 0.000000 0.000000 0.051287 0.000000 0.007865
# 5 -0.000688 0.000425 -0.003828 0.000000 0.031274 0.000000
# 6 0.000000 0.000000 0.000000 0.007865 0.000000 0.049616
#
#
# Mechanical properties :
#
#
# Convention : Reuss Voigt Hill
#
# Bulk Modulus (GPa) = 26.91002 56.54807 41.72905
# Shear Modulus (GPa) = 20.06643 25.52949 22.79796
#
# Velocity S-wave (km/s) = 3.35766 3.78724 3.57890
# Velocity P-wave (km/s) = 5.49095 7.13403 6.36573
#
# Compressibility (1/GPa) = 0.03716087
#
# Stress axis : x y z
#
# Youngs Moduli (GPa) = 62.77648 23.48561 80.80300
#
# Poissons Ratio (x) = 0.15267 0.62433
# Poissons Ratio (y) = 0.40807 0.21291
# Poissons Ratio (z) = 0.48504 0.06188
#
# Static dielectric constant tensor:
#      x y z
#    x 3.278750 0.000000 0.134880 
#    y 0.000000 3.091570 0.000000 
#    z 0.134880 0.000000 3.853480 
# 
# 
# High freq. dielectric constant tensor:
#      x y z
#    x 1.674520 0.000000 0.009130 
#    y 0.000000 1.658740 0.000000 
#    z 0.009130 0.000000 1.711850 
# 
# From -- ./inp_files/313686.got.cif
#   From: 2010.06.25/outbox.cif.g09.slc.cpg/sg12_157_cif.got.tgz:313686.got - 2010.06.28 00:19:55.
