data_PCOD8105228
_publ_section_title
;
Structure prediction by ZEFSAII (Michael W. Deem and Ramdas Pophale) SiO2 
 PCOD8105228
Probable space group: C 2/M
;
_chemical_formula_sum "Si O2"
_cell_formula_units_Z 64
_cell_length_a 21.824761
_cell_length_b 21.272967
_cell_length_c 9.017395
_cell_angle_alpha 90.000000
_cell_angle_beta 55.136911
_cell_angle_gamma 90.000000
_cell_volume 3435.168013
_symmetry_space_group_name_H-M "C 2/M"
_symmetry_group_IT_number 12
_symmetry_cell_setting 'monoclinic'
loop_
_space_group_symop_operation_xyz
x,y,z
-x,y,-z
-x,-y,-z
x,-y,z
1/2+x,1/2+y,z
1/2-x,1/2+y,-z
1/2-x,1/2-y,-z
1/2+x,1/2-y,z
loop_
_atom_site_type_symbol
_atom_site_label
_atom_site_fract_x
_atom_site_fract_y
_atom_site_fract_z
Si Si1 0.276661 0.927573 0.271987
Si Si2 0.287028 0.326471 0.835988
Si Si3 0.444230 0.931894 0.943157
Si Si4 0.420710 0.738567 0.182671
Si Si5 0.823828 0.652070 0.461416
Si Si6 0.466217 0.863620 0.402708
Si Si7 0.937130 0.782851 0.481740
Si Si8 0.293050 0.708725 0.152448
O O1 0.224796 0.895084 0.219696
O O2 0.268935 0.891730 0.440288
O O3 0.251951 0.000000 0.321932
O O4 0.361771 0.918543 0.110830
O O5 0.360314 0.294599 0.669819
O O6 0.218330 0.280702 0.886611
O O7 0.293066 0.335061 0.005535
O O8 0.469590 0.874280 0.806759
O O9 0.446952 0.000000 0.856806
O O10 0.500000 0.935084 0.000000
O O11 0.372193 0.799985 0.293141
O O12 0.434542 0.695114 0.311789
O O13 0.371945 0.700915 0.128237
O O14 0.500000 0.757473 0.000000
O O15 0.885220 0.608939 0.464260
O O16 0.773712 0.690268 0.645593
O O17 0.500000 0.897846 0.500000
O O18 0.454448 0.790595 0.448337
O O19 0.000000 0.815514 0.500000
#
# Coordination Sequence:
#
# PCOD8105228 Si02
#       8
#     8   8   8   8   8   8   8   8
#     4  11  24  39  59  80 114 164 210 242 285 347
#     4  11  22  37  60  83 120 151 197 250 303 358
#     4  10  21  36  52  75 107 156 206 240 270 331
#     4  11  21  33  55  85 120 153 187 233 297 356
#     4  11  21  36  55  81 117 154 200 244 291 349
#     4  10  21  31  53  78 115 147 189 235 296 334
#     4  10  21  36  55  88 118 144 186 241 303 367
#     4  11  22  37  58  89 114 156 193 248 312 355
#
# _framework density 18.630821000000001
#
# number of rings (size 3 to 8) (size 9 to 14) (size 15 to 20)
#    0.000    1.375    5.000    1.875    5.250    1.250 
#    0.000    0.625    0.000    0.375    0.000    0.000 
#    0.000    4.500    0.000    0.000    0.000    0.000 
#
# Total GULP energy -396525.296564 kJ/mol
# GULP energy per Si atom -12391.415518 kJ/mol
# Density = 1.858842 g / cm^3
# Si number density = 18.630821 Si / 1000 Ang^3
#
#
#
# Elastic Constant Matrix: (Units=GPa)
#
#
# Indices 1 2 3 4 5 6 
#
# 1 121.3829 24.0565 35.9834 0.0000 33.3455 0.0000
# 2 24.0565 61.1798 27.4162 0.0000 11.5268 0.0000
# 3 35.9834 27.4162 107.3339 0.0000 9.4176 0.0000
# 4 0.0000 0.0000 0.0000 19.0745 0.0000 -3.5622
# 5 33.3455 11.5268 9.4176 0.0000 32.4182 0.0000
# 6 0.0000 0.0000 0.0000 -3.5622 0.0000 15.1642
#
#
#
# Elastic Compliance Matrix: (Units=1/GPa)
#
#
# Indices 1 2 3 4 5 6 
#
# 1 0.012541 -0.001496 -0.002809 0.000000 -0.011552 0.000000
# 2 -0.001496 0.019580 -0.004129 0.000000 -0.004223 0.000000
# 3 -0.002809 -0.004129 0.011217 0.000000 0.001099 0.000000
# 4 0.000000 0.000000 0.000000 0.054832 0.000000 0.012880
# 5 -0.011552 -0.004223 0.001099 0.000000 0.043912 0.000000
# 6 0.000000 0.000000 0.000000 0.012880 0.000000 0.068970
#
#
# Mechanical properties :
#
#
# Convention : Reuss Voigt Hill
#
# Bulk Modulus (GPa) = 37.77929 51.64540 44.71234
# Shear Modulus (GPa) = 21.12011 26.82742 23.97376
#
# Velocity S-wave (km/s) = 3.37057 3.79878 3.59106
# Velocity P-wave (km/s) = 5.95563 6.85723 6.42227
#
# Compressibility (1/GPa) = 0.02646953
#
# Stress axis : x y z
#
# Youngs Moduli (GPa) = 79.73891 51.07347 89.15373
#
# Poissons Ratio (x) = 0.07641 0.25040
# Poissons Ratio (y) = 0.11930 0.36812
# Poissons Ratio (z) = 0.22395 0.21089
#
# Static dielectric constant tensor:
#      x y z
#    x 4.267320 0.000000 0.453060 
#    y 0.000000 3.127390 0.000000 
#    z 0.453060 0.000000 3.508330 
# 
# 
# High freq. dielectric constant tensor:
#      x y z
#    x 1.740710 0.000000 0.014600 
#    y 0.000000 1.664310 0.000000 
#    z 0.014600 0.000000 1.725260 
# 
# From -- ./inp_files/78763.got.cif
#   From: 2010.06.25/outbox.cif.g09.slc.cpg/sg12_40_cif.got.tgz:78763.got - 2010.06.28 00:19:55.
