data_PCOD8105693
_publ_section_title
;
Structure prediction by ZEFSAII (Michael W. Deem and Ramdas Pophale) SiO2 
 PCOD8105693
Probable space group: C 2/M
;
_chemical_formula_sum "Si O2"
_cell_formula_units_Z 44
_cell_length_a 14.206702
_cell_length_b 20.782629
_cell_length_c 10.972446
_cell_angle_alpha 90.000000
_cell_angle_beta 134.130577
_cell_angle_gamma 90.000000
_cell_volume 2325.269624
_symmetry_space_group_name_H-M "C 2/M"
_symmetry_group_IT_number 12
_symmetry_cell_setting 'monoclinic'
loop_
_space_group_symop_operation_xyz
x,y,z
-x,y,-z
-x,-y,-z
x,-y,z
1/2+x,1/2+y,z
1/2-x,1/2+y,-z
1/2-x,1/2-y,-z
1/2+x,1/2-y,z
loop_
_atom_site_type_symbol
_atom_site_label
_atom_site_fract_x
_atom_site_fract_y
_atom_site_fract_z
Si Si1 0.500000 0.720578 0.500000
Si Si2 0.615666 0.573183 0.022744
Si Si3 0.853694 0.301055 0.545329
Si Si4 0.852769 0.426692 0.412257
Si Si5 0.156797 0.166269 0.858993
Si Si6 0.571937 0.783316 0.936441
O O1 0.390418 0.768820 0.450440
O O2 0.557467 0.675869 0.657840
O O3 0.575762 0.500000 0.968949
O O4 0.757021 0.582228 0.211882
O O5 0.500000 0.606088 0.000000
O O6 0.623539 0.599022 0.891983
O O7 0.750000 0.250000 0.500000
O O8 0.807556 0.374346 0.474258
O O9 0.971916 0.309302 0.745881
O O10 0.842037 0.500000 0.454888
O O11 0.000000 0.412123 0.500000
O O12 0.133864 0.216326 0.948741
O O13 0.306108 0.167234 0.943784
O O14 0.500000 0.775454 0.000000
#
# Coordination Sequence:
#
# PCOD8105693 Si02
#       6
#     4   8   8   8   8   8
#     4  10  22  36  50  88 112 146 192 230 296 342
#     4  10  22  38  60  87 114 150 197 240 291 352
#     4  11  22  34  58  85 120 148 191 245 287 352
#     4  10  21  38  60  86 118 153 194 245 295 346
#     4  10  21  35  58  78 117 152 187 240 292 350
#     4  10  21  35  54  85 112 153 188 235 295 344
#
# _framework density 18.922536999999998
#
# number of rings (size 3 to 8) (size 9 to 14) (size 15 to 20)
#    0.000    1.818    0.909    2.727   12.727    0.000 
#    0.000    0.455    0.000    5.455    0.000    0.000 
#    0.000    0.000    0.000    0.000    0.000    0.000 
#
# Total GULP energy -272692.766921 kJ/mol
# GULP energy per Si atom -12395.125769 kJ/mol
# Density = 1.887947 g / cm^3
# Si number density = 18.922537 Si / 1000 Ang^3
#
#
#
# Elastic Constant Matrix: (Units=GPa)
#
#
# Indices 1 2 3 4 5 6 
#
# 1 134.0100 49.1519 39.8510 0.0000 -0.1045 0.0000
# 2 49.1519 106.8726 45.1230 0.0000 -6.2116 0.0000
# 3 39.8510 45.1230 91.2417 0.0000 0.5611 0.0000
# 4 0.0000 0.0000 0.0000 22.8011 0.0000 -5.2931
# 5 -0.1045 -6.2116 0.5611 0.0000 31.3194 0.0000
# 6 0.0000 0.0000 0.0000 -5.2931 0.0000 31.0048
#
#
#
# Elastic Compliance Matrix: (Units=1/GPa)
#
#
# Indices 1 2 3 4 5 6 
#
# 1 0.009413 -0.003323 -0.002465 0.000000 -0.000583 0.000000
# 2 -0.003323 0.013190 -0.005089 0.000000 0.002696 0.000000
# 3 -0.002465 -0.005089 0.014561 0.000000 -0.001278 0.000000
# 4 0.000000 0.000000 0.000000 0.045667 0.000000 0.007796
# 5 -0.000583 0.002696 -0.001278 0.000000 0.032485 0.000000
# 6 0.000000 0.000000 0.000000 0.007796 0.000000 0.033584
#
#
# Mechanical properties :
#
#
# Convention : Reuss Voigt Hill
#
# Bulk Modulus (GPa) = 64.88150 66.70845 65.79497
# Shear Modulus (GPa) = 28.44317 30.22495 29.33406
#
# Velocity S-wave (km/s) = 3.88124 4.00096 3.94155
# Velocity P-wave (km/s) = 7.37887 7.52818 7.45390
#
# Compressibility (1/GPa) = 0.01541271
#
# Stress axis : x y z
#
# Youngs Moduli (GPa) = 106.23346 75.81408 68.67802
#
# Poissons Ratio (x) = 0.25190 0.16926
# Poissons Ratio (y) = 0.35297 0.34947
# Poissons Ratio (z) = 0.26182 0.38578
#
# Static dielectric constant tensor:
#      x y z
#    x 3.544760 0.000000 0.198010 
#    y 0.000000 3.458110 0.000000 
#    z 0.198010 0.000000 3.483110 
# 
# 
# High freq. dielectric constant tensor:
#      x y z
#    x 1.733550 0.000000 0.013220 
#    y 0.000000 1.718460 0.000000 
#    z 0.013220 0.000000 1.742400 
# 
# From -- ./inp_files/147796.got.cif
#   From: 2010.06.25/outbox.cif.g09.slc.cpg/sg12_74_cif.got.tgz:147796.got - 2010.06.28 00:19:55.
