data_PCOD8105302
_publ_section_title
;
Structure prediction by ZEFSAII (Michael W. Deem and Ramdas Pophale) SiO2 
 PCOD8105302
Probable space group: C 2/M
;
_chemical_formula_sum "Si O2"
_cell_formula_units_Z 56
_cell_length_a 16.682027
_cell_length_b 28.963511
_cell_length_c 7.050201
_cell_angle_alpha 90.000000
_cell_angle_beta 55.235958
_cell_angle_gamma 90.000000
_cell_volume 2798.420085
_symmetry_space_group_name_H-M "C 2/M"
_symmetry_group_IT_number 12
_symmetry_cell_setting 'monoclinic'
loop_
_space_group_symop_operation_xyz
x,y,z
-x,y,-z
-x,-y,-z
x,-y,z
1/2+x,1/2+y,z
1/2-x,1/2+y,-z
1/2-x,1/2-y,-z
1/2+x,1/2-y,z
loop_
_atom_site_type_symbol
_atom_site_label
_atom_site_fract_x
_atom_site_fract_y
_atom_site_fract_z
Si Si1 0.690329 0.199363 0.452510
Si Si2 0.919154 0.051436 0.250568
Si Si3 0.298334 0.053096 0.539168
Si Si4 0.597331 0.719745 0.754642
Si Si5 0.694651 0.128556 0.783848
Si Si6 0.411023 0.363646 0.494260
Si Si7 0.887861 0.622901 0.700013
O O1 0.614712 0.242395 0.564565
O O2 0.800369 0.218505 0.266449
O O3 0.674770 0.171602 0.671510
O O4 0.666878 0.167706 0.305538
O O5 0.817550 0.054711 0.275125
O O6 0.926894 0.083122 0.423206
O O7 0.940365 0.000000 0.294172
O O8 0.000000 0.069745 0.000000
O O9 0.320341 0.081530 0.316903
O O10 0.345835 0.076156 0.661629
O O11 0.335488 0.000000 0.468476
O O12 0.584360 0.668127 0.696776
O O13 0.500000 0.733942 0.000000
O O14 0.802442 0.136948 0.729862
O O15 0.621534 0.123846 0.059279
O O16 0.500000 0.345516 0.500000
O O17 0.000000 0.626390 0.500000
#
# Coordination Sequence:
#
# PCOD8105302 Si02
#       7
#     8   8   8   8   8   8   8
#     4   9  22  42  57  84 118 151 195 235 282 349
#     4   9  18  34  57  82 114 158 190 220 283 347
#     4   9  20  39  59  85 119 149 191 241 283 339
#     4  10  21  38  61  83 113 156 189 232 294 339
#     4   9  21  40  58  82 116 155 189 234 289 343
#     4  10  21  33  54  88 119 145 189 236 287 337
#     4  11  24  38  62  86 111 153 196 238 291 341
#
# _framework density 20.011292000000001
#
# number of rings (size 3 to 8) (size 9 to 14) (size 15 to 20)
#    0.000    2.429    0.000    1.286    6.000    3.429 
#    0.000    2.857    0.000    0.000    0.000    0.000 
#    0.000    0.000    0.000    0.000    0.000    0.000 
#
# Total GULP energy -347005.575271 kJ/mol
# GULP energy per Si atom -12393.056260 kJ/mol
# Density = 1.996575 g / cm^3
# Si number density = 20.011292 Si / 1000 Ang^3
#
#
#
# Elastic Constant Matrix: (Units=GPa)
#
#
# Indices 1 2 3 4 5 6 
#
# 1 56.2842 11.6646 27.1626 0.0000 -12.0042 0.0000
# 2 11.6646 90.1886 17.4329 0.0000 -3.8399 0.0000
# 3 27.1626 17.4329 105.3447 0.0000 -15.6780 0.0000
# 4 0.0000 0.0000 0.0000 18.9165 0.0000 -0.5459
# 5 -12.0042 -3.8399 -15.6780 0.0000 31.7204 0.0000
# 6 0.0000 0.0000 0.0000 -0.5459 0.0000 12.5582
#
#
#
# Elastic Compliance Matrix: (Units=1/GPa)
#
#
# Indices 1 2 3 4 5 6 
#
# 1 0.021465 -0.001681 -0.004402 0.000000 0.005744 0.000000
# 2 -0.001681 0.011593 -0.001480 0.000000 0.000036 0.000000
# 3 -0.004402 -0.001480 0.011439 0.000000 0.003809 0.000000
# 4 0.000000 0.000000 0.000000 0.052930 0.000000 0.002301
# 5 0.005744 0.000036 0.003809 0.000000 0.035586 0.000000
# 6 0.000000 0.000000 0.000000 0.002301 0.000000 0.079730
#
#
# Mechanical properties :
#
#
# Convention : Reuss Voigt Hill
#
# Bulk Modulus (GPa) = 34.04524 40.48198 37.26361
# Shear Modulus (GPa) = 21.03866 25.67618 23.35742
#
# Velocity S-wave (km/s) = 3.24595 3.58590 3.42015
# Velocity P-wave (km/s) = 5.57658 6.11706 5.85306
#
# Compressibility (1/GPa) = 0.02937268
#
# Stress axis : x y z
#
# Youngs Moduli (GPa) = 46.58840 86.26035 87.41781
#
# Poissons Ratio (x) = 0.14499 0.38477
# Poissons Ratio (y) = 0.07831 0.12935
# Poissons Ratio (z) = 0.20506 0.12764
#
# Static dielectric constant tensor:
#      x y z
#    x 3.746510 0.000000 -0.130480 
#    y 0.000000 3.883370 0.000000 
#    z -0.130480 0.000000 3.399710 
# 
# 
# High freq. dielectric constant tensor:
#      x y z
#    x 1.776780 0.000000 -0.018590 
#    y 0.000000 1.796930 0.000000 
#    z -0.018590 0.000000 1.754360 
# 
# From -- ./inp_files/18241.got.cif
#   From: 2010.06.25/outbox.cif.g09.slc.cpg/sg12_10_cif.got.tgz:18241.got - 2010.06.28 00:19:55.
