data_PCOD8105694
_publ_section_title
;
Structure prediction by ZEFSAII (Michael W. Deem and Ramdas Pophale) SiO2 
 PCOD8105694
Probable space group: C 2/M
;
_chemical_formula_sum "Si O2"
_cell_formula_units_Z 64
_cell_length_a 30.242734
_cell_length_b 8.858085
_cell_length_c 14.621322
_cell_angle_alpha 90.000000
_cell_angle_beta 58.887611
_cell_angle_gamma 90.000000
_cell_volume 3353.513988
_symmetry_space_group_name_H-M "C 2/M"
_symmetry_group_IT_number 12
_symmetry_cell_setting 'monoclinic'
loop_
_space_group_symop_operation_xyz
x,y,z
-x,y,-z
-x,-y,-z
x,-y,z
1/2+x,1/2+y,z
1/2-x,1/2+y,-z
1/2-x,1/2-y,-z
1/2+x,1/2-y,z
loop_
_atom_site_type_symbol
_atom_site_label
_atom_site_fract_x
_atom_site_fract_y
_atom_site_fract_z
Si Si1 0.864004 0.323976 0.006848
Si Si2 0.884077 0.321143 0.428014
Si Si3 0.277961 0.321969 0.213883
Si Si4 0.904957 0.678334 0.766308
Si Si5 0.992891 0.825842 0.287329
Si Si6 0.463940 0.673396 0.957984
Si Si7 0.798993 0.178843 0.397665
Si Si8 0.837736 0.320935 0.668849
O O1 0.857196 0.500000 0.026438
O O2 0.812191 0.246071 0.096705
O O3 0.873567 0.278269 0.891332
O O4 0.912064 0.270442 0.016457
O O5 0.878939 0.500000 0.421846
O O6 0.943319 0.273563 0.362270
O O7 0.852345 0.240873 0.381346
O O8 0.861650 0.264009 0.548383
O O9 0.278624 0.500000 0.202469
O O10 0.298389 0.274271 0.291946
O O11 0.220255 0.257535 0.261408
O O12 0.915513 0.500000 0.750521
O O13 0.871769 0.739525 0.716707
O O14 0.959590 0.763529 0.703743
O O15 0.004965 0.804572 0.168215
O O16 0.982911 0.000000 0.323087
O O17 0.448175 0.500000 0.990963
O O18 0.500000 0.734629 0.000000
O O19 0.750000 0.250000 0.500000
O O20 0.795952 0.000000 0.412899
O O21 0.836957 0.500000 0.671731
#
# Coordination Sequence:
#
# PCOD8105694 Si02
#       8
#     8   8   8   8   8   8   8   8
#     4  10  21  35  54  85 115 141 182 237 284 323
#     4  11  22  38  59  85 115 150 193 232 279 337
#     4  10  21  38  58  81 113 153 191 224 273 344
#     4   9  19  39  62  81 110 149 190 236 282 332
#     4  10  21  37  56  83 116 147 186 234 285 335
#     4   9  19  36  56  76 104 147 190 225 273 341
#     4  11  22  38  59  83 115 152 189 232 281 333
#     4   9  19  38  61  82 107 150 197 230 273 341
#
# _framework density 19.084458000000001
#
# number of rings (size 3 to 8) (size 9 to 14) (size 15 to 20)
#    0.000    2.125    1.250    1.500    1.750    3.250 
#    0.000    4.375    0.000    0.000    0.000    0.000 
#    0.000    0.000    0.000    0.000    0.000    0.000 
#
# Total GULP energy -396907.538786 kJ/mol
# GULP energy per Si atom -12403.360587 kJ/mol
# Density = 1.904102 g / cm^3
# Si number density = 19.084458 Si / 1000 Ang^3
#
#
#
# Elastic Constant Matrix: (Units=GPa)
#
#
# Indices 1 2 3 4 5 6 
#
# 1 165.8888 34.0826 59.1585 0.0000 1.8116 0.0000
# 2 34.0826 45.6490 25.8763 0.0000 -1.3311 0.0000
# 3 59.1585 25.8763 76.0064 0.0000 -19.1771 0.0000
# 4 0.0000 0.0000 0.0000 32.0443 0.0000 -6.1599
# 5 1.8116 -1.3311 -19.1771 0.0000 30.4688 0.0000
# 6 0.0000 0.0000 0.0000 -6.1599 0.0000 30.7785
#
#
#
# Elastic Compliance Matrix: (Units=1/GPa)
#
#
# Indices 1 2 3 4 5 6 
#
# 1 0.009451 -0.002786 -0.007823 0.000000 -0.005607 0.000000
# 2 -0.002786 0.028765 -0.008638 0.000000 -0.004014 0.000000
# 3 -0.007823 -0.008638 0.026401 0.000000 0.016705 0.000000
# 4 0.000000 0.000000 0.000000 0.032455 0.000000 0.006496
# 5 -0.005607 -0.004014 0.016705 0.000000 0.043492 0.000000
# 6 0.000000 0.000000 0.000000 0.006496 0.000000 0.033790
#
#
# Mechanical properties :
#
#
# Convention : Reuss Voigt Hill
#
# Bulk Modulus (GPa) = 38.27707 58.41988 48.34848
# Shear Modulus (GPa) = 22.56758 29.88678 26.22718
#
# Velocity S-wave (km/s) = 3.44250 3.96160 3.71114
# Velocity P-wave (km/s) = 5.99177 7.18355 6.61455
#
# Compressibility (1/GPa) = 0.02612530
#
# Stress axis : x y z
#
# Youngs Moduli (GPa) = 105.80398 34.76390 37.87747
#
# Poissons Ratio (x) = 0.09685 0.29631
# Poissons Ratio (y) = 0.29475 0.32717
# Poissons Ratio (z) = 0.82768 0.30028
#
# Static dielectric constant tensor:
#      x y z
#    x 3.707390 0.000000 0.043260 
#    y 0.000000 3.375960 0.000000 
#    z 0.043260 0.000000 3.524740 
# 
# 
# High freq. dielectric constant tensor:
#      x y z
#    x 1.752110 0.000000 -0.003180 
#    y 0.000000 1.731940 0.000000 
#    z -0.003180 0.000000 1.744730 
# 
# From -- ./inp_files/249686.got.cif
#   From: 2010.06.25/outbox.cif.g09.slc.cpg/sg12_125_cif.got.tgz:249686.got - 2010.06.28 00:19:55.
