data_PCOD8105243
_publ_section_title
;
Structure prediction by ZEFSAII (Michael W. Deem and Ramdas Pophale) SiO2 
 PCOD8105243
Probable space group: C 2/M
;
_chemical_formula_sum "Si O2"
_cell_formula_units_Z 56
_cell_length_a 22.189116
_cell_length_b 22.080368
_cell_length_c 17.021364
_cell_angle_alpha 90.000000
_cell_angle_beta 159.676650
_cell_angle_gamma 90.000000
_cell_volume 2896.461528
_symmetry_space_group_name_H-M "C 2/M"
_symmetry_group_IT_number 12
_symmetry_cell_setting 'monoclinic'
loop_
_space_group_symop_operation_xyz
x,y,z
-x,y,-z
-x,-y,-z
x,-y,z
1/2+x,1/2+y,z
1/2-x,1/2+y,-z
1/2-x,1/2-y,-z
1/2+x,1/2-y,z
loop_
_atom_site_type_symbol
_atom_site_label
_atom_site_fract_x
_atom_site_fract_y
_atom_site_fract_z
Si Si1 0.146897 0.168771 0.914888
Si Si2 0.540201 0.298520 0.461920
Si Si3 0.353195 0.619371 0.761594
Si Si4 0.022125 0.340554 0.439170
Si Si5 0.626252 0.568990 0.378903
Si Si6 0.864805 0.642729 0.774897
Si Si7 0.573857 0.259827 0.237513
O O1 0.124273 0.190928 0.797179
O O2 0.040411 0.107433 0.799280
O O3 0.080067 0.222490 0.890830
O O4 0.346526 0.154691 0.174630
O O5 0.500000 0.323621 0.500000
O O6 0.589614 0.228140 0.526601
O O7 0.701436 0.333393 0.623210
O O8 0.344626 0.573603 0.678418
O O9 0.403089 0.686984 0.796679
O O10 0.165965 0.618306 0.573621
O O11 0.500000 0.595131 0.000000
O O12 0.000000 0.366289 0.500000
O O13 0.594643 0.500000 0.365239
O O14 0.800691 0.593629 0.633756
O O15 0.968753 0.697526 0.859178
O O16 0.000000 0.611566 0.000000
O O17 0.750000 0.250000 0.500000
#
# Coordination Sequence:
#
# PCOD8105243 Si02
#       7
#     8   8   8   8   8   8   8
#     4  10  21  36  57  83 118 157 189 244 295 346
#     4  10  21  32  49  84 125 155 181 221 286 364
#     4  11  21  36  60  87 120 152 188 240 294 359
#     4  11  21  32  52  89 123 152 181 223 294 370
#     4  10  23  43  62  80 107 155 215 256 290 332
#     4  11  22  35  60  87 117 157 192 242 294 347
#     4  11  17  34  57  85 121 154 192 228 298 357
#
# _framework density 19.333935
#
# number of rings (size 3 to 8) (size 9 to 14) (size 15 to 20)
#    0.000    1.429    5.714    2.571    4.000    1.714 
#    0.000    0.714    0.000    8.571    0.000    0.000 
#    0.000    0.000    0.000    0.000    0.000    0.000 
#
# Total GULP energy -347268.121846 kJ/mol
# GULP energy per Si atom -12402.432923 kJ/mol
# Density = 1.928993 g / cm^3
# Si number density = 19.333935 Si / 1000 Ang^3
#
#
#
# Elastic Constant Matrix: (Units=GPa)
#
#
# Indices 1 2 3 4 5 6 
#
# 1 115.8573 23.7866 43.3296 0.0000 -13.4853 0.0000
# 2 23.7866 77.0765 8.2960 0.0000 -1.3291 0.0000
# 3 43.3296 8.2960 134.0665 0.0001 -11.9592 0.0000
# 4 0.0000 0.0000 0.0001 5.7747 0.0000 0.5700
# 5 -13.4853 -1.3291 -11.9592 0.0000 35.0834 0.0000
# 6 0.0000 0.0000 0.0000 0.5700 0.0000 11.9706
#
#
#
# Elastic Compliance Matrix: (Units=1/GPa)
#
#
# Indices 1 2 3 4 5 6 
#
# 1 0.010706 -0.002928 -0.003013 0.000000 0.002977 0.000000
# 2 -0.002928 0.013864 0.000036 0.000000 -0.000588 0.000000
# 3 -0.003013 0.000036 0.008589 0.000000 0.001771 0.000000
# 4 0.000000 0.000000 0.000000 0.173988 0.000000 -0.008285
# 5 0.002977 -0.000588 0.001771 0.000000 0.030229 0.000000
# 6 0.000000 0.000000 0.000000 -0.008285 0.000000 0.083932
#
#
# Mechanical properties :
#
#
# Convention : Reuss Voigt Hill
#
# Bulk Modulus (GPa) = 46.84451 53.09164 49.96807
# Shear Modulus (GPa) = 14.69573 27.33828 21.01701
#
# Velocity S-wave (km/s) = 2.75998 3.76441 3.30063
# Velocity P-wave (km/s) = 5.86843 6.81280 6.35817
#
# Compressibility (1/GPa) = 0.02134722
#
# Stress axis : x y z
#
# Youngs Moduli (GPa) = 93.40554 72.13027 116.43324
#
# Poissons Ratio (x) = 0.21122 0.35085
# Poissons Ratio (y) = 0.27352 -0.00420
# Poissons Ratio (z) = 0.28146 -0.00260
#
# Static dielectric constant tensor:
#      x y z
#    x 4.001420 0.000000 -0.418460 
#    y 0.000000 3.166960 0.000000 
#    z -0.418460 0.000000 3.827960 
# 
# 
# High freq. dielectric constant tensor:
#      x y z
#    x 1.762750 0.000000 -0.014590 
#    y 0.000000 1.702180 0.000000 
#    z -0.014590 0.000000 1.763220 
# 
# From -- ./inp_files/290841.got.cif
#   From: 2010.06.25/outbox.cif.g09.slc.cpg/sg12_146_cif.got.tgz:290841.got - 2010.06.28 00:19:55.
