data_PCOD8105386
_publ_section_title
;
Structure prediction by ZEFSAII (Michael W. Deem and Ramdas Pophale) SiO2 
 PCOD8105386
Probable space group: C 2/M
;
_chemical_formula_sum "Si O2"
_cell_formula_units_Z 48
_cell_length_a 21.667826
_cell_length_b 13.752493
_cell_length_c 16.452800
_cell_angle_alpha 90.000000
_cell_angle_beta 146.474094
_cell_angle_gamma 90.000000
_cell_volume 2707.837608
_symmetry_space_group_name_H-M "C 2/M"
_symmetry_group_IT_number 12
_symmetry_cell_setting 'monoclinic'
loop_
_space_group_symop_operation_xyz
x,y,z
-x,y,-z
-x,-y,-z
x,-y,z
1/2+x,1/2+y,z
1/2-x,1/2+y,-z
1/2-x,1/2-y,-z
1/2+x,1/2-y,z
loop_
_atom_site_type_symbol
_atom_site_label
_atom_site_fract_x
_atom_site_fract_y
_atom_site_fract_z
Si Si1 0.522262 0.792648 0.650952
Si Si2 0.342351 0.706362 0.338458
Si Si3 0.836644 0.000000 0.263182
Si Si4 0.591769 0.797985 0.043648
Si Si5 0.138627 0.209436 0.921533
Si Si6 0.945688 0.500000 0.243165
Si Si7 0.571988 0.000000 0.958673
Si Si8 0.181555 0.000000 0.937588
O O1 0.409823 0.750125 0.488004
O O2 0.628782 0.772997 0.708560
O O3 0.536431 0.735498 0.750463
O O4 0.512515 0.907373 0.659184
O O5 0.378384 0.595125 0.357708
O O6 0.212123 0.707251 0.219600
O O7 0.705530 0.000000 0.102405
O O8 0.879983 0.000000 0.218018
O O9 0.537947 0.904513 0.971364
O O10 0.500000 0.742977 0.000000
O O11 0.611708 0.756008 0.977153
O O12 0.142138 0.095051 0.941916
O O13 0.250000 0.250000 0.000000
O O14 0.989050 0.500000 0.197162
O O15 0.814369 0.500000 0.084791
#
# Coordination Sequence:
#
# PCOD8105386 Si02
#       8
#     8   8   4   8   8   4   4   4
#     4  11  21  33  56  83 119 145 185 229 287 333
#     4  10  21  34  51  86 118 147 182 235 287 334
#     4   9  16  31  54  82 114 142 178 240 284 328
#     4  11  21  37  59  86 114 147 191 238 283 334
#     4  12  19  36  57  86 113 148 188 230 281 336
#     4  11  18  32  55  84 108 149 185 237 275 330
#     4   9  17  32  60  82 106 138 195 238 279 326
#     4  11  18  29  59  85 109 143 196 235 271 331
#
# _framework density 17.726322
#
# number of rings (size 3 to 8) (size 9 to 14) (size 15 to 20)
#    0.000    1.333    6.667    1.250    0.000    3.333 
#    0.000    2.083    0.000    0.000    0.000    0.000 
#    0.000    0.000    0.000    0.000    0.000    0.000 
#
# Total GULP energy -297392.676472 kJ/mol
# GULP energy per Si atom -12391.361520 kJ/mol
# Density = 1.768598 g / cm^3
# Si number density = 17.726322 Si / 1000 Ang^3
#
#
#
# Elastic Constant Matrix: (Units=GPa)
#
#
# Indices 1 2 3 4 5 6 
#
# 1 107.3671 30.3085 45.7426 0.0000 -0.0815 0.0000
# 2 30.3085 123.7627 55.0454 0.0000 -6.9777 0.0000
# 3 45.7426 55.0454 108.0828 0.0000 -11.3983 0.0000
# 4 0.0000 0.0000 0.0000 27.2273 0.0000 -6.7078
# 5 -0.0815 -6.9777 -11.3983 0.0000 20.4457 0.0000
# 6 0.0000 0.0000 0.0000 -6.7078 0.0000 11.3028
#
#
#
# Elastic Compliance Matrix: (Units=1/GPa)
#
#
# Indices 1 2 3 4 5 6 
#
# 1 0.011590 -0.000885 -0.004761 0.000000 -0.002910 0.000000
# 2 -0.000885 0.010522 -0.004894 0.000000 0.000859 0.000000
# 3 -0.004761 -0.004894 0.014430 0.000000 0.006355 0.000000
# 4 0.000000 0.000000 0.000000 0.043017 0.000000 0.025529
# 5 -0.002910 0.000859 0.006355 0.000000 0.052735 0.000000
# 6 0.000000 0.000000 0.000000 0.025529 0.000000 0.103624
#
#
# Mechanical properties :
#
#
# Convention : Reuss Voigt Hill
#
# Bulk Modulus (GPa) = 64.67453 66.82285 65.74869
# Shear Modulus (GPa) = 19.07302 25.66958 22.37130
#
# Velocity S-wave (km/s) = 3.28376 3.80953 3.55637
# Velocity P-wave (km/s) = 7.13734 7.55836 7.35087
#
# Compressibility (1/GPa) = 0.01546204
#
# Stress axis : x y z
#
# Youngs Moduli (GPa) = 86.28199 95.04333 69.30131
#
# Poissons Ratio (x) = 0.08408 0.32997
# Poissons Ratio (y) = 0.07633 0.33913
# Poissons Ratio (z) = 0.41083 0.46509
#
# Static dielectric constant tensor:
#      x y z
#    x 3.007290 0.000000 -0.045200 
#    y 0.000000 3.772510 0.000000 
#    z -0.045200 0.000000 3.650280 
# 
# 
# High freq. dielectric constant tensor:
#      x y z
#    x 1.648230 0.000000 -0.019340 
#    y 0.000000 1.691110 0.000000 
#    z -0.019340 0.000000 1.684620 
# 
# From -- ./inp_files/233515.got.cif
#   From: 2010.06.25/outbox.cif.g09.slc.cpg/sg12_117_cif.got.tgz:233515.got - 2010.06.28 00:19:55.
