data_PCOD8105253
_publ_section_title
;
Structure prediction by ZEFSAII (Michael W. Deem and Ramdas Pophale) SiO2 
 PCOD8105253
Probable space group: C 2/M
;
_chemical_formula_sum "Si O2"
_cell_formula_units_Z 48
_cell_length_a 19.994862
_cell_length_b 19.006412
_cell_length_c 23.056644
_cell_angle_alpha 90.000000
_cell_angle_beta 16.801754
_cell_angle_gamma 90.000000
_cell_volume 2532.819845
_symmetry_space_group_name_H-M "C 2/M"
_symmetry_group_IT_number 12
_symmetry_cell_setting 'monoclinic'
loop_
_space_group_symop_operation_xyz
x,y,z
-x,y,-z
-x,-y,-z
x,-y,z
1/2+x,1/2+y,z
1/2-x,1/2+y,-z
1/2-x,1/2-y,-z
1/2+x,1/2-y,z
loop_
_atom_site_type_symbol
_atom_site_label
_atom_site_fract_x
_atom_site_fract_y
_atom_site_fract_z
Si Si1 0.984026 0.417441 0.759171
Si Si2 0.730723 0.421357 0.365864
Si Si3 0.234882 0.619715 0.786914
Si Si4 0.891954 0.803358 0.921413
Si Si5 0.818615 0.312642 0.487132
Si Si6 0.684826 0.268541 0.889215
O O1 0.950277 0.500000 0.774653
O O2 0.084181 0.402113 0.739528
O O3 0.164745 0.385057 0.562910
O O4 0.740637 0.377031 0.958394
O O5 0.770912 0.500000 0.308744
O O6 0.762568 0.368842 0.285140
O O7 0.472361 0.418470 0.607815
O O8 0.224613 0.691824 0.830402
O O9 0.000000 0.577174 0.000000
O O10 0.134066 0.821229 0.690953
O O11 0.750000 0.750000 0.000000
O O12 0.930742 0.766120 0.951119
O O13 0.750000 0.250000 0.500000
O O14 0.063559 0.303344 0.315896
O O15 0.500000 0.308422 0.000000
#
# Coordination Sequence:
#
# PCOD8105253 Si02
#       6
#     8   8   8   8   8   8
#     4  10  23  40  61  91 125 160 207 259 311 373
#     4  10  22  36  51  78 119 166 204 241 289 358
#     4  10  21  32  52  75 115 159 203 243 292 345
#     4  11  23  38  64  90 121 161 210 258 311 363
#     4  11  21  39  64  88 122 165 211 259 311 366
#     4  10  23  36  57  93 120 153 202 264 311 361
#
# _framework density 18.95121
#
# number of rings (size 3 to 8) (size 9 to 14) (size 15 to 20)
#    0.000    1.667    3.333    2.000    4.667    5.333 
#    0.000    3.333    0.000    8.000    0.000    9.333 
#    0.000    0.000    0.000    0.000    0.000    0.000 
#
# Total GULP energy -297409.593625 kJ/mol
# GULP energy per Si atom -12392.066401 kJ/mol
# Density = 1.890808 g / cm^3
# Si number density = 18.951210 Si / 1000 Ang^3
#
#
#
# Elastic Constant Matrix: (Units=GPa)
#
#
# Indices 1 2 3 4 5 6 
#
# 1 133.9846 58.9605 53.2924 0.0176 5.8147 0.0072
# 2 58.9605 98.9764 36.6609 0.1494 11.5806 -0.1022
# 3 53.2924 36.6609 141.2067 -0.0427 19.0342 0.0287
# 4 0.0176 0.1494 -0.0427 25.3935 0.0839 1.6034
# 5 5.8147 11.5806 19.0342 0.0839 41.4085 -0.0206
# 6 0.0072 -0.1022 0.0287 1.6034 -0.0206 18.7705
#
#
#
# Elastic Compliance Matrix: (Units=1/GPa)
#
#
# Indices 1 2 3 4 5 6 
#
# 1 0.011046 -0.005673 -0.002879 0.000018 0.001359 -0.000031
# 2 -0.005673 0.014235 -0.001200 -0.000079 -0.002633 0.000085
# 3 -0.002879 -0.001200 0.008934 0.000037 -0.003367 -0.000026
# 4 0.000018 -0.000079 0.000037 0.039595 -0.000079 -0.003383
# 5 0.001359 -0.002633 -0.003367 -0.000079 0.026243 0.000026
# 6 -0.000031 0.000085 -0.000026 -0.003383 0.000026 0.053565
#
#
# Mechanical properties :
#
#
# Convention : Reuss Voigt Hill
#
# Bulk Modulus (GPa) = 67.97518 74.66613 71.32066
# Shear Modulus (GPa) = 28.08587 32.13143 30.10865
#
# Velocity S-wave (km/s) = 3.85386 4.12209 3.99023
# Velocity P-wave (km/s) = 7.46655 7.88290 7.67755
#
# Compressibility (1/GPa) = 0.01471125
#
# Stress axis : x y z
#
# Youngs Moduli (GPa) = 90.52948 70.24699 111.93340
#
# Poissons Ratio (x) = 0.39850 0.32228
# Poissons Ratio (y) = 0.51355 0.13433
# Poissons Ratio (z) = 0.26066 0.08430
#
# Static dielectric constant tensor:
#      x y z
#    x 3.806980 -0.001030 -0.214490 
#    y -0.001030 3.273520 0.002650 
#    z -0.214490 0.002650 4.212960 
# 
# 
# High freq. dielectric constant tensor:
#      x y z
#    x 1.739760 -0.000030 0.000680 
#    y -0.000030 1.708110 0.000100 
#    z 0.000680 0.000100 1.751800 
# 
# From -- ./inp_files/317888.got.cif
#   From: 2010.06.25/outbox.cif.g09.slc.cpg/sg12_159_cif.got.tgz:317888.got - 2010.06.28 00:19:55.
