data_PCOD8105011
_publ_section_title
;
Structure prediction by ZEFSAII (Michael W. Deem and Ramdas Pophale) SiO2 
 PCOD8105011
Probable space group: C 2/M
;
_chemical_formula_sum "Si O2"
_cell_formula_units_Z 56
_cell_length_a 25.329621
_cell_length_b 8.688407
_cell_length_c 15.285392
_cell_angle_alpha 90.000000
_cell_angle_beta 52.261714
_cell_angle_gamma 90.000000
_cell_volume 2660.236059
_symmetry_space_group_name_H-M "C 2/M"
_symmetry_group_IT_number 12
_symmetry_cell_setting 'monoclinic'
loop_
_space_group_symop_operation_xyz
x,y,z
-x,y,-z
-x,-y,-z
x,-y,z
1/2+x,1/2+y,z
1/2-x,1/2+y,-z
1/2-x,1/2-y,-z
1/2+x,1/2-y,z
loop_
_atom_site_type_symbol
_atom_site_label
_atom_site_fract_x
_atom_site_fract_y
_atom_site_fract_z
Si Si1 0.895882 0.178612 0.999881
Si Si2 0.969954 0.320292 0.762030
Si Si3 0.111248 0.819430 0.629742
Si Si4 0.190952 0.675288 0.398105
Si Si5 0.139777 0.324841 0.268173
Si Si6 0.341889 0.682452 0.231658
Si Si7 0.235948 0.678102 0.922751
O O1 0.896315 0.234568 0.101649
O O2 0.819071 0.207979 0.058153
O O3 0.914825 0.000000 0.970681
O O4 0.941907 0.270710 0.885473
O O5 0.980222 0.500000 0.754841
O O6 0.923623 0.273970 0.725827
O O7 0.040396 0.244482 0.671215
O O8 0.167450 0.777737 0.502638
O O9 0.132246 0.749478 0.702580
O O10 0.105307 0.000000 0.643256
O O11 0.197964 0.500000 0.423999
O O12 0.133646 0.682015 0.379981
O O13 0.264751 0.736431 0.292966
O O14 0.160270 0.500000 0.219650
O O15 0.196009 0.196321 0.198558
O O16 0.342279 0.500000 0.231321
O O17 0.212435 0.500000 0.949232
O O18 0.250000 0.750000 0.000000
#
# Coordination Sequence:
#
# PCOD8105011 Si02
#       7
#     8   8   8   8   8   8   8
#     4  11  21  38  63  91 122 157 199 251 303 361
#     4  11  24  41  60  88 123 164 204 244 298 367
#     4  11  24  42  61  86 120 163 207 252 300 359
#     4  10  20  40  66  91 117 153 200 256 310 359
#     4  10  21  38  62  88 120 157 200 247 303 362
#     4   9  20  39  65  91 119 156 201 248 310 367
#     4  12  22  33  55  89 126 160 197 243 301 360
#
# _framework density 21.050764999999998
#
# number of rings (size 3 to 8) (size 9 to 14) (size 15 to 20)
#    0.000    1.429    2.857    3.000    0.000    2.286 
#    0.000    9.286    0.000    0.000    0.000    0.000 
#    0.000    0.000    0.000    0.000    0.000    0.000 
#
# Total GULP energy -346897.094672 kJ/mol
# GULP energy per Si atom -12389.181953 kJ/mol
# Density = 2.100285 g / cm^3
# Si number density = 21.050765 Si / 1000 Ang^3
#
#
#
# Elastic Constant Matrix: (Units=GPa)
#
#
# Indices 1 2 3 4 5 6 
#
# 1 69.5197 6.7669 18.7510 0.0000 6.1848 0.0000
# 2 6.7669 41.2277 14.5214 -0.0002 2.0782 0.0002
# 3 18.7510 14.5214 71.2101 0.0000 11.8573 0.0000
# 4 0.0000 -0.0002 0.0000 36.4969 0.0000 -2.3810
# 5 6.1848 2.0782 11.8573 0.0000 35.7250 0.0000
# 6 0.0000 0.0002 0.0000 -2.3810 0.0000 25.8571
#
#
#
# Elastic Compliance Matrix: (Units=1/GPa)
#
#
# Indices 1 2 3 4 5 6 
#
# 1 0.015607 -0.001213 -0.003624 0.000000 -0.001428 0.000000
# 2 -0.001213 0.026229 -0.005092 0.000000 0.000374 0.000000
# 3 -0.003624 -0.005092 0.016811 0.000000 -0.004656 0.000000
# 4 0.000000 0.000000 0.000000 0.027565 0.000000 0.002538
# 5 -0.001428 0.000374 -0.004656 0.000000 0.029763 0.000000
# 6 0.000000 0.000000 0.000000 0.002538 0.000000 0.038908
#
#
# Mechanical properties :
#
#
# Convention : Reuss Voigt Hill
#
# Bulk Modulus (GPa) = 25.78050 29.11513 27.44782
# Shear Modulus (GPa) = 26.64241 29.07699 27.85970
#
# Velocity S-wave (km/s) = 3.56142 3.72059 3.64188
# Velocity P-wave (km/s) = 5.40232 5.68489 5.54541
#
# Compressibility (1/GPa) = 0.03878900
#
# Stress axis : x y z
#
# Youngs Moduli (GPa) = 64.07313 38.12553 59.48520
#
# Poissons Ratio (x) = 0.04625 0.21560
# Poissons Ratio (y) = 0.07772 0.30287
# Poissons Ratio (z) = 0.23223 0.19412
#
# Static dielectric constant tensor:
#      x y z
#    x 4.070690 0.000000 0.303250 
#    y 0.000000 4.908940 0.000000 
#    z 0.303250 0.000000 3.917060 
# 
# 
# High freq. dielectric constant tensor:
#      x y z
#    x 1.826310 0.000000 0.016590 
#    y 0.000000 1.805460 0.000000 
#    z 0.016590 0.000000 1.828700 
# 
# From -- ./inp_files/238396.got.cif
#   From: 2010.06.25/outbox.cif.g09.slc.cpg/sg12_120_cif.got.tgz:238396.got - 2010.06.28 00:19:55.
