data_PCOD8105049
_publ_section_title
;
Structure prediction by ZEFSAII (Michael W. Deem and Ramdas Pophale) SiO2 
 PCOD8105049
Probable space group: C 2/M
;
_chemical_formula_sum "Si O2"
_cell_formula_units_Z 52
_cell_length_a 9.159419
_cell_length_b 16.787944
_cell_length_c 17.481880
_cell_angle_alpha 90.000000
_cell_angle_beta 90.973570
_cell_angle_gamma 90.000000
_cell_volume 2687.762396
_symmetry_space_group_name_H-M "C 2/M"
_symmetry_group_IT_number 12
_symmetry_cell_setting 'monoclinic'
loop_
_space_group_symop_operation_xyz
x,y,z
-x,y,-z
-x,-y,-z
x,-y,z
1/2+x,1/2+y,z
1/2-x,1/2+y,-z
1/2-x,1/2-y,-z
1/2+x,1/2-y,z
loop_
_atom_site_type_symbol
_atom_site_label
_atom_site_fract_x
_atom_site_fract_y
_atom_site_fract_z
Si Si1 0.843620 0.706454 0.743610
Si Si2 0.751871 0.692553 0.398846
Si Si3 0.333278 0.588342 0.157693
Si Si4 0.500000 0.270835 0.500000
Si Si5 0.391889 0.911433 0.284589
Si Si6 0.842979 0.868581 0.833202
Si Si7 0.669473 0.668105 0.000687
O O1 0.777735 0.737840 0.663353
O O2 0.728439 0.646570 0.778889
O O3 0.871018 0.778513 0.802943
O O4 0.991355 0.658096 0.728629
O O5 0.601670 0.676127 0.444664
O O6 0.796843 0.610427 0.358600
O O7 0.887404 0.715614 0.453265
O O8 0.268827 0.500000 0.169663
O O9 0.506200 0.584376 0.170908
O O10 0.287699 0.614935 0.071864
O O11 0.281365 0.914599 0.213204
O O12 0.460625 0.000000 0.295610
O O13 0.786689 0.873820 0.919822
O O14 0.500000 0.688042 0.000000
O O15 0.750000 0.750000 0.000000
#
# Coordination Sequence:
#
# PCOD8105049 Si02
#       7
#     8   8   8   4   8   8   8
#     4  11  21  38  61  88 116 159 197 234 287 351
#     4  10  21  39  66  91 115 155 193 236 277 354
#     4  11  23  37  57  87 119 152 199 252 297 338
#     4  10  20  40  68  92 114 146 202 234 276 342
#     4  11  23  38  58  90 125 154 189 240 295 344
#     4  10  21  37  61  81 114 160 205 244 286 347
#     4  10  21  36  58  81 113 156 203 246 292 341
#
# _framework density 19.346948000000001
#
# number of rings (size 3 to 8) (size 9 to 14) (size 15 to 20)
#    0.000    1.538    3.077    2.769    4.308    3.385 
#    0.000    0.769    0.000    2.308    0.000    0.000 
#    0.000    0.000    0.000    0.000    0.000    0.000 
#
# Total GULP energy -322332.695707 kJ/mol
# GULP energy per Si atom -12397.411373 kJ/mol
# Density = 1.930291 g / cm^3
# Si number density = 19.346948 Si / 1000 Ang^3
#
#
#
# Elastic Constant Matrix: (Units=GPa)
#
#
# Indices 1 2 3 4 5 6 
#
# 1 65.1915 15.9533 40.5588 0.0000 -3.1349 0.0000
# 2 15.9533 107.6694 26.5571 0.0000 -2.9183 0.0000
# 3 40.5588 26.5571 117.5259 0.0000 -0.2669 0.0000
# 4 0.0000 0.0000 0.0000 5.6283 0.0000 5.5435
# 5 -3.1349 -2.9183 -0.2669 0.0000 35.8946 0.0000
# 6 0.0000 0.0000 0.0000 5.5435 0.0000 16.7896
#
#
#
# Elastic Compliance Matrix: (Units=1/GPa)
#
#
# Indices 1 2 3 4 5 6 
#
# 1 0.019796 -0.001277 -0.006540 0.000000 0.001576 0.000000
# 2 -0.001277 0.009940 -0.001804 0.000000 0.000683 0.000000
# 3 -0.006540 -0.001804 0.011172 0.000000 -0.000635 0.000000
# 4 0.000000 0.000000 0.000000 0.263302 0.000000 -0.086936
# 5 0.001576 0.000683 -0.000635 0.000000 0.028048 0.000000
# 6 0.000000 0.000000 0.000000 -0.086936 0.000000 0.088265
#
#
# Mechanical properties :
#
#
# Convention : Reuss Voigt Hill
#
# Bulk Modulus (GPa) = 46.15343 50.72503 48.43923
# Shear Modulus (GPa) = 11.18601 25.48366 18.33483
#
# Velocity S-wave (km/s) = 2.40714 3.63325 3.08179
# Velocity P-wave (km/s) = 5.62434 6.62391 6.14449
#
# Compressibility (1/GPa) = 0.02166686
#
# Stress axis : x y z
#
# Youngs Moduli (GPa) = 50.51409 100.59954 89.51128
#
# Poissons Ratio (x) = 0.12851 0.58537
# Poissons Ratio (y) = 0.06453 0.16146
# Poissons Ratio (z) = 0.33034 0.18146
#
# Static dielectric constant tensor:
#      x y z
#    x 3.601610 0.000000 -0.122370 
#    y 0.000000 3.314950 0.000000 
#    z -0.122370 0.000000 3.904880 
# 
# 
# High freq. dielectric constant tensor:
#      x y z
#    x 1.758270 0.000000 -0.002170 
#    y 0.000000 1.734810 0.000000 
#    z -0.002170 0.000000 1.766080 
# 
# From -- ./inp_files/256623.got.cif
#   From: 2010.06.25/outbox.cif.g09.slc.cpg/sg12_129_cif.got.tgz:256623.got - 2010.06.28 00:19:55.
