data_PCOD8105322
_publ_section_title
;
Structure prediction by ZEFSAII (Michael W. Deem and Ramdas Pophale) SiO2 
 PCOD8105322
Probable space group: C 2/M
;
_chemical_formula_sum "Si O2"
_cell_formula_units_Z 64
_cell_length_a 30.208388
_cell_length_b 9.006638
_cell_length_c 15.146545
_cell_angle_alpha 90.000000
_cell_angle_beta 100.175563
_cell_angle_gamma 90.000000
_cell_volume 4056.192408
_symmetry_space_group_name_H-M "C 2/M"
_symmetry_group_IT_number 12
_symmetry_cell_setting 'monoclinic'
loop_
_space_group_symop_operation_xyz
x,y,z
-x,y,-z
-x,-y,-z
x,-y,z
1/2+x,1/2+y,z
1/2-x,1/2+y,-z
1/2-x,1/2-y,-z
1/2+x,1/2-y,z
loop_
_atom_site_type_symbol
_atom_site_label
_atom_site_fract_x
_atom_site_fract_y
_atom_site_fract_z
Si Si1 0.876068 0.676197 0.746746
Si Si2 0.534314 0.175601 0.885127
Si Si3 0.806272 0.172194 0.447423
Si Si4 0.465583 0.673069 0.293684
Si Si5 0.057280 0.675967 0.382721
Si Si6 0.709335 0.825463 0.376396
Si Si7 0.904220 0.829257 0.434879
Si Si8 0.562778 0.175633 0.081397
O O1 0.879055 0.500000 0.751967
O O2 0.906560 0.732698 0.676219
O O3 0.824423 0.730383 0.713295
O O4 0.895317 0.740142 0.846588
O O5 0.551454 0.262338 0.805486
O O6 0.482771 0.221844 0.884612
O O7 0.539075 0.000000 0.871076
O O8 0.563578 0.231475 0.980179
O O9 0.761341 0.219938 0.376224
O O10 0.808478 0.260540 0.538680
O O11 0.850987 0.207511 0.407436
O O12 0.802748 0.000000 0.470911
O O13 0.476391 0.500000 0.288286
O O14 0.509412 0.755721 0.343368
O O15 0.425251 0.703786 0.347376
O O16 0.052411 0.500000 0.379937
O O17 0.072311 0.726723 0.484615
O O18 0.703937 0.000000 0.383687
O O19 0.911783 0.000000 0.465870
O O20 0.563922 0.000000 0.077432
#
# Coordination Sequence:
#
# PCOD8105322 Si02
#       8
#     8   8   8   8   8   8   8   8
#     4   9  15  25  44  69  91 111 137 175 222 264
#     4   9  16  29  48  66  84 112 148 181 219 264
#     4   9  17  29  44  62  86 116 148 180 216 259
#     4  11  22  33  44  60  89 124 154 184 217 255
#     4  11  20  31  47  66  89 117 153 188 214 251
#     4   9  16  27  45  67  88 110 142 183 221 258
#     4  10  21  34  44  59  89 126 155 181 218 258
#     4   8  14  26  46  67  88 111 137 178 228 268
#
# _framework density 15.778344000000001
#
# number of rings (size 3 to 8) (size 9 to 14) (size 15 to 20)
#    0.000    2.500    2.500    1.875    0.000    2.500 
#    0.000    1.250    0.000    0.000    0.000    0.875 
#    0.000    0.000    0.000    0.000    0.000    0.000 
#
# Total GULP energy -396574.935536 kJ/mol
# GULP energy per Si atom -12392.966736 kJ/mol
# Density = 1.574243 g / cm^3
# Si number density = 15.778344 Si / 1000 Ang^3
#
#
#
# Elastic Constant Matrix: (Units=GPa)
#
#
# Indices 1 2 3 4 5 6 
#
# 1 111.0038 29.6664 71.7244 0.0000 16.5401 0.0000
# 2 29.6664 37.8319 32.8149 0.0000 0.4173 0.0000
# 3 71.7244 32.8149 127.5086 0.0000 16.8531 0.0000
# 4 0.0000 0.0000 0.0000 17.8202 0.0000 -0.6702
# 5 16.5401 0.4173 16.8531 0.0000 26.4277 0.0000
# 6 0.0000 0.0000 0.0000 -0.6702 0.0000 14.6148
#
#
#
# Elastic Compliance Matrix: (Units=1/GPa)
#
#
# Indices 1 2 3 4 5 6 
#
# 1 0.015800 -0.006787 -0.006386 0.000000 -0.005709 0.000000
# 2 -0.006787 0.037696 -0.006952 0.000000 0.008086 0.000000
# 3 -0.006386 -0.006952 0.013848 0.000000 -0.004725 0.000000
# 4 0.000000 0.000000 0.000000 0.056213 0.000000 0.002578
# 5 -0.005709 0.008086 -0.004725 0.000000 0.044297 0.000000
# 6 0.000000 0.000000 0.000000 0.002578 0.000000 0.068542
#
#
# Mechanical properties :
#
#
# Convention : Reuss Voigt Hill
#
# Bulk Modulus (GPa) = 36.90974 60.52840 48.71907
# Shear Modulus (GPa) = 17.50219 21.24844 19.37532
#
# Velocity S-wave (km/s) = 3.33416 3.67370 3.50804
# Velocity P-wave (km/s) = 6.18592 7.51264 6.88133
#
# Compressibility (1/GPa) = 0.02709312
#
# Stress axis : x y z
#
# Youngs Moduli (GPa) = 63.29260 26.52796 72.21024
#
# Poissons Ratio (x) = 0.18005 0.46114
# Poissons Ratio (y) = 0.42959 0.50201
# Poissons Ratio (z) = 0.40419 0.18442
#
# Static dielectric constant tensor:
#      x y z
#    x 3.258610 0.000000 0.307580 
#    y 0.000000 2.849150 0.000000 
#    z 0.307580 0.000000 3.251730 
# 
# 
# High freq. dielectric constant tensor:
#      x y z
#    x 1.595550 0.000000 0.017310 
#    y 0.000000 1.588500 0.000000 
#    z 0.017310 0.000000 1.593330 
# 
# From -- ./inp_files/248445.got.cif
#   From: 2010.06.25/outbox.cif.g09.slc.cpg/sg12_125_cif.got.tgz:248445.got - 2010.06.28 00:19:55.
