data_PCOD8105400
_publ_section_title
;
Structure prediction by ZEFSAII (Michael W. Deem and Ramdas Pophale) SiO2 
 PCOD8105400
Probable space group: C 2/M
;
_chemical_formula_sum "Si O2"
_cell_formula_units_Z 44
_cell_length_a 7.681973
_cell_length_b 19.746001
_cell_length_c 15.131626
_cell_angle_alpha 90.000000
_cell_angle_beta 119.020790
_cell_angle_gamma 90.000000
_cell_volume 2007.101798
_symmetry_space_group_name_H-M "C 2/M"
_symmetry_group_IT_number 12
_symmetry_cell_setting 'monoclinic'
loop_
_space_group_symop_operation_xyz
x,y,z
-x,y,-z
-x,-y,-z
x,-y,z
1/2+x,1/2+y,z
1/2-x,1/2+y,-z
1/2-x,1/2-y,-z
1/2+x,1/2-y,z
loop_
_atom_site_type_symbol
_atom_site_label
_atom_site_fract_x
_atom_site_fract_y
_atom_site_fract_z
Si Si1 0.179746 0.424266 0.433283
Si Si2 0.765991 0.812380 0.213505
Si Si3 0.500000 0.857189 0.000000
Si Si4 0.726611 0.422424 0.079932
Si Si5 0.993632 0.924160 0.352716
Si Si6 0.922668 0.335018 0.264250
O O1 0.089700 0.500000 0.416862
O O2 0.334866 0.420968 0.391800
O O3 0.290337 0.406506 0.552570
O O4 0.999602 0.370933 0.373240
O O5 0.664158 0.810554 0.091179
O O6 0.845623 0.739932 0.263385
O O7 0.602942 0.834245 0.241814
O O8 0.942149 0.868969 0.263641
O O9 0.378473 0.902780 0.038994
O O10 0.769860 0.500000 0.113181
O O11 0.753914 0.379940 0.176357
O O12 0.500000 0.409098 0.000000
O O13 0.993369 0.000000 0.311084
#
# Coordination Sequence:
#
# PCOD8105400 Si02
#       6
#     8   8   4   8   8   8
#     4   8  14  29  54  78 104 138 176 230 278 321
#     4  10  22  34  53  80 107 149 180 225 276 327
#     4  10  23  38  58  80 115 150 188 232 277 324
#     4  10  22  38  59  85 111 146 190 235 278 327
#     4   8  15  30  52  79 105 134 182 228 274 329
#     4  10  21  34  53  79 111 142 184 224 272 338
#
# _framework density 21.922156999999999
#
# number of rings (size 3 to 8) (size 9 to 14) (size 15 to 20)
#    0.000    2.727    0.000    1.909    3.818    7.273 
#    0.000    0.000    0.000    0.000    0.000    2.545 
#    0.000    0.000    0.000    0.000    0.000    0.000 
#
# Total GULP energy -272662.122213 kJ/mol
# GULP energy per Si atom -12393.732828 kJ/mol
# Density = 2.187226 g / cm^3
# Si number density = 21.922157 Si / 1000 Ang^3
#
#
#
# Elastic Constant Matrix: (Units=GPa)
#
#
# Indices 1 2 3 4 5 6 
#
# 1 25.2999 13.8457 13.0216 0.0000 3.3436 0.0000
# 2 13.8457 168.1331 99.4051 0.0000 32.3582 0.0000
# 3 13.0216 99.4051 158.6264 0.0000 29.4169 0.0000
# 4 0.0000 0.0000 0.0000 44.5370 0.0000 16.1024
# 5 3.3436 32.3582 29.4169 0.0000 18.0249 0.0000
# 6 0.0000 0.0000 0.0000 16.1024 0.0000 32.7440
#
#
#
# Elastic Compliance Matrix: (Units=1/GPa)
#
#
# Indices 1 2 3 4 5 6 
#
# 1 0.041802 -0.002153 -0.001952 0.000000 -0.000704 0.000000
# 2 -0.002153 0.011171 -0.004558 0.000000 -0.012215 0.000000
# 3 -0.001952 -0.004558 0.011094 0.000000 -0.009560 0.000000
# 4 0.000000 0.000000 0.000000 0.027309 0.000000 -0.013430
# 5 -0.000704 -0.012215 -0.009560 0.000000 0.093140 0.000000
# 6 0.000000 0.000000 0.000000 -0.013430 0.000000 0.037144
#
#
# Mechanical properties :
#
#
# Convention : Reuss Voigt Hill
#
# Bulk Modulus (GPa) = 21.39484 67.17823 44.28654
# Shear Modulus (GPa) = 19.64131 34.11366 26.87749
#
# Velocity S-wave (km/s) = 2.99650 3.94906 3.50529
# Velocity P-wave (km/s) = 4.66398 7.17662 6.05213
#
# Compressibility (1/GPa) = 0.04674024
#
# Stress axis : x y z
#
# Youngs Moduli (GPa) = 23.92248 89.51842 90.14074
#
# Poissons Ratio (x) = 0.19272 0.17594
# Poissons Ratio (y) = 0.05150 0.41089
# Poissons Ratio (z) = 0.04669 0.40806
#
# Static dielectric constant tensor:
#      x y z
#    x 3.593730 0.000000 0.345760 
#    y 0.000000 2.800870 0.000000 
#    z 0.345760 0.000000 4.651450 
# 
# 
# High freq. dielectric constant tensor:
#      x y z
#    x 1.841160 0.000000 0.019930 
#    y 0.000000 1.858930 0.000000 
#    z 0.019930 0.000000 1.869760 
# 
# From -- ./inp_files/256858.got.cif
#   From: 2010.06.25/outbox.cif.g09.slc.cpg/sg12_129_cif.got.tgz:256858.got - 2010.06.28 00:19:55.
