data_PCOD8105084
_publ_section_title
;
Structure prediction by ZEFSAII (Michael W. Deem and Ramdas Pophale) SiO2 
 PCOD8105084
Probable space group: C 2/M
;
_chemical_formula_sum "Si O2"
_cell_formula_units_Z 40
_cell_length_a 8.594342
_cell_length_b 16.321711
_cell_length_c 27.515726
_cell_angle_alpha 90.000000
_cell_angle_beta 29.640469
_cell_angle_gamma 90.000000
_cell_volume 1908.862577
_symmetry_space_group_name_H-M "C 2/M"
_symmetry_group_IT_number 12
_symmetry_cell_setting 'monoclinic'
loop_
_space_group_symop_operation_xyz
x,y,z
-x,y,-z
-x,-y,-z
x,-y,z
1/2+x,1/2+y,z
1/2-x,1/2+y,-z
1/2-x,1/2-y,-z
1/2+x,1/2-y,z
loop_
_atom_site_type_symbol
_atom_site_label
_atom_site_fract_x
_atom_site_fract_y
_atom_site_fract_z
Si Si1 0.298425 0.862368 0.325778
Si Si2 0.737696 0.137486 0.830788
Si Si3 0.280368 0.262008 0.247566
Si Si4 0.253367 0.500000 0.195739
Si Si5 0.624758 0.500000 0.519467
Si Si6 0.735603 0.500000 0.982218
Si Si7 0.189740 0.000000 0.701566
O O1 0.190611 0.793078 0.317963
O O2 0.470205 0.818138 0.324674
O O3 0.561524 0.920538 0.230042
O O4 0.997950 0.916856 0.421989
O O5 0.630117 0.206484 0.822543
O O6 0.907482 0.182497 0.830017
O O7 0.001106 0.079581 0.734869
O O8 0.442410 0.082498 0.926543
O O9 0.574914 0.500000 0.078717
O O10 0.281376 0.500000 0.247123
O O11 0.500000 0.500000 0.500000
O O12 0.998210 0.500000 0.415288
O O13 0.500000 0.500000 0.000000
#
# Coordination Sequence:
#
# PCOD8105084 Si02
#       7
#     8   8   8   4   4   4   4
#     4  10  21  38  65  88 124 163 205 252 299 365
#     4  10  22  41  65  87 128 159 204 250 301 366
#     4  10  20  41  61  92 128 164 192 256 314 349
#     4  11  20  40  65  84 119 161 209 239 306 354
#     4  11  19  38  64  90 118 163 215 246 296 363
#     4  11  24  41  65  96 118 158 208 251 296 365
#     4  11  21  41  64  87 116 168 204 254 295 360
#
# _framework density 20.954885000000001
#
# number of rings (size 3 to 8) (size 9 to 14) (size 15 to 20)
#    0.000    1.600    4.000    1.200    0.000    4.000 
#    0.000   24.000    0.000    0.000    0.000    0.000 
#    0.000    0.000    0.000    0.000    0.000    0.000 
#
# Total GULP energy -247947.059773 kJ/mol
# GULP energy per Si atom -12397.352989 kJ/mol
# Density = 2.090719 g / cm^3
# Si number density = 20.954885 Si / 1000 Ang^3
#
#
#
# Elastic Constant Matrix: (Units=GPa)
#
#
# Indices 1 2 3 4 5 6 
#
# 1 88.3759 51.8334 39.1283 -1.8665 -10.1963 0.8400
# 2 51.8334 153.0027 68.2165 -0.4804 -12.0107 0.2353
# 3 39.1283 68.2165 157.3898 -2.5350 -7.1102 0.9739
# 4 -1.8665 -0.4804 -2.5350 16.6352 1.7242 -0.6775
# 5 -10.1963 -12.0107 -7.1102 1.7242 21.5089 -0.7010
# 6 0.8400 0.2353 0.9739 -0.6775 -0.7010 24.7662
#
#
#
# Elastic Compliance Matrix: (Units=1/GPa)
#
#
# Indices 1 2 3 4 5 6 
#
# 1 0.014917 -0.003914 -0.001807 0.000838 0.004213 -0.000256
# 2 -0.003914 0.009391 -0.003001 -0.000873 0.002473 0.000208
# 3 -0.001807 -0.003001 0.008123 0.000933 0.000072 -0.000202
# 4 0.000838 -0.000873 0.000933 0.060863 -0.004612 0.001478
# 5 0.004213 0.002473 0.000072 -0.004612 0.050301 0.001128
# 6 -0.000256 0.000208 -0.000202 0.001478 0.001128 0.040465
#
#
# Mechanical properties :
#
#
# Convention : Reuss Voigt Hill
#
# Bulk Modulus (GPa) = 66.72142 79.68053 73.20097
# Shear Modulus (GPa) = 24.21329 28.55474 26.38401
#
# Velocity S-wave (km/s) = 3.40295 3.69545 3.55221
# Velocity P-wave (km/s) = 6.88111 7.50439 7.19950
#
# Compressibility (1/GPa) = 0.01498769
#
# Stress axis : x y z
#
# Youngs Moduli (GPa) = 67.03687 106.48649 123.10922
#
# Poissons Ratio (x) = 0.41683 0.22240
# Poissons Ratio (y) = 0.26241 0.36941
# Poissons Ratio (z) = 0.12110 0.31953
#
# Static dielectric constant tensor:
#      x y z
#    x 3.855530 -0.003570 -0.265660 
#    y -0.003570 4.565460 0.006150 
#    z -0.265660 0.006150 3.011140 
# 
# 
# High freq. dielectric constant tensor:
#      x y z
#    x 1.820130 0.000000 -0.015340 
#    y 0.000000 1.851590 0.000000 
#    z -0.015340 0.000000 1.790930 
# 
# From -- ./inp_files/300606.got.cif
#   From: 2010.06.25/outbox.cif.g09.slc.cpg/sg12_151_cif.got.tgz:300606.got - 2010.06.28 00:19:55.
