data_PCOD8105341
_publ_section_title
;
Structure prediction by ZEFSAII (Michael W. Deem and Ramdas Pophale) SiO2 
 PCOD8105341
Probable space group: C 2/M
;
_chemical_formula_sum "Si O2"
_cell_formula_units_Z 56
_cell_length_a 24.361809
_cell_length_b 9.100939
_cell_length_c 16.662247
_cell_angle_alpha 90.000000
_cell_angle_beta 123.080990
_cell_angle_gamma 90.000000
_cell_volume 3095.433108
_symmetry_space_group_name_H-M "C 2/M"
_symmetry_group_IT_number 12
_symmetry_cell_setting 'monoclinic'
loop_
_space_group_symop_operation_xyz
x,y,z
-x,y,-z
-x,-y,-z
x,-y,z
1/2+x,1/2+y,z
1/2-x,1/2+y,-z
1/2-x,1/2-y,-z
1/2+x,1/2-y,z
loop_
_atom_site_type_symbol
_atom_site_label
_atom_site_fract_x
_atom_site_fract_y
_atom_site_fract_z
Si Si1 0.899364 0.826684 0.414013
Si Si2 0.512362 0.169902 0.210027
Si Si3 0.732012 0.333710 0.065125
Si Si4 0.081269 0.166695 0.985902
Si Si5 0.382652 0.168459 0.831729
Si Si6 0.261891 0.327433 0.245896
Si Si7 0.506033 0.674158 0.374535
O O1 0.823635 0.775123 0.349157
O O2 0.939935 0.774574 0.367836
O O3 0.932288 0.769766 0.522642
O O4 0.905208 0.000000 0.420617
O O5 0.584695 0.190457 0.229218
O O6 0.510145 0.249013 0.292766
O O7 0.495104 0.000000 0.208432
O O8 0.460046 0.237627 0.108171
O O9 0.757616 0.500000 0.080423
O O10 0.654841 0.327299 0.014043
O O11 0.768509 0.255159 0.167287
O O12 0.750000 0.250000 0.000000
O O13 0.077740 0.233362 0.072619
O O14 0.054826 0.000000 0.967599
O O15 0.306113 0.214775 0.764025
O O16 0.388213 0.000000 0.865230
O O17 0.266158 0.500000 0.231728
O O18 0.507218 0.500000 0.361338
#
# Coordination Sequence:
#
# PCOD8105341 Si02
#       7
#     8   8   8   8   8   8   8
#     4   8  16  33  57  78  99 129 168 212 260 307
#     4  11  22  34  50  75 106 138 171 210 259 307
#     4  10  21  34  48  73 106 135 167 207 249 300
#     4  10  21  35  52  74 101 136 176 213 250 296
#     4   9  19  35  52  73 104 138 172 210 254 306
#     4   9  17  33  56  75  96 134 174 209 253 302
#     4   9  18  34  54  78 103 129 167 215 258 304
#
# _framework density 18.091168
#
# number of rings (size 3 to 8) (size 9 to 14) (size 15 to 20)
#    0.000    2.571    0.000    2.571    2.000    4.571 
#    0.000    2.857    0.000    0.000    0.000    0.000 
#    0.000    0.000    0.000    0.000    0.000    0.000 
#
# Total GULP energy -347140.025147 kJ/mol
# GULP energy per Si atom -12397.858041 kJ/mol
# Density = 1.804999 g / cm^3
# Si number density = 18.091168 Si / 1000 Ang^3
#
#
#
# Elastic Constant Matrix: (Units=GPa)
#
#
# Indices 1 2 3 4 5 6 
#
# 1 66.3750 34.3968 69.6592 0.0000 -4.6098 0.0000
# 2 34.3968 71.8648 41.8490 0.0000 -1.0737 0.0000
# 3 69.6592 41.8490 117.5727 0.0000 7.2018 0.0000
# 4 0.0000 0.0000 0.0000 26.7995 0.0000 -4.8380
# 5 -4.6098 -1.0737 7.2018 0.0000 31.5177 0.0000
# 6 0.0000 0.0000 0.0000 -4.8380 0.0000 23.6224
#
#
#
# Elastic Compliance Matrix: (Units=1/GPa)
#
#
# Indices 1 2 3 4 5 6 
#
# 1 0.047012 -0.007120 -0.026091 0.000000 0.012595 0.000000
# 2 -0.007120 0.018764 -0.002470 0.000000 0.000162 0.000000
# 3 -0.026091 -0.002470 0.025438 0.000000 -0.009713 0.000000
# 4 0.000000 0.000000 0.000000 0.038747 0.000000 0.007936
# 5 0.012595 0.000162 -0.009713 0.000000 0.035795 0.000000
# 6 0.000000 0.000000 0.000000 0.007936 0.000000 0.043958
#
#
# Mechanical properties :
#
#
# Convention : Reuss Voigt Hill
#
# Bulk Modulus (GPa) = 50.37383 60.84692 55.61037
# Shear Modulus (GPa) = 17.37961 23.71508 20.54735
#
# Velocity S-wave (km/s) = 3.10283 3.62452 3.37377
# Velocity P-wave (km/s) = 6.38291 7.15700 6.78101
#
# Compressibility (1/GPa) = 0.01985158
#
# Stress axis : x y z
#
# Youngs Moduli (GPa) = 21.27108 53.29398 39.31138
#
# Poissons Ratio (x) = 0.37945 1.02567
# Poissons Ratio (y) = 0.15145 0.09712
# Poissons Ratio (z) = 0.55498 0.13166
#
# Static dielectric constant tensor:
#      x y z
#    x 3.590230 0.000000 0.132190 
#    y 0.000000 3.354440 0.000000 
#    z 0.132190 0.000000 3.702770 
# 
# 
# High freq. dielectric constant tensor:
#      x y z
#    x 1.706740 0.000000 0.005290 
#    y 0.000000 1.691890 0.000000 
#    z 0.005290 0.000000 1.692170 
# 
# From -- ./inp_files/238990.got.cif
#   From: 2010.06.25/outbox.cif.g09.slc.cpg/sg12_120_cif.got.tgz:238990.got - 2010.06.28 00:19:55.
