data_PCOD8105030
_publ_section_title
;
Structure prediction by ZEFSAII (Michael W. Deem and Ramdas Pophale) SiO2 
 PCOD8105030
Probable space group: C 2/M
;
_chemical_formula_sum "Si O2"
_cell_formula_units_Z 32
_cell_length_a 9.776837
_cell_length_b 23.241747
_cell_length_c 14.623653
_cell_angle_alpha 90.000000
_cell_angle_beta 153.082815
_cell_angle_gamma 90.000000
_cell_volume 1504.303942
_symmetry_space_group_name_H-M "C 2/M"
_symmetry_group_IT_number 12
_symmetry_cell_setting 'monoclinic'
loop_
_space_group_symop_operation_xyz
x,y,z
-x,y,-z
-x,-y,-z
x,-y,z
1/2+x,1/2+y,z
1/2-x,1/2+y,-z
1/2-x,1/2-y,-z
1/2+x,1/2-y,z
loop_
_atom_site_type_symbol
_atom_site_label
_atom_site_fract_x
_atom_site_fract_y
_atom_site_fract_z
Si Si1 0.260120 0.375299 0.079781
Si Si2 0.661407 0.112259 0.823820
Si Si3 0.760489 0.500000 0.581487
Si Si4 0.174096 0.305212 0.513484
Si Si5 0.665869 0.500000 0.840930
O O1 0.521868 0.336703 0.276380
O O2 0.373007 0.440924 0.125661
O O3 0.149753 0.353340 0.914390
O O4 0.000000 0.374384 0.000000
O O5 0.535827 0.152890 0.670049
O O6 0.461276 0.055865 0.714327
O O7 0.000000 0.094663 0.000000
O O8 0.500000 0.500000 0.500000
O O9 0.605666 0.500000 0.391860
O O10 0.250000 0.250000 0.500000
O O11 0.000000 0.284946 0.500000
O O12 0.000000 0.500000 0.000000
#
# Coordination Sequence:
#
# PCOD8105030 Si02
#       5
#     8   8   4   8   4
#     4  11  24  45  73 106 146 186 235 293 358 430
#     4  12  26  47  71 108 151 189 233 295 367 423
#     4  12  23  40  76 111 150 191 237 283 351 442
#     4  12  29  50  73 103 139 188 249 300 359 424
#     4  10  20  40  67 108 145 178 226 285 348 422
#
# _framework density 21.272297999999999
#
# number of rings (size 3 to 8) (size 9 to 14) (size 15 to 20)
#    0.000    0.500    5.000    4.125    3.500    2.000 
#    0.000    2.500    0.000    0.000    0.000    0.000 
#    0.000    0.000    0.000    0.000    0.000    0.000 
#
# Total GULP energy -198402.204565 kJ/mol
# GULP energy per Si atom -12400.137785 kJ/mol
# Density = 2.122388 g / cm^3
# Si number density = 21.272298 Si / 1000 Ang^3
#
#
#
# Elastic Constant Matrix: (Units=GPa)
#
#
# Indices 1 2 3 4 5 6 
#
# 1 165.5252 51.8854 63.8716 0.0182 -1.5025 0.0038
# 2 51.8854 134.1535 59.4281 0.0084 10.8559 -0.0063
# 3 63.8716 59.4281 157.3384 0.0938 -5.7361 0.0362
# 4 0.0182 0.0084 0.0938 -115.0514 0.0405 -54.6466
# 5 -1.5025 10.8559 -5.7361 0.0405 45.9571 0.0120
# 6 0.0038 -0.0063 0.0362 -54.6466 0.0120 -34.9420
#
#
#
# Elastic Compliance Matrix: (Units=1/GPa)
#
#
# Indices 1 2 3 4 5 6 
#
# 1 0.007543 -0.001923 -0.002321 -0.000001 0.000411 0.000000
# 2 -0.001923 0.009749 -0.003002 -0.000001 -0.002740 -0.000005
# 3 -0.002321 -0.003002 0.008494 0.000009 0.001693 -0.000005
# 4 -0.000001 -0.000001 0.000009 -0.033797 0.000017 0.052856
# 5 0.000411 -0.002740 0.001693 0.000017 0.022632 -0.000017
# 6 0.000000 -0.000005 -0.000005 0.052856 -0.000017 -0.111282
#
#
# Mechanical properties :
#
#
# Convention : Reuss Voigt Hill
#
# Bulk Modulus (GPa) = 88.53295 89.70969 89.12132
# Shear Modulus (GPa) = -63.77138 -2.01845 -32.89491
#
# Velocity S-wave (km/s) = -5.48121 -0.97515 -3.93666
# Velocity P-wave (km/s) = 1.28491 6.40279 4.61772
#
# Compressibility (1/GPa) = 0.01129523
#
# Stress axis : x y z
#
# Youngs Moduli (GPa) = 132.56635 102.57208 117.73676
#
# Poissons Ratio (x) = 0.19720 0.27328
# Poissons Ratio (y) = 0.25486 0.35342
# Poissons Ratio (z) = 0.30770 0.30790
#
# Static dielectric constant tensor:
#      x y z
#    x 3.704650 0.000900 -0.245980 
#    y 0.000900 4.128690 0.000110 
#    z -0.245980 0.000110 4.185050 
# 
# 
# High freq. dielectric constant tensor:
#      x y z
#    x 1.846410 0.000000 -0.011360 
#    y 0.000000 1.828220 0.000000 
#    z -0.011360 0.000000 1.860070 
# 
# From -- ./inp_files/199038.got.cif
#   From: 2010.06.25/outbox.cif.g09.slc.cpg/sg12_100_cif.got.tgz:199038.got - 2010.06.28 00:19:55.
