data_PCOD8105861
_publ_section_title
;
Structure prediction by ZEFSAII (Michael W. Deem and Ramdas Pophale) SiO2 
 PCOD8105861
Probable space group: C 2/M
;
_chemical_formula_sum "Si O2"
_cell_formula_units_Z 64
_cell_length_a 14.464163
_cell_length_b 24.717457
_cell_length_c 12.762658
_cell_angle_alpha 90.000000
_cell_angle_beta 44.430453
_cell_angle_gamma 90.000000
_cell_volume 3194.206108
_symmetry_space_group_name_H-M "C 2/M"
_symmetry_group_IT_number 12
_symmetry_cell_setting 'monoclinic'
loop_
_space_group_symop_operation_xyz
x,y,z
-x,y,-z
-x,-y,-z
x,-y,z
1/2+x,1/2+y,z
1/2-x,1/2+y,-z
1/2-x,1/2-y,-z
1/2+x,1/2-y,z
loop_
_atom_site_type_symbol
_atom_site_label
_atom_site_fract_x
_atom_site_fract_y
_atom_site_fract_z
Si Si1 0.034749 0.348753 0.354252
Si Si2 0.066999 0.835582 0.701423
Si Si3 0.520959 0.438707 0.104735
Si Si4 0.616429 0.241884 0.821204
Si Si5 0.042932 0.438343 0.853429
Si Si6 0.820971 0.353004 0.369892
Si Si7 0.675641 0.059802 0.142255
Si Si8 0.593838 0.731467 0.322755
O O1 0.148710 0.393848 0.249787
O O2 0.078390 0.289707 0.279172
O O3 0.000000 0.341008 0.500000
O O4 0.901968 0.369216 0.407228
O O5 0.115772 0.798593 0.758873
O O6 0.174488 0.837172 0.521390
O O7 0.049083 0.895773 0.762162
O O8 0.938912 0.811989 0.743505
O O9 0.465830 0.500000 0.168728
O O10 0.500000 0.422911 0.000000
O O11 0.673388 0.436275 0.013572
O O12 0.598418 0.195497 0.749749
O O13 0.754160 0.228016 0.766439
O O14 0.500000 0.241711 0.000000
O O15 0.088784 0.500000 0.822746
O O16 0.172094 0.405253 0.711354
O O17 0.915519 0.429159 0.884012
O O18 0.000000 0.415531 0.000000
O O19 0.646161 0.000000 0.213508
O O20 0.500000 0.723055 0.500000
#
# Coordination Sequence:
#
# PCOD8105861 Si02
#       8
#     8   8   8   8   8   8   8   8
#     4  10  21  35  61  88 120 164 206 254 316 378
#     4  12  24  42  67  91 128 172 215 261 320 384
#     4  10  24  43  64  91 125 167 212 263 319 379
#     4  12  26  41  63  95 129 166 212 265 318 377
#     4   9  19  38  65  92 122 162 205 260 322 378
#     4  11  22  40  60  90 130 159 204 265 312 374
#     4   9  20  39  59  87 124 159 209 265 316 375
#     4  11  23  42  64  90 131 172 209 255 328 379
#
# _framework density 20.036276999999998
#
# number of rings (size 3 to 8) (size 9 to 14) (size 15 to 20)
#    0.000    1.500    2.500    2.625    5.250    4.250 
#    0.000    0.000    0.000    0.375    0.000    0.000 
#    0.000    0.000    0.000    0.000    0.000    0.000 
#
# Total GULP energy -396653.247001 kJ/mol
# GULP energy per Si atom -12395.413969 kJ/mol
# Density = 1.999067 g / cm^3
# Si number density = 20.036277 Si / 1000 Ang^3
#
#
#
# Elastic Constant Matrix: (Units=GPa)
#
#
# Indices 1 2 3 4 5 6 
#
# 1 83.0440 32.5771 40.4355 -0.0002 -2.0366 0.0000
# 2 32.5771 127.9632 60.0869 0.0000 12.8779 0.0000
# 3 40.4355 60.0869 117.4399 0.0000 -3.2980 0.0000
# 4 -0.0002 0.0000 0.0000 101.0338 0.0001 13.1325
# 5 -2.0366 12.8779 -3.2980 0.0001 24.4146 0.0000
# 6 0.0000 0.0000 0.0000 13.1325 0.0000 27.8469
#
#
#
# Elastic Compliance Matrix: (Units=1/GPa)
#
#
# Indices 1 2 3 4 5 6 
#
# 1 0.014849 -0.002085 -0.003995 0.000000 0.001799 0.000000
# 2 -0.002085 0.011593 -0.005410 0.000000 -0.007019 0.000000
# 3 -0.003995 -0.005410 0.012778 0.000000 0.004247 0.000000
# 4 0.000000 0.000000 0.000000 0.010544 0.000000 -0.004973
# 5 0.001799 -0.007019 0.004247 0.000000 0.045385 0.000000
# 6 0.000000 0.000000 0.000000 -0.004973 0.000000 0.038256
#
#
# Mechanical properties :
#
#
# Convention : Reuss Voigt Hill
#
# Bulk Modulus (GPa) = 61.58410 66.07178 63.82794
# Shear Modulus (GPa) = 30.90247 43.68225 37.29236
#
# Velocity S-wave (km/s) = 3.93151 4.67428 4.31889
# Velocity P-wave (km/s) = 7.17022 7.88540 7.53630
#
# Compressibility (1/GPa) = 0.01623796
#
# Stress axis : x y z
#
# Youngs Moduli (GPa) = 67.34294 86.26234 78.25966
#
# Poissons Ratio (x) = 0.17989 0.31267
# Poissons Ratio (y) = 0.14044 0.42341
# Poissons Ratio (z) = 0.26905 0.46671
#
# Static dielectric constant tensor:
#      x y z
#    x 3.606040 0.000000 0.064210 
#    y 0.000000 4.007940 0.000000 
#    z 0.064210 0.000000 3.532460 
# 
# 
# High freq. dielectric constant tensor:
#      x y z
#    x 1.787380 0.000000 0.006480 
#    y 0.000000 1.792840 0.000000 
#    z 0.006480 0.000000 1.764740 
# 
# From -- ./inp_files/149719.got.cif
#   From: 2010.06.25/outbox.cif.g09.slc.cpg/sg12_75_cif.got.tgz:149719.got - 2010.06.28 00:19:55.
