data_PCOD8105142
_publ_section_title
;
Structure prediction by ZEFSAII (Michael W. Deem and Ramdas Pophale) SiO2 
 PCOD8105142
Probable space group: C 2/M
;
_chemical_formula_sum "Si O2"
_cell_formula_units_Z 56
_cell_length_a 16.645714
_cell_length_b 18.606175
_cell_length_c 9.637681
_cell_angle_alpha 90.000000
_cell_angle_beta 114.438726
_cell_angle_gamma 90.000000
_cell_volume 2717.479944
_symmetry_space_group_name_H-M "C 2/M"
_symmetry_group_IT_number 12
_symmetry_cell_setting 'monoclinic'
loop_
_space_group_symop_operation_xyz
x,y,z
-x,y,-z
-x,-y,-z
x,-y,z
1/2+x,1/2+y,z
1/2-x,1/2+y,-z
1/2-x,1/2-y,-z
1/2+x,1/2-y,z
loop_
_atom_site_type_symbol
_atom_site_label
_atom_site_fract_x
_atom_site_fract_y
_atom_site_fract_z
Si Si1 0.634352 0.671404 0.954277
Si Si2 0.603461 0.188442 0.075976
Si Si3 0.308727 0.917051 0.048802
Si Si4 0.311777 0.080057 0.361687
Si Si5 0.156524 0.710149 0.421657
Si Si6 0.396167 0.419092 0.815095
Si Si7 0.483439 0.331920 0.642318
O O1 0.719530 0.628133 0.966019
O O2 0.576604 0.688339 0.777401
O O3 0.658334 0.747912 0.040043
O O4 0.578237 0.625974 0.028725
O O5 0.619448 0.113599 0.007453
O O6 0.641820 0.181949 0.256611
O O7 0.500000 0.207571 0.000000
O O8 0.288298 0.000000 0.999088
O O9 0.348383 0.909380 0.231760
O O10 0.352415 0.140301 0.488583
O O11 0.207460 0.089127 0.280809
O O12 0.336855 0.000000 0.434245
O O13 0.250000 0.750000 0.500000
O O14 0.078612 0.762669 0.411613
O O15 0.425460 0.500000 0.864630
O O16 0.439777 0.393201 0.704349
O O17 0.500000 0.362368 0.500000
#
# Coordination Sequence:
#
# PCOD8105142 Si02
#       7
#     8   8   8   8   8   8   8
#     4  11  21  43  65  94 132 175 223 272 323 394
#     4  12  24  42  68  99 133 170 224 284 333 390
#     4  10  24  43  69 100 131 175 226 273 334 402
#     4   9  20  40  66  94 127 173 225 270 320 395
#     4  12  23  41  67  94 131 179 223 271 336 399
#     4  10  20  41  67  92 130 177 219 259 324 399
#     4  12  26  38  60  99 137 166 217 277 332 388
#
# _framework density 20.607329
#
# number of rings (size 3 to 8) (size 9 to 14) (size 15 to 20)
#    0.000    1.143    4.286    3.000    4.000    2.857 
#    0.000    1.429    0.000    2.143    0.000    0.000 
#    0.000    0.000    0.000    0.000    0.000    0.000 
#
# Total GULP energy -347268.070024 kJ/mol
# GULP energy per Si atom -12402.431072 kJ/mol
# Density = 2.056043 g / cm^3
# Si number density = 20.607329 Si / 1000 Ang^3
#
#
#
# Elastic Constant Matrix: (Units=GPa)
#
#
# Indices 1 2 3 4 5 6 
#
# 1 51.8852 39.0941 33.7621 0.0000 -9.7135 0.0000
# 2 39.0941 127.3974 55.3251 0.0000 6.4335 0.0000
# 3 33.7621 55.3251 145.0694 0.0000 -6.3476 0.0000
# 4 0.0000 0.0000 0.0000 37.2427 0.0000 -9.1690
# 5 -9.7135 6.4335 -6.3476 0.0000 32.3474 0.0000
# 6 0.0000 0.0000 0.0000 -9.1690 0.0000 25.4557
#
#
#
# Elastic Compliance Matrix: (Units=1/GPa)
#
#
# Indices 1 2 3 4 5 6 
#
# 1 0.029329 -0.008047 -0.003330 0.000000 0.009754 0.000000
# 2 -0.008047 0.011837 -0.002875 0.000000 -0.005335 0.000000
# 3 -0.003330 -0.002875 0.008822 0.000000 0.001303 0.000000
# 4 0.000000 0.000000 0.000000 0.029464 0.000000 0.010613
# 5 0.009754 -0.005335 0.001303 0.000000 0.035160 0.000000
# 6 0.000000 0.000000 0.000000 0.010613 0.000000 0.043106
#
#
# Mechanical properties :
#
#
# Convention : Reuss Voigt Hill
#
# Bulk Modulus (GPa) = 46.54593 64.52383 55.53488
# Shear Modulus (GPa) = 25.85551 32.08722 28.97137
#
# Velocity S-wave (km/s) = 3.54598 3.95026 3.75357
# Velocity P-wave (km/s) = 6.27706 7.22393 6.76708
#
# Compressibility (1/GPa) = 0.02148416
#
# Stress axis : x y z
#
# Youngs Moduli (GPa) = 34.09562 84.48435 113.35679
#
# Poissons Ratio (x) = 0.67980 0.37752
# Poissons Ratio (y) = 0.27435 0.32588
# Poissons Ratio (z) = 0.11355 0.24288
#
# Static dielectric constant tensor:
#      x y z
#    x 3.658850 0.000000 -0.086360 
#    y 0.000000 3.822980 0.000000 
#    z -0.086360 0.000000 3.767610 
# 
# 
# High freq. dielectric constant tensor:
#      x y z
#    x 1.800290 0.000000 -0.003750 
#    y 0.000000 1.811030 0.000000 
#    z -0.003750 0.000000 1.807440 
# 
# From -- ./inp_files/76000.got.cif
#   From: 2010.06.25/outbox.cif.g09.slc.cpg/sg12_38_cif.got.tgz:76000.got - 2010.06.28 00:19:55.
