data_PCOD8105787
_publ_section_title
;
Structure prediction by ZEFSAII (Michael W. Deem and Ramdas Pophale) SiO2 
 PCOD8105787
Probable space group: C 2/M
;
_chemical_formula_sum "Si O2"
_cell_formula_units_Z 56
_cell_length_a 20.606931
_cell_length_b 9.890915
_cell_length_c 28.639406
_cell_angle_alpha 90.000000
_cell_angle_beta 150.380501
_cell_angle_gamma 90.000000
_cell_volume 2885.025812
_symmetry_space_group_name_H-M "C 2/M"
_symmetry_group_IT_number 12
_symmetry_cell_setting 'monoclinic'
loop_
_space_group_symop_operation_xyz
x,y,z
-x,y,-z
-x,-y,-z
x,-y,z
1/2+x,1/2+y,z
1/2-x,1/2+y,-z
1/2-x,1/2-y,-z
1/2+x,1/2-y,z
loop_
_atom_site_type_symbol
_atom_site_label
_atom_site_fract_x
_atom_site_fract_y
_atom_site_fract_z
Si Si1 0.369251 0.842376 0.092944
Si Si2 0.647399 0.153687 0.602884
Si Si3 0.145365 0.659913 0.217172
Si Si4 0.687978 0.849457 0.837237
Si Si5 0.858417 0.354412 0.892164
Si Si6 0.573085 0.150779 0.371917
Si Si7 0.251082 0.851178 0.435631
O O1 0.508753 0.798250 0.157355
O O2 0.378239 0.818513 0.154194
O O3 0.340306 0.000000 0.062896
O O4 0.250000 0.750000 0.000000
O O5 0.500000 0.206172 0.500000
O O6 0.728343 0.256145 0.685955
O O7 0.722703 0.152103 0.601826
O O8 0.643069 0.000000 0.621311
O O9 0.171031 0.500000 0.240503
O O10 0.134723 0.701394 0.156266
O O11 0.799530 0.745711 0.893576
O O12 0.582483 0.834945 0.729527
O O13 0.748621 0.000000 0.875726
O O14 0.783332 0.500000 0.845333
O O15 0.000000 0.381653 0.000000
O O16 0.618385 0.188216 0.452789
O O17 0.635976 0.247836 0.373219
O O18 0.617191 0.000000 0.385671
O O19 0.203702 0.000000 0.421437
#
# Coordination Sequence:
#
# PCOD8105787 Si02
#       7
#     8   8   8   8   8   8   8
#     4  10  21  38  60  87 116 149 192 240 293 350
#     4  10  22  37  56  82 114 153 194 235 281 338
#     4  10  22  40  61  86 117 154 195 239 290 346
#     4  10  21  35  57  85 111 142 185 233 283 336
#     4  10  22  40  60  83 114 151 189 233 287 344
#     4   9  18  33  54  78 105 140 177 224 277 323
#     4   9  18  33  52  77 108 141 181 223 270 325
#
# _framework density 19.410571999999998
#
# number of rings (size 3 to 8) (size 9 to 14) (size 15 to 20)
#    0.000    2.286    0.000    1.714    2.000    5.714 
#    0.000    0.000    0.000    0.000    0.000    0.000 
#    0.000    0.000    0.000    0.000    0.000    0.000 
#
# Total GULP energy -347016.170154 kJ/mol
# GULP energy per Si atom -12393.434648 kJ/mol
# Density = 1.936639 g / cm^3
# Si number density = 19.410572 Si / 1000 Ang^3
#
#
#
# Elastic Constant Matrix: (Units=GPa)
#
#
# Indices 1 2 3 4 5 6 
#
# 1 76.2037 33.8646 23.8779 0.0000 -5.9071 0.0000
# 2 33.8646 79.1120 48.0265 -0.0001 1.8154 0.0000
# 3 23.8779 48.0265 98.8815 0.0014 -3.0266 0.0003
# 4 0.0000 -0.0001 0.0014 35.9374 0.0002 3.0517
# 5 -5.9071 1.8154 -3.0266 0.0002 25.4185 0.0000
# 6 0.0000 0.0000 0.0003 3.0517 0.0000 24.7358
#
#
#
# Elastic Compliance Matrix: (Units=1/GPa)
#
#
# Indices 1 2 3 4 5 6 
#
# 1 0.016701 -0.006920 -0.000540 0.000000 0.004311 0.000000
# 2 -0.006920 0.020931 -0.008622 0.000000 -0.004130 0.000000
# 3 -0.000540 -0.008622 0.014499 -0.000001 0.002217 0.000000
# 4 0.000000 0.000000 -0.000001 0.028121 0.000000 -0.003469
# 5 0.004311 -0.004130 0.002217 0.000000 0.040902 0.000000
# 6 0.000000 0.000000 0.000000 -0.003469 0.000000 0.040855
#
#
# Mechanical properties :
#
#
# Convention : Reuss Voigt Hill
#
# Bulk Modulus (GPa) = 50.08038 51.74837 50.91438
# Shear Modulus (GPa) = 24.89677 27.11356 26.00516
#
# Velocity S-wave (km/s) = 3.58528 3.74149 3.66422
# Velocity P-wave (km/s) = 6.55710 6.73668 6.64749
#
# Compressibility (1/GPa) = 0.01996790
#
# Stress axis : x y z
#
# Youngs Moduli (GPa) = 59.87496 47.77539 68.97118
#
# Poissons Ratio (x) = 0.33062 0.03724
# Poissons Ratio (y) = 0.41436 0.59464
# Poissons Ratio (z) = 0.03233 0.41190
#
# Static dielectric constant tensor:
#      x y z
#    x 3.534680 0.000000 -0.094850 
#    y 0.000000 3.752780 0.000000 
#    z -0.094850 0.000000 3.544420 
# 
# 
# High freq. dielectric constant tensor:
#      x y z
#    x 1.751340 0.000000 -0.012560 
#    y 0.000000 1.757500 0.000000 
#    z -0.012560 0.000000 1.756070 
# 
# From -- ./inp_files/380754.got.cif
#   From: 2010.06.25/outbox.cif.g09.slc.cpg/sg12_191_cif.got.tgz:380754.got - 2010.06.28 00:19:55.
