data_PCOD8105774
_publ_section_title
;
Structure prediction by ZEFSAII (Michael W. Deem and Ramdas Pophale) SiO2 
 PCOD8105774
Probable space group: C 2/M
;
_chemical_formula_sum "Si O2"
_cell_formula_units_Z 48
_cell_length_a 28.741323
_cell_length_b 18.780072
_cell_length_c 10.066530
_cell_angle_alpha 90.000000
_cell_angle_beta 153.741765
_cell_angle_gamma 90.000000
_cell_volume 2403.898837
_symmetry_space_group_name_H-M "C 2/M"
_symmetry_group_IT_number 12
_symmetry_cell_setting 'monoclinic'
loop_
_space_group_symop_operation_xyz
x,y,z
-x,y,-z
-x,-y,-z
x,-y,z
1/2+x,1/2+y,z
1/2-x,1/2+y,-z
1/2-x,1/2-y,-z
1/2+x,1/2-y,z
loop_
_atom_site_type_symbol
_atom_site_label
_atom_site_fract_x
_atom_site_fract_y
_atom_site_fract_z
Si Si1 0.210949 0.080187 0.275524
Si Si2 0.236029 0.922602 0.035001
Si Si3 0.463425 0.915732 0.547228
Si Si4 0.917210 0.344903 0.909209
Si Si5 0.357411 0.282701 0.224760
Si Si6 0.920259 0.784098 0.091036
O O1 0.249921 0.070245 0.226789
O O2 0.309583 0.114821 0.602070
O O3 0.183143 0.000000 0.260227
O O4 0.110069 0.134077 0.025685
O O5 0.344047 0.889591 0.255659
O O6 0.210435 0.000000 0.906575
O O7 0.143651 0.868639 0.762464
O O8 0.500000 0.884061 0.500000
O O9 0.469287 0.000000 0.566070
O O10 0.534615 0.887457 0.846055
O O11 0.886181 0.265673 0.880580
O O12 0.000000 0.341654 0.000000
O O13 0.364907 0.263119 0.088201
O O14 0.456617 0.264490 0.570541
O O15 0.250000 0.250000 0.000000
#
# Coordination Sequence:
#
# PCOD8105774 Si02
#       6
#     8   8   8   8   8   8
#     4  10  21  40  62  86 120 162 208 255 305 371
#     4   9  18  34  57  86 117 153 203 250 301 367
#     4  10  21  35  56  91 126 158 203 261 313 360
#     4  12  23  37  63  91 127 167 208 257 311 368
#     4  10  21  38  62  89 122 163 200 252 316 366
#     4  10  24  39  59  93 124 157 209 255 309 372
#
# _framework density 19.967562000000001
#
# number of rings (size 3 to 8) (size 9 to 14) (size 15 to 20)
#    0.000    1.833    1.667    2.000    7.000    1.333 
#    0.000    3.333    0.000    0.500    0.000    0.000 
#    0.000    0.000    0.000    0.000    0.000    0.000 
#
# Total GULP energy -297388.654525 kJ/mol
# GULP energy per Si atom -12391.193939 kJ/mol
# Density = 1.992211 g / cm^3
# Si number density = 19.967562 Si / 1000 Ang^3
#
#
#
# Elastic Constant Matrix: (Units=GPa)
#
#
# Indices 1 2 3 4 5 6 
#
# 1 72.9106 22.5857 42.8100 0.0000 7.1577 0.0000
# 2 22.5857 81.7127 44.0534 0.0000 4.4211 0.0000
# 3 42.8100 44.0534 73.7443 0.0000 3.2596 0.0000
# 4 0.0000 0.0000 0.0000 34.1385 0.0000 1.0178
# 5 7.1577 4.4211 3.2596 0.0000 26.4126 0.0000
# 6 0.0000 0.0000 0.0000 1.0178 0.0000 26.7338
#
#
#
# Elastic Compliance Matrix: (Units=1/GPa)
#
#
# Indices 1 2 3 4 5 6 
#
# 1 0.021375 0.001350 -0.013020 0.000000 -0.004412 0.000000
# 2 0.001350 0.018213 -0.011576 0.000000 -0.001986 0.000000
# 3 -0.013020 -0.011576 0.027945 0.000000 0.002017 0.000000
# 4 0.000000 0.000000 0.000000 0.029326 0.000000 -0.001116
# 5 -0.004412 -0.001986 0.002017 0.000000 0.039140 0.000000
# 6 0.000000 0.000000 0.000000 -0.001116 0.000000 0.037448
#
#
# Mechanical properties :
#
#
# Convention : Reuss Voigt Hill
#
# Bulk Modulus (GPa) = 47.52662 49.69621 48.61141
# Shear Modulus (GPa) = 22.03092 25.38490 23.70791
#
# Velocity S-wave (km/s) = 3.32525 3.56941 3.44949
# Velocity P-wave (km/s) = 6.21262 6.47534 6.34534
#
# Compressibility (1/GPa) = 0.02104084
#
# Stress axis : x y z
#
# Youngs Moduli (GPa) = 46.78318 54.90476 35.78450
#
# Poissons Ratio (x) = -0.07412 0.46592
# Poissons Ratio (y) = -0.06316 0.41425
# Poissons Ratio (z) = 0.60913 0.63559
#
# Static dielectric constant tensor:
#      x y z
#    x 3.696100 0.000000 0.061660 
#    y 0.000000 4.154020 0.000000 
#    z 0.061660 0.000000 3.517840 
# 
# 
# High freq. dielectric constant tensor:
#      x y z
#    x 1.764570 0.000000 0.004270 
#    y 0.000000 1.802950 0.000000 
#    z 0.004270 0.000000 1.768600 
# 
# From -- ./inp_files/106605.got.cif
#   From: 2010.06.25/outbox.cif.g09.slc.cpg/sg12_54_cif.got.tgz:106605.got - 2010.06.28 00:19:55.
