data_PCOD8105500
_publ_section_title
;
Structure prediction by ZEFSAII (Michael W. Deem and Ramdas Pophale) SiO2 
 PCOD8105500
Probable space group: C 2/M
;
_chemical_formula_sum "Si O2"
_cell_formula_units_Z 56
_cell_length_a 18.891975
_cell_length_b 9.151607
_cell_length_c 25.963336
_cell_angle_alpha 90.000000
_cell_angle_beta 136.689728
_cell_angle_gamma 90.000000
_cell_volume 3079.122231
_symmetry_space_group_name_H-M "C 2/M"
_symmetry_group_IT_number 12
_symmetry_cell_setting 'monoclinic'
loop_
_space_group_symop_operation_xyz
x,y,z
-x,y,-z
-x,-y,-z
x,-y,z
1/2+x,1/2+y,z
1/2-x,1/2+y,-z
1/2-x,1/2-y,-z
1/2+x,1/2-y,z
loop_
_atom_site_type_symbol
_atom_site_label
_atom_site_fract_x
_atom_site_fract_y
_atom_site_fract_z
Si Si1 0.781101 0.828879 0.199274
Si Si2 0.162465 0.671012 0.337817
Si Si3 0.486832 0.328986 0.662188
Si Si4 0.591133 0.330350 0.912233
Si Si5 0.382547 0.171120 0.800722
Si Si6 0.233341 0.669649 0.912237
Si Si7 0.177509 0.168295 0.499997
O O1 0.895527 0.775792 0.275299
O O2 0.708029 0.789537 0.208027
O O3 0.741321 0.739012 0.129312
O O4 0.777596 0.000000 0.184133
O O5 0.139171 0.500000 0.329395
O O6 0.155089 0.724199 0.275308
O O7 0.280718 0.706770 0.420311
O O8 0.076157 0.750006 0.326153
O O9 0.480391 0.500000 0.670612
O O10 0.440101 0.293225 0.579697
O O11 0.578080 0.500000 0.891853
O O12 0.482692 0.260995 0.870680
O O13 0.634639 0.249996 0.884639
O O14 0.666258 0.305185 0.999997
O O15 0.409328 0.000000 0.815867
O O16 0.205638 0.500000 0.891857
O O17 0.250000 0.250000 0.500000
O O18 0.196955 0.000000 0.499996
#
# Coordination Sequence:
#
# PCOD8105500 Si02
#       7
#     8   8   8   8   8   8   8
#     4  10  21  35  50  72 104 138 170 205 247 295
#     4   9  17  30  49  72  97 127 165 207 249 293
#     4   9  17  30  49  72  97 127 165 207 249 293
#     4  10  21  37  57  79 101 127 163 206 250 298
#     4  10  21  35  50  72 104 138 170 205 247 295
#     4  10  21  37  57  79 101 127 163 206 250 298
#     4   8  14  26  45  69  95 123 159 204 249 290
#
# _framework density 18.187000999999999
#
# number of rings (size 3 to 8) (size 9 to 14) (size 15 to 20)
#    0.000    2.571    0.000    1.714    0.000    6.286 
#    0.000    3.571    0.000    4.286    0.000    0.000 
#    0.000   13.714    0.000    0.000    0.000    0.000 
#
# Total GULP energy -347025.109155 kJ/mol
# GULP energy per Si atom -12393.753898 kJ/mol
# Density = 1.814561 g / cm^3
# Si number density = 18.187001 Si / 1000 Ang^3
#
#
#
# Elastic Constant Matrix: (Units=GPa)
#
#
# Indices 1 2 3 4 5 6 
#
# 1 118.9616 48.8439 72.8511 0.0000 1.6570 0.0000
# 2 48.8439 60.1865 50.5849 0.0000 -0.1424 0.0000
# 3 72.8511 50.5849 113.1444 0.0000 -1.2160 0.0000
# 4 0.0000 0.0000 0.0000 21.5802 0.0000 0.3590
# 5 1.6570 -0.1424 -1.2160 0.0000 12.6834 0.0000
# 6 0.0000 0.0000 0.0000 0.3590 0.0000 26.1436
#
#
#
# Elastic Compliance Matrix: (Units=1/GPa)
#
#
# Indices 1 2 3 4 5 6 
#
# 1 0.015480 -0.006675 -0.007012 0.000000 -0.002770 0.000000
# 2 -0.006675 0.029504 -0.008889 0.000000 0.000351 0.000000
# 3 -0.007012 -0.008889 0.017354 0.000000 0.002480 0.000000
# 4 0.000000 0.000000 0.000000 0.046349 0.000000 -0.000637
# 5 -0.002770 0.000351 0.002480 0.000000 0.079447 0.000000
# 6 0.000000 0.000000 0.000000 -0.000637 0.000000 0.038259
#
#
# Mechanical properties :
#
#
# Convention : Reuss Voigt Hill
#
# Bulk Modulus (GPa) = 58.19144 70.76136 64.47640
# Shear Modulus (GPa) = 18.03267 20.08228 19.05747
#
# Velocity S-wave (km/s) = 3.15225 3.32657 3.24058
# Velocity P-wave (km/s) = 6.73161 7.33123 7.03781
#
# Compressibility (1/GPa) = 0.01718466
#
# Stress axis : x y z
#
# Youngs Moduli (GPa) = 64.60037 33.89379 57.62321
#
# Poissons Ratio (x) = 0.22625 0.40408
# Poissons Ratio (y) = 0.43123 0.51220
# Poissons Ratio (z) = 0.45301 0.30128
#
# Static dielectric constant tensor:
#      x y z
#    x 3.083130 0.000000 -0.069980 
#    y 0.000000 3.321100 0.000000 
#    z -0.069980 0.000000 3.972330 
# 
# 
# High freq. dielectric constant tensor:
#      x y z
#    x 1.674290 0.000000 -0.004250 
#    y 0.000000 1.703290 0.000000 
#    z -0.004250 0.000000 1.728280 
# 
# From -- ./inp_files/332856.got.cif
#   From: 2010.06.25/outbox.cif.g09.slc.cpg/sg12_167_cif.got.tgz:332856.got - 2010.06.28 00:19:55.
