data_PCOD8105278
_publ_section_title
;
Structure prediction by ZEFSAII (Michael W. Deem and Ramdas Pophale) SiO2 
 PCOD8105278
Probable space group: C 2/M
;
_chemical_formula_sum "Si O2"
_cell_formula_units_Z 56
_cell_length_a 10.444216
_cell_length_b 30.610780
_cell_length_c 18.544720
_cell_angle_alpha 90.000000
_cell_angle_beta 32.350929
_cell_angle_gamma 90.000000
_cell_volume 3172.548658
_symmetry_space_group_name_H-M "C 2/M"
_symmetry_group_IT_number 12
_symmetry_cell_setting 'monoclinic'
loop_
_space_group_symop_operation_xyz
x,y,z
-x,y,-z
-x,-y,-z
x,-y,z
1/2+x,1/2+y,z
1/2-x,1/2+y,-z
1/2-x,1/2-y,-z
1/2+x,1/2-y,z
loop_
_atom_site_type_symbol
_atom_site_label
_atom_site_fract_x
_atom_site_fract_y
_atom_site_fract_z
Si Si1 0.532014 0.729983 0.645324
Si Si2 0.261043 0.548415 0.159305
Si Si3 0.228033 0.809673 0.847978
Si Si4 0.939782 0.382839 0.844405
Si Si5 0.276723 0.648319 0.388168
Si Si6 0.558772 0.351681 0.388168
Si Si7 0.027003 0.117161 0.844405
O O1 0.750000 0.750000 0.500000
O O2 0.366677 0.767395 0.755548
O O3 0.641585 0.699267 0.657023
O O4 0.387346 0.699267 0.657022
O O5 0.162374 0.500000 0.225084
O O6 0.070072 0.574718 0.202231
O O7 0.323236 0.574718 0.202231
O O8 0.500000 0.545213 0.000000
O O9 0.392499 0.839087 0.821056
O O10 0.144334 0.839088 0.821056
O O11 0.000000 0.792239 0.000000
O O12 0.209410 0.379866 0.745137
O O13 0.750599 0.386647 1.000000
O O14 0.335564 0.632672 0.442957
O O15 0.444821 0.620134 0.254863
O O16 0.000000 0.641811 0.500000
O O17 0.500000 0.358189 0.500000
#
# Coordination Sequence:
#
# PCOD8105278 Si02
#       7
#     8   8   8   8   8   8   8
#     4  10  21  33  49  70 105 139 191 227 262 303
#     4   8  15  30  58  90 111 136 173 213 263 328
#     4   9  18  31  50  75 105 141 176 220 269 318
#     4   9  18  33  54  80 110 138 174 222 271 322
#     4  10  23  36  52  76 104 146 183 225 268 314
#     4  10  23  36  52  76 104 146 183 225 268 314
#     4   9  18  33  54  80 110 138 174 222 271 322
#
# _framework density 17.651423999999999
#
# number of rings (size 3 to 8) (size 9 to 14) (size 15 to 20)
#    0.857    1.857    0.000    3.429    4.000    5.714 
#    0.000    2.857    0.000    1.714    0.000    4.000 
#    0.000    0.000    0.000    0.000    0.000    0.000 
#
# Total GULP energy -346898.284429 kJ/mol
# GULP energy per Si atom -12389.224444 kJ/mol
# Density = 1.761125 g / cm^3
# Si number density = 17.651424 Si / 1000 Ang^3
#
#
#
# Elastic Constant Matrix: (Units=GPa)
#
#
# Indices 1 2 3 4 5 6 
#
# 1 108.4586 43.2719 53.0821 0.0000 0.1326 0.0000
# 2 43.2719 100.4976 54.2189 0.0000 0.0932 0.0000
# 3 53.0821 54.2189 93.6203 -0.0003 -0.2588 0.0000
# 4 0.0000 0.0000 -0.0003 15.9822 0.0000 -0.0080
# 5 0.1326 0.0932 -0.2588 0.0000 35.4705 0.0000
# 6 0.0000 0.0000 0.0000 -0.0080 0.0000 16.9245
#
#
#
# Elastic Compliance Matrix: (Units=1/GPa)
#
#
# Indices 1 2 3 4 5 6 
#
# 1 0.013143 -0.002383 -0.006072 0.000000 -0.000087 0.000000
# 2 -0.002383 0.014905 -0.007281 0.000000 -0.000083 0.000000
# 3 -0.006072 -0.007281 0.018341 0.000000 0.000176 0.000000
# 4 0.000000 0.000000 0.000000 0.062570 0.000000 0.000029
# 5 -0.000087 -0.000083 0.000176 0.000000 0.028194 0.000000
# 6 0.000000 0.000000 0.000000 0.000029 0.000000 0.059086
#
#
# Mechanical properties :
#
#
# Convention : Reuss Voigt Hill
#
# Bulk Modulus (GPa) = 67.03790 67.08024 67.05907
# Shear Modulus (GPa) = 21.48847 23.80902 22.64874
#
# Velocity S-wave (km/s) = 3.49288 3.67665 3.58594
# Velocity P-wave (km/s) = 7.37076 7.49059 7.43092
#
# Compressibility (1/GPa) = 0.01491694
#
# Stress axis : x y z
#
# Youngs Moduli (GPa) = 76.08763 67.09275 54.52157
#
# Poissons Ratio (x) = 0.15988 0.33105
# Poissons Ratio (y) = 0.18132 0.39697
# Poissons Ratio (z) = 0.46200 0.48850
#
# Static dielectric constant tensor:
#      x y z
#    x 3.093220 0.000000 -0.001710 
#    y 0.000000 3.654740 0.000000 
#    z -0.001710 0.000000 2.892230 
# 
# 
# High freq. dielectric constant tensor:
#      x y z
#    x 1.669290 0.000000 0.000070 
#    y 0.000000 1.658240 0.000000 
#    z 0.000070 0.000000 1.677750 
# 
# From -- ./inp_files/307403.got.cif
#   From: 2010.06.25/outbox.cif.g09.slc.cpg/sg12_154_cif.got.tgz:307403.got - 2010.06.28 00:19:55.
