data_PCOD8105906
_publ_section_title
;
Structure prediction by ZEFSAII (Michael W. Deem and Ramdas Pophale) SiO2 
 PCOD8105906
Probable space group: C 2/M
;
_chemical_formula_sum "Si O2"
_cell_formula_units_Z 64
_cell_length_a 18.154227
_cell_length_b 13.961011
_cell_length_c 20.453418
_cell_angle_alpha 90.000000
_cell_angle_beta 137.943720
_cell_angle_gamma 90.000000
_cell_volume 3472.519827
_symmetry_space_group_name_H-M "C 2/M"
_symmetry_group_IT_number 12
_symmetry_cell_setting 'monoclinic'
loop_
_space_group_symop_operation_xyz
x,y,z
-x,y,-z
-x,-y,-z
x,-y,z
1/2+x,1/2+y,z
1/2-x,1/2+y,-z
1/2-x,1/2-y,-z
1/2+x,1/2-y,z
loop_
_atom_site_type_symbol
_atom_site_label
_atom_site_fract_x
_atom_site_fract_y
_atom_site_fract_z
Si Si1 0.196404 0.888461 0.862841
Si Si2 0.274503 0.889335 0.055739
Si Si3 0.610935 0.262271 0.223434
Si Si4 0.468685 0.772542 0.247485
Si Si5 0.043372 0.889323 0.959293
Si Si6 0.513679 0.108200 0.402319
Si Si7 0.179526 0.391682 0.624224
Si Si8 0.109700 0.611158 0.110251
O O1 0.085142 0.830998 0.772828
O O2 0.286478 0.867801 0.867152
O O3 0.164678 0.000000 0.846435
O O4 0.244395 0.850591 0.963660
O O5 0.379428 0.837452 0.152906
O O6 0.305450 0.000000 0.070128
O O7 0.173882 0.873110 0.039761
O O8 0.576576 0.232680 0.273592
O O9 0.515258 0.332417 0.136536
O O10 0.725466 0.316351 0.301184
O O11 0.622540 0.169635 0.185387
O O12 0.511565 0.817324 0.342444
O O13 0.012083 0.000000 0.930090
O O14 0.000000 0.850048 0.000000
O O15 0.401692 0.117373 0.368523
O O16 0.617050 0.133721 0.516091
O O17 0.525019 0.000000 0.382769
O O18 0.226479 0.500000 0.651810
O O19 0.102306 0.500000 0.124893
O O20 0.000000 0.643443 0.000000
#
# Coordination Sequence:
#
# PCOD8105906 Si02
#       8
#     8   8   8   8   8   8   8   8
#     4  10  21  37  53  72 109 151 190 226 260 317
#     4  10  21  36  52  78 115 151 187 226 274 325
#     4  12  23  34  57  83 115 146 183 231 276 334
#     4  12  23  33  56  84 111 147 185 224 279 329
#     4  10  22  35  50  81 120 151 182 226 279 337
#     4   9  20  40  63  87 110 137 180 229 282 344
#     4   9  20  40  64  86 110 139 176 230 290 342
#     4  10  22  37  53  74 106 154 198 230 261 305
#
# _framework density 18.430420000000002
#
# number of rings (size 3 to 8) (size 9 to 14) (size 15 to 20)
#    0.000    1.750    1.250    3.750    5.250    3.000 
#    0.000    0.000    0.000    0.750    0.000    3.500 
#    0.000    0.000    0.000    0.000    0.000    0.000 
#
# Total GULP energy -396926.334393 kJ/mol
# GULP energy per Si atom -12403.947950 kJ/mol
# Density = 1.838847 g / cm^3
# Si number density = 18.430420 Si / 1000 Ang^3
#
#
#
# Elastic Constant Matrix: (Units=GPa)
#
#
# Indices 1 2 3 4 5 6 
#
# 1 85.0826 40.6149 26.9911 0.0000 -11.7976 0.0000
# 2 40.6149 77.3285 49.0933 0.0000 -4.6066 0.0000
# 3 26.9911 49.0933 71.7494 0.0000 -7.9754 0.0000
# 4 0.0000 0.0000 0.0000 31.9833 0.0000 -0.7635
# 5 -11.7976 -4.6066 -7.9754 0.0000 30.5801 0.0000
# 6 0.0000 0.0000 0.0000 -0.7635 0.0000 23.3149
#
#
#
# Elastic Compliance Matrix: (Units=1/GPa)
#
#
# Indices 1 2 3 4 5 6 
#
# 1 0.016435 -0.008421 0.000148 0.000000 0.005110 0.000000
# 2 -0.008421 0.027192 -0.015801 0.000000 -0.003274 0.000000
# 3 0.000148 -0.015801 0.025165 0.000000 0.004240 0.000000
# 4 0.000000 0.000000 0.000000 0.031291 0.000000 0.001025
# 5 0.005110 -0.003274 0.004240 0.000000 0.035285 0.000000
# 6 0.000000 0.000000 0.000000 0.001025 0.000000 0.042925
#
#
# Mechanical properties :
#
#
# Convention : Reuss Voigt Hill
#
# Bulk Modulus (GPa) = 48.44615 51.95099 50.19857
# Shear Modulus (GPa) = 21.42950 25.00640 23.21795
#
# Velocity S-wave (km/s) = 3.41357 3.68747 3.55316
# Velocity P-wave (km/s) = 6.47145 6.81020 6.64298
#
# Compressibility (1/GPa) = 0.02064147
#
# Stress axis : x y z
#
# Youngs Moduli (GPa) = 60.84529 36.77587 39.73781
#
# Poissons Ratio (x) = 0.30971 -0.00587
# Poissons Ratio (y) = 0.51241 0.62791
# Poissons Ratio (z) = -0.00898 0.58111
#
# Static dielectric constant tensor:
#      x y z
#    x 3.495180 0.000000 -0.062690 
#    y 0.000000 3.519590 0.000000 
#    z -0.062690 0.000000 3.167440 
# 
# 
# High freq. dielectric constant tensor:
#      x y z
#    x 1.724280 0.000000 -0.004100 
#    y 0.000000 1.726350 0.000000 
#    z -0.004100 0.000000 1.690550 
# 
# From -- ./inp_files/278207.got.cif
#   From: 2010.06.25/outbox.cif.g09.slc.cpg/sg12_140_cif.got.tgz:278207.got - 2010.06.28 00:19:55.
