data_PCOD8105637
_publ_section_title
;
Structure prediction by ZEFSAII (Michael W. Deem and Ramdas Pophale) SiO2 
 PCOD8105637
Probable space group: C 2/M
;
_chemical_formula_sum "Si O2"
_cell_formula_units_Z 56
_cell_length_a 27.775210
_cell_length_b 8.536835
_cell_length_c 12.279786
_cell_angle_alpha 90.000000
_cell_angle_beta 76.672990
_cell_angle_gamma 90.000000
_cell_volume 2833.278470
_symmetry_space_group_name_H-M "C 2/M"
_symmetry_group_IT_number 12
_symmetry_cell_setting 'monoclinic'
loop_
_space_group_symop_operation_xyz
x,y,z
-x,y,-z
-x,-y,-z
x,-y,z
1/2+x,1/2+y,z
1/2-x,1/2+y,-z
1/2-x,1/2-y,-z
1/2+x,1/2-y,z
loop_
_atom_site_type_symbol
_atom_site_label
_atom_site_fract_x
_atom_site_fract_y
_atom_site_fract_z
Si Si1 0.346108 0.814801 0.053485
Si Si2 0.716378 0.679624 0.610136
Si Si3 0.755534 0.679412 0.828478
Si Si4 0.640755 0.682592 0.176394
Si Si5 0.116793 0.317372 0.732638
Si Si6 0.938984 0.317061 0.626225
Si Si7 0.957439 0.182128 0.388938
O O1 0.291826 0.738398 0.080093
O O2 0.376235 0.763929 0.145606
O O3 0.340162 0.000000 0.051698
O O4 0.375341 0.750183 0.933270
O O5 0.703107 0.500000 0.591944
O O6 0.750000 0.750000 0.500000
O O7 0.746267 0.697178 0.705655
O O8 0.665861 0.777349 0.639140
O O9 0.766647 0.500000 0.855131
O O10 0.801533 0.787051 0.834966
O O11 0.628913 0.500000 0.187833
O O12 0.610643 0.770995 0.285578
O O13 0.105781 0.500000 0.729414
O O14 0.070340 0.224613 0.708157
O O15 0.948973 0.500000 0.632744
O O16 0.932935 0.275415 0.502182
O O17 0.985114 0.225476 0.654662
O O18 0.952416 0.000000 0.416680
#
# Coordination Sequence:
#
# PCOD8105637 Si02
#       7
#     8   8   8   8   8   8   8
#     4  10  21  39  60  85 117 155 198 242 287 344
#     4  10  21  35  53  80 116 152 193 241 287 343
#     4  10  21  37  56  81 115 157 198 238 289 344
#     4  12  24  38  59  86 118 154 196 244 293 343
#     4  10  21  38  61  85 114 154 195 234 289 348
#     4  11  23  41  63  88 118 151 193 241 289 344
#     4  11  22  40  64  90 120 151 189 236 293 351
#
# _framework density 19.765089
#
# number of rings (size 3 to 8) (size 9 to 14) (size 15 to 20)
#    0.000    1.429    0.000    6.857    2.000    3.429 
#    0.000    0.714    0.000    4.286    0.000    0.000 
#    0.000    0.000    0.000    0.000    0.000    0.000 
#
# Total GULP energy -347368.819621 kJ/mol
# GULP energy per Si atom -12406.029272 kJ/mol
# Density = 1.972010 g / cm^3
# Si number density = 19.765089 Si / 1000 Ang^3
#
#
#
# Elastic Constant Matrix: (Units=GPa)
#
#
# Indices 1 2 3 4 5 6 
#
# 1 84.1471 19.0374 29.2722 0.0000 17.9250 0.0000
# 2 19.0374 87.1739 23.7160 0.0000 4.3539 0.0000
# 3 29.2722 23.7160 77.4627 0.0000 -4.0603 0.0000
# 4 0.0000 0.0000 0.0000 33.2518 0.0000 -1.7997
# 5 17.9250 4.3539 -4.0603 0.0000 20.0244 0.0000
# 6 0.0000 0.0000 0.0000 -1.7997 0.0000 33.9935
#
#
#
# Elastic Compliance Matrix: (Units=1/GPa)
#
#
# Indices 1 2 3 4 5 6 
#
# 1 0.018620 -0.001088 -0.007646 0.000000 -0.017982 0.000000
# 2 -0.001088 0.012830 -0.003651 0.000000 -0.002556 0.000000
# 3 -0.007646 -0.003651 0.017503 0.000000 0.011187 0.000000
# 4 0.000000 0.000000 0.000000 0.030160 0.000000 0.001597
# 5 -0.017982 -0.002556 0.011187 0.000000 0.068860 0.000000
# 6 0.000000 0.000000 0.000000 0.001597 0.000000 0.029502
#
#
# Mechanical properties :
#
#
# Convention : Reuss Voigt Hill
#
# Bulk Modulus (GPa) = 41.35049 43.64832 42.49941
# Shear Modulus (GPa) = 23.77500 29.23783 26.50641
#
# Velocity S-wave (km/s) = 3.47202 3.85030 3.66604
# Velocity P-wave (km/s) = 6.08602 6.47286 6.28241
#
# Compressibility (1/GPa) = 0.02418351
#
# Stress axis : x y z
#
# Youngs Moduli (GPa) = 53.70466 77.94351 57.13387
#
# Poissons Ratio (x) = 0.08482 0.43683
# Poissons Ratio (y) = 0.05844 0.20858
# Poissons Ratio (z) = 0.41061 0.28455
#
# Static dielectric constant tensor:
#      x y z
#    x 3.504530 0.000000 0.158590 
#    y 0.000000 3.708130 0.000000 
#    z 0.158590 0.000000 3.727070 
# 
# 
# High freq. dielectric constant tensor:
#      x y z
#    x 1.760570 0.000000 0.010530 
#    y 0.000000 1.787770 0.000000 
#    z 0.010530 0.000000 1.773930 
# 
# From -- ./inp_files/180647.got.cif
#   From: 2010.06.25/outbox.cif.g09.slc.cpg/sg12_91_cif.got.tgz:180647.got - 2010.06.28 00:19:55.
