data_PCOD8105620
_publ_section_title
;
Structure prediction by ZEFSAII (Michael W. Deem and Ramdas Pophale) SiO2 
 PCOD8105620
Probable space group: C 2/M
;
_chemical_formula_sum "Si O2"
_cell_formula_units_Z 64
_cell_length_a 31.965009
_cell_length_b 9.524994
_cell_length_c 10.835005
_cell_angle_alpha 90.000000
_cell_angle_beta 91.202151
_cell_angle_gamma 90.000000
_cell_volume 3298.170157
_symmetry_space_group_name_H-M "C 2/M"
_symmetry_group_IT_number 12
_symmetry_cell_setting 'monoclinic'
loop_
_space_group_symop_operation_xyz
x,y,z
-x,y,-z
-x,-y,-z
x,-y,z
1/2+x,1/2+y,z
1/2-x,1/2+y,-z
1/2-x,1/2-y,-z
1/2+x,1/2-y,z
loop_
_atom_site_type_symbol
_atom_site_label
_atom_site_fract_x
_atom_site_fract_y
_atom_site_fract_z
Si Si1 0.765840 0.662883 0.243728
Si Si2 0.887280 0.661373 0.856609
Si Si3 0.607886 0.337209 0.700392
Si Si4 0.810593 0.842125 0.438430
Si Si5 0.970492 0.164840 0.880485
Si Si6 0.653798 0.841548 0.891982
Si Si7 0.983301 0.166266 0.368476
Si Si8 0.176202 0.159688 0.278212
O O1 0.768586 0.500000 0.276996
O O2 0.777827 0.741865 0.370006
O O3 0.798458 0.704919 0.137126
O O4 0.717909 0.698368 0.200415
O O5 0.897754 0.500000 0.823249
O O6 0.929189 0.742688 0.895540
O O7 0.863164 0.738105 0.743820
O O8 0.853477 0.670868 0.963694
O O9 0.603810 0.500000 0.735565
O O10 0.641803 0.307186 0.597265
O O11 0.620022 0.257514 0.825557
O O12 0.563874 0.278283 0.648803
O O13 0.807538 0.821064 0.582844
O O14 0.799400 0.000000 0.397479
O O15 0.990871 0.213452 0.751495
O O16 0.959065 0.000000 0.876650
O O17 0.000000 0.196990 0.000000
O O18 0.646062 0.000000 0.844890
O O19 0.000000 0.229807 0.500000
O O20 0.984437 0.000000 0.377166
O O21 0.161221 0.000000 0.251371
#
# Coordination Sequence:
#
# PCOD8105620 Si02
#       8
#     8   8   8   8   8   8   8   8
#     4   9  18  34  55  78 106 142 181 221 269 322
#     4  11  24  38  54  78 108 145 183 223 273 324
#     4   9  17  31  54  81 104 132 175 218 261 319
#     4   9  18  31  52  81 110 140 176 219 266 320
#     4  10  21  38  61  85 108 141 187 231 273 330
#     4   9  19  36  54  74 104 141 179 219 268 321
#     4   9  18  31  53  82 110 140 173 219 276 325
#     4  10  21  35  53  79 110 143 179 223 271 319
#
# _framework density 19.404699000000001
#
# number of rings (size 3 to 8) (size 9 to 14) (size 15 to 20)
#    0.000    2.500    0.000    1.500    1.750    3.750 
#    0.000    0.625    0.000    0.750    0.000    0.000 
#    0.000    0.000    0.000    0.000    0.000    0.000 
#
# Total GULP energy -396683.241910 kJ/mol
# GULP energy per Si atom -12396.351310 kJ/mol
# Density = 1.936053 g / cm^3
# Si number density = 19.404699 Si / 1000 Ang^3
#
#
#
# Elastic Constant Matrix: (Units=GPa)
#
#
# Indices 1 2 3 4 5 6 
#
# 1 105.2572 53.1953 26.1874 0.0000 7.6638 0.0000
# 2 53.1953 71.3132 23.9866 0.0000 8.7062 0.0000
# 3 26.1874 23.9866 71.8084 0.0000 -2.0969 0.0000
# 4 0.0000 0.0000 0.0000 22.9984 0.0000 2.5543
# 5 7.6638 8.7062 -2.0969 0.0000 23.3292 0.0000
# 6 0.0000 0.0000 0.0000 2.5543 0.0000 29.1942
#
#
#
# Elastic Compliance Matrix: (Units=1/GPa)
#
#
# Indices 1 2 3 4 5 6 
#
# 1 0.015541 -0.010720 -0.002125 0.000000 -0.001296 0.000000
# 2 -0.010720 0.024202 -0.004347 0.000000 -0.005901 0.000000
# 3 -0.002125 -0.004347 0.016263 0.000000 0.003782 0.000000
# 4 0.000000 0.000000 0.000000 0.043908 0.000000 -0.003842
# 5 -0.001296 -0.005901 0.003782 0.000000 0.045833 0.000000
# 6 0.000000 0.000000 0.000000 -0.003842 0.000000 0.034589
#
#
# Mechanical properties :
#
#
# Convention : Reuss Voigt Hill
#
# Bulk Modulus (GPa) = 46.24760 50.56859 48.40810
# Shear Modulus (GPa) = 22.52991 24.77166 23.65079
#
# Velocity S-wave (km/s) = 3.41112 3.57680 3.49494
# Velocity P-wave (km/s) = 6.27688 6.57074 6.42549
#
# Compressibility (1/GPa) = 0.02162274
#
# Stress axis : x y z
#
# Youngs Moduli (GPa) = 64.34524 41.31941 61.48814
#
# Poissons Ratio (x) = 0.44294 0.13064
# Poissons Ratio (y) = 0.68978 0.26730
# Poissons Ratio (z) = 0.13671 0.17962
#
# Static dielectric constant tensor:
#      x y z
#    x 3.664870 0.000000 -0.145710 
#    y 0.000000 3.429950 0.000000 
#    z -0.145710 0.000000 3.491080 
# 
# 
# High freq. dielectric constant tensor:
#      x y z
#    x 1.766300 0.000000 -0.010310 
#    y 0.000000 1.735600 0.000000 
#    z -0.010310 0.000000 1.747230 
# 
# From -- ./inp_files/187399.got.cif
#   From: 2010.06.25/outbox.cif.g09.slc.cpg/sg12_94_cif.got.tgz:187399.got - 2010.06.28 00:19:55.
