data_PCOD8105443
_publ_section_title
;
Structure prediction by ZEFSAII (Michael W. Deem and Ramdas Pophale) SiO2 
 PCOD8105443
Probable space group: C 2/M
;
_chemical_formula_sum "Si O2"
_cell_formula_units_Z 48
_cell_length_a 19.645454
_cell_length_b 20.539446
_cell_length_c 8.905996
_cell_angle_alpha 90.000000
_cell_angle_beta 42.333232
_cell_angle_gamma 90.000000
_cell_volume 2420.098804
_symmetry_space_group_name_H-M "C 2/M"
_symmetry_group_IT_number 12
_symmetry_cell_setting 'monoclinic'
loop_
_space_group_symop_operation_xyz
x,y,z
-x,y,-z
-x,-y,-z
x,-y,z
1/2+x,1/2+y,z
1/2-x,1/2+y,-z
1/2-x,1/2-y,-z
1/2+x,1/2-y,z
loop_
_atom_site_type_symbol
_atom_site_label
_atom_site_fract_x
_atom_site_fract_y
_atom_site_fract_z
Si Si1 0.748408 0.735564 0.176500
Si Si2 0.064519 0.427300 0.742769
Si Si3 0.231745 0.856624 0.649445
Si Si4 0.031540 0.696436 0.120775
Si Si5 0.946041 0.928655 0.928622
Si Si6 0.587663 0.677835 0.611890
O O1 0.724095 0.798182 0.320910
O O2 0.659285 0.683407 0.350297
O O3 0.750000 0.750000 0.000000
O O4 0.849285 0.699993 0.062341
O O5 0.068536 0.500000 0.662100
O O6 0.179685 0.399566 0.573254
O O7 0.006605 0.371613 0.738875
O O8 0.000000 0.433880 0.000000
O O9 0.156803 0.825903 0.648188
O O10 0.167075 0.901634 0.867517
O O11 0.983745 0.759451 0.272651
O O12 0.000000 0.693158 0.000000
O O13 0.014495 0.883783 0.709608
O O14 0.939842 0.000000 0.865079
O O15 0.000000 0.931661 0.000000
#
# Coordination Sequence:
#
# PCOD8105443 Si02
#       6
#     8   8   8   8   8   8
#     4  12  25  37  57  92 119 150 200 251 293 336
#     4  10  21  34  56  90 122 152 192 242 290 342
#     4  11  19  37  62  86 120 153 194 240 292 347
#     4  11  19  37  62  87 117 149 197 241 288 351
#     4   9  18  32  57  91 118 145 189 241 292 344
#     4  11  19  36  62  87 117 153 193 239 294 348
#
# _framework density 19.8339
#
# number of rings (size 3 to 8) (size 9 to 14) (size 15 to 20)
#    0.000    1.333    5.000    3.500    0.000    1.333 
#    0.000    0.833    0.000    6.000    0.000    0.000 
#    0.000    0.000    0.000    0.000    0.000    0.000 
#
# Total GULP energy -297374.939229 kJ/mol
# GULP energy per Si atom -12390.622468 kJ/mol
# Density = 1.978876 g / cm^3
# Si number density = 19.833900 Si / 1000 Ang^3
#
#
#
# Elastic Constant Matrix: (Units=GPa)
#
#
# Indices 1 2 3 4 5 6 
#
# 1 25.8099 13.9612 33.9562 0.0000 -5.6389 0.0000
# 2 13.9612 159.1532 61.0887 0.0000 -20.4270 0.0000
# 3 33.9562 61.0887 141.3414 0.0000 -29.2934 0.0000
# 4 0.0000 0.0000 0.0000 24.3599 0.0000 -12.6883
# 5 -5.6389 -20.4270 -29.2934 0.0000 36.2099 0.0000
# 6 0.0000 0.0000 0.0000 -12.6883 0.0000 6.7010
#
#
#
# Elastic Compliance Matrix: (Units=1/GPa)
#
#
# Indices 1 2 3 4 5 6 
#
# 1 0.056862 0.000154 -0.014266 0.000000 -0.002599 0.000000
# 2 0.000154 0.007649 -0.002936 0.000000 0.001964 0.000000
# 3 -0.014266 -0.002936 0.013177 0.000000 0.006782 0.000000
# 4 0.000000 0.000000 0.000000 2.987270 0.000000 5.656347
# 5 -0.002599 0.001964 0.006782 0.000000 0.033806 0.000000
# 6 0.000000 0.000000 0.000000 5.656347 0.000000 10.859432
#
#
# Mechanical properties :
#
#
# Convention : Reuss Voigt Hill
#
# Bulk Modulus (GPa) = 22.93970 60.47964 41.70967
# Shear Modulus (GPa) = 0.35697 27.94071 14.14884
#
# Velocity S-wave (km/s) = 0.42470 3.75738 2.67379
# Velocity P-wave (km/s) = 3.43970 7.02732 5.53239
#
# Compressibility (1/GPa) = 0.04359255
#
# Stress axis : x y z
#
# Youngs Moduli (GPa) = 17.58629 130.74185 75.89047
#
# Poissons Ratio (x) = -0.02016 1.08266
# Poissons Ratio (y) = -0.00271 0.22280
# Poissons Ratio (z) = 0.25089 0.38384
#
# Static dielectric constant tensor:
#      x y z
#    x 3.095950 0.000000 -0.412720 
#    y 0.000000 4.523420 0.000000 
#    z -0.412720 0.000000 3.830250 
# 
# 
# High freq. dielectric constant tensor:
#      x y z
#    x 1.719250 0.000000 -0.042250 
#    y 0.000000 1.785760 0.000000 
#    z -0.042250 0.000000 1.783750 
# 
# From -- ./inp_files/89433.got.cif
#   From: 2010.06.25/outbox.cif.g09.slc.cpg/sg12_45_cif.got.tgz:89433.got - 2010.06.28 00:19:55.
