data_PCOD8105194
_publ_section_title
;
Structure prediction by ZEFSAII (Michael W. Deem and Ramdas Pophale) SiO2 
 PCOD8105194
Probable space group: C 2/M
;
_chemical_formula_sum "Si O2"
_cell_formula_units_Z 44
_cell_length_a 27.619984
_cell_length_b 13.442311
_cell_length_c 16.265756
_cell_angle_alpha 90.000000
_cell_angle_beta 157.251144
_cell_angle_gamma 90.000000
_cell_volume 2335.271709
_symmetry_space_group_name_H-M "C 2/M"
_symmetry_group_IT_number 12
_symmetry_cell_setting 'monoclinic'
loop_
_space_group_symop_operation_xyz
x,y,z
-x,y,-z
-x,-y,-z
x,-y,z
1/2+x,1/2+y,z
1/2-x,1/2+y,-z
1/2-x,1/2-y,-z
1/2+x,1/2-y,z
loop_
_atom_site_type_symbol
_atom_site_label
_atom_site_fract_x
_atom_site_fract_y
_atom_site_fract_z
Si Si1 0.732800 0.291192 0.066325
Si Si2 0.317482 0.684766 0.356067
Si Si3 0.048278 0.383288 0.985809
Si Si4 0.492028 0.198791 0.735329
Si Si5 0.134811 0.500000 0.918285
Si Si6 0.352697 0.000000 0.247299
Si Si7 0.097480 0.000000 0.578362
O O1 0.801160 0.216445 0.235763
O O2 0.787655 0.399051 0.176254
O O3 0.750000 0.250000 0.000000
O O4 0.586836 0.288991 0.862437
O O5 0.365199 0.774559 0.488711
O O6 0.420069 0.596336 0.507448
O O7 0.192908 0.644873 0.204282
O O8 0.029461 0.500000 0.936118
O O9 0.968813 0.315889 0.796722
O O10 0.000000 0.355841 0.000000
O O11 0.549130 0.095970 0.793842
O O12 0.183817 0.500000 0.904008
O O13 0.255492 0.500000 0.165224
O O14 0.500000 0.000000 0.500000
O O15 0.000000 0.000000 0.500000
#
# Coordination Sequence:
#
# PCOD8105194 Si02
#       7
#     8   8   8   8   4   4   4
#     4  11  23  37  55  83 121 165 202 239 289 345
#     4  11  23  38  58  93 118 156 204 245 297 359
#     4  10  20  42  68  88 114 153 202 255 304 360
#     4  11  22  37  61  86 121 150 202 248 300 355
#     4  12  20  42  56  80 120 165 204 243 281 352
#     4  12  24  36  54  82 117 166 207 237 283 356
#     4  12  24  36  60  84 124 163 203 244 288 340
#
# _framework density 18.84149
#
# number of rings (size 3 to 8) (size 9 to 14) (size 15 to 20)
#    0.000    0.909    7.273    1.091    5.091    0.727 
#    0.000    0.000    0.000    0.000    0.000    3.818 
#    0.000    0.000    0.000    0.000    0.000    0.000 
#
# Total GULP energy -272592.699030 kJ/mol
# GULP energy per Si atom -12390.577229 kJ/mol
# Density = 1.879861 g / cm^3
# Si number density = 18.841490 Si / 1000 Ang^3
#
#
#
# Elastic Constant Matrix: (Units=GPa)
#
#
# Indices 1 2 3 4 5 6 
#
# 1 147.3117 47.2787 44.7224 0.0000 -4.9657 0.0000
# 2 47.2787 103.7342 34.2535 0.0000 4.8843 0.0000
# 3 44.7224 34.2535 67.3456 0.0000 -12.9616 0.0000
# 4 0.0000 0.0000 0.0000 32.9650 0.0000 -1.5970
# 5 -4.9657 4.8843 -12.9616 0.0000 24.9295 0.0000
# 6 0.0000 0.0000 0.0000 -1.5970 0.0000 30.7679
#
#
#
# Elastic Compliance Matrix: (Units=1/GPa)
#
#
# Indices 1 2 3 4 5 6 
#
# 1 0.009039 -0.002547 -0.004738 0.000000 -0.000164 0.000000
# 2 -0.002547 0.013149 -0.006212 0.000000 -0.006313 0.000000
# 3 -0.004738 -0.006212 0.023566 0.000000 0.012526 0.000000
# 4 0.000000 0.000000 0.000000 0.030412 0.000000 0.001578
# 5 -0.000164 -0.006313 0.012526 0.000000 0.047830 0.000000
# 6 0.000000 0.000000 0.000000 0.001578 0.000000 0.032583
#
#
# Mechanical properties :
#
#
# Convention : Reuss Voigt Hill
#
# Bulk Modulus (GPa) = 53.30721 63.43340 58.37030
# Shear Modulus (GPa) = 26.33990 30.54162 28.44076
#
# Velocity S-wave (km/s) = 3.74300 4.03050 3.88941
# Velocity P-wave (km/s) = 6.85813 7.44311 7.15660
#
# Compressibility (1/GPa) = 0.01875919
#
# Stress axis : x y z
#
# Youngs Moduli (GPa) = 110.63336 76.04974 42.43480
#
# Poissons Ratio (x) = 0.19372 0.20108
# Poissons Ratio (y) = 0.28181 0.26359
# Poissons Ratio (z) = 0.52424 0.47239
#
# Static dielectric constant tensor:
#      x y z
#    x 3.552800 0.000000 -0.172750 
#    y 0.000000 3.711000 0.000000 
#    z -0.172750 0.000000 3.501830 
# 
# 
# High freq. dielectric constant tensor:
#      x y z
#    x 1.722980 0.000000 -0.012170 
#    y 0.000000 1.744500 0.000000 
#    z -0.012170 0.000000 1.719530 
# 
# From -- ./inp_files/296734.got.cif
#   From: 2010.06.25/outbox.cif.g09.slc.cpg/sg12_149_cif.got.tgz:296734.got - 2010.06.28 00:19:55.
