data_PCOD8105009
_publ_section_title
;
Structure prediction by ZEFSAII (Michael W. Deem and Ramdas Pophale) SiO2 
 PCOD8105009
Probable space group: C 2/M
;
_chemical_formula_sum "Si O2"
_cell_formula_units_Z 40
_cell_length_a 19.090554
_cell_length_b 8.892249
_cell_length_c 11.950912
_cell_angle_alpha 90.000000
_cell_angle_beta 78.062941
_cell_angle_gamma 90.000000
_cell_volume 1984.891276
_symmetry_space_group_name_H-M "C 2/M"
_symmetry_group_IT_number 12
_symmetry_cell_setting 'monoclinic'
loop_
_space_group_symop_operation_xyz
x,y,z
-x,y,-z
-x,-y,-z
x,-y,z
1/2+x,1/2+y,z
1/2-x,1/2+y,-z
1/2-x,1/2-y,-z
1/2+x,1/2-y,z
loop_
_atom_site_type_symbol
_atom_site_label
_atom_site_fract_x
_atom_site_fract_y
_atom_site_fract_z
Si Si1 0.324389 0.325246 0.009053
Si Si2 0.048607 0.676953 0.169904
Si Si3 0.937613 0.828606 0.603145
Si Si4 0.600401 0.674575 0.789407
Si Si5 0.176135 0.829036 0.542801
O O1 0.319861 0.500000 0.979362
O O2 0.389661 0.253281 0.921642
O O3 0.250000 0.250000 0.000000
O O4 0.339233 0.301179 0.135988
O O5 0.052227 0.500000 0.150524
O O6 0.062815 0.715609 0.294033
O O7 0.971305 0.735431 0.155037
O O8 0.863911 0.813122 0.561365
O O9 0.000000 0.778045 0.500000
O O10 0.950411 0.000000 0.640638
O O11 0.578910 0.500000 0.785341
O O12 0.631150 0.739251 0.661802
O O13 0.250000 0.750000 0.500000
O O14 0.191809 0.000000 0.569508
#
# Coordination Sequence:
#
# PCOD8105009 Si02
#       5
#     8   8   8   8   8
#     4  11  25  44  67  93 125 164 208 260 315 370
#     4  12  25  40  64  95 128 164 208 260 307 369
#     4  10  20  40  66  90 122 164 207 252 307 371
#     4  10  22  44  67  89 122 166 211 256 310 372
#     4  10  22  39  62  92 126 162 201 252 313 371
#
# _framework density 20.152237
#
# number of rings (size 3 to 8) (size 9 to 14) (size 15 to 20)
#    0.000    1.400    2.000    3.000    2.800    6.000 
#    0.000    0.000    0.000    0.000    0.000    0.000 
#    0.000    0.000    0.000    0.000    0.000    0.000 
#
# Total GULP energy -248069.514687 kJ/mol
# GULP energy per Si atom -12403.475734 kJ/mol
# Density = 2.010637 g / cm^3
# Si number density = 20.152237 Si / 1000 Ang^3
#
#
#
# Elastic Constant Matrix: (Units=GPa)
#
#
# Indices 1 2 3 4 5 6 
#
# 1 136.8149 60.1224 44.2279 0.0000 -7.1614 0.0000
# 2 60.1224 111.7488 40.5275 0.0000 -1.3904 0.0000
# 3 44.2279 40.5275 78.1032 0.0000 5.6430 0.0000
# 4 0.0000 0.0000 0.0000 26.2837 0.0000 -1.7649
# 5 -7.1614 -1.3904 5.6430 0.0000 36.6475 0.0000
# 6 0.0000 0.0000 0.0000 -1.7649 0.0000 40.9378
#
#
#
# Elastic Compliance Matrix: (Units=1/GPa)
#
#
# Indices 1 2 3 4 5 6 
#
# 1 0.010583 -0.004216 -0.003987 0.000000 0.002522 0.000000
# 2 -0.004216 0.012766 -0.004259 0.000000 0.000316 0.000000
# 3 -0.003987 -0.004259 0.017535 0.000000 -0.003641 0.000000
# 4 0.000000 0.000000 0.000000 0.038157 0.000000 0.001645
# 5 0.002522 0.000316 -0.003641 0.000000 0.028352 0.000000
# 6 0.000000 0.000000 0.000000 0.001645 0.000000 0.024498
#
#
# Mechanical properties :
#
#
# Convention : Reuss Voigt Hill
#
# Bulk Modulus (GPa) = 62.66646 68.49140 65.57893
# Shear Modulus (GPa) = 30.83831 32.89306 31.86568
#
# Velocity S-wave (km/s) = 3.91611 4.04447 3.98080
# Velocity P-wave (km/s) = 7.18414 7.47470 7.33086
#
# Compressibility (1/GPa) = 0.01595750
#
# Stress axis : x y z
#
# Youngs Moduli (GPa) = 94.49154 78.33449 57.02988
#
# Poissons Ratio (x) = 0.33029 0.22739
# Poissons Ratio (y) = 0.39841 0.24291
# Poissons Ratio (z) = 0.37676 0.33365
#
# Static dielectric constant tensor:
#      x y z
#    x 3.829770 0.000000 0.416060 
#    y 0.000000 3.572040 0.000000 
#    z 0.416060 0.000000 5.848980 
# 
# 
# High freq. dielectric constant tensor:
#      x y z
#    x 1.799420 0.000000 0.004990 
#    y 0.000000 1.776860 0.000000 
#    z 0.004990 0.000000 1.798760 
# 
# From -- ./inp_files/151634.got.cif
#   From: 2010.06.25/outbox.cif.g09.slc.cpg/sg12_76_cif.got.tgz:151634.got - 2010.06.28 00:19:55.
