data_PCOD8105747
_publ_section_title
;
Structure prediction by ZEFSAII (Michael W. Deem and Ramdas Pophale) SiO2 
 PCOD8105747
Probable space group: C 2/M
;
_chemical_formula_sum "Si O2"
_cell_formula_units_Z 44
_cell_length_a 12.024139
_cell_length_b 20.949637
_cell_length_c 11.308196
_cell_angle_alpha 90.000000
_cell_angle_beta 55.830651
_cell_angle_gamma 90.000000
_cell_volume 2356.836412
_symmetry_space_group_name_H-M "C 2/M"
_symmetry_group_IT_number 12
_symmetry_cell_setting 'monoclinic'
loop_
_space_group_symop_operation_xyz
x,y,z
-x,y,-z
-x,-y,-z
x,-y,z
1/2+x,1/2+y,z
1/2-x,1/2+y,-z
1/2-x,1/2-y,-z
1/2+x,1/2-y,z
loop_
_atom_site_type_symbol
_atom_site_label
_atom_site_fract_x
_atom_site_fract_y
_atom_site_fract_z
Si Si1 0.000000 0.355299 0.500000
Si Si2 0.144139 0.264357 0.233893
Si Si3 0.146764 0.857998 0.362884
Si Si4 0.761532 0.573715 0.512568
Si Si5 0.034450 0.072073 0.214158
Si Si6 0.096424 0.810517 0.041422
O O1 0.050443 0.311990 0.362039
O O2 0.120087 0.398931 0.476769
O O3 0.208095 0.209454 0.280437
O O4 0.059597 0.226831 0.184178
O O5 0.253281 0.304135 0.096041
O O6 0.249110 0.887011 0.397637
O O7 0.000000 0.841398 0.500000
O O8 0.128082 0.909365 0.269591
O O9 0.792049 0.500000 0.464462
O O10 0.622749 0.580829 0.665242
O O11 0.070859 0.114676 0.079138
O O12 0.068851 0.000000 0.159477
O O13 0.000000 0.782229 0.000000
#
# Coordination Sequence:
#
# PCOD8105747 Si02
#       6
#     4   8   8   8   8   8
#     4  12  23  36  56  84 121 150 184 224 284 352
#     4  10  22  36  54  85 111 149 187 226 286 330
#     4   9  17  34  57  85 109 140 187 237 281 322
#     4  10  21  35  56  84 117 150 182 230 283 334
#     4   9  18  35  58  82 107 144 194 236 276 324
#     4  10  21  37  54  79 114 146 186 234 277 331
#
# _framework density 18.669094000000001
#
# number of rings (size 3 to 8) (size 9 to 14) (size 15 to 20)
#    0.000    2.182    0.909    1.909    2.545    3.273 
#    0.000    1.818    0.000    0.000    0.000    5.091 
#    0.000    0.000    0.000    0.000    0.000    0.000 
#
# Total GULP energy -272756.779047 kJ/mol
# GULP energy per Si atom -12398.035411 kJ/mol
# Density = 1.862660 g / cm^3
# Si number density = 18.669094 Si / 1000 Ang^3
#
#
#
# Elastic Constant Matrix: (Units=GPa)
#
#
# Indices 1 2 3 4 5 6 
#
# 1 95.7696 45.7027 21.3293 0.0000 16.7890 0.0000
# 2 45.7027 130.8676 51.4138 0.0000 5.0374 0.0000
# 3 21.3293 51.4138 83.7754 0.0000 11.6219 0.0000
# 4 0.0000 0.0000 0.0000 24.3920 0.0000 1.6673
# 5 16.7890 5.0374 11.6219 0.0000 22.7662 0.0000
# 6 0.0000 0.0000 0.0000 1.6673 0.0000 19.3349
#
#
#
# Elastic Compliance Matrix: (Units=1/GPa)
#
#
# Indices 1 2 3 4 5 6 
#
# 1 0.014359 -0.004923 0.000736 0.000000 -0.009875 0.000000
# 2 -0.004923 0.011778 -0.006583 0.000000 0.004385 0.000000
# 3 0.000736 -0.006583 0.016857 0.000000 -0.007691 0.000000
# 4 0.000000 0.000000 0.000000 0.041240 0.000000 -0.003556
# 5 -0.009875 0.004385 -0.007691 0.000000 0.054163 0.000000
# 6 0.000000 0.000000 0.000000 -0.003556 0.000000 0.052027
#
#
# Mechanical properties :
#
#
# Convention : Reuss Voigt Hill
#
# Bulk Modulus (GPa) = 46.61680 60.81157 53.71418
# Shear Modulus (GPa) = 22.81904 26.09641 24.45772
#
# Velocity S-wave (km/s) = 3.49992 3.74283 3.62341
# Velocity P-wave (km/s) = 6.43093 7.16397 6.80732
#
# Compressibility (1/GPa) = 0.02145150
#
# Stress axis : x y z
#
# Youngs Moduli (GPa) = 69.64514 84.90220 59.32406
#
# Poissons Ratio (x) = 0.41800 -0.04365
# Poissons Ratio (y) = 0.34289 0.39055
# Poissons Ratio (z) = -0.05124 0.55894
#
# Static dielectric constant tensor:
#      x y z
#    x 3.319700 0.000000 0.209480 
#    y 0.000000 3.529070 0.000000 
#    z 0.209480 0.000000 3.416140 
# 
# 
# High freq. dielectric constant tensor:
#      x y z
#    x 1.712910 0.000000 0.019580 
#    y 0.000000 1.732630 0.000000 
#    z 0.019580 0.000000 1.719190 
# 
# From -- ./inp_files/131552.got.cif
#   From: 2010.06.25/outbox.cif.g09.slc.cpg/sg12_66_cif.got.tgz:131552.got - 2010.06.28 00:19:55.
