data_PCOD8105876
_publ_section_title
;
Structure prediction by ZEFSAII (Michael W. Deem and Ramdas Pophale) SiO2 
 PCOD8105876
Probable space group: C 2/M
;
_chemical_formula_sum "Si O2"
_cell_formula_units_Z 44
_cell_length_a 10.433560
_cell_length_b 27.580994
_cell_length_c 7.763045
_cell_angle_alpha 90.000000
_cell_angle_beta 58.169015
_cell_angle_gamma 90.000000
_cell_volume 1897.985639
_symmetry_space_group_name_H-M "C 2/M"
_symmetry_group_IT_number 12
_symmetry_cell_setting 'monoclinic'
loop_
_space_group_symop_operation_xyz
x,y,z
-x,y,-z
-x,-y,-z
x,-y,z
1/2+x,1/2+y,z
1/2-x,1/2+y,-z
1/2-x,1/2-y,-z
1/2+x,1/2-y,z
loop_
_atom_site_type_symbol
_atom_site_label
_atom_site_fract_x
_atom_site_fract_y
_atom_site_fract_z
Si Si1 0.663376 0.944803 0.848389
Si Si2 0.079587 0.195893 0.120469
Si Si3 0.063156 0.304802 0.145069
Si Si4 0.000000 0.627986 0.500000
Si Si5 0.745861 0.055010 0.392235
Si Si6 0.961338 0.096980 0.715856
O O1 0.699189 0.939823 0.623329
O O2 0.788559 0.918174 0.878765
O O3 0.661070 0.000000 0.912954
O O4 0.500000 0.920546 0.000000
O O5 0.025920 0.248848 0.220588
O O6 0.021148 0.155143 0.293932
O O7 0.258108 0.190209 0.974011
O O8 0.000000 0.182527 0.000000
O O9 0.980307 0.338425 0.344680
O O10 0.000000 0.317348 0.000000
O O11 0.856965 0.593198 0.637642
O O12 0.920595 0.070360 0.240183
O O13 0.720123 0.000000 0.343962
O O14 0.000000 0.077250 0.500000
#
# Coordination Sequence:
#
# PCOD8105876 Si02
#       6
#     8   8   8   4   8   8
#     4   9  19  36  61  92 127 170 221 276 332 396
#     4  10  22  44  63  94 136 172 215 285 332 391
#     4  10  25  44  67  98 137 173 220 280 336 392
#     4  12  25  40  72  98 126 184 227 268 332 410
#     4  10  22  40  60  93 133 170 219 277 331 389
#     4  10  21  35  65  94 126 175 218 267 334 399
#
# _framework density 23.182472000000001
#
# number of rings (size 3 to 8) (size 9 to 14) (size 15 to 20)
#    0.000    2.000    0.000    1.909    8.909    2.182 
#    0.000    3.636    0.000    3.818    0.000    0.000 
#    0.000    0.000    0.000    0.000    0.000    0.000 
#
# Total GULP energy -272756.583742 kJ/mol
# GULP energy per Si atom -12398.026534 kJ/mol
# Density = 2.312971 g / cm^3
# Si number density = 23.182472 Si / 1000 Ang^3
#
#
#
# Elastic Constant Matrix: (Units=GPa)
#
#
# Indices 1 2 3 4 5 6 
#
# 1 169.1249 51.6127 37.6530 0.0000 -25.1916 0.0000
# 2 51.6127 157.0994 38.6940 0.0000 -3.4547 0.0000
# 3 37.6530 38.6940 54.0297 0.0000 -11.2197 0.0000
# 4 0.0000 0.0000 0.0000 32.1218 0.0000 -7.0901
# 5 -25.1916 -3.4547 -11.2197 0.0000 32.7864 0.0000
# 6 0.0000 0.0000 0.0000 -7.0901 0.0000 41.9667
#
#
#
# Elastic Compliance Matrix: (Units=1/GPa)
#
#
# Indices 1 2 3 4 5 6 
#
# 1 0.007862 -0.001665 -0.003303 0.000000 0.004735 0.000000
# 2 -0.001665 0.008123 -0.005108 0.000000 -0.002171 0.000000
# 3 -0.003303 -0.005108 0.025652 0.000000 0.005702 0.000000
# 4 0.000000 0.000000 0.000000 0.032337 0.000000 0.005463
# 5 0.004735 -0.002171 0.005702 0.000000 0.035861 0.000000
# 6 0.000000 0.000000 0.000000 0.005463 0.000000 0.024751
#
#
# Mechanical properties :
#
#
# Convention : Reuss Voigt Hill
#
# Bulk Modulus (GPa) = 46.54426 70.68593 58.61510
# Shear Modulus (GPa) = 30.88340 38.19462 34.53901
#
# Velocity S-wave (km/s) = 3.65387 4.06342 3.86408
# Velocity P-wave (km/s) = 6.15808 7.25069 6.72661
#
# Compressibility (1/GPa) = 0.02148492
#
# Stress axis : x y z
#
# Youngs Moduli (GPa) = 127.20139 123.11116 38.98303
#
# Poissons Ratio (x) = 0.20500 0.12876
# Poissons Ratio (y) = 0.21181 0.19911
# Poissons Ratio (z) = 0.42014 0.62881
#
# Static dielectric constant tensor:
#      x y z
#    x 4.434270 0.000000 -0.227950 
#    y 0.000000 4.410450 0.000000 
#    z -0.227950 0.000000 3.684580 
# 
# 
# High freq. dielectric constant tensor:
#      x y z
#    x 1.929560 0.000000 -0.011230 
#    y 0.000000 1.933260 0.000000 
#    z -0.011230 0.000000 1.881750 
# 
# From -- ./inp_files/53020.got.cif
#   From: 2010.06.25/outbox.cif.g09.slc.cpg/sg12_27_cif.got.tgz:53020.got - 2010.06.28 00:19:55.
