data_PCOD8105872
_publ_section_title
;
Structure prediction by ZEFSAII (Michael W. Deem and Ramdas Pophale) SiO2 
 PCOD8105872
Probable space group: C 2/M
;
_chemical_formula_sum "Si O2"
_cell_formula_units_Z 32
_cell_length_a 16.989447
_cell_length_b 20.334093
_cell_length_c 5.097576
_cell_angle_alpha 90.000000
_cell_angle_beta 84.182725
_cell_angle_gamma 90.000000
_cell_volume 1751.965086
_symmetry_space_group_name_H-M "C 2/M"
_symmetry_group_IT_number 12
_symmetry_cell_setting 'monoclinic'
loop_
_space_group_symop_operation_xyz
x,y,z
-x,y,-z
-x,-y,-z
x,-y,z
1/2+x,1/2+y,z
1/2-x,1/2+y,-z
1/2-x,1/2-y,-z
1/2+x,1/2-y,z
loop_
_atom_site_type_symbol
_atom_site_label
_atom_site_fract_x
_atom_site_fract_y
_atom_site_fract_z
Si Si1 0.283525 0.303333 0.691498
Si Si2 0.153187 0.634089 0.028171
Si Si3 0.449410 0.247419 0.778547
Si Si4 0.288665 0.925572 0.478437
O O1 0.250000 0.250000 0.500000
O O2 0.372367 0.291067 0.752598
O O3 0.283867 0.374737 0.543387
O O4 0.223452 0.310632 0.962009
O O5 0.074216 0.673510 0.127528
O O6 0.174237 0.583213 0.248784
O O7 0.143666 0.592252 0.762763
O O8 0.500000 0.243533 0.500000
O O9 0.500000 0.278992 0.000000
O O10 0.258349 0.000000 0.456099
#
# Coordination Sequence:
#
# PCOD8105872 Si02
#       4
#     8   8   8   8
#     4  10  21  38  62  88 114 150 197 247 279 338
#     4  10  21  37  59  82 120 144 200 235 282 335
#     4  12  23  34  57  91 122 149 184 242 299 342
#     4  10  21  35  63  86 111 148 201 242 278 330
#
# _framework density 18.265205999999999
#
# number of rings (size 3 to 8) (size 9 to 14) (size 15 to 20)
#    1.500    0.000    2.500    4.500    3.500    0.000 
#    0.000    0.000    0.000   16.500    0.000    0.000 
#    0.000    0.000    0.000    0.000    0.000    0.000 
#
# Total GULP energy -198242.071462 kJ/mol
# GULP energy per Si atom -12390.129466 kJ/mol
# Density = 1.822363 g / cm^3
# Si number density = 18.265206 Si / 1000 Ang^3
#
#
#
# Elastic Constant Matrix: (Units=GPa)
#
#
# Indices 1 2 3 4 5 6 
#
# 1 90.1737 21.5562 40.7766 0.0000 5.1136 0.0000
# 2 21.5562 97.5392 28.6827 0.0000 0.2079 0.0000
# 3 40.7766 28.6827 143.2477 0.0000 6.1549 0.0000
# 4 0.0000 0.0000 0.0000 19.5255 0.0000 10.8790
# 5 5.1136 0.2079 6.1549 0.0000 29.8152 0.0000
# 6 0.0000 0.0000 0.0000 10.8790 0.0000 11.2501
#
#
#
# Elastic Compliance Matrix: (Units=1/GPa)
#
#
# Indices 1 2 3 4 5 6 
#
# 1 0.013124 -0.001932 -0.003282 0.000000 -0.001560 0.000000
# 2 -0.001932 0.011182 -0.001715 0.000000 0.000607 0.000000
# 3 -0.003282 -0.001715 0.008308 0.000000 -0.001140 0.000000
# 4 0.000000 0.000000 0.000000 0.111046 0.000000 -0.107384
# 5 -0.001560 0.000607 -0.001140 0.000000 0.034039 0.000000
# 6 0.000000 0.000000 0.000000 -0.107384 0.000000 0.192730
#
#
# Mechanical properties :
#
#
# Convention : Reuss Voigt Hill
#
# Bulk Modulus (GPa) = 53.31726 56.99905 55.15815
# Shear Modulus (GPa) = 12.80280 28.11448 20.45864
#
# Velocity S-wave (km/s) = 2.65040 3.92757 3.35040
# Velocity P-wave (km/s) = 6.21451 7.20013 6.72540
#
# Compressibility (1/GPa) = 0.01875565
#
# Stress axis : x y z
#
# Youngs Moduli (GPa) = 76.19545 89.42666 120.37180
#
# Poissons Ratio (x) = 0.17277 0.39506
# Poissons Ratio (y) = 0.14721 0.20646
# Poissons Ratio (z) = 0.25007 0.15339
#
# Static dielectric constant tensor:
#      x y z
#    x 3.244240 0.000000 0.073060 
#    y 0.000000 3.195310 0.000000 
#    z 0.073060 0.000000 3.576060 
# 
# 
# High freq. dielectric constant tensor:
#      x y z
#    x 1.677390 0.000000 0.017220 
#    y 0.000000 1.690850 0.000000 
#    z 0.017220 0.000000 1.731720 
# 
# From -- ./inp_files/15533.got.cif
#   From: 2010.06.25/outbox.cif.g09.slc.cpg/sg12_8_cif.got.tgz:15533.got - 2010.06.28 00:19:55.
