data_PCOD8105841
_publ_section_title
;
Structure prediction by ZEFSAII (Michael W. Deem and Ramdas Pophale) SiO2 
 PCOD8105841
Probable space group: C 2/M
;
_chemical_formula_sum "Si O2"
_cell_formula_units_Z 32
_cell_length_a 5.243553
_cell_length_b 29.526290
_cell_length_c 14.465846
_cell_angle_alpha 90.000000
_cell_angle_beta 134.081695
_cell_angle_gamma 90.000000
_cell_volume 1608.842854
_symmetry_space_group_name_H-M "C 2/M"
_symmetry_group_IT_number 12
_symmetry_cell_setting 'monoclinic'
loop_
_space_group_symop_operation_xyz
x,y,z
-x,y,-z
-x,-y,-z
x,-y,z
1/2+x,1/2+y,z
1/2-x,1/2+y,-z
1/2-x,1/2-y,-z
1/2+x,1/2-y,z
loop_
_atom_site_type_symbol
_atom_site_label
_atom_site_fract_x
_atom_site_fract_y
_atom_site_fract_z
Si Si1 0.421460 0.051069 0.375585
Si Si2 0.957947 0.627500 0.253190
Si Si3 0.739853 0.405703 0.855781
Si Si4 0.797583 0.273105 0.650231
O O1 0.500000 0.065978 0.500000
O O2 0.620980 0.086229 0.356999
O O3 0.995471 0.053973 0.248706
O O4 0.555087 0.000000 0.390142
O O5 0.533895 0.630396 0.166228
O O6 0.024867 0.618515 0.162488
O O7 0.145798 0.673515 0.329216
O O8 0.000000 0.425585 0.000000
O O9 0.500000 0.262587 0.500000
O O10 0.661666 0.252418 0.713225
#
# Coordination Sequence:
#
# PCOD8105841 Si02
#       4
#     8   8   8   8
#     4   9  22  39  61  94 124 157 200 247 303 362
#     4  10  22  37  64  85 124 159 197 248 308 344
#     4  10  22  39  61  87 119 166 207 243 292 356
#     4  10  21  35  59  92 122 153 198 249 300 362
#
# _framework density 19.890070999999999
#
# number of rings (size 3 to 8) (size 9 to 14) (size 15 to 20)
#    1.500    0.750    0.000    2.250    3.500    2.500 
#    0.000    3.750    0.000   15.000    0.000    0.000 
#    0.000    0.000    0.000    0.000    0.000    0.000 
#
# Total GULP energy -198242.939022 kJ/mol
# GULP energy per Si atom -12390.183689 kJ/mol
# Density = 1.984480 g / cm^3
# Si number density = 19.890071 Si / 1000 Ang^3
#
#
#
# Elastic Constant Matrix: (Units=GPa)
#
#
# Indices 1 2 3 4 5 6 
#
# 1 161.3124 52.0514 38.6010 0.0000 -17.8483 0.0000
# 2 52.0514 123.4568 23.1334 0.0000 -12.0334 0.0000
# 3 38.6010 23.1334 91.2872 0.0000 -8.7251 0.0000
# 4 0.0000 0.0000 0.0000 9.3080 0.0000 7.6881
# 5 -17.8483 -12.0334 -8.7251 0.0000 17.3571 0.0000
# 6 0.0000 0.0000 0.0000 7.6881 0.0000 16.0862
#
#
#
# Elastic Compliance Matrix: (Units=1/GPa)
#
#
# Indices 1 2 3 4 5 6 
#
# 1 0.008156 -0.002471 -0.002295 0.000000 0.005521 0.000000
# 2 -0.002471 0.009697 -0.001064 0.000000 0.003647 0.000000
# 3 -0.002295 -0.001064 0.012499 0.000000 0.003185 0.000000
# 4 0.000000 0.000000 0.000000 0.177506 0.000000 -0.084836
# 5 0.005521 0.003647 0.003185 0.000000 0.067420 0.000000
# 6 0.000000 0.000000 0.000000 -0.084836 0.000000 0.102710
#
#
# Mechanical properties :
#
#
# Convention : Reuss Voigt Hill
#
# Bulk Modulus (GPa) = 53.49789 67.06977 60.28383
# Shear Modulus (GPa) = 12.63012 26.03497 19.33255
#
# Velocity S-wave (km/s) = 2.52265 3.62186 3.12103
# Velocity P-wave (km/s) = 5.95316 7.16128 6.58499
#
# Compressibility (1/GPa) = 0.01869233
#
# Stress axis : x y z
#
# Youngs Moduli (GPa) = 122.60255 103.12972 80.00628
#
# Poissons Ratio (x) = 0.25480 0.18363
# Poissons Ratio (y) = 0.30292 0.08512
# Poissons Ratio (z) = 0.28140 0.10972
#
# Static dielectric constant tensor:
#      x y z
#    x 3.832300 0.000000 -0.035020 
#    y 0.000000 3.269580 0.000000 
#    z -0.035020 0.000000 3.324230 
# 
# 
# High freq. dielectric constant tensor:
#      x y z
#    x 1.788330 0.000000 -0.004470 
#    y 0.000000 1.754240 0.000000 
#    z -0.004470 0.000000 1.752860 
# 
# From -- ./inp_files/115211.got.cif
#   From: 2010.06.25/outbox.cif.g09.slc.cpg/sg12_58_cif.got.tgz:115211.got - 2010.06.28 00:19:55.
