data_PCOD8105686
_publ_section_title
;
Structure prediction by ZEFSAII (Michael W. Deem and Ramdas Pophale) SiO2 
 PCOD8105686
Probable space group: C 2/M
;
_chemical_formula_sum "Si O2"
_cell_formula_units_Z 56
_cell_length_a 12.530693
_cell_length_b 19.275564
_cell_length_c 24.181877
_cell_angle_alpha 90.000000
_cell_angle_beta 152.887233
_cell_angle_gamma 90.000000
_cell_volume 2661.904346
_symmetry_space_group_name_H-M "C 2/M"
_symmetry_group_IT_number 12
_symmetry_cell_setting 'monoclinic'
loop_
_space_group_symop_operation_xyz
x,y,z
-x,y,-z
-x,-y,-z
x,-y,z
1/2+x,1/2+y,z
1/2-x,1/2+y,-z
1/2-x,1/2-y,-z
1/2+x,1/2-y,z
loop_
_atom_site_type_symbol
_atom_site_label
_atom_site_fract_x
_atom_site_fract_y
_atom_site_fract_z
Si Si1 0.981811 0.079458 0.184892
Si Si2 0.995148 0.868022 0.628867
Si Si3 0.772394 0.185962 0.630644
Si Si4 0.785304 0.667901 0.017037
Si Si5 0.410844 0.823871 0.744545
Si Si6 0.245537 0.075748 0.582213
Si Si7 0.352065 0.075443 0.870347
O O1 0.736858 0.081551 0.107001
O O2 0.186864 0.114867 0.315918
O O3 0.054494 0.000000 0.205167
O O4 0.938875 0.123137 0.107868
O O5 0.871809 0.815411 0.614371
O O6 0.790576 0.902589 0.498007
O O7 0.174138 0.828697 0.671136
O O8 0.127544 0.926364 0.726019
O O9 0.500000 0.204464 0.500000
O O10 0.923458 0.244154 0.731898
O O11 0.860915 0.652143 0.115165
O O12 0.998267 0.643181 0.076040
O O13 0.750000 0.750000 0.000000
O O14 0.414698 0.871316 0.691812
O O15 0.000000 0.073608 0.500000
O O16 0.364139 0.000000 0.638304
O O17 0.478576 0.000000 0.919997
#
# Coordination Sequence:
#
# PCOD8105686 Si02
#       7
#     8   8   8   8   8   8   8
#     4  10  21  38  59  84 114 151 196 245 290 343
#     4   9  19  34  56  84 116 150 189 235 296 346
#     4  11  22  37  58  84 119 153 195 241 291 352
#     4  11  20  34  54  80 118 148 182 234 296 349
#     4  10  21  35  54  83 118 150 191 237 291 355
#     4   9  17  31  53  82 114 145 182 231 283 340
#     4   9  18  33  58  88 112 141 187 242 295 342
#
# _framework density 21.037569999999999
#
# number of rings (size 3 to 8) (size 9 to 14) (size 15 to 20)
#    0.000    2.143    1.429    2.571    0.000    8.286 
#    0.000    0.000    0.000    0.000    0.000    0.000 
#    0.000   12.571    0.000    0.000    0.000    0.000 
#
# Total GULP energy -346978.990665 kJ/mol
# GULP energy per Si atom -12392.106809 kJ/mol
# Density = 2.098969 g / cm^3
# Si number density = 21.037570 Si / 1000 Ang^3
#
#
#
# Elastic Constant Matrix: (Units=GPa)
#
#
# Indices 1 2 3 4 5 6 
#
# 1 69.2427 41.5222 32.2393 0.0048 -27.1196 0.0009
# 2 41.5222 151.6898 40.3733 -0.0059 -28.9064 0.0026
# 3 32.2393 40.3733 86.0176 -0.0162 -41.8660 -0.0235
# 4 0.0048 -0.0059 -0.0162 34.5066 -0.0103 -6.7903
# 5 -27.1196 -28.9064 -41.8660 -0.0103 40.9373 0.0020
# 6 0.0009 0.0026 -0.0235 -6.7903 0.0020 23.5599
#
#
#
# Elastic Compliance Matrix: (Units=1/GPa)
#
#
# Indices 1 2 3 4 5 6 
#
# 1 0.021143 -0.003494 -0.001330 -0.000002 0.010179 -0.000003
# 2 -0.003494 0.008355 -0.001727 0.000001 0.001819 -0.000002
# 3 -0.001330 -0.001727 0.023718 0.000023 0.022156 0.000029
# 4 -0.000002 0.000001 0.000023 0.030722 0.000031 0.008855
# 5 0.010179 0.001819 0.022156 0.000031 0.055114 0.000026
# 6 -0.000003 -0.000002 0.000029 0.008855 0.000026 0.044997
#
#
# Mechanical properties :
#
#
# Convention : Reuss Voigt Hill
#
# Bulk Modulus (GPa) = 24.92823 59.46889 42.19856
# Shear Modulus (GPa) = 23.75043 32.65511 28.20277
#
# Velocity S-wave (km/s) = 3.36364 3.94411 3.66538
# Velocity P-wave (km/s) = 5.19235 7.00504 6.16568
#
# Compressibility (1/GPa) = 0.04011516
#
# Stress axis : x y z
#
# Youngs Moduli (GPa) = 47.29666 119.68919 42.16209
#
# Poissons Ratio (x) = 0.41816 0.05609
# Poissons Ratio (y) = 0.16524 0.07279
# Poissons Ratio (z) = 0.06292 0.20665
#
# Static dielectric constant tensor:
#      x y z
#    x 3.623530 0.000010 -0.546500 
#    y 0.000010 3.851550 -0.000020 
#    z -0.546500 -0.000020 3.983310 
# 
# 
# High freq. dielectric constant tensor:
#      x y z
#    x 1.787950 0.000000 -0.047300 
#    y 0.000000 1.826450 0.000000 
#    z -0.047300 0.000000 1.828170 
# 
# From -- ./inp_files/336796.got.cif
#   From: 2010.06.25/outbox.cif.g09.slc.cpg/sg12_169_cif.got.tgz:336796.got - 2010.06.28 00:19:55.
