data_PCOD8105237
_publ_section_title
;
Structure prediction by ZEFSAII (Michael W. Deem and Ramdas Pophale) SiO2 
 PCOD8105237
Probable space group: C 2/M
;
_chemical_formula_sum "Si O2"
_cell_formula_units_Z 56
_cell_length_a 35.515321
_cell_length_b 18.338236
_cell_length_c 5.308781
_cell_angle_alpha 90.000000
_cell_angle_beta 70.672553
_cell_angle_gamma 90.000000
_cell_volume 3262.688488
_symmetry_space_group_name_H-M "C 2/M"
_symmetry_group_IT_number 12
_symmetry_cell_setting 'monoclinic'
loop_
_space_group_symop_operation_xyz
x,y,z
-x,y,-z
-x,-y,-z
x,-y,z
1/2+x,1/2+y,z
1/2-x,1/2+y,-z
1/2-x,1/2-y,-z
1/2+x,1/2-y,z
loop_
_atom_site_type_symbol
_atom_site_label
_atom_site_fract_x
_atom_site_fract_y
_atom_site_fract_z
Si Si1 0.908713 0.413419 0.194166
Si Si2 0.832861 0.682104 0.278893
Si Si3 0.182379 0.917754 0.341529
Si Si4 0.044384 0.414029 0.407998
Si Si5 0.321672 0.332016 0.173948
Si Si6 0.737079 0.805489 0.242455
Si Si7 0.226801 0.580293 0.890335
O O1 0.899268 0.500000 0.213975
O O2 0.868697 0.366542 0.302223
O O3 0.934398 0.390597 0.380407
O O4 0.931199 0.388020 0.890906
O O5 0.846446 0.754960 0.095427
O O6 0.806167 0.718208 0.559814
O O7 0.802587 0.630866 0.199153
O O8 0.161159 0.879497 0.629965
O O9 0.228723 0.921474 0.319144
O O10 0.165582 0.000000 0.345269
O O11 0.174403 0.874379 0.099327
O O12 0.040532 0.500000 0.404644
O O13 0.000000 0.379348 0.500000
O O14 0.275193 0.309837 0.343763
O O15 0.750000 0.750000 0.000000
O O16 0.730244 0.888234 0.162771
O O17 0.207761 0.500000 0.945145
#
# Coordination Sequence:
#
# PCOD8105237 Si02
#       7
#     8   8   8   8   8   8   8
#     4  10  22  34  51  79 107 133 169 218 267 306
#     4  12  22  33  49  70 103 129 170 213 273 317
#     4  10  21  36  51  69  87 115 174 226 255 293
#     4   9  18  36  57  74  97 134 176 211 247 308
#     4  11  21  34  53  68  90 131 170 210 265 310
#     4  11  21  35  49  65  89 134 181 216 258 324
#     4  10  21  32  46  64  91 127 166 217 270 305
#
# _framework density 17.163758999999999
#
# number of rings (size 3 to 8) (size 9 to 14) (size 15 to 20)
#    0.000    1.571    2.857    3.429    2.000    3.429 
#    0.000    0.000    0.000    0.000    0.000    0.000 
#    0.000    0.000    0.000    0.000    0.000   50.000 
#
# Total GULP energy -346914.648934 kJ/mol
# GULP energy per Si atom -12389.808891 kJ/mol
# Density = 1.712469 g / cm^3
# Si number density = 17.163759 Si / 1000 Ang^3
#
#
#
# Elastic Constant Matrix: (Units=GPa)
#
#
# Indices 1 2 3 4 5 6 
#
# 1 77.3645 41.8252 42.9077 0.0000 7.5129 0.0000
# 2 41.8252 120.3825 35.9902 0.0000 11.0180 0.0000
# 3 42.9077 35.9902 89.9177 0.0000 15.7842 0.0000
# 4 0.0000 0.0000 0.0000 16.7558 0.0000 3.4634
# 5 7.5129 11.0180 15.7842 0.0000 20.3540 0.0000
# 6 0.0000 0.0000 0.0000 3.4634 0.0000 17.6890
#
#
#
# Elastic Compliance Matrix: (Units=1/GPa)
#
#
# Indices 1 2 3 4 5 6 
#
# 1 0.019576 -0.004609 -0.007716 0.000000 0.001253 0.000000
# 2 -0.004609 0.010634 -0.001557 0.000000 -0.002848 0.000000
# 3 -0.007716 -0.001557 0.017108 0.000000 -0.009576 0.000000
# 4 0.000000 0.000000 0.000000 0.062198 0.000000 -0.012178
# 5 0.001253 -0.002848 -0.009576 0.000000 0.057635 0.000000
# 6 0.000000 0.000000 0.000000 -0.012178 0.000000 0.058917
#
#
# Mechanical properties :
#
#
# Convention : Reuss Voigt Hill
#
# Bulk Modulus (GPa) = 51.14509 58.79011 54.96760
# Shear Modulus (GPa) = 19.20493 22.08921 20.64707
#
# Velocity S-wave (km/s) = 3.34866 3.59133 3.47211
# Velocity P-wave (km/s) = 6.69435 7.17800 6.94039
#
# Compressibility (1/GPa) = 0.01955222
#
# Stress axis : x y z
#
# Youngs Moduli (GPa) = 51.08420 94.03450 58.45341
#
# Poissons Ratio (x) = 0.43341 0.45105
# Poissons Ratio (y) = 0.23545 0.09102
# Poissons Ratio (z) = 0.39419 0.14643
#
# Static dielectric constant tensor:
#      x y z
#    x 3.058840 0.000000 0.173020 
#    y 0.000000 3.518580 0.000000 
#    z 0.173020 0.000000 3.331740 
# 
# 
# High freq. dielectric constant tensor:
#      x y z
#    x 1.621240 0.000000 0.040000 
#    y 0.000000 1.661000 0.000000 
#    z 0.040000 0.000000 1.653140 
# 
# From -- ./inp_files/31976.got.cif
#   From: 2010.06.25/outbox.cif.g09.slc.cpg/sg12_16_cif.got.tgz:31976.got - 2010.06.28 00:19:55.
