data_PCOD8105633
_publ_section_title
;
Structure prediction by ZEFSAII (Michael W. Deem and Ramdas Pophale) SiO2 
 PCOD8105633
Probable space group: C 2/M
;
_chemical_formula_sum "Si O2"
_cell_formula_units_Z 48
_cell_length_a 23.235167
_cell_length_b 8.569268
_cell_length_c 12.355530
_cell_angle_alpha 90.000000
_cell_angle_beta 75.209027
_cell_angle_gamma 90.000000
_cell_volume 2378.571022
_symmetry_space_group_name_H-M "C 2/M"
_symmetry_group_IT_number 12
_symmetry_cell_setting 'monoclinic'
loop_
_space_group_symop_operation_xyz
x,y,z
-x,y,-z
-x,-y,-z
x,-y,z
1/2+x,1/2+y,z
1/2-x,1/2+y,-z
1/2-x,1/2-y,-z
1/2+x,1/2-y,z
loop_
_atom_site_type_symbol
_atom_site_label
_atom_site_fract_x
_atom_site_fract_y
_atom_site_fract_z
Si Si1 0.041131 0.679780 0.882342
Si Si2 0.238535 0.817033 0.124360
Si Si3 0.124057 0.817958 0.559367
Si Si4 0.504413 0.681997 0.304423
Si Si5 0.132504 0.185419 0.320840
Si Si6 0.337977 0.317620 0.228072
O O1 0.061484 0.500000 0.878408
O O2 0.098399 0.791440 0.858385
O O3 0.001306 0.709948 0.796903
O O4 0.000000 0.729560 0.000000
O O5 0.177415 0.749588 0.207212
O O6 0.290067 0.778327 0.184129
O O7 0.233873 0.000000 0.111634
O O8 0.250000 0.750000 0.000000
O O9 0.149818 0.750289 0.433365
O O10 0.156991 0.749107 0.650632
O O11 0.052911 0.786605 0.592475
O O12 0.135915 0.000000 0.560330
O O13 0.507458 0.500000 0.269950
O O14 0.565014 0.737953 0.331806
O O15 0.136805 0.000000 0.321420
O O16 0.321902 0.500000 0.232237
#
# Coordination Sequence:
#
# PCOD8105633 Si02
#       6
#     8   8   8   8   8   8
#     4  10  21  35  53  80 112 149 185 228 282 331
#     4  11  24  40  57  80 113 153 194 236 277 327
#     4   8  15  31  57  87 114 139 179 232 282 334
#     4   9  17  31  55  86 114 143 181 228 277 334
#     4   9  18  33  56  85 113 148 188 227 277 334
#     4  10  21  38  60  83 109 145 187 234 281 332
#
# _framework density 20.180181999999999
#
# number of rings (size 3 to 8) (size 9 to 14) (size 15 to 20)
#    0.000    2.500    0.000    3.000    2.333    4.000 
#    0.000    0.833    0.000   18.000    0.000    0.000 
#    0.000    0.000    0.000    0.000    0.000    0.000 
#
# Total GULP energy -297427.602216 kJ/mol
# GULP energy per Si atom -12392.816759 kJ/mol
# Density = 2.013425 g / cm^3
# Si number density = 20.180182 Si / 1000 Ang^3
#
#
#
# Elastic Constant Matrix: (Units=GPa)
#
#
# Indices 1 2 3 4 5 6 
#
# 1 105.6142 7.4157 70.4165 0.0000 15.7108 0.0000
# 2 7.4157 24.6166 23.4201 0.0000 -2.4273 0.0000
# 3 70.4165 23.4201 143.1156 0.0000 -12.3895 0.0000
# 4 0.0000 0.0000 0.0000 21.4408 0.0000 4.0752
# 5 15.7108 -2.4273 -12.3895 0.0000 16.5806 0.0000
# 6 0.0000 0.0000 0.0000 4.0752 0.0000 27.3743
#
#
#
# Elastic Compliance Matrix: (Units=1/GPa)
#
#
# Indices 1 2 3 4 5 6 
#
# 1 0.025190 0.004299 -0.016154 0.000000 -0.035310 0.000000
# 2 0.004299 0.048872 -0.010527 0.000000 -0.004785 0.000000
# 3 -0.016154 -0.010527 0.019085 0.000000 0.028026 0.000000
# 4 0.000000 0.000000 0.000000 0.047998 0.000000 -0.007146
# 5 -0.035310 -0.004785 0.028026 0.000000 0.114011 0.000000
# 6 0.000000 0.000000 0.000000 -0.007146 0.000000 0.037594
#
#
# Mechanical properties :
#
#
# Convention : Reuss Voigt Hill
#
# Bulk Modulus (GPa) = 20.66912 52.87233 36.77073
# Shear Modulus (GPa) = 14.13862 24.55207 19.34534
#
# Velocity S-wave (km/s) = 2.64979 3.49182 3.09954
# Velocity P-wave (km/s) = 4.43017 6.52029 5.57407
#
# Compressibility (1/GPa) = 0.04838135
#
# Stress axis : x y z
#
# Youngs Moduli (GPa) = 39.69866 20.46179 52.39813
#
# Poissons Ratio (x) = -0.08797 0.84646
# Poissons Ratio (y) = -0.17067 0.55160
# Poissons Ratio (z) = 0.64130 0.21540
#
# Static dielectric constant tensor:
#      x y z
#    x 3.694830 0.000000 0.004510 
#    y 0.000000 3.322150 0.000000 
#    z 0.004510 0.000000 4.319210 
# 
# 
# High freq. dielectric constant tensor:
#      x y z
#    x 1.785760 0.000000 0.004380 
#    y 0.000000 1.751810 0.000000 
#    z 0.004380 0.000000 1.801190 
# 
# From -- ./inp_files/172382.got.cif
#   From: 2010.06.25/outbox.cif.g09.slc.cpg/sg12_87_cif.got.tgz:172382.got - 2010.06.28 00:19:55.
