data_PCOD8105132
_publ_section_title
;
Structure prediction by ZEFSAII (Michael W. Deem and Ramdas Pophale) SiO2 
 PCOD8105132
Probable space group: C 2/M
;
_chemical_formula_sum "Si O2"
_cell_formula_units_Z 64
_cell_length_a 14.500424
_cell_length_b 15.644037
_cell_length_c 17.192423
_cell_angle_alpha 90.000000
_cell_angle_beta 47.767373
_cell_angle_gamma 90.000000
_cell_volume 2887.659076
_symmetry_space_group_name_H-M "C 2/M"
_symmetry_group_IT_number 12
_symmetry_cell_setting 'monoclinic'
loop_
_space_group_symop_operation_xyz
x,y,z
-x,y,-z
-x,-y,-z
x,-y,z
1/2+x,1/2+y,z
1/2-x,1/2+y,-z
1/2-x,1/2-y,-z
1/2+x,1/2-y,z
loop_
_atom_site_type_symbol
_atom_site_label
_atom_site_fract_x
_atom_site_fract_y
_atom_site_fract_z
Si Si1 0.352876 0.744976 0.507543
Si Si2 0.019538 0.093871 0.351825
Si Si3 0.991428 0.154260 0.810211
Si Si4 0.741706 0.826431 0.726775
Si Si5 0.214038 0.850606 0.797257
Si Si6 0.011922 0.596229 0.377413
Si Si7 0.500833 0.850600 0.210764
Si Si8 0.273429 0.402049 0.035499
O O1 0.250000 0.750000 0.500000
O O2 0.443369 0.666202 0.439062
O O3 0.288003 0.727078 0.625681
O O4 0.429085 0.834122 0.470462
O O5 0.007060 0.094847 0.266058
O O6 0.163446 0.104456 0.294132
O O7 0.974864 0.000000 0.405216
O O8 0.102069 0.122625 0.803744
O O9 0.009143 0.249667 0.768331
O O10 0.861284 0.152300 0.929495
O O11 0.720571 0.752458 0.803127
O O12 0.613268 0.876649 0.781075
O O13 0.342361 0.887695 0.690085
O O14 0.188506 0.887713 0.896799
O O15 0.976900 0.500000 0.425342
O O16 0.983484 0.601915 0.302030
O O17 0.631309 0.875841 0.098034
O O18 0.293297 0.500000 0.002638
#
# Coordination Sequence:
#
# PCOD8105132 Si02
#       8
#     8   8   8   8   8   8   8   8
#     4  12  23  46  68  93 134 172 217 283 337 391
#     4  12  26  43  66  95 133 179 227 272 325 397
#     4  11  22  42  67  94 134 182 221 270 338 402
#     4  11  23  42  69  89 133 175 222 276 329 398
#     4  10  21  40  66  95 130 175 215 278 339 395
#     4  11  22  40  68  98 131 168 218 277 338 394
#     4  10  20  41  66  94 128 175 217 276 332 395
#     4  11  23  39  65  99 135 168 221 287 337 400
#
# _framework density 22.163281000000001
#
# number of rings (size 3 to 8) (size 9 to 14) (size 15 to 20)
#    0.000    1.000    3.750    4.500    0.000    5.000 
#    0.000    3.750    0.000    1.500    0.000    0.000 
#    0.000    0.000    0.000    0.000    0.000    0.000 
#
# Total GULP energy -396890.324664 kJ/mol
# GULP energy per Si atom -12402.822646 kJ/mol
# Density = 2.211284 g / cm^3
# Si number density = 22.163281 Si / 1000 Ang^3
#
#
#
# Elastic Constant Matrix: (Units=GPa)
#
#
# Indices 1 2 3 4 5 6 
#
# 1 117.6122 36.6164 16.8915 0.0000 -21.9958 0.0000
# 2 36.6164 117.1343 22.0020 0.0000 -7.6847 0.0000
# 3 16.8915 22.0020 63.6328 0.0000 -14.5856 0.0000
# 4 0.0000 0.0000 0.0000 -0.8733 0.0000 2.6673
# 5 -21.9958 -7.6847 -14.5856 0.0000 24.4023 0.0000
# 6 0.0000 0.0000 0.0000 2.6673 0.0000 15.7573
#
#
#
# Elastic Compliance Matrix: (Units=1/GPa)
#
#
# Indices 1 2 3 4 5 6 
#
# 1 0.011100 -0.002897 0.000162 0.000000 0.009190 0.000000
# 2 -0.002897 0.009914 -0.002945 0.000000 -0.001250 0.000000
# 3 0.000162 -0.002945 0.019133 0.000000 0.010654 0.000000
# 4 0.000000 0.000000 0.000000 -0.754815 0.000000 0.127773
# 5 0.009190 -0.001250 0.010654 0.000000 0.055237 0.000000
# 6 0.000000 0.000000 0.000000 0.127773 0.000000 0.041834
#
#
# Mechanical properties :
#
#
# Convention : Reuss Voigt Hill
#
# Bulk Modulus (GPa) = 34.74065 49.93321 42.33693
# Shear Modulus (GPa) = -8.38027 22.71522 7.16747
#
# Velocity S-wave (km/s) = -1.94663 3.20488 1.80027
# Velocity P-wave (km/s) = 3.26442 6.02276 4.84407
#
# Compressibility (1/GPa) = 0.02878473
#
# Stress axis : x y z
#
# Youngs Moduli (GPa) = 90.09046 100.86577 52.26648
#
# Poissons Ratio (x) = 0.29224 -0.00845
# Poissons Ratio (y) = 0.26102 0.15394
# Poissons Ratio (z) = -0.01456 0.29709
#
# Static dielectric constant tensor:
#      x y z
#    x 4.386100 0.000000 -0.214320 
#    y 0.000000 3.902030 0.000000 
#    z -0.214320 0.000000 3.915930 
# 
# 
# High freq. dielectric constant tensor:
#      x y z
#    x 1.888680 0.000000 -0.008210 
#    y 0.000000 1.867400 0.000000 
#    z -0.008210 0.000000 1.861750 
# 
# From -- ./inp_files/270672.got.cif
#   From: 2010.06.25/outbox.cif.g09.slc.cpg/sg12_136_cif.got.tgz:270672.got - 2010.06.28 00:19:55.
