data_PCOD8105474
_publ_section_title
;
Structure prediction by ZEFSAII (Michael W. Deem and Ramdas Pophale) SiO2 
 PCOD8105474
Probable space group: C 2/M
;
_chemical_formula_sum "Si O2"
_cell_formula_units_Z 56
_cell_length_a 25.308265
_cell_length_b 9.449817
_cell_length_c 17.796272
_cell_angle_alpha 90.000000
_cell_angle_beta 134.600296
_cell_angle_gamma 90.000000
_cell_volume 3030.459431
_symmetry_space_group_name_H-M "C 2/M"
_symmetry_group_IT_number 12
_symmetry_cell_setting 'monoclinic'
loop_
_space_group_symop_operation_xyz
x,y,z
-x,y,-z
-x,-y,-z
x,-y,z
1/2+x,1/2+y,z
1/2-x,1/2+y,-z
1/2-x,1/2-y,-z
1/2+x,1/2-y,z
loop_
_atom_site_type_symbol
_atom_site_label
_atom_site_fract_x
_atom_site_fract_y
_atom_site_fract_z
Si Si1 0.339885 0.345188 0.936414
Si Si2 0.923943 0.665761 0.455772
Si Si3 0.335178 0.842600 0.225548
Si Si4 0.826403 0.666223 0.492950
Si Si5 0.322875 0.165133 0.660776
Si Si6 0.419045 0.833553 0.897288
Si Si7 0.674694 0.663952 0.916748
O O1 0.364645 0.500000 0.930688
O O2 0.252564 0.340809 0.860188
O O3 0.362539 0.224057 0.902365
O O4 0.373076 0.320755 0.053792
O O5 0.937576 0.500000 0.478107
O O6 0.861085 0.705235 0.333262
O O7 0.893725 0.721317 0.506545
O O8 0.000000 0.736613 0.500000
O O9 0.368718 0.735144 0.196597
O O10 0.365230 0.000000 0.236503
O O11 0.811201 0.500000 0.464681
O O12 0.750963 0.746540 0.394845
O O13 0.849496 0.697763 0.602242
O O14 0.389504 0.209442 0.784600
O O15 0.303487 0.000000 0.651335
O O16 0.420656 0.000000 0.907650
O O17 0.500000 0.770414 0.000000
O O18 0.692126 0.500000 0.916811
O O19 0.750000 0.750000 0.000000
#
# Coordination Sequence:
#
# PCOD8105474 Si02
#       7
#     8   8   8   8   8   8   8
#     4   9  18  32  50  71  96 128 168 207 241 288
#     4   9  17  30  48  75 105 131 166 207 248 298
#     4   9  17  30  49  74 100 128 167 208 244 289
#     4   9  17  32  55  77  99 130 170 214 252 292
#     4   9  18  33  53  76 101 130 167 211 257 299
#     4  10  21  35  48  71 105 132 162 205 253 306
#     4   9  17  30  48  71  98 124 159 201 240 287
#
# _framework density 18.479046
#
# number of rings (size 3 to 8) (size 9 to 14) (size 15 to 20)
#    0.000    2.857    0.000    2.143    0.000    4.857 
#    2.571    0.714    0.000    1.714    0.000    0.000 
#    0.000    0.000    0.000    0.000    0.000    0.000 
#
# Total GULP energy -346917.502101 kJ/mol
# GULP energy per Si atom -12389.910789 kJ/mol
# Density = 1.843699 g / cm^3
# Si number density = 18.479046 Si / 1000 Ang^3
#
#
#
# Elastic Constant Matrix: (Units=GPa)
#
#
# Indices 1 2 3 4 5 6 
#
# 1 116.3996 33.5536 65.1440 0.0000 -22.1484 0.0000
# 2 33.5536 48.7399 38.8736 0.0000 -10.8698 0.0000
# 3 65.1440 38.8736 107.1573 0.0000 -18.2037 0.0000
# 4 0.0000 0.0000 0.0000 19.5313 0.0000 -8.8569
# 5 -22.1484 -10.8698 -18.2037 0.0000 23.4882 0.0000
# 6 0.0000 0.0000 0.0000 -8.8569 0.0000 24.2013
#
#
#
# Elastic Compliance Matrix: (Units=1/GPa)
#
#
# Indices 1 2 3 4 5 6 
#
# 1 0.014480 -0.003263 -0.006398 0.000000 0.007185 0.000000
# 2 -0.003263 0.030369 -0.008256 0.000000 0.004579 0.000000
# 3 -0.006398 -0.008256 0.016748 0.000000 0.003126 0.000000
# 4 0.000000 0.000000 0.000000 0.061388 0.000000 0.022466
# 5 0.007185 0.004579 0.003126 0.000000 0.053892 0.000000
# 6 0.000000 0.000000 0.000000 0.022466 0.000000 0.049542
#
#
# Mechanical properties :
#
#
# Convention : Reuss Voigt Hill
#
# Bulk Modulus (GPa) = 38.81533 60.82658 49.82096
# Shear Modulus (GPa) = 18.46121 22.42586 20.44353
#
# Velocity S-wave (km/s) = 3.16418 3.48743 3.32973
# Velocity P-wave (km/s) = 5.86515 7.01457 6.46546
#
# Compressibility (1/GPa) = 0.02576302
#
# Stress axis : x y z
#
# Youngs Moduli (GPa) = 69.06234 32.92853 59.70930
#
# Poissons Ratio (x) = 0.10743 0.38205
# Poissons Ratio (y) = 0.22532 0.49294
# Poissons Ratio (z) = 0.44189 0.27185
#
# Static dielectric constant tensor:
#      x y z
#    x 3.594910 0.000000 -0.424880 
#    y 0.000000 3.417030 0.000000 
#    z -0.424880 0.000000 3.735680 
# 
# 
# High freq. dielectric constant tensor:
#      x y z
#    x 1.703910 0.000000 -0.026960 
#    y 0.000000 1.697690 0.000000 
#    z -0.026960 0.000000 1.714960 
# 
# From -- ./inp_files/288487.got.cif
#   From: 2010.06.25/outbox.cif.g09.slc.cpg/sg12_145_cif.got.tgz:288487.got - 2010.06.28 00:19:55.
