data_PCOD8105928
_publ_section_title
;
Structure prediction by ZEFSAII (Michael W. Deem and Ramdas Pophale) SiO2 
 PCOD8105928
Probable space group: C 2/M
;
_chemical_formula_sum "Si O2"
_cell_formula_units_Z 64
_cell_length_a 20.753749
_cell_length_b 8.975069
_cell_length_c 24.436216
_cell_angle_alpha 90.000000
_cell_angle_beta 51.976884
_cell_angle_gamma 90.000000
_cell_volume 3585.613751
_symmetry_space_group_name_H-M "C 2/M"
_symmetry_group_IT_number 12
_symmetry_cell_setting 'monoclinic'
loop_
_space_group_symop_operation_xyz
x,y,z
-x,y,-z
-x,-y,-z
x,-y,z
1/2+x,1/2+y,z
1/2-x,1/2+y,-z
1/2-x,1/2-y,-z
1/2+x,1/2-y,z
loop_
_atom_site_type_symbol
_atom_site_label
_atom_site_fract_x
_atom_site_fract_y
_atom_site_fract_z
Si Si1 0.488026 0.823448 0.417725
Si Si2 0.722758 0.823758 0.204042
Si Si3 0.034292 0.176025 0.787739
Si Si4 0.784513 0.822981 0.289844
Si Si5 0.368331 0.173872 0.076102
Si Si6 0.373840 0.823683 0.571090
Si Si7 0.012344 0.673298 0.081107
Si Si8 0.047955 0.823562 0.281797
O O1 0.406881 0.773528 0.494198
O O2 0.566535 0.770024 0.411509
O O3 0.488451 0.735824 0.360583
O O4 0.489709 0.000000 0.405710
O O5 0.757611 0.768654 0.243979
O O6 0.785914 0.769690 0.124558
O O7 0.636120 0.749747 0.239131
O O8 0.711924 0.000000 0.207150
O O9 0.126622 0.242479 0.741685
O O10 0.981312 0.237427 0.865831
O O11 0.992710 0.227890 0.753585
O O12 0.036598 0.000000 0.791564
O O13 0.717673 0.763197 0.369087
O O14 0.786889 0.000000 0.290089
O O15 0.432456 0.224109 0.089136
O O16 0.347683 0.000000 0.092816
O O17 0.406729 0.207942 0.996618
O O18 0.375847 0.000000 0.571732
O O19 0.006631 0.500000 0.097568
O O20 0.056167 0.000000 0.281663
#
# Coordination Sequence:
#
# PCOD8105928 Si02
#       8
#     8   8   8   8   8   8   8   8
#     4   9  16  30  53  78 101 132 176 216 257 312
#     4  11  20  33  57  82 102 133 181 224 254 303
#     4  10  21  36  53  75 106 143 179 215 259 310
#     4   9  16  30  53  79 101 128 173 222 259 295
#     4   9  18  33  53  81 113 137 163 210 272 316
#     4   8  14  27  52  80 102 126 168 225 264 296
#     4   9  18  33  54  79 109 142 170 206 260 318
#     4  11  23  36  50  73 111 147 170 211 272 318
#
# _framework density 17.849105000000002
#
# number of rings (size 3 to 8) (size 9 to 14) (size 15 to 20)
#    0.000    2.500    2.500    2.250    0.000    1.500 
#    0.000    3.750    0.000    0.000    0.000    0.000 
#    0.000    0.000    0.000    0.000    0.000    0.000 
#
# Total GULP energy -396717.966773 kJ/mol
# GULP energy per Si atom -12397.436462 kJ/mol
# Density = 1.780848 g / cm^3
# Si number density = 17.849105 Si / 1000 Ang^3
#
#
#
# Elastic Constant Matrix: (Units=GPa)
#
#
# Indices 1 2 3 4 5 6 
#
# 1 107.4326 36.6384 69.7900 -0.0003 6.1134 0.0003
# 2 36.6384 39.5982 38.7405 -0.0007 5.4273 0.0008
# 3 69.7900 38.7405 154.5241 -0.0001 4.3448 0.0000
# 4 -0.0003 -0.0007 -0.0001 28.6106 0.0000 1.2214
# 5 6.1134 5.4273 4.3448 0.0000 29.7189 -0.0001
# 6 0.0003 0.0008 0.0000 1.2214 -0.0001 21.0818
#
#
#
# Elastic Compliance Matrix: (Units=1/GPa)
#
#
# Indices 1 2 3 4 5 6 
#
# 1 0.015726 -0.009964 -0.004584 0.000000 -0.000745 0.000000
# 2 -0.009964 0.040502 -0.005526 0.000001 -0.004539 -0.000001
# 3 -0.004584 -0.005526 0.009913 0.000000 0.000503 0.000000
# 4 0.000000 0.000001 0.000000 0.035039 0.000000 -0.002030
# 5 -0.000745 -0.004539 0.000503 0.000000 0.034557 0.000000
# 6 0.000000 -0.000001 0.000000 -0.002030 0.000000 0.047552
#
#
# Mechanical properties :
#
#
# Convention : Reuss Voigt Hill
#
# Bulk Modulus (GPa) = 38.47218 65.76586 52.11902
# Shear Modulus (GPa) = 21.54228 26.30800 23.92514
#
# Velocity S-wave (km/s) = 3.47783 3.84332 3.66513
# Velocity P-wave (km/s) = 6.14231 7.52464 6.86834
#
# Compressibility (1/GPa) = 0.02599281
#
# Stress axis : x y z
#
# Youngs Moduli (GPa) = 63.58737 24.69023 100.87791
#
# Poissons Ratio (x) = 0.24602 0.46239
# Poissons Ratio (y) = 0.63361 0.55747
# Poissons Ratio (z) = 0.29146 0.13644
#
# Static dielectric constant tensor:
#      x y z
#    x 3.219540 0.000000 -0.128940 
#    y 0.000000 2.993670 0.000000 
#    z -0.128940 0.000000 3.639580 
# 
# 
# High freq. dielectric constant tensor:
#      x y z
#    x 1.664080 0.000000 -0.007250 
#    y 0.000000 1.664680 0.000000 
#    z -0.007250 0.000000 1.709630 
# 
# From -- ./inp_files/346042.got.cif
#   From: 2010.06.25/outbox.cif.g09.slc.cpg/sg12_174_cif.got.tgz:346042.got - 2010.06.28 00:19:55.
