data_PCOD8105290
_publ_section_title
;
Structure prediction by ZEFSAII (Michael W. Deem and Ramdas Pophale) SiO2 
 PCOD8105290
Probable space group: C 2/M
;
_chemical_formula_sum "Si O2"
_cell_formula_units_Z 48
_cell_length_a 17.055102
_cell_length_b 20.588671
_cell_length_c 13.982503
_cell_angle_alpha 90.000000
_cell_angle_beta 148.843966
_cell_angle_gamma 90.000000
_cell_volume 2540.207601
_symmetry_space_group_name_H-M "C 2/M"
_symmetry_group_IT_number 12
_symmetry_cell_setting 'monoclinic'
loop_
_space_group_symop_operation_xyz
x,y,z
-x,y,-z
-x,-y,-z
x,-y,z
1/2+x,1/2+y,z
1/2-x,1/2+y,-z
1/2-x,1/2-y,-z
1/2+x,1/2-y,z
loop_
_atom_site_type_symbol
_atom_site_label
_atom_site_fract_x
_atom_site_fract_y
_atom_site_fract_z
Si Si1 0.678130 0.207655 0.009527
Si Si2 0.101730 0.865629 0.434472
Si Si3 0.368738 0.720818 0.696472
Si Si4 0.347396 0.928010 0.800108
Si Si5 0.704096 0.571820 0.847404
Si Si6 0.347831 0.749963 0.373621
O O1 0.694422 0.130437 0.000399
O O2 0.771012 0.216610 0.203234
O O3 0.750000 0.250000 0.000000
O O4 0.506060 0.228383 0.850552
O O5 0.079939 0.846493 0.299359
O O6 0.272239 0.892318 0.630955
O O7 0.080470 0.803762 0.480882
O O8 0.974082 0.918915 0.320183
O O9 0.250000 0.750000 0.500000
O O10 0.281753 0.708143 0.706680
O O11 0.222554 0.928871 0.752552
O O12 0.395199 0.000000 0.815859
O O13 0.500000 0.892550 0.000000
O O14 0.751496 0.500000 0.937560
O O15 0.500000 0.790448 0.500000
#
# Coordination Sequence:
#
# PCOD8105290 Si02
#       6
#     8   8   8   8   8   8
#     4  12  21  37  57  82 116 155 192 245 291 346
#     4  11  19  37  54  81 116 155 194 228 285 343
#     4  10  23  34  55  82 113 154 196 237 289 338
#     4  10  21  33  51  81 118 161 192 224 283 348
#     4  11  22  35  55  82 117 158 192 229 288 351
#     4  11  20  36  54  82 114 150 191 244 287 342
#
# _framework density 18.896093
#
# number of rings (size 3 to 8) (size 9 to 14) (size 15 to 20)
#    0.000    1.167    5.000    2.500    4.667    1.333 
#    0.000    0.000    0.000    0.000    0.000    3.500 
#    0.000   12.667    0.000    0.000    0.000    0.167 
#
# Total GULP energy -297317.650497 kJ/mol
# GULP energy per Si atom -12388.235437 kJ/mol
# Density = 1.885308 g / cm^3
# Si number density = 18.896093 Si / 1000 Ang^3
#
#
#
# Elastic Constant Matrix: (Units=GPa)
#
#
# Indices 1 2 3 4 5 6 
#
# 1 109.5735 43.5138 41.0948 0.0000 16.5641 0.0000
# 2 43.5138 96.7211 41.9481 0.0000 0.6518 0.0000
# 3 41.0948 41.9481 103.0488 0.0000 29.1072 0.0000
# 4 0.0000 0.0000 0.0000 28.4696 0.0000 3.1767
# 5 16.5641 0.6518 29.1072 0.0000 32.5539 0.0000
# 6 0.0000 0.0000 0.0000 3.1767 0.0000 16.7957
#
#
#
# Elastic Compliance Matrix: (Units=1/GPa)
#
#
# Indices 1 2 3 4 5 6 
#
# 1 0.012371 -0.004827 -0.001629 0.000000 -0.004741 0.000000
# 2 -0.004827 0.015308 -0.006574 0.000000 0.008027 0.000000
# 3 -0.001629 -0.006574 0.017069 0.000000 -0.014301 0.000000
# 4 0.000000 0.000000 0.000000 0.035882 0.000000 -0.006787
# 5 -0.004741 0.008027 -0.014301 0.000000 0.045757 0.000000
# 6 0.000000 0.000000 0.000000 -0.006787 0.000000 0.060823
#
#
# Mechanical properties :
#
#
# Convention : Reuss Voigt Hill
#
# Bulk Modulus (GPa) = 53.51019 62.49521 58.00270
# Shear Modulus (GPa) = 22.77912 27.74964 25.26438
#
# Velocity S-wave (km/s) = 3.47579 3.83631 3.66049
# Velocity P-wave (km/s) = 6.66991 7.26415 6.97337
#
# Compressibility (1/GPa) = 0.01868803
#
# Stress axis : x y z
#
# Youngs Moduli (GPa) = 80.83454 65.32744 58.58430
#
# Poissons Ratio (x) = 0.31533 0.09545
# Poissons Ratio (y) = 0.39019 0.38511
# Poissons Ratio (z) = 0.13170 0.42944
#
# Static dielectric constant tensor:
#      x y z
#    x 4.665460 0.000000 0.079800 
#    y 0.000000 3.142370 0.000000 
#    z 0.079800 0.000000 3.628830 
# 
# 
# High freq. dielectric constant tensor:
#      x y z
#    x 1.728940 0.000000 0.032820 
#    y 0.000000 1.696920 0.000000 
#    z 0.032820 0.000000 1.734890 
# 
# From -- ./inp_files/78904.got.cif
#   From: 2010.06.25/outbox.cif.g09.slc.cpg/sg12_40_cif.got.tgz:78904.got - 2010.06.28 00:19:55.
