data_PCOD8105665
_publ_section_title
;
Structure prediction by ZEFSAII (Michael W. Deem and Ramdas Pophale) SiO2 
 PCOD8105665
Probable space group: C 2/M
;
_chemical_formula_sum "Si O2"
_cell_formula_units_Z 48
_cell_length_a 24.274564
_cell_length_b 9.028433
_cell_length_c 11.943326
_cell_angle_alpha 90.000000
_cell_angle_beta 77.226713
_cell_angle_gamma 90.000000
_cell_volume 2552.737716
_symmetry_space_group_name_H-M "C 2/M"
_symmetry_group_IT_number 12
_symmetry_cell_setting 'monoclinic'
loop_
_space_group_symop_operation_xyz
x,y,z
-x,y,-z
-x,-y,-z
x,-y,z
1/2+x,1/2+y,z
1/2-x,1/2+y,-z
1/2-x,1/2-y,-z
1/2+x,1/2-y,z
loop_
_atom_site_type_symbol
_atom_site_label
_atom_site_fract_x
_atom_site_fract_y
_atom_site_fract_z
Si Si1 0.102039 0.672375 0.923337
Si Si2 0.458738 0.324270 0.245774
Si Si3 0.424881 0.173869 0.811115
Si Si4 0.362799 0.173364 0.423992
Si Si5 0.328570 0.825714 0.683821
Si Si6 0.286523 0.169657 0.252328
O O1 0.089689 0.500000 0.904494
O O2 0.057997 0.765095 0.869436
O O3 0.166008 0.712129 0.860263
O O4 0.093900 0.714750 0.055314
O O5 0.457488 0.500000 0.245888
O O6 0.520685 0.266679 0.248590
O O7 0.416996 0.264243 0.359645
O O8 0.375021 0.226164 0.751906
O O9 0.437871 0.000000 0.792833
O O10 0.345796 0.233443 0.553543
O O11 0.310264 0.203958 0.365426
O O12 0.378851 0.000000 0.416964
O O13 0.268258 0.765214 0.748791
O O14 0.323130 0.000000 0.683317
O O15 0.268739 0.000000 0.249095
#
# Coordination Sequence:
#
# PCOD8105665 Si02
#       6
#     8   8   8   8   8   8
#     4   9  19  37  58  78 104 141 178 211 258 318
#     4  11  22  35  55  82 106 132 175 226 268 306
#     4  10  21  37  55  76 107 145 178 210 257 317
#     4   9  19  37  57  77 105 141 178 214 259 315
#     4  10  21  35  54  80 107 140 180 216 254 309
#     4   9  18  33  54  78 105 139 176 216 262 307
#
# _framework density 18.803342000000001
#
# number of rings (size 3 to 8) (size 9 to 14) (size 15 to 20)
#    0.000    2.333    0.000    3.500    0.000    8.000 
#    0.000    3.333    0.000    0.000    0.000    0.000 
#    0.000    0.000    0.000    0.000    0.000    0.000 
#
# Total GULP energy -297686.301974 kJ/mol
# GULP energy per Si atom -12403.595916 kJ/mol
# Density = 1.876055 g / cm^3
# Si number density = 18.803342 Si / 1000 Ang^3
#
#
#
# Elastic Constant Matrix: (Units=GPa)
#
#
# Indices 1 2 3 4 5 6 
#
# 1 147.4228 53.2169 44.7455 0.0000 -7.4696 0.0000
# 2 53.2169 60.1256 19.9318 0.0000 -6.3972 0.0000
# 3 44.7455 19.9318 51.5588 0.0000 -6.0526 0.0000
# 4 0.0000 0.0000 0.0000 15.1626 0.0000 -6.3006
# 5 -7.4696 -6.3972 -6.0526 0.0000 19.0431 0.0000
# 6 0.0000 0.0000 0.0000 -6.3006 0.0000 35.7506
#
#
#
# Elastic Compliance Matrix: (Units=1/GPa)
#
#
# Indices 1 2 3 4 5 6 
#
# 1 0.011910 -0.008190 -0.007214 0.000000 -0.000372 0.000000
# 2 -0.008190 0.025041 -0.002038 0.000000 0.004552 0.000000
# 3 -0.007214 -0.002038 0.027040 0.000000 0.005080 0.000000
# 4 0.000000 0.000000 0.000000 0.071163 0.000000 0.012542
# 5 -0.000372 0.004552 0.005080 0.000000 0.055510 0.000000
# 6 0.000000 0.000000 0.000000 0.012542 0.000000 0.030182
#
#
# Mechanical properties :
#
#
# Convention : Reuss Voigt Hill
#
# Bulk Modulus (GPa) = 34.35622 54.98841 44.67231
# Shear Modulus (GPa) = 18.83710 23.40546 21.12128
#
# Velocity S-wave (km/s) = 3.16855 3.53193 3.35516
# Velocity P-wave (km/s) = 5.63003 6.77792 6.23047
#
# Compressibility (1/GPa) = 0.02910681
#
# Stress axis : x y z
#
# Youngs Moduli (GPa) = 83.96049 39.93492 36.98164
#
# Poissons Ratio (x) = 0.32706 0.26679
# Poissons Ratio (y) = 0.68763 0.07538
# Poissons Ratio (z) = 0.60570 0.08140
#
# Static dielectric constant tensor:
#      x y z
#    x 3.426380 0.000000 -0.008230 
#    y 0.000000 3.258930 0.000000 
#    z -0.008230 0.000000 3.602550 
# 
# 
# High freq. dielectric constant tensor:
#      x y z
#    x 1.733020 0.000000 -0.007020 
#    y 0.000000 1.715980 0.000000 
#    z -0.007020 0.000000 1.735470 
# 
# From -- ./inp_files/172109.got.cif
#   From: 2010.06.25/outbox.cif.g09.slc.cpg/sg12_87_cif.got.tgz:172109.got - 2010.06.28 00:19:55.
