data_PCOD8105125
_publ_section_title
;
Structure prediction by ZEFSAII (Michael W. Deem and Ramdas Pophale) SiO2 
 PCOD8105125
Probable space group: C 2/M
;
_chemical_formula_sum "Si O2"
_cell_formula_units_Z 60
_cell_length_a 16.991177
_cell_length_b 19.691454
_cell_length_c 9.362129
_cell_angle_alpha 90.000000
_cell_angle_beta 102.696278
_cell_angle_gamma 90.000000
_cell_volume 3055.799670
_symmetry_space_group_name_H-M "C 2/M"
_symmetry_group_IT_number 12
_symmetry_cell_setting 'monoclinic'
loop_
_space_group_symop_operation_xyz
x,y,z
-x,y,-z
-x,-y,-z
x,-y,z
1/2+x,1/2+y,z
1/2-x,1/2+y,-z
1/2-x,1/2-y,-z
1/2+x,1/2-y,z
loop_
_atom_site_type_symbol
_atom_site_label
_atom_site_fract_x
_atom_site_fract_y
_atom_site_fract_z
Si Si1 0.500000 0.370444 0.000000
Si Si2 0.592573 0.830503 0.531507
Si Si3 0.807417 0.680310 0.703992
Si Si4 0.860009 0.173251 0.759286
Si Si5 0.374694 0.678927 0.444548
Si Si6 0.593939 0.423639 0.778173
Si Si7 0.223952 0.576074 0.080820
Si Si8 0.213733 0.421871 0.751111
O O1 0.428180 0.324271 0.909002
O O2 0.529916 0.416374 0.880264
O O3 0.500000 0.852869 0.500000
O O4 0.621930 0.832355 0.380262
O O5 0.603605 0.754709 0.599543
O O6 0.642716 0.884365 0.641054
O O7 0.808632 0.757930 0.757476
O O8 0.721267 0.665954 0.597145
O O9 0.823900 0.629434 0.840951
O O10 0.901609 0.168166 0.619404
O O11 0.801254 0.109511 0.755299
O O12 0.422416 0.627120 0.360794
O O13 0.588455 0.500000 0.715895
O O14 0.681167 0.407344 0.879030
O O15 0.207748 0.500000 0.132156
O O16 0.191900 0.584057 0.908531
O O17 0.217528 0.500000 0.702786
#
# Coordination Sequence:
#
# PCOD8105125 Si02
#       8
#     4   8   8   8   8   8   8   8
#     4  12  25  36  60  90 135 166 198 254 297 362
#     4  11  23  40  64  92 121 155 199 261 311 354
#     4  10  20  41  66  90 119 158 206 255 300 363
#     4  11  22  40  60  93 123 163 207 245 305 363
#     4  10  21  41  67  86 122 160 208 253 302 360
#     4  10  22  38  59  91 125 161 200 248 301 358
#     4   9  20  39  62  89 119 156 203 249 303 366
#     4  11  22  40  63  89 121 163 204 247 307 372
#
# _framework density 19.634795
#
# number of rings (size 3 to 8) (size 9 to 14) (size 15 to 20)
#    0.000    1.600    4.000    1.000    3.733    3.467 
#    0.000    0.667    0.000    1.600    0.000    0.000 
#    0.000    0.000    0.000    0.000    0.000    0.000 
#
# Total GULP energy -372090.585616 kJ/mol
# GULP energy per Si atom -12403.019521 kJ/mol
# Density = 1.959010 g / cm^3
# Si number density = 19.634795 Si / 1000 Ang^3
#
#
#
# Elastic Constant Matrix: (Units=GPa)
#
#
# Indices 1 2 3 4 5 6 
#
# 1 94.6952 36.2131 36.8619 0.0000 -3.4021 0.0000
# 2 36.2131 143.1826 70.4165 0.0000 -14.3427 0.0000
# 3 36.8619 70.4165 97.0930 0.0000 -1.8697 0.0000
# 4 0.0000 0.0000 0.0000 35.1320 0.0000 -6.0023
# 5 -3.4021 -14.3427 -1.8697 0.0000 34.2078 0.0000
# 6 0.0000 0.0000 0.0000 -6.0023 0.0000 11.8846
#
#
#
# Elastic Compliance Matrix: (Units=1/GPa)
#
#
# Indices 1 2 3 4 5 6 
#
# 1 0.012552 -0.001218 -0.003872 0.000000 0.000526 0.000000
# 2 -0.001218 0.011589 -0.007860 0.000000 0.004308 0.000000
# 3 -0.003872 -0.007860 0.017417 0.000000 -0.002729 0.000000
# 4 0.000000 0.000000 0.000000 0.031152 0.000000 0.015733
# 5 0.000526 0.004308 -0.002729 0.000000 0.030943 0.000000
# 6 0.000000 0.000000 0.000000 0.015733 0.000000 0.092089
#
#
# Mechanical properties :
#
#
# Convention : Reuss Voigt Hill
#
# Bulk Modulus (GPa) = 63.86008 69.10597 66.48303
# Shear Modulus (GPa) = 22.03999 29.01016 25.52507
#
# Velocity S-wave (km/s) = 3.35400 3.84798 3.60945
# Velocity P-wave (km/s) = 6.89882 7.41719 7.16269
#
# Compressibility (1/GPa) = 0.01565923
#
# Stress axis : x y z
#
# Youngs Moduli (GPa) = 79.66805 86.28933 57.41451
#
# Poissons Ratio (x) = 0.10506 0.22233
# Poissons Ratio (y) = 0.09700 0.45126
# Poissons Ratio (z) = 0.30850 0.67820
#
# Static dielectric constant tensor:
#      x y z
#    x 3.413440 0.000000 -0.030350 
#    y 0.000000 3.653670 0.000000 
#    z -0.030350 0.000000 3.611630 
# 
# 
# High freq. dielectric constant tensor:
#      x y z
#    x 1.752200 0.000000 -0.003760 
#    y 0.000000 1.766310 0.000000 
#    z -0.003760 0.000000 1.766530 
# 
# From -- ./inp_files/77556.got.cif
#   From: 2010.06.25/outbox.cif.g09.slc.cpg/sg12_39_cif.got.tgz:77556.got - 2010.06.28 00:19:55.
