data_PCOD8105563
_publ_section_title
;
Structure prediction by ZEFSAII (Michael W. Deem and Ramdas Pophale) SiO2 
 PCOD8105563
Probable space group: C 2/M
;
_chemical_formula_sum "Si O2"
_cell_formula_units_Z 48
_cell_length_a 23.683473
_cell_length_b 13.411020
_cell_length_c 8.002861
_cell_angle_alpha 90.000000
_cell_angle_beta 99.335830
_cell_angle_gamma 90.000000
_cell_volume 2508.196587
_symmetry_space_group_name_H-M "C 2/M"
_symmetry_group_IT_number 12
_symmetry_cell_setting 'monoclinic'
loop_
_space_group_symop_operation_xyz
x,y,z
-x,y,-z
-x,-y,-z
x,-y,z
1/2+x,1/2+y,z
1/2-x,1/2+y,-z
1/2-x,1/2-y,-z
1/2+x,1/2-y,z
loop_
_atom_site_type_symbol
_atom_site_label
_atom_site_fract_x
_atom_site_fract_y
_atom_site_fract_z
Si Si1 0.488035 0.392740 0.681710
Si Si2 0.236773 0.117333 0.278789
Si Si3 0.880504 0.213150 0.742567
Si Si4 0.896743 0.116517 0.092905
Si Si5 0.229471 0.883549 0.899700
Si Si6 0.307194 0.882901 0.634090
O O1 0.500000 0.416908 0.500000
O O2 0.472870 0.500000 0.761742
O O3 0.435267 0.317425 0.661390
O O4 0.546780 0.348682 0.783438
O O5 0.177139 0.153218 0.330817
O O6 0.247791 0.160808 0.093827
O O7 0.285516 0.145001 0.437015
O O8 0.230950 0.000000 0.255740
O O9 0.868022 0.329501 0.696606
O O10 0.896863 0.191879 0.939738
O O11 0.899404 0.000000 0.040261
O O12 0.838083 0.134639 0.167752
O O13 0.243689 0.000000 0.907435
O O14 0.264460 0.838051 0.758466
O O15 0.316105 0.000000 0.656877
#
# Coordination Sequence:
#
# PCOD8105563 Si02
#       6
#     8   8   8   8   8   8
#     4  10  21  35  54  81 109 135 167 215 271 325
#     4   9  18  32  51  77 109 141 172 215 266 317
#     4  11  20  33  52  78 106 140 180 214 260 316
#     4   9  18  33  54  78 105 137 168 210 268 324
#     4   8  16  32  52  76 105 138 173 208 258 315
#     4  10  21  35  52  76 110 145 180 220 258 304
#
# _framework density 19.137255
#
# number of rings (size 3 to 8) (size 9 to 14) (size 15 to 20)
#    0.000    2.500    0.000    3.500    2.333    4.000 
#    3.000    0.000    0.000    2.500    0.000    0.000 
#    0.000    0.000    0.000    0.000    0.000    0.000 
#
# Total GULP energy -297350.988859 kJ/mol
# GULP energy per Si atom -12389.624536 kJ/mol
# Density = 1.909370 g / cm^3
# Si number density = 19.137255 Si / 1000 Ang^3
#
#
#
# Elastic Constant Matrix: (Units=GPa)
#
#
# Indices 1 2 3 4 5 6 
#
# 1 116.5022 43.2133 51.6130 0.0000 6.8508 0.0000
# 2 43.2133 35.1964 49.3684 0.0000 11.2697 0.0000
# 3 51.6130 49.3684 103.2261 0.0000 12.3853 0.0000
# 4 0.0000 0.0000 0.0000 26.7457 0.0000 24.9156
# 5 6.8508 11.2697 12.3853 0.0000 30.5306 0.0000
# 6 0.0000 0.0000 0.0000 24.9156 0.0000 45.7478
#
#
#
# Elastic Compliance Matrix: (Units=1/GPa)
#
#
# Indices 1 2 3 4 5 6 
#
# 1 0.017030 -0.029571 0.005020 0.000000 0.005057 0.000000
# 2 -0.029571 0.145671 -0.051746 0.000000 -0.026144 0.000000
# 3 0.005020 -0.051746 0.031291 0.000000 0.005280 0.000000
# 4 0.000000 0.000000 0.000000 0.075895 0.000000 -0.041335
# 5 0.005057 -0.026144 0.005280 0.000000 0.039128 0.000000
# 6 0.000000 0.000000 0.000000 -0.041335 0.000000 0.044371
#
#
# Mechanical properties :
#
#
# Convention : Reuss Voigt Hill
#
# Bulk Modulus (GPa) = 24.15421 60.36824 42.26123
# Shear Modulus (GPa) = 9.61946 27.98683 18.80314
#
# Velocity S-wave (km/s) = 2.24443 3.82832 3.13795
# Velocity P-wave (km/s) = 4.40064 7.15225 5.93803
#
# Compressibility (1/GPa) = 0.04140064
#
# Stress axis : x y z
#
# Youngs Moduli (GPa) = 58.71826 6.86478 31.95766
#
# Poissons Ratio (x) = 0.20300 -0.16044
# Poissons Ratio (y) = 1.73635 1.65367
# Poissons Ratio (z) = -0.29479 0.35522
#
# Static dielectric constant tensor:
#      x y z
#    x 3.687950 0.000000 0.095590 
#    y 0.000000 3.356770 0.000000 
#    z 0.095590 0.000000 3.777070 
# 
# 
# High freq. dielectric constant tensor:
#      x y z
#    x 1.722340 0.000000 -0.002060 
#    y 0.000000 1.727670 0.000000 
#    z -0.002060 0.000000 1.752480 
# 
# From -- ./inp_files/85676.got.cif
#   From: 2010.06.25/outbox.cif.g09.slc.cpg/sg12_43_cif.got.tgz:85676.got - 2010.06.28 00:19:55.
