data_PCOD8105391
_publ_section_title
;
Structure prediction by ZEFSAII (Michael W. Deem and Ramdas Pophale) SiO2 
 PCOD8105391
Probable space group: C 2/M
;
_chemical_formula_sum "Si O2"
_cell_formula_units_Z 48
_cell_length_a 10.048019
_cell_length_b 26.991883
_cell_length_c 9.367789
_cell_angle_alpha 90.000000
_cell_angle_beta 105.114131
_cell_angle_gamma 90.000000
_cell_volume 2452.797995
_symmetry_space_group_name_H-M "C 2/M"
_symmetry_group_IT_number 12
_symmetry_cell_setting 'monoclinic'
loop_
_space_group_symop_operation_xyz
x,y,z
-x,y,-z
-x,-y,-z
x,-y,z
1/2+x,1/2+y,z
1/2-x,1/2+y,-z
1/2-x,1/2-y,-z
1/2+x,1/2-y,z
loop_
_atom_site_type_symbol
_atom_site_label
_atom_site_fract_x
_atom_site_fract_y
_atom_site_fract_z
Si Si1 0.298133 0.314891 0.795044
Si Si2 0.468030 0.352914 0.338854
Si Si3 0.495467 0.142263 0.337204
Si Si4 0.136359 0.107174 0.967522
Si Si5 0.735217 0.218625 0.350815
Si Si6 0.915311 0.555195 0.119406
O O1 0.386891 0.340732 0.695001
O O2 0.137771 0.324475 0.724940
O O3 0.316852 0.255486 0.790298
O O4 0.342923 0.337129 0.960792
O O5 0.500000 0.379955 0.500000
O O6 0.379335 0.388039 0.208190
O O7 0.384303 0.302774 0.350385
O O8 0.500000 0.124713 0.500000
O O9 0.629202 0.173653 0.332906
O O10 0.492321 0.091846 0.247414
O O11 0.260234 0.071711 0.042991
O O12 0.000000 0.083343 0.000000
O O13 0.750000 0.250000 0.500000
O O14 0.910694 0.500000 0.184448
O O15 0.000000 0.555389 0.000000
#
# Coordination Sequence:
#
# PCOD8105391 Si02
#       6
#     8   8   8   8   8   8
#     4  10  21  34  52  79 117 157 194 235 277 343
#     4  11  20  34  54  76 110 153 193 235 289 341
#     4  11  21  36  58  86 119 152 197 242 285 342
#     4   9  21  39  57  83 114 149 194 244 298 345
#     4  12  21  32  54  82 116 160 195 232 279 342
#     4  10  22  41  63  85 113 151 196 247 304 354
#
# _framework density 19.569488
#
# number of rings (size 3 to 8) (size 9 to 14) (size 15 to 20)
#    0.000    1.500    3.333    2.000    0.000    1.333 
#    0.000    7.500    0.000    0.500    0.000    0.000 
#    0.000    0.000    0.000    0.000    0.000    0.000 
#
# Total GULP energy -297551.444101 kJ/mol
# GULP energy per Si atom -12397.976838 kJ/mol
# Density = 1.952495 g / cm^3
# Si number density = 19.569488 Si / 1000 Ang^3
#
#
#
# Elastic Constant Matrix: (Units=GPa)
#
#
# Indices 1 2 3 4 5 6 
#
# 1 97.1130 39.0707 23.6313 0.0000 4.5687 0.0000
# 2 39.0707 130.8999 52.5468 0.0000 5.5383 0.0000
# 3 23.6313 52.5468 117.7636 0.0000 7.7202 0.0000
# 4 0.0000 0.0000 0.0000 23.4349 0.0000 -1.2872
# 5 4.5687 5.5383 7.7202 0.0000 25.1300 0.0000
# 6 0.0000 0.0000 0.0000 -1.2872 0.0000 22.6214
#
#
#
# Elastic Compliance Matrix: (Units=1/GPa)
#
#
# Indices 1 2 3 4 5 6 
#
# 1 0.011827 -0.003117 -0.000905 0.000000 -0.001185 0.000000
# 2 -0.003117 0.010143 -0.003869 0.000000 -0.000480 0.000000
# 3 -0.000905 -0.003869 0.010545 0.000000 -0.002222 0.000000
# 4 0.000000 0.000000 0.000000 0.042805 0.000000 0.002436
# 5 -0.001185 -0.000480 -0.002222 0.000000 0.040797 0.000000
# 6 0.000000 0.000000 0.000000 0.002436 0.000000 0.044345
#
#
# Mechanical properties :
#
#
# Convention : Reuss Voigt Hill
#
# Bulk Modulus (GPa) = 59.75778 64.03045 61.89411
# Shear Modulus (GPa) = 27.49942 29.60575 28.55258
#
# Velocity S-wave (km/s) = 3.75269 3.89376 3.82388
# Velocity P-wave (km/s) = 7.02705 7.28050 7.15490
#
# Compressibility (1/GPa) = 0.01673422
#
# Stress axis : x y z
#
# Youngs Moduli (GPa) = 84.55101 98.58871 94.82936
#
# Poissons Ratio (x) = 0.30727 0.08581
# Poissons Ratio (y) = 0.26352 0.36690
# Poissons Ratio (z) = 0.07651 0.38144
#
# Static dielectric constant tensor:
#      x y z
#    x 3.593040 0.000000 0.005550 
#    y 0.000000 3.437850 0.000000 
#    z 0.005550 0.000000 3.783330 
# 
# 
# High freq. dielectric constant tensor:
#      x y z
#    x 1.786140 0.000000 -0.000760 
#    y 0.000000 1.726060 0.000000 
#    z -0.000760 0.000000 1.764020 
# 
# From -- ./inp_files/42181.got.cif
#   From: 2010.06.25/outbox.cif.g09.slc.cpg/sg12_22_cif.got.tgz:42181.got - 2010.06.28 00:19:55.
