data_PCOD8105937
_publ_section_title
;
Structure prediction by ZEFSAII (Michael W. Deem and Ramdas Pophale) SiO2 
 PCOD8105937
Probable space group: C 2/M
;
_chemical_formula_sum "Si O2"
_cell_formula_units_Z 64
_cell_length_a 21.385978
_cell_length_b 13.758924
_cell_length_c 12.123859
_cell_angle_alpha 90.000000
_cell_angle_beta 107.728883
_cell_angle_gamma 90.000000
_cell_volume 3397.998166
_symmetry_space_group_name_H-M "C 2/M"
_symmetry_group_IT_number 12
_symmetry_cell_setting 'monoclinic'
loop_
_space_group_symop_operation_xyz
x,y,z
-x,y,-z
-x,-y,-z
x,-y,z
1/2+x,1/2+y,z
1/2-x,1/2+y,-z
1/2-x,1/2-y,-z
1/2+x,1/2-y,z
loop_
_atom_site_type_symbol
_atom_site_label
_atom_site_fract_x
_atom_site_fract_y
_atom_site_fract_z
Si Si1 0.941162 0.209573 0.217213
Si Si2 0.183376 0.610427 0.930998
Si Si3 0.675755 0.885425 0.681123
Si Si4 0.428101 0.754197 0.454655
Si Si5 0.930538 0.113899 0.661065
Si Si6 0.821574 0.886182 0.765067
Si Si7 0.456373 0.111394 0.082905
Si Si8 0.672856 0.613216 0.979286
O O1 0.918263 0.206412 0.330480
O O2 0.970923 0.313195 0.189804
O O3 0.000347 0.132187 0.240381
O O4 0.878668 0.179827 0.111337
O O5 0.202506 0.500000 0.913503
O O6 0.159621 0.651425 0.798385
O O7 0.122835 0.619822 0.984860
O O8 0.253194 0.650932 0.013973
O O9 0.627584 0.836593 0.565293
O O10 0.749208 0.849479 0.693118
O O11 0.666784 0.000000 0.663943
O O12 0.500000 0.803931 0.500000
O O13 0.422612 0.670377 0.542181
O O14 0.874916 0.158587 0.711328
O O15 0.922458 0.000000 0.632304
O O16 0.838919 0.860707 0.899791
O O17 0.823680 0.000000 0.751472
O O18 0.472127 0.000000 0.128548
O O19 0.500000 0.139064 0.000000
O O20 0.660911 0.500000 0.945169
#
# Coordination Sequence:
#
# PCOD8105937 Si02
#       8
#     8   8   8   8   8   8   8   8
#     4  11  22  34  55  83 106 144 191 221 262 326
#     4   8  15  32  55  77 109 144 172 217 275 324
#     4   9  16  33  58  80 105 135 175 228 274 317
#     4  10  22  36  51  79 105 141 192 223 270 325
#     4  10  22  39  55  75 113 150 179 226 276 321
#     4   8  17  34  56  81 107 140 174 215 281 331
#     4  10  21  36  53  76 111 149 178 213 270 327
#     4   9  18  32  54  86 113 135 175 226 271 322
#
# _framework density 18.834617999999999
#
# number of rings (size 3 to 8) (size 9 to 14) (size 15 to 20)
#    0.000    2.625    1.250    1.875    1.750    4.000 
#    0.000    3.750    0.000    0.000    0.000   11.375 
#    0.000    0.000    0.000    0.000    0.000    0.000 
#
# Total GULP energy -396470.500655 kJ/mol
# GULP energy per Si atom -12389.703145 kJ/mol
# Density = 1.879175 g / cm^3
# Si number density = 18.834618 Si / 1000 Ang^3
#
#
#
# Elastic Constant Matrix: (Units=GPa)
#
#
# Indices 1 2 3 4 5 6 
#
# 1 142.1252 26.1831 58.9811 0.0000 0.3477 0.0000
# 2 26.1831 67.6329 30.8570 0.0000 4.5882 0.0000
# 3 58.9811 30.8570 84.5384 0.0000 11.7224 0.0000
# 4 0.0000 0.0000 0.0000 28.4935 0.0000 4.7957
# 5 0.3477 4.5882 11.7224 0.0000 35.0648 0.0000
# 6 0.0000 0.0000 0.0000 4.7957 0.0000 16.7533
#
#
#
# Elastic Compliance Matrix: (Units=1/GPa)
#
#
# Indices 1 2 3 4 5 6 
#
# 1 0.010127 -0.000849 -0.007085 0.000000 0.002379 0.000000
# 2 -0.000849 0.017812 -0.005859 0.000000 -0.000364 0.000000
# 3 -0.007085 -0.005859 0.019708 0.000000 -0.005752 0.000000
# 4 0.000000 0.000000 0.000000 0.036872 0.000000 -0.010555
# 5 0.002379 -0.000364 -0.005752 0.000000 0.030466 0.000000
# 6 0.000000 0.000000 0.000000 -0.010555 0.000000 0.062711
#
#
# Mechanical properties :
#
#
# Convention : Reuss Voigt Hill
#
# Bulk Modulus (GPa) = 49.84817 58.48210 54.16513
# Shear Modulus (GPa) = 23.58829 27.94735 25.76782
#
# Velocity S-wave (km/s) = 3.54275 3.85623 3.70281
# Velocity P-wave (km/s) = 6.57712 7.13758 6.86307
#
# Compressibility (1/GPa) = 0.02006092
#
# Stress axis : x y z
#
# Youngs Moduli (GPa) = 98.74476 56.14162 50.73999
#
# Poissons Ratio (x) = 0.04768 0.35952
# Poissons Ratio (y) = 0.08386 0.29726
# Poissons Ratio (z) = 0.69965 0.32891
#
# Static dielectric constant tensor:
#      x y z
#    x 3.942230 0.000000 0.027320 
#    y 0.000000 3.367690 0.000000 
#    z 0.027320 0.000000 3.281020 
# 
# 
# High freq. dielectric constant tensor:
#      x y z
#    x 1.748950 0.000000 0.006470 
#    y 0.000000 1.724940 0.000000 
#    z 0.006470 0.000000 1.702870 
# 
# From -- ./inp_files/167314.got.cif
#   From: 2010.06.25/outbox.cif.g09.slc.cpg/sg12_84_cif.got.tgz:167314.got - 2010.06.28 00:19:55.
