data_PCOD8105446
_publ_section_title
;
Structure prediction by ZEFSAII (Michael W. Deem and Ramdas Pophale) SiO2 
 PCOD8105446
Probable space group: C 2/M
;
_chemical_formula_sum "Si O2"
_cell_formula_units_Z 56
_cell_length_a 19.377205
_cell_length_b 28.280008
_cell_length_c 11.501818
_cell_angle_alpha 90.000000
_cell_angle_beta 29.597352
_cell_angle_gamma 90.000000
_cell_volume 3112.989512
_symmetry_space_group_name_H-M "C 2/M"
_symmetry_group_IT_number 12
_symmetry_cell_setting 'monoclinic'
loop_
_space_group_symop_operation_xyz
x,y,z
-x,y,-z
-x,-y,-z
x,-y,z
1/2+x,1/2+y,z
1/2-x,1/2+y,-z
1/2-x,1/2-y,-z
1/2+x,1/2-y,z
loop_
_atom_site_type_symbol
_atom_site_label
_atom_site_fract_x
_atom_site_fract_y
_atom_site_fract_z
Si Si1 0.662504 0.868899 0.244643
Si Si2 0.841708 0.710234 0.923895
Si Si3 0.649154 0.445629 0.930637
Si Si4 0.635800 0.134542 0.723149
Si Si5 0.170122 0.054329 0.630990
Si Si6 0.661209 0.224881 0.801134
Si Si7 0.643965 0.808559 0.485890
O O1 0.500000 0.883230 0.500000
O O2 0.692488 0.842253 0.078256
O O3 0.759468 0.915204 0.112679
O O4 0.709541 0.833290 0.277412
O O5 0.004185 0.720123 0.656239
O O6 0.750000 0.750000 0.000000
O O7 0.816305 0.714224 0.097195
O O8 0.679023 0.500000 0.916904
O O9 0.690471 0.434622 0.737280
O O10 0.485671 0.434068 0.184095
O O11 0.725497 0.086980 0.594383
O O12 0.723441 0.178220 0.648207
O O13 0.600182 0.151501 0.644316
O O14 0.500000 0.124495 0.000000
O O15 0.207243 0.000000 0.550733
O O16 0.742280 0.270911 0.636333
O O17 0.500000 0.230930 0.000000
#
# Coordination Sequence:
#
# PCOD8105446 Si02
#       7
#     8   8   8   8   8   8   8
#     4  10  21  34  57  81 115 151 184 229 284 340
#     4  11  22  38  54  79 112 151 189 228 279 333
#     4   9  18  36  59  87 116 140 181 238 287 342
#     4  11  21  35  56  80 117 149 189 234 277 332
#     4   9  19  35  59  87 113 143 183 234 291 338
#     4  11  23  37  56  81 114 149 189 237 279 337
#     4  11  21  38  53  82 113 151 189 235 278 333
#
# _framework density 17.989139000000002
#
# number of rings (size 3 to 8) (size 9 to 14) (size 15 to 20)
#    0.000    1.714    5.714    1.286    0.000    2.857 
#    0.000    0.000    0.000    0.857    0.000    2.000 
#    0.000    0.000    0.000    0.000    0.000    0.000 
#
# Total GULP energy -347063.194046 kJ/mol
# GULP energy per Si atom -12395.114073 kJ/mol
# Density = 1.794819 g / cm^3
# Si number density = 17.989139 Si / 1000 Ang^3
#
#
#
# Elastic Constant Matrix: (Units=GPa)
#
#
# Indices 1 2 3 4 5 6 
#
# 1 98.2871 49.3521 31.0333 -0.0001 -6.1763 0.0014
# 2 49.3521 115.5331 62.9930 -0.0001 -21.3428 0.0001
# 3 31.0333 62.9930 81.3609 0.0008 -5.5166 0.0011
# 4 -0.0001 -0.0001 0.0008 34.4602 -0.0002 -7.0899
# 5 -6.1763 -21.3428 -5.5166 -0.0002 27.4021 -0.0011
# 6 0.0014 0.0001 0.0011 -7.0899 -0.0011 35.1778
#
#
#
# Elastic Compliance Matrix: (Units=1/GPa)
#
#
# Indices 1 2 3 4 5 6 
#
# 1 0.013057 -0.005307 -0.000965 0.000000 -0.001385 -0.000001
# 2 -0.005307 0.020021 -0.012674 0.000001 0.011846 0.000001
# 3 -0.000965 -0.012674 0.022089 -0.000001 -0.005642 -0.000001
# 4 0.000000 0.000001 -0.000001 0.030274 0.000001 0.006102
# 5 -0.001385 0.011846 -0.005642 0.000001 0.044272 0.000002
# 6 -0.000001 0.000001 -0.000001 0.006102 0.000002 0.029657
#
#
# Mechanical properties :
#
#
# Convention : Reuss Voigt Hill
#
# Bulk Modulus (GPa) = 57.88685 64.65975 61.27330
# Shear Modulus (GPa) = 24.62808 29.52821 27.07814
#
# Velocity S-wave (km/s) = 3.70409 4.05587 3.88396
# Velocity P-wave (km/s) = 7.10931 7.61284 7.36538
#
# Compressibility (1/GPa) = 0.01727508
#
# Stress axis : x y z
#
# Youngs Moduli (GPa) = 76.58866 49.94745 45.27137
#
# Poissons Ratio (x) = 0.26507 0.04370
# Poissons Ratio (y) = 0.40646 0.57375
# Poissons Ratio (z) = 0.07392 0.63302
#
# Static dielectric constant tensor:
#      x y z
#    x 3.616410 0.000000 0.050570 
#    y 0.000000 3.348880 0.000000 
#    z 0.050570 0.000000 3.225510 
# 
# 
# High freq. dielectric constant tensor:
#      x y z
#    x 1.696970 0.000000 -0.001520 
#    y 0.000000 1.692170 0.000000 
#    z -0.001520 0.000000 1.682640 
# 
# From -- ./inp_files/135493.got.cif
#   From: 2010.06.25/outbox.cif.g09.slc.cpg/sg12_68_cif.got.tgz:135493.got - 2010.06.28 00:19:55.
