data_PCOD8105597
_publ_section_title
;
Structure prediction by ZEFSAII (Michael W. Deem and Ramdas Pophale) SiO2 
 PCOD8105597
Probable space group: C 2/M
;
_chemical_formula_sum "Si O2"
_cell_formula_units_Z 48
_cell_length_a 19.656930
_cell_length_b 18.364625
_cell_length_c 19.997845
_cell_angle_alpha 90.000000
_cell_angle_beta 160.579536
_cell_angle_gamma 90.000000
_cell_volume 2400.324654
_symmetry_space_group_name_H-M "C 2/M"
_symmetry_group_IT_number 12
_symmetry_cell_setting 'monoclinic'
loop_
_space_group_symop_operation_xyz
x,y,z
-x,y,-z
-x,-y,-z
x,-y,z
1/2+x,1/2+y,z
1/2-x,1/2+y,-z
1/2-x,1/2-y,-z
1/2+x,1/2-y,z
loop_
_atom_site_type_symbol
_atom_site_label
_atom_site_fract_x
_atom_site_fract_y
_atom_site_fract_z
Si Si1 0.243881 0.918316 0.013765
Si Si2 0.271649 0.581591 0.276827
Si Si3 0.578195 0.131531 0.228525
Si Si4 0.640123 0.781843 0.073968
Si Si5 0.631863 0.336533 0.378386
Si Si6 0.038837 0.705690 0.708783
O O1 0.391948 0.913320 0.087557
O O2 0.314175 0.860499 0.134390
O O3 0.252179 0.000000 0.051065
O O4 0.009501 0.903250 0.774789
O O5 0.500000 0.606945 0.500000
O O6 0.252463 0.500000 0.229546
O O7 0.167715 0.582746 0.252781
O O8 0.178729 0.636527 0.136825
O O9 0.753115 0.147555 0.445108
O O10 0.488730 0.207648 0.114243
O O11 0.853913 0.739881 0.257823
O O12 0.500000 0.740248 0.000000
O O13 0.484816 0.266144 0.253837
O O14 0.805022 0.322927 0.481099
#
# Coordination Sequence:
#
# PCOD8105597 Si02
#       6
#     8   8   8   8   8   8
#     4  11  23  37  58  86 116 148 185 234 294 342
#     4  10  21  35  52  80 120 161 192 222 263 324
#     4  10  21  36  57  84 118 151 190 225 271 338
#     4  10  21  37  57  81 114 154 195 229 273 327
#     4  10  21  35  62  83 114 151 188 233 286 335
#     4  10  21  38  58  84 113 146 191 240 280 334
#
# _framework density 19.997295999999999
#
# number of rings (size 3 to 8) (size 9 to 14) (size 15 to 20)
#    0.000    1.833    1.667    2.000    4.667    7.000 
#    0.000    0.000    0.000    0.500    0.000    1.167 
#    0.000    0.000    0.000    0.000    0.000    0.000 
#
# Total GULP energy -297393.156448 kJ/mol
# GULP energy per Si atom -12391.381519 kJ/mol
# Density = 1.995178 g / cm^3
# Si number density = 19.997296 Si / 1000 Ang^3
#
#
#
# Elastic Constant Matrix: (Units=GPa)
#
#
# Indices 1 2 3 4 5 6 
#
# 1 103.7252 42.5415 41.3218 -0.0461 31.8996 0.0088
# 2 42.5415 105.7219 46.1603 -0.0421 5.9474 -0.0022
# 3 41.3218 46.1603 109.7899 -0.0243 21.8793 -0.0137
# 4 -0.0461 -0.0421 -0.0243 12.4157 -0.0372 0.8830
# 5 31.8996 5.9474 21.8793 -0.0372 30.9050 -0.0049
# 6 0.0088 -0.0022 -0.0137 0.8830 -0.0049 18.3736
#
#
#
# Elastic Compliance Matrix: (Units=1/GPa)
#
#
# Indices 1 2 3 4 5 6 
#
# 1 0.017269 -0.005641 -0.000922 -0.000004 -0.016087 -0.000014
# 2 -0.005641 0.013482 -0.004877 0.000035 0.006681 0.000001
# 3 -0.000922 -0.004877 0.012957 -0.000017 -0.007283 0.000008
# 4 -0.000004 0.000035 -0.000017 0.080820 0.000106 -0.003884
# 5 -0.016087 0.006681 -0.007283 0.000106 0.052832 0.000012
# 6 -0.000014 0.000001 0.000008 -0.003884 0.000012 0.054612
#
#
# Mechanical properties :
#
#
# Convention : Reuss Voigt Hill
#
# Bulk Modulus (GPa) = 48.01134 64.36491 56.18813
# Shear Modulus (GPa) = 19.09889 24.95310 22.02600
#
# Velocity S-wave (km/s) = 3.09378 3.53629 3.32241
# Velocity P-wave (km/s) = 6.06820 6.99503 6.54803
#
# Compressibility (1/GPa) = 0.02082841
#
# Stress axis : x y z
#
# Youngs Moduli (GPa) = 57.90666 74.17155 77.17845
#
# Poissons Ratio (x) = 0.41844 0.07115
# Poissons Ratio (y) = 0.32668 0.37637
# Poissons Ratio (z) = 0.05338 0.36171
#
# Static dielectric constant tensor:
#      x y z
#    x 3.635100 -0.000220 0.429980 
#    y -0.000220 3.406480 -0.000230 
#    z 0.429980 -0.000230 3.877280 
# 
# 
# High freq. dielectric constant tensor:
#      x y z
#    x 1.756930 -0.000010 0.028860 
#    y -0.000010 1.751700 -0.000020 
#    z 0.028860 -0.000020 1.796060 
# 
# From -- ./inp_files/322585.got.cif
#   From: 2010.06.25/outbox.cif.g09.slc.cpg/sg12_162_cif.got.tgz:322585.got - 2010.06.28 00:19:55.
