data_PCOD8105036
_publ_section_title
;
Structure prediction by ZEFSAII (Michael W. Deem and Ramdas Pophale) SiO2 
 PCOD8105036
Probable space group: C 2/M
;
_chemical_formula_sum "Si O2"
_cell_formula_units_Z 56
_cell_length_a 20.460115
_cell_length_b 13.844920
_cell_length_c 22.078769
_cell_angle_alpha 90.000000
_cell_angle_beta 26.174056
_cell_angle_gamma 90.000000
_cell_volume 2758.734864
_symmetry_space_group_name_H-M "C 2/M"
_symmetry_group_IT_number 12
_symmetry_cell_setting 'monoclinic'
loop_
_space_group_symop_operation_xyz
x,y,z
-x,y,-z
-x,-y,-z
x,-y,z
1/2+x,1/2+y,z
1/2-x,1/2+y,-z
1/2-x,1/2-y,-z
1/2+x,1/2-y,z
loop_
_atom_site_type_symbol
_atom_site_label
_atom_site_fract_x
_atom_site_fract_y
_atom_site_fract_z
Si Si1 0.168789 0.186232 0.837835
Si Si2 0.617134 0.614082 0.096155
Si Si3 0.171095 0.397233 0.844607
Si Si4 0.341215 0.885528 0.809916
Si Si5 0.622430 0.773582 0.558179
Si Si6 0.592052 0.608502 0.251880
Si Si7 0.699985 0.388946 0.684230
O O1 0.196816 0.296012 0.788694
O O2 0.278334 0.164122 0.801747
O O3 0.212237 0.116562 0.746682
O O4 0.000000 0.169595 0.000000
O O5 0.622778 0.500000 0.088903
O O6 0.634951 0.650281 0.150103
O O7 0.460737 0.650530 0.200742
O O8 0.748215 0.653610 0.944711
O O9 0.220511 0.500000 0.770972
O O10 0.257281 0.388689 0.836098
O O11 0.000000 0.406380 0.000000
O O12 0.508775 0.850903 0.681669
O O13 0.333177 0.000000 0.809240
O O14 0.750000 0.750000 0.500000
O O15 0.536504 0.674889 0.612354
O O16 0.682554 0.820150 0.446337
O O17 0.526944 0.500000 0.301729
O O18 0.726485 0.500000 0.642446
#
# Coordination Sequence:
#
# PCOD8105036 Si02
#       7
#     8   8   8   8   8   8   8
#     4  11  21  38  66  99 127 167 211 258 319 382
#     4   9  19  37  64  95 123 161 210 262 320 374
#     4   9  19  38  63  91 124 159 205 267 320 366
#     4  11  23  40  63  96 133 166 212 268 314 377
#     4  12  25  42  60  90 126 175 211 255 316 380
#     4  10  20  40  67  91 122 166 212 262 323 380
#     4  11  23  40  64  93 131 171 209 259 317 382
#
# _framework density 20.299160000000001
#
# number of rings (size 3 to 8) (size 9 to 14) (size 15 to 20)
#    0.000    1.571    4.286    0.857    0.000    2.286 
#    5.143    2.143    0.000    1.714    0.000    0.000 
#    0.000    0.000    0.000    0.000    0.000    0.000 
#
# Total GULP energy -347023.832321 kJ/mol
# GULP energy per Si atom -12393.708297 kJ/mol
# Density = 2.025296 g / cm^3
# Si number density = 20.299160 Si / 1000 Ang^3
#
#
#
# Elastic Constant Matrix: (Units=GPa)
#
#
# Indices 1 2 3 4 5 6 
#
# 1 79.0344 15.2396 53.2337 -0.0015 -7.6251 -0.0002
# 2 15.2396 118.9605 46.9502 0.0036 1.5074 -0.0013
# 3 53.2337 46.9502 133.5325 0.0057 3.9250 -0.0019
# 4 -0.0015 0.0036 0.0057 31.8543 -0.0022 -0.4562
# 5 -7.6251 1.5074 3.9250 -0.0022 36.2524 0.0003
# 6 -0.0002 -0.0013 -0.0019 -0.4562 0.0003 21.7393
#
#
#
# Elastic Compliance Matrix: (Units=1/GPa)
#
#
# Indices 1 2 3 4 5 6 
#
# 1 0.018064 0.000607 -0.007550 0.000002 0.004592 0.000000
# 2 0.000607 0.009781 -0.003685 0.000000 0.000120 0.000000
# 3 -0.007550 -0.003685 0.011874 -0.000002 -0.002720 0.000001
# 4 0.000002 0.000000 -0.000002 0.031402 0.000003 0.000659
# 5 0.004592 0.000120 -0.002720 0.000003 0.028840 0.000000
# 6 0.000000 0.000000 0.000001 0.000659 0.000000 0.046013
#
#
# Mechanical properties :
#
#
# Convention : Reuss Voigt Hill
#
# Bulk Modulus (GPa) = 54.15725 62.48606 58.32165
# Shear Modulus (GPa) = 28.83781 32.37612 30.60697
#
# Velocity S-wave (km/s) = 3.77323 3.99801 3.88725
# Velocity P-wave (km/s) = 6.76169 7.22230 6.99579
#
# Compressibility (1/GPa) = 0.01846475
#
# Stress axis : x y z
#
# Youngs Moduli (GPa) = 55.35958 102.23840 84.21700
#
# Poissons Ratio (x) = -0.06210 0.63582
# Poissons Ratio (y) = -0.03363 0.31032
# Poissons Ratio (z) = 0.41795 0.37672
#
# Static dielectric constant tensor:
#      x y z
#    x 3.663140 -0.000010 -0.077600 
#    y -0.000010 4.165800 0.000010 
#    z -0.077600 0.000010 3.691030 
# 
# 
# High freq. dielectric constant tensor:
#      x y z
#    x 1.784390 0.000000 -0.017970 
#    y 0.000000 1.812070 0.000000 
#    z -0.017970 0.000000 1.777380 
# 
# From -- ./inp_files/86358.got.cif
#   From: 2010.06.25/outbox.cif.g09.slc.cpg/sg12_44_cif.got.tgz:86358.got - 2010.06.28 00:19:55.
