data_PCOD8105919
_publ_section_title
;
Structure prediction by ZEFSAII (Michael W. Deem and Ramdas Pophale) SiO2 
 PCOD8105919
Probable space group: C 2/M
;
_chemical_formula_sum "Si O2"
_cell_formula_units_Z 64
_cell_length_a 30.040159
_cell_length_b 9.271260
_cell_length_c 12.302445
_cell_angle_alpha 90.000000
_cell_angle_beta 82.407741
_cell_angle_gamma 90.000000
_cell_volume 3396.318000
_symmetry_space_group_name_H-M "C 2/M"
_symmetry_group_IT_number 12
_symmetry_cell_setting 'monoclinic'
loop_
_space_group_symop_operation_xyz
x,y,z
-x,y,-z
-x,-y,-z
x,-y,z
1/2+x,1/2+y,z
1/2-x,1/2+y,-z
1/2-x,1/2-y,-z
1/2+x,1/2-y,z
loop_
_atom_site_type_symbol
_atom_site_label
_atom_site_fract_x
_atom_site_fract_y
_atom_site_fract_z
Si Si1 0.589302 0.836402 0.069571
Si Si2 0.579687 0.339573 0.866859
Si Si3 0.532242 0.836399 0.591333
Si Si4 0.987551 0.837180 0.795457
Si Si5 0.217717 0.829686 0.594642
Si Si6 0.385122 0.333629 0.382875
Si Si7 0.189033 0.663101 0.037950
Si Si8 0.769555 0.169413 0.161971
O O1 0.557975 0.731063 0.146683
O O2 0.639136 0.826861 0.103451
O O3 0.570789 0.000000 0.079021
O O4 0.593687 0.784855 0.944377
O O5 0.594144 0.500000 0.902398
O O6 0.525688 0.336144 0.875193
O O7 0.604167 0.303750 0.746417
O O8 0.500000 0.830215 0.500000
O O9 0.504719 0.754142 0.690407
O O10 0.580837 0.761393 0.554606
O O11 0.541561 0.000000 0.624652
O O12 0.977325 0.000000 0.760632
O O13 0.250000 0.750000 0.500000
O O14 0.166472 0.791307 0.578423
O O15 0.227599 0.774724 0.714594
O O16 0.226409 0.000000 0.583699
O O17 0.394253 0.500000 0.408442
O O18 0.200948 0.500000 0.999740
O O19 0.221556 0.713365 0.125428
O O20 0.192951 0.758851 0.927508
O O21 0.778840 0.000000 0.158134
#
# Coordination Sequence:
#
# PCOD8105919 Si02
#       8
#     8   8   8   8   8   8   8   8
#     4  11  21  31  47  77 113 142 171 215 267 316
#     4   9  18  33  53  75 102 139 180 219 260 315
#     4  10  21  38  59  82 106 137 177 222 271 324
#     4  10  21  36  53  74 104 142 179 217 261 314
#     4  10  21  37  57  82 112 146 185 232 281 327
#     4   9  19  36  57  81 108 140 182 227 270 322
#     4   9  19  34  53  79 108 140 177 221 270 324
#     4   9  18  36  58  76 102 142 182 221 270 325
#
# _framework density 18.843937
#
# number of rings (size 3 to 8) (size 9 to 14) (size 15 to 20)
#    0.000    2.375    0.000    3.000    0.000    8.000 
#    2.250    0.000    0.000    0.000    0.000    0.000 
#    0.000    0.000    0.000    0.000    0.000    0.000 
#
# Total GULP energy -396736.167100 kJ/mol
# GULP energy per Si atom -12398.005222 kJ/mol
# Density = 1.880105 g / cm^3
# Si number density = 18.843937 Si / 1000 Ang^3
#
#
#
# Elastic Constant Matrix: (Units=GPa)
#
#
# Indices 1 2 3 4 5 6 
#
# 1 121.3779 60.0739 46.0401 0.0000 -16.1469 0.0000
# 2 60.0739 96.5884 43.8116 0.0000 2.0959 0.0000
# 3 46.0401 43.8116 68.0644 0.0000 -2.9197 0.0000
# 4 0.0000 0.0000 0.0000 33.7289 0.0000 -1.6562
# 5 -16.1469 2.0959 -2.9197 0.0000 22.1950 0.0000
# 6 0.0000 0.0000 0.0000 -1.6562 0.0000 34.3904
#
#
#
# Elastic Compliance Matrix: (Units=1/GPa)
#
#
# Indices 1 2 3 4 5 6 
#
# 1 0.015373 -0.007495 -0.005093 0.000000 0.011221 0.000000
# 2 -0.007495 0.018431 -0.007143 0.000000 -0.008132 0.000000
# 3 -0.005093 -0.007143 0.022733 0.000000 -0.000040 0.000000
# 4 0.000000 0.000000 0.000000 0.029718 0.000000 0.001431
# 5 0.011221 -0.008132 -0.000040 0.000000 0.053982 0.000000
# 6 0.000000 0.000000 0.000000 0.001431 0.000000 0.029147
#
#
# Mechanical properties :
#
#
# Convention : Reuss Voigt Hill
#
# Bulk Modulus (GPa) = 58.56289 65.09797 61.83043
# Shear Modulus (GPa) = 23.30611 27.13655 25.22133
#
# Velocity S-wave (km/s) = 3.52063 3.79894 3.66243
# Velocity P-wave (km/s) = 6.90447 7.33917 7.12514
#
# Compressibility (1/GPa) = 0.01707566
#
# Stress axis : x y z
#
# Youngs Moduli (GPa) = 65.05083 54.25656 43.98893
#
# Poissons Ratio (x) = 0.40663 0.22403
# Poissons Ratio (y) = 0.48752 0.31421
# Poissons Ratio (z) = 0.33130 0.38756
#
# Static dielectric constant tensor:
#      x y z
#    x 3.675310 0.000000 0.111240 
#    y 0.000000 3.570830 0.000000 
#    z 0.111240 0.000000 3.291350 
# 
# 
# High freq. dielectric constant tensor:
#      x y z
#    x 1.743450 0.000000 0.001660 
#    y 0.000000 1.735570 0.000000 
#    z 0.001660 0.000000 1.707680 
# 
# From -- ./inp_files/187510.got.cif
#   From: 2010.06.25/outbox.cif.g09.slc.cpg/sg12_94_cif.got.tgz:187510.got - 2010.06.28 00:19:55.
