data_PCOD8105729
_publ_section_title
;
Structure prediction by ZEFSAII (Michael W. Deem and Ramdas Pophale) SiO2 
 PCOD8105729
Probable space group: C 2/M
;
_chemical_formula_sum "Si O2"
_cell_formula_units_Z 48
_cell_length_a 22.750075
_cell_length_b 9.180637
_cell_length_c 12.042740
_cell_angle_alpha 90.000000
_cell_angle_beta 73.212365
_cell_angle_gamma 90.000000
_cell_volume 2408.053598
_symmetry_space_group_name_H-M "C 2/M"
_symmetry_group_IT_number 12
_symmetry_cell_setting 'monoclinic'
loop_
_space_group_symop_operation_xyz
x,y,z
-x,y,-z
-x,-y,-z
x,-y,z
1/2+x,1/2+y,z
1/2-x,1/2+y,-z
1/2-x,1/2-y,-z
1/2+x,1/2-y,z
loop_
_atom_site_type_symbol
_atom_site_label
_atom_site_fract_x
_atom_site_fract_y
_atom_site_fract_z
Si Si1 0.623936 0.828775 0.332591
Si Si2 0.656009 0.670194 0.773265
Si Si3 0.535983 0.162816 0.867571
Si Si4 0.491804 0.667942 0.689612
Si Si5 0.763834 0.330851 0.878427
Si Si6 0.870040 0.834625 0.458237
O O1 0.559884 0.746448 0.354165
O O2 0.668738 0.792088 0.204906
O O3 0.653795 0.771847 0.431630
O O4 0.612783 0.000000 0.348177
O O5 0.639385 0.500000 0.793528
O O6 0.600988 0.762188 0.855597
O O7 0.716580 0.714006 0.807335
O O8 0.663641 0.708983 0.638534
O O9 0.494436 0.256424 0.807511
O O10 0.546271 0.000000 0.813622
O O11 0.500000 0.153660 0.000000
O O12 0.473548 0.500000 0.714948
O O13 0.556801 0.684481 0.593844
O O14 0.757965 0.500000 0.908444
O O15 0.750000 0.250000 0.000000
O O16 0.853993 0.000000 0.499870
#
# Coordination Sequence:
#
# PCOD8105729 Si02
#       6
#     8   8   8   8   8   8
#     4  11  23  37  57  87 122 154 191 241 294 342
#     4   9  20  40  61  82 113 152 195 241 283 341
#     4  10  21  35  55  85 118 149 186 240 296 342
#     4  10  21  37  58  85 118 155 195 236 283 346
#     4  10  24  43  60  83 116 155 197 242 288 338
#     4   9  19  37  60  86 115 148 193 242 289 346
#
# _framework density 19.933111
#
# number of rings (size 3 to 8) (size 9 to 14) (size 15 to 20)
#    0.000    2.167    0.000    3.000    2.333    9.333 
#    0.000    0.000    0.000    0.000    0.000    0.000 
#    0.000    0.000    0.000    0.000    0.000    0.000 
#
# Total GULP energy -297628.405232 kJ/mol
# GULP energy per Si atom -12401.183551 kJ/mol
# Density = 1.988774 g / cm^3
# Si number density = 19.933111 Si / 1000 Ang^3
#
#
#
# Elastic Constant Matrix: (Units=GPa)
#
#
# Indices 1 2 3 4 5 6 
#
# 1 80.2462 37.1133 34.3575 0.0000 22.3350 0.0000
# 2 37.1133 106.9875 55.9288 0.0000 9.3658 0.0000
# 3 34.3575 55.9288 108.2468 0.0000 15.9263 0.0000
# 4 0.0000 0.0000 0.0000 38.1953 0.0000 4.8997
# 5 22.3350 9.3658 15.9263 0.0000 20.5163 0.0000
# 6 0.0000 0.0000 0.0000 4.8997 0.0000 23.1071
#
#
#
# Elastic Compliance Matrix: (Units=1/GPa)
#
#
# Indices 1 2 3 4 5 6 
#
# 1 0.020565 -0.004818 -0.001205 0.000000 -0.019252 0.000000
# 2 -0.004818 0.013946 -0.006222 0.000000 0.003709 0.000000
# 3 -0.001205 -0.006222 0.013801 0.000000 -0.006561 0.000000
# 4 0.000000 0.000000 0.000000 0.026913 0.000000 -0.005707
# 5 -0.019252 0.003709 -0.006561 0.000000 0.073101 0.000000
# 6 0.000000 0.000000 0.000000 -0.005707 0.000000 0.044487
#
#
# Mechanical properties :
#
#
# Convention : Reuss Voigt Hill
#
# Bulk Modulus (GPa) = 41.98052 61.14220 51.56136
# Shear Modulus (GPa) = 22.19817 27.56915 24.88366
#
# Velocity S-wave (km/s) = 3.34073 3.72302 3.53704
# Velocity P-wave (km/s) = 5.99892 7.01580 6.52719
#
# Compressibility (1/GPa) = 0.02382057
#
# Stress axis : x y z
#
# Youngs Moduli (GPa) = 48.62724 71.70340 72.45984
#
# Poissons Ratio (x) = 0.34550 0.08732
# Poissons Ratio (y) = 0.23431 0.45085
# Poissons Ratio (z) = 0.05860 0.44615
#
# Static dielectric constant tensor:
#      x y z
#    x 3.713770 0.000000 0.182050 
#    y 0.000000 3.759960 0.000000 
#    z 0.182050 0.000000 3.568210 
# 
# 
# High freq. dielectric constant tensor:
#      x y z
#    x 1.773020 0.000000 0.011500 
#    y 0.000000 1.782590 0.000000 
#    z 0.011500 0.000000 1.779110 
# 
# From -- ./inp_files/172126.got.cif
#   From: 2010.06.25/outbox.cif.g09.slc.cpg/sg12_87_cif.got.tgz:172126.got - 2010.06.28 00:19:55.
