data_PCOD8105220
_publ_section_title
;
Structure prediction by ZEFSAII (Michael W. Deem and Ramdas Pophale) SiO2 
 PCOD8105220
Probable space group: C 2/M
;
_chemical_formula_sum "Si O2"
_cell_formula_units_Z 44
_cell_length_a 20.440008
_cell_length_b 14.547614
_cell_length_c 8.456241
_cell_angle_alpha 90.000000
_cell_angle_beta 101.721737
_cell_angle_gamma 90.000000
_cell_volume 2462.053866
_symmetry_space_group_name_H-M "C 2/M"
_symmetry_group_IT_number 12
_symmetry_cell_setting 'monoclinic'
loop_
_space_group_symop_operation_xyz
x,y,z
-x,y,-z
-x,-y,-z
x,-y,z
1/2+x,1/2+y,z
1/2-x,1/2+y,-z
1/2-x,1/2-y,-z
1/2+x,1/2-y,z
loop_
_atom_site_type_symbol
_atom_site_label
_atom_site_fract_x
_atom_site_fract_y
_atom_site_fract_z
Si Si1 0.630531 0.391779 0.995183
Si Si2 0.500000 0.282180 0.500000
Si Si3 0.267715 0.894471 0.232112
Si Si4 0.864972 0.761679 0.291284
Si Si5 0.941822 0.900154 0.734166
Si Si6 0.696668 0.399736 0.511812
O O1 0.625857 0.500000 0.950981
O O2 0.612683 0.328085 0.838975
O O3 0.704283 0.367990 0.094560
O O4 0.574265 0.363960 0.097260
O O5 0.430285 0.229422 0.427633
O O6 0.491660 0.338776 0.657536
O O7 0.329832 0.830610 0.211444
O O8 0.253709 0.876704 0.411359
O O9 0.288172 0.000000 0.213012
O O10 0.809538 0.818911 0.363625
O O11 0.872171 0.910247 0.612483
O O12 0.976489 0.000000 0.763448
O O13 0.712510 0.500000 0.599096
#
# Coordination Sequence:
#
# PCOD8105220 Si02
#       6
#     8   4   8   8   8   8
#     4   9  18  31  49  73  95 116 148 190 238 283
#     4  10  21  30  43  68  96 128 162 180 210 274
#     4   9  18  33  50  68  91 121 157 196 234 267
#     4  11  19  30  47  70  96 126 154 188 226 270
#     4   8  15  29  45  65  96 125 147 180 226 280
#     4   8  15  28  47  70  94 118 148 188 234 280
#
# _framework density 17.871257
#
# number of rings (size 3 to 8) (size 9 to 14) (size 15 to 20)
#    0.000    2.909    0.000    4.091    0.000    2.909 
#    0.000    2.273    0.000    0.000    0.000    2.545 
#    0.000    0.000    0.000    0.000    0.000    0.000 
#
# Total GULP energy -272549.661135 kJ/mol
# GULP energy per Si atom -12388.620961 kJ/mol
# Density = 1.783058 g / cm^3
# Si number density = 17.871257 Si / 1000 Ang^3
#
#
#
# Elastic Constant Matrix: (Units=GPa)
#
#
# Indices 1 2 3 4 5 6 
#
# 1 69.5907 32.6808 23.4811 0.0000 9.4470 0.0000
# 2 32.6808 58.7701 25.8953 0.0000 5.9770 0.0000
# 3 23.4811 25.8953 66.1529 0.0000 -3.1719 0.0000
# 4 0.0000 0.0000 0.0000 18.2456 0.0000 7.1884
# 5 9.4470 5.9770 -3.1719 0.0000 26.1536 0.0000
# 6 0.0000 0.0000 0.0000 7.1884 0.0000 -0.1334
#
#
#
# Elastic Compliance Matrix: (Units=1/GPa)
#
#
# Indices 1 2 3 4 5 6 
#
# 1 0.020878 -0.009203 -0.004093 0.000000 -0.005935 0.000000
# 2 -0.009203 0.025502 -0.006876 0.000000 -0.003338 0.000000
# 3 -0.004093 -0.006876 0.019521 0.000000 0.005417 0.000000
# 4 0.000000 0.000000 0.000000 0.002465 0.000000 0.132857
# 5 -0.005935 -0.003338 0.005417 0.000000 0.041799 0.000000
# 6 0.000000 0.000000 0.000000 0.132857 0.000000 -0.337216
#
#
# Mechanical properties :
#
#
# Convention : Reuss Voigt Hill
#
# Bulk Modulus (GPa) = 39.12802 39.84756 39.48779
# Shear Modulus (GPa) = -28.06029 16.35026 -5.85501
#
# Velocity S-wave (km/s) = -3.96679 3.02800 -1.81200
# Velocity P-wave (km/s) = 0.98048 5.87966 4.21496
#
# Compressibility (1/GPa) = 0.02555713
#
# Stress axis : x y z
#
# Youngs Moduli (GPa) = 47.89677 39.21211 51.22770
#
# Poissons Ratio (x) = 0.36087 0.20967
# Poissons Ratio (y) = 0.44079 0.35225
# Poissons Ratio (z) = 0.19603 0.26963
#
# Static dielectric constant tensor:
#      x y z
#    x 3.243060 0.000000 -0.230020 
#    y 0.000000 3.182730 0.000000 
#    z -0.230020 0.000000 3.334670 
# 
# 
# High freq. dielectric constant tensor:
#      x y z
#    x 1.682240 0.000000 -0.005450 
#    y 0.000000 1.655040 0.000000 
#    z -0.005450 0.000000 1.690080 
# 
# From -- ./inp_files/73210.got.cif
#   From: 2010.06.25/outbox.cif.g09.slc.cpg/sg12_37_cif.got.tgz:73210.got - 2010.06.28 00:19:55.
