data_PCOD8105319
_publ_section_title
;
Structure prediction by ZEFSAII (Michael W. Deem and Ramdas Pophale) SiO2 
 PCOD8105319
Probable space group: C 2/M
;
_chemical_formula_sum "Si O2"
_cell_formula_units_Z 56
_cell_length_a 16.705792
_cell_length_b 25.663268
_cell_length_c 8.904866
_cell_angle_alpha 90.000000
_cell_angle_beta 131.656728
_cell_angle_gamma 90.000000
_cell_volume 2852.388159
_symmetry_space_group_name_H-M "C 2/M"
_symmetry_group_IT_number 12
_symmetry_cell_setting 'monoclinic'
loop_
_space_group_symop_operation_xyz
x,y,z
-x,y,-z
-x,-y,-z
x,-y,z
1/2+x,1/2+y,z
1/2-x,1/2+y,-z
1/2-x,1/2-y,-z
1/2+x,1/2-y,z
loop_
_atom_site_type_symbol
_atom_site_label
_atom_site_fract_x
_atom_site_fract_y
_atom_site_fract_z
Si Si1 0.040030 0.270418 0.884328
Si Si2 0.853346 0.203461 0.538903
Si Si3 0.734950 0.438685 0.969300
Si Si4 0.606809 0.596010 0.546049
Si Si5 0.779282 0.210107 0.760569
Si Si6 0.022421 0.060075 0.868303
Si Si7 0.606133 0.853589 0.728027
O O1 0.082717 0.320738 0.849034
O O2 0.947002 0.245919 0.667610
O O3 0.126542 0.223445 0.004507
O O4 0.000000 0.287860 0.000000
O O5 0.884556 0.157607 0.465547
O O6 0.822131 0.180367 0.664567
O O7 0.754852 0.232472 0.338252
O O8 0.755692 0.500000 0.018415
O O9 0.840226 0.407980 0.154422
O O10 0.710032 0.426970 0.761895
O O11 0.631253 0.416377 0.931075
O O12 0.500000 0.581003 0.500000
O O13 0.587248 0.568255 0.361926
O O14 0.686594 0.177759 0.722284
O O15 0.046751 0.000000 0.921743
O O16 0.000000 0.087610 0.000000
O O17 0.500000 0.866388 0.500000
#
# Coordination Sequence:
#
# PCOD8105319 Si02
#       7
#     8   8   8   8   8   8   8
#     4  10  22  39  60  88 125 158 190 240 296 359
#     4  10  21  36  56  90 121 152 191 242 287 358
#     4  10  23  42  60  86 118 158 205 251 305 352
#     4  10  21  33  60  88 121 155 188 234 302 369
#     4  10  22  37  57  85 123 158 193 234 296 351
#     4   9  19  36  60  90 121 149 187 245 305 361
#     4  12  24  40  63  86 114 162 210 252 293 349
#
# _framework density 19.632671999999999
#
# number of rings (size 3 to 8) (size 9 to 14) (size 15 to 20)
#    0.000    1.857    1.429    1.714    8.000    2.571 
#    0.000    0.000    0.000    0.429    0.000    0.000 
#    0.000    0.000    0.000    0.000    0.000    0.000 
#
# Total GULP energy -347105.719020 kJ/mol
# GULP energy per Si atom -12396.632822 kJ/mol
# Density = 1.958799 g / cm^3
# Si number density = 19.632672 Si / 1000 Ang^3
#
#
#
# Elastic Constant Matrix: (Units=GPa)
#
#
# Indices 1 2 3 4 5 6 
#
# 1 74.5025 37.5599 47.1242 0.0000 -1.8275 0.0000
# 2 37.5599 80.4571 35.0846 0.0000 -1.6628 0.0000
# 3 47.1242 35.0846 115.0207 0.0000 -0.8274 0.0000
# 4 0.0000 0.0000 0.0000 30.0646 0.0000 1.8990
# 5 -1.8275 -1.6628 -0.8274 0.0000 27.7422 0.0000
# 6 0.0000 0.0000 0.0000 1.8990 0.0000 19.8955
#
#
#
# Elastic Compliance Matrix: (Units=1/GPa)
#
#
# Indices 1 2 3 4 5 6 
#
# 1 0.021074 -0.006989 -0.006497 0.000000 0.000776 0.000000
# 2 -0.006989 0.016668 -0.002218 0.000000 0.000473 0.000000
# 3 -0.006497 -0.002218 0.012031 0.000000 -0.000202 0.000000
# 4 0.000000 0.000000 0.000000 0.033463 0.000000 -0.003194
# 5 0.000776 0.000473 -0.000202 0.000000 0.036120 0.000000
# 6 0.000000 0.000000 0.000000 -0.003194 0.000000 0.050567
#
#
# Mechanical properties :
#
#
# Convention : Reuss Voigt Hill
#
# Bulk Modulus (GPa) = 54.44604 56.61309 55.52956
# Shear Modulus (GPa) = 24.10188 25.55457 24.82822
#
# Velocity S-wave (km/s) = 3.50757 3.61173 3.56003
# Velocity P-wave (km/s) = 6.64806 6.80379 6.72637
#
# Compressibility (1/GPa) = 0.01836681
#
# Stress axis : x y z
#
# Youngs Moduli (GPa) = 47.45150 59.99356 83.12040
#
# Poissons Ratio (x) = 0.41930 0.54001
# Poissons Ratio (y) = 0.33164 0.18432
# Poissons Ratio (z) = 0.30828 0.13304
#
# Static dielectric constant tensor:
#      x y z
#    x 3.710420 0.000000 -0.129540 
#    y 0.000000 3.250900 0.000000 
#    z -0.129540 0.000000 3.832650 
# 
# 
# High freq. dielectric constant tensor:
#      x y z
#    x 1.755710 0.000000 -0.009900 
#    y 0.000000 1.744400 0.000000 
#    z -0.009900 0.000000 1.780350 
# 
# From -- ./inp_files/65739.got.cif
#   From: 2010.06.25/outbox.cif.g09.slc.cpg/sg12_33_cif.got.tgz:65739.got - 2010.06.28 00:19:55.
