data_PCOD8105716
_publ_section_title
;
Structure prediction by ZEFSAII (Michael W. Deem and Ramdas Pophale) SiO2 
 PCOD8105716
Probable space group: C 2/M
;
_chemical_formula_sum "Si O2"
_cell_formula_units_Z 64
_cell_length_a 24.257905
_cell_length_b 9.211166
_cell_length_c 27.808037
_cell_angle_alpha 90.000000
_cell_angle_beta 147.344710
_cell_angle_gamma 90.000000
_cell_volume 3352.716941
_symmetry_space_group_name_H-M "C 2/M"
_symmetry_group_IT_number 12
_symmetry_cell_setting 'monoclinic'
loop_
_space_group_symop_operation_xyz
x,y,z
-x,y,-z
-x,-y,-z
x,-y,z
1/2+x,1/2+y,z
1/2-x,1/2+y,-z
1/2-x,1/2-y,-z
1/2+x,1/2-y,z
loop_
_atom_site_type_symbol
_atom_site_label
_atom_site_fract_x
_atom_site_fract_y
_atom_site_fract_z
Si Si1 0.425071 0.329252 0.401260
Si Si2 0.287907 0.335399 0.633545
Si Si3 0.028583 0.330897 0.075947
Si Si4 0.644270 0.169810 0.871092
Si Si5 0.212158 0.830685 0.257460
Si Si6 0.066387 0.667984 0.437545
Si Si7 0.435950 0.169637 0.673932
Si Si8 0.653735 0.830739 0.988657
O O1 0.500000 0.289570 0.500000
O O2 0.405895 0.500000 0.382856
O O3 0.318382 0.249976 0.328839
O O4 0.476169 0.269788 0.390212
O O5 0.307217 0.500000 0.631250
O O6 0.325299 0.308973 0.715294
O O7 0.167970 0.298918 0.542507
O O8 0.347919 0.233603 0.641922
O O9 0.052523 0.500000 0.102714
O O10 0.128723 0.238152 0.161025
O O11 0.936417 0.277672 0.042495
O O12 0.000000 0.300886 0.000000
O O13 0.546812 0.229811 0.770560
O O14 0.624960 0.208124 0.912754
O O15 0.661699 0.000000 0.876364
O O16 0.742541 0.248843 0.921103
O O17 0.226384 0.000000 0.255581
O O18 0.033089 0.500000 0.417839
O O19 0.086974 0.710707 0.397617
O O20 0.433615 0.000000 0.681709
O O21 0.674191 0.000000 0.010717
#
# Coordination Sequence:
#
# PCOD8105716 Si02
#       8
#     8   8   8   8   8   8   8   8
#     4  11  23  39  61  87 113 149 199 248 293 345
#     4  10  21  36  56  82 114 151 191 237 288 345
#     4  10  22  40  60  85 118 151 189 241 295 347
#     4   9  18  33  53  79 107 138 181 228 273 331
#     4  11  23  39  62  88 116 155 197 241 295 351
#     4  10  21  38  57  81 116 153 189 236 294 348
#     4  10  21  35  55  83 115 151 188 232 288 346
#     4   9  18  34  56  78 105 143 181 224 280 332
#
# _framework density 19.088996999999999
#
# number of rings (size 3 to 8) (size 9 to 14) (size 15 to 20)
#    0.000    2.000    1.250    1.875    0.000    5.750 
#    0.000    5.000    0.000    0.000    0.000    0.000 
#    0.000    0.000    0.000    0.000    0.000    0.000 
#
# Total GULP energy -396927.706046 kJ/mol
# GULP energy per Si atom -12403.990814 kJ/mol
# Density = 1.904555 g / cm^3
# Si number density = 19.088997 Si / 1000 Ang^3
#
#
#
# Elastic Constant Matrix: (Units=GPa)
#
#
# Indices 1 2 3 4 5 6 
#
# 1 98.3347 58.3723 58.6374 0.0000 15.1020 0.0000
# 2 58.3723 74.8237 52.0976 -0.0002 8.4984 -0.0004
# 3 58.6374 52.0976 97.8324 0.0000 1.4018 0.0000
# 4 0.0000 -0.0002 0.0000 33.0145 0.0000 8.5318
# 5 15.1020 8.4984 1.4018 0.0000 28.8401 0.0000
# 6 0.0000 -0.0004 0.0000 8.5318 0.0000 33.1394
#
#
#
# Elastic Compliance Matrix: (Units=1/GPa)
#
#
# Indices 1 2 3 4 5 6 
#
# 1 0.022699 -0.011759 -0.007227 0.000000 -0.008070 0.000000
# 2 -0.011759 0.028317 -0.008005 0.000000 -0.001797 0.000000
# 3 -0.007227 -0.008005 0.018741 0.000000 0.005232 0.000000
# 4 0.000000 0.000000 0.000000 0.032449 0.000000 -0.008354
# 5 -0.008070 -0.001797 0.005232 0.000000 0.039175 0.000000
# 6 0.000000 0.000000 0.000000 -0.008354 0.000000 0.032326
#
#
# Mechanical properties :
#
#
# Convention : Reuss Voigt Hill
#
# Bulk Modulus (GPa) = 63.39916 67.68950 65.54433
# Shear Modulus (GPa) = 21.46412 25.79104 23.62758
#
# Velocity S-wave (km/s) = 3.35688 3.67971 3.52200
# Velocity P-wave (km/s) = 6.95049 7.32056 7.13793
#
# Compressibility (1/GPa) = 0.01577308
#
# Stress axis : x y z
#
# Youngs Moduli (GPa) = 44.05546 35.31506 53.35849
#
# Poissons Ratio (x) = 0.41528 0.38563
# Poissons Ratio (y) = 0.51807 0.42714
# Poissons Ratio (z) = 0.31839 0.28270
#
# Static dielectric constant tensor:
#      x y z
#    x 3.462240 0.000000 -0.049960 
#    y 0.000000 3.433060 0.000000 
#    z -0.049960 0.000000 3.602250 
# 
# 
# High freq. dielectric constant tensor:
#      x y z
#    x 1.745080 0.000000 0.002280 
#    y 0.000000 1.737770 0.000000 
#    z 0.002280 0.000000 1.747870 
# 
# From -- ./inp_files/238695.got.cif
#   From: 2010.06.25/outbox.cif.g09.slc.cpg/sg12_120_cif.got.tgz:238695.got - 2010.06.28 00:19:55.
