data_PCOD8105577
_publ_section_title
;
Structure prediction by ZEFSAII (Michael W. Deem and Ramdas Pophale) SiO2 
 PCOD8105577
Probable space group: C 2/M
;
_chemical_formula_sum "Si O2"
_cell_formula_units_Z 48
_cell_length_a 18.831297
_cell_length_b 8.856238
_cell_length_c 31.692458
_cell_angle_alpha 90.000000
_cell_angle_beta 151.720000
_cell_angle_gamma 90.000000
_cell_volume 2504.164907
_symmetry_space_group_name_H-M "C 2/M"
_symmetry_group_IT_number 12
_symmetry_cell_setting 'monoclinic'
loop_
_space_group_symop_operation_xyz
x,y,z
-x,y,-z
-x,-y,-z
x,-y,z
1/2+x,1/2+y,z
1/2-x,1/2+y,-z
1/2-x,1/2-y,-z
1/2+x,1/2-y,z
loop_
_atom_site_type_symbol
_atom_site_label
_atom_site_fract_x
_atom_site_fract_y
_atom_site_fract_z
Si Si1 0.095536 0.827104 0.338153
Si Si2 0.148694 0.321534 0.982722
Si Si3 0.273123 0.676348 0.138765
Si Si4 0.160685 0.821525 0.162311
Si Si5 0.549325 0.323493 0.650444
Si Si6 0.402656 0.321661 0.487631
O O1 0.231588 0.727607 0.392609
O O2 0.948424 0.782417 0.234465
O O3 0.066678 0.794395 0.372337
O O4 0.138763 0.000000 0.353282
O O5 0.141741 0.500000 0.973136
O O6 0.984213 0.252774 0.892486
O O7 0.250000 0.250000 0.000000
O O8 0.218890 0.276434 0.064405
O O9 0.247744 0.500000 0.135273
O O10 0.176528 0.767542 0.122336
O O11 0.300635 0.770953 0.263791
O O12 0.144840 0.000000 0.155154
O O13 0.592065 0.500000 0.670234
O O14 0.472176 0.261197 0.567724
O O15 0.500000 0.255336 0.500000
O O16 0.407024 0.500000 0.489677
#
# Coordination Sequence:
#
# PCOD8105577 Si02
#       6
#     8   8   8   8   8   8
#     4   9  18  34  56  79 103 136 179 222 266 320
#     4  11  23  39  58  81 114 151 185 224 273 328
#     4   9  20  39  60  82 110 145 182 224 277 330
#     4  11  22  36  58  86 111 140 186 234 274 324
#     4   9  19  37  57  77 106 143 181 222 272 326
#     4  10  21  35  52  78 110 142 177 220 272 326
#
# _framework density 19.168068000000002
#
# number of rings (size 3 to 8) (size 9 to 14) (size 15 to 20)
#    0.000    2.167    0.000    4.000    0.000    8.333 
#    0.000    3.333    0.000    0.000    0.000    0.000 
#    0.000    0.000    0.000    0.000    0.000    0.000 
#
# Total GULP energy -297690.842757 kJ/mol
# GULP energy per Si atom -12403.785115 kJ/mol
# Density = 1.912444 g / cm^3
# Si number density = 19.168068 Si / 1000 Ang^3
#
#
#
# Elastic Constant Matrix: (Units=GPa)
#
#
# Indices 1 2 3 4 5 6 
#
# 1 102.3750 36.7983 48.2955 0.0000 28.6972 0.0000
# 2 36.7983 64.6680 31.6540 -0.0001 11.9888 0.0002
# 3 48.2955 31.6540 78.2698 -0.0004 19.8659 0.0001
# 4 0.0000 -0.0001 -0.0004 28.8096 0.0000 7.8243
# 5 28.6972 11.9888 19.8659 0.0000 27.1687 0.0000
# 6 0.0000 0.0002 0.0001 7.8243 0.0000 29.7511
#
#
#
# Elastic Compliance Matrix: (Units=1/GPa)
#
#
# Indices 1 2 3 4 5 6 
#
# 1 0.017747 -0.004970 -0.005819 0.000000 -0.012297 0.000000
# 2 -0.004970 0.020939 -0.005389 0.000000 -0.000049 0.000000
# 3 -0.005819 -0.005389 0.020116 0.000000 -0.006185 0.000000
# 4 0.000000 0.000000 0.000000 0.037380 0.000000 -0.009831
# 5 -0.012297 -0.000049 -0.006185 0.000000 0.054340 0.000000
# 6 0.000000 0.000000 0.000000 -0.009831 0.000000 0.036198
#
#
# Mechanical properties :
#
#
# Convention : Reuss Voigt Hill
#
# Bulk Modulus (GPa) = 37.81418 53.20094 45.50756
# Shear Modulus (GPa) = 21.94031 25.71688 23.82859
#
# Velocity S-wave (km/s) = 3.38691 3.66683 3.52964
# Velocity P-wave (km/s) = 5.92160 6.76334 6.35642
#
# Compressibility (1/GPa) = 0.02644511
#
# Stress axis : x y z
#
# Youngs Moduli (GPa) = 56.34803 47.75837 49.71174
#
# Poissons Ratio (x) = 0.23738 0.28928
# Poissons Ratio (y) = 0.28007 0.26788
# Poissons Ratio (z) = 0.32790 0.25735
#
# Static dielectric constant tensor:
#      x y z
#    x 3.648020 0.000000 -0.004520 
#    y 0.000000 3.363220 0.000000 
#    z -0.004520 0.000000 3.703790 
# 
# 
# High freq. dielectric constant tensor:
#      x y z
#    x 1.743770 0.000000 0.003100 
#    y 0.000000 1.737730 0.000000 
#    z 0.003100 0.000000 1.756280 
# 
# From -- ./inp_files/274093.got.cif
#   From: 2010.06.25/outbox.cif.g09.slc.cpg/sg12_138_cif.got.tgz:274093.got - 2010.06.28 00:19:55.
