data_PCOD8105153
_publ_section_title
;
Structure prediction by ZEFSAII (Michael W. Deem and Ramdas Pophale) SiO2 
 PCOD8105153
Probable space group: C 2/M
;
_chemical_formula_sum "Si O2"
_cell_formula_units_Z 56
_cell_length_a 20.881036
_cell_length_b 8.835521
_cell_length_c 17.315799
_cell_angle_alpha 90.000000
_cell_angle_beta 117.974030
_cell_angle_gamma 90.000000
_cell_volume 2821.410497
_symmetry_space_group_name_H-M "C 2/M"
_symmetry_group_IT_number 12
_symmetry_cell_setting 'monoclinic'
loop_
_space_group_symop_operation_xyz
x,y,z
-x,y,-z
-x,-y,-z
x,-y,z
1/2+x,1/2+y,z
1/2-x,1/2+y,-z
1/2-x,1/2-y,-z
1/2+x,1/2-y,z
loop_
_atom_site_type_symbol
_atom_site_label
_atom_site_fract_x
_atom_site_fract_y
_atom_site_fract_z
Si Si1 0.554481 0.323198 0.286048
Si Si2 0.906367 0.320909 0.256956
Si Si3 0.326969 0.677608 0.524082
Si Si4 0.317986 0.324738 0.079091
Si Si5 0.092416 0.332184 0.987952
Si Si6 0.918999 0.822082 0.428409
Si Si7 0.573860 0.166901 0.144268
O O1 0.537768 0.500000 0.285682
O O2 0.480803 0.233703 0.260004
O O3 0.614675 0.267656 0.380282
O O4 0.586098 0.287841 0.218953
O O5 0.904042 0.500000 0.251180
O O6 0.837949 0.254354 0.171428
O O7 0.898757 0.268271 0.340452
O O8 0.316016 0.500000 0.522537
O O9 0.250000 0.750000 0.500000
O O10 0.359384 0.724270 0.458971
O O11 0.304952 0.500000 0.087701
O O12 0.250000 0.250000 0.000000
O O13 0.382567 0.299156 0.055224
O O14 0.125010 0.500000 0.986600
O O15 0.116574 0.288695 0.089615
O O16 0.007701 0.340612 0.929621
O O17 0.000000 0.775338 0.500000
O O18 0.916822 0.000000 0.409478
O O19 0.598535 0.000000 0.187423
#
# Coordination Sequence:
#
# PCOD8105153 Si02
#       7
#     8   8   8   8   8   8   8
#     4  11  21  37  61  90 121 160 205 254 310 372
#     4  12  24  39  63  95 125 159 209 265 315 373
#     4  10  23  42  64  90 126 167 203 256 319 378
#     4  12  25  42  63  87 120 163 207 258 317 374
#     4   9  18  35  57  84 118 153 193 242 297 355
#     4  10  20  41  68  94 128 167 212 261 316 381
#     4   9  18  33  57  87 118 152 191 242 297 353
#
# _framework density 19.848227999999999
#
# number of rings (size 3 to 8) (size 9 to 14) (size 15 to 20)
#    0.000    1.571    2.857    3.857    0.000    2.571 
#    2.571    1.429    0.000    0.000    0.000    0.000 
#    0.000    0.000    0.000    0.000    0.000    0.000 
#
# Total GULP energy -347098.456690 kJ/mol
# GULP energy per Si atom -12396.373453 kJ/mol
# Density = 1.980305 g / cm^3
# Si number density = 19.848228 Si / 1000 Ang^3
#
#
#
# Elastic Constant Matrix: (Units=GPa)
#
#
# Indices 1 2 3 4 5 6 
#
# 1 70.3020 32.9060 43.2469 0.0000 -4.1243 0.0000
# 2 32.9060 108.0233 67.4380 0.0000 -1.2484 0.0000
# 3 43.2469 67.4380 156.9653 0.0000 -9.5843 0.0000
# 4 0.0000 0.0000 0.0000 35.9206 0.0000 -3.9606
# 5 -4.1243 -1.2484 -9.5843 0.0000 35.1419 0.0000
# 6 0.0000 0.0000 0.0000 -3.9606 0.0000 31.2277
#
#
#
# Elastic Compliance Matrix: (Units=1/GPa)
#
#
# Indices 1 2 3 4 5 6 
#
# 1 0.017962 -0.003293 -0.003470 0.000000 0.001045 0.000000
# 2 -0.003293 0.013292 -0.004880 0.000000 -0.001245 0.000000
# 3 -0.003470 -0.004880 0.009547 0.000000 0.002023 0.000000
# 4 0.000000 0.000000 0.000000 0.028234 0.000000 0.003581
# 5 0.001045 -0.001245 0.002023 0.000000 0.029086 0.000000
# 6 0.000000 0.000000 0.000000 0.003581 0.000000 0.032477
#
#
# Mechanical properties :
#
#
# Convention : Reuss Voigt Hill
#
# Bulk Modulus (GPa) = 57.09292 69.16361 63.12826
# Shear Modulus (GPa) = 31.30437 33.23802 32.27120
#
# Velocity S-wave (km/s) = 3.97569 4.09664 4.03662
# Velocity P-wave (km/s) = 7.06414 7.56958 7.32122
#
# Compressibility (1/GPa) = 0.01751531
#
# Stress axis : x y z
#
# Youngs Moduli (GPa) = 55.67404 75.23177 104.74573
#
# Poissons Ratio (x) = 0.24774 0.36349
# Poissons Ratio (y) = 0.18333 0.51112
# Poissons Ratio (z) = 0.19320 0.36710
#
# Static dielectric constant tensor:
#      x y z
#    x 2.953430 0.000000 0.028860 
#    y 0.000000 5.513300 0.000000 
#    z 0.028860 0.000000 3.799380 
# 
# 
# High freq. dielectric constant tensor:
#      x y z
#    x 1.762140 0.000000 -0.015920 
#    y 0.000000 1.767390 0.000000 
#    z -0.015920 0.000000 1.786040 
# 
# From -- ./inp_files/281646.got.cif
#   From: 2010.06.25/outbox.cif.g09.slc.cpg/sg12_141_cif.got.tgz:281646.got - 2010.06.28 00:19:55.
