data_PCOD8105405
_publ_section_title
;
Structure prediction by ZEFSAII (Michael W. Deem and Ramdas Pophale) SiO2 
 PCOD8105405
Probable space group: C 2/M
;
_chemical_formula_sum "Si O2"
_cell_formula_units_Z 36
_cell_length_a 16.652443
_cell_length_b 14.861444
_cell_length_c 18.577946
_cell_angle_alpha 90.000000
_cell_angle_beta 156.058285
_cell_angle_gamma 90.000000
_cell_volume 1865.762321
_symmetry_space_group_name_H-M "C 2/M"
_symmetry_group_IT_number 12
_symmetry_cell_setting 'monoclinic'
loop_
_space_group_symop_operation_xyz
x,y,z
-x,y,-z
-x,-y,-z
x,-y,z
1/2+x,1/2+y,z
1/2-x,1/2+y,-z
1/2-x,1/2-y,-z
1/2+x,1/2-y,z
loop_
_atom_site_type_symbol
_atom_site_label
_atom_site_fract_x
_atom_site_fract_y
_atom_site_fract_z
Si Si1 0.853810 0.604171 0.134013
Si Si2 0.719036 0.602960 0.566312
Si Si3 0.670468 0.398596 0.834145
Si Si4 0.285840 0.273079 0.851431
Si Si5 0.000000 0.780140 0.500000
O O1 0.861379 0.500000 0.162695
O O2 0.779268 0.660269 0.139736
O O3 0.070958 0.639502 0.289527
O O4 0.702845 0.621265 0.944699
O O5 0.740599 0.500000 0.608944
O O6 0.562154 0.613591 0.372863
O O7 0.653834 0.658124 0.582651
O O8 0.741966 0.500000 0.873629
O O9 0.795048 0.329790 0.887242
O O10 0.127369 0.282756 0.657221
O O11 0.500000 0.302940 0.000000
#
# Coordination Sequence:
#
# PCOD8105405 Si02
#       5
#     8   8   8   8   4
#     4  10  21  37  56  77 104 142 183 218 255 304
#     4   9  18  34  56  81 107 135 170 216 269 319
#     4   9  19  35  57  82 104 132 172 219 270 319
#     4  11  23  36  53  79 109 142 178 216 260 310
#     4  10  21  34  53  82 110 136 168 214 270 322
#
# _framework density 19.295062000000001
#
# number of rings (size 3 to 8) (size 9 to 14) (size 15 to 20)
#    0.000    2.222    0.000    2.333    0.000    7.111 
#    0.000    0.556    0.000    0.000    0.000    0.000 
#    0.000    0.000    0.000    0.000    0.000    0.000 
#
# Total GULP energy -223248.343168 kJ/mol
# GULP energy per Si atom -12402.685732 kJ/mol
# Density = 1.925115 g / cm^3
# Si number density = 19.295062 Si / 1000 Ang^3
#
#
#
# Elastic Constant Matrix: (Units=GPa)
#
#
# Indices 1 2 3 4 5 6 
#
# 1 139.6519 55.3274 72.8339 0.0115 1.9865 0.0003
# 2 55.3274 60.0651 38.3682 0.0337 0.1949 0.0100
# 3 72.8339 38.3682 97.3542 0.0368 -8.2996 -0.0068
# 4 0.0115 0.0337 0.0368 19.5146 0.0183 -4.2945
# 5 1.9865 0.1949 -8.2996 0.0183 39.8745 -0.0029
# 6 0.0003 0.0100 -0.0068 -4.2945 -0.0029 21.3837
#
#
#
# Elastic Compliance Matrix: (Units=1/GPa)
#
#
# Indices 1 2 3 4 5 6 
#
# 1 0.014615 -0.008479 -0.007789 0.000024 -0.002308 0.000006
# 2 -0.008479 0.027323 -0.004479 -0.000038 -0.000643 -0.000022
# 3 -0.007789 -0.004479 0.018223 -0.000025 0.004203 0.000003
# 4 0.000024 -0.000038 -0.000025 0.053613 -0.000030 0.010767
# 5 -0.002308 -0.000643 0.004203 -0.000030 0.026072 -0.000001
# 6 0.000006 -0.000022 0.000003 0.010767 -0.000001 0.048927
#
#
# Mechanical properties :
#
#
# Convention : Reuss Voigt Hill
#
# Bulk Modulus (GPa) = 53.57613 70.01449 61.79531
# Shear Modulus (GPa) = 21.14263 24.85734 22.99998
#
# Velocity S-wave (km/s) = 3.31381 3.59315 3.45630
# Velocity P-wave (km/s) = 6.51681 7.31979 6.92994
#
# Compressibility (1/GPa) = 0.01866503
#
# Stress axis : x y z
#
# Youngs Moduli (GPa) = 68.42207 36.59985 54.87699
#
# Poissons Ratio (x) = 0.31035 0.42744
# Poissons Ratio (y) = 0.58018 0.24580
# Poissons Ratio (z) = 0.53294 0.16394
#
# Static dielectric constant tensor:
#      x y z
#    x 3.373100 -0.000010 -0.147470 
#    y -0.000010 3.435270 -0.000020 
#    z -0.147470 -0.000020 3.714940 
# 
# 
# High freq. dielectric constant tensor:
#      x y z
#    x 1.741460 0.000000 -0.011880 
#    y 0.000000 1.738520 0.000000 
#    z -0.011880 0.000000 1.764940 
# 
# From -- ./inp_files/47166.got.cif
#   From: 2010.06.25/outbox.cif.g09.slc.cpg/sg12_24_cif.got.tgz:47166.got - 2010.06.28 00:19:55.
