data_PCOD8105365
_publ_section_title
;
Structure prediction by ZEFSAII (Michael W. Deem and Ramdas Pophale) SiO2 
 PCOD8105365
Probable space group: C 2/M
;
_chemical_formula_sum "Si O2"
_cell_formula_units_Z 40
_cell_length_a 14.830914
_cell_length_b 28.291468
_cell_length_c 4.867807
_cell_angle_alpha 90.000000
_cell_angle_beta 59.503722
_cell_angle_gamma 90.000000
_cell_volume 1759.923360
_symmetry_space_group_name_H-M "C 2/M"
_symmetry_group_IT_number 12
_symmetry_cell_setting 'monoclinic'
loop_
_space_group_symop_operation_xyz
x,y,z
-x,y,-z
-x,-y,-z
x,-y,z
1/2+x,1/2+y,z
1/2-x,1/2+y,-z
1/2-x,1/2-y,-z
1/2+x,1/2-y,z
loop_
_atom_site_type_symbol
_atom_site_label
_atom_site_fract_x
_atom_site_fract_y
_atom_site_fract_z
Si Si1 0.747826 0.649068 0.631230
Si Si2 0.427543 0.220329 0.366404
Si Si3 0.785220 0.947237 0.143111
Si Si4 0.621785 0.318903 0.342833
Si Si5 0.083548 0.947381 0.562464
O O1 0.849306 0.679192 0.394275
O O2 0.789789 0.597035 0.665302
O O3 0.673263 0.643943 0.477315
O O4 0.681369 0.676192 0.964346
O O5 0.500000 0.201087 0.500000
O O6 0.361976 0.265904 0.567583
O O7 0.500000 0.235403 0.000000
O O8 0.890306 0.932861 0.162420
O O9 0.743903 0.000000 0.296292
O O10 0.809074 0.947008 0.783337
O O11 0.500000 0.329957 0.500000
O O12 0.000000 0.917763 0.500000
O O13 0.037386 0.000000 0.658521
#
# Coordination Sequence:
#
# PCOD8105365 Si02
#       5
#     8   8   8   8   8
#     4  12  23  38  62  87 118 158 196 236 289 347
#     4  11  23  42  64  87 116 150 195 247 297 347
#     4  10  21  34  50  76 110 149 190 233 278 326
#     4  11  23  39  59  90 123 152 188 234 290 355
#     4   9  17  30  47  68 101 146 190 227 268 324
#
# _framework density 22.728262000000001
#
# number of rings (size 3 to 8) (size 9 to 14) (size 15 to 20)
#    0.000    1.400    0.000    7.200    0.000    7.200 
#    0.000    0.000    0.000    1.200    0.000    0.000 
#    0.000    0.000    0.000    0.000    0.000    0.000 
#
# Total GULP energy -247788.837085 kJ/mol
# GULP energy per Si atom -12389.441854 kJ/mol
# Density = 2.267653 g / cm^3
# Si number density = 22.728262 Si / 1000 Ang^3
#
#
#
# Elastic Constant Matrix: (Units=GPa)
#
#
# Indices 1 2 3 4 5 6 
#
# 1 63.7740 7.5655 23.7856 0.0000 19.9706 0.0000
# 2 7.5655 122.8600 10.1843 0.0000 -15.2401 0.0000
# 3 23.7856 10.1843 84.0756 0.0000 21.1292 0.0000
# 4 0.0000 0.0000 0.0000 18.3345 0.0000 15.5400
# 5 19.9706 -15.2401 21.1292 0.0000 32.8912 0.0000
# 6 0.0000 0.0000 0.0000 15.5400 0.0000 -6.6647
#
#
#
# Elastic Compliance Matrix: (Units=1/GPa)
#
#
# Indices 1 2 3 4 5 6 
#
# 1 0.020731 -0.002581 -0.002490 0.000000 -0.012183 0.000000
# 2 -0.002581 0.009401 -0.002262 0.000000 0.007377 0.000000
# 3 -0.002490 -0.002262 0.015212 0.000000 -0.009308 0.000000
# 4 0.000000 0.000000 0.000000 0.018325 0.000000 0.042729
# 5 -0.012183 0.007377 -0.009308 0.000000 0.047198 0.000000
# 6 0.000000 0.000000 0.000000 0.042729 0.000000 -0.050413
#
#
# Mechanical properties :
#
#
# Convention : Reuss Voigt Hill
#
# Bulk Modulus (GPa) = 32.59942 39.30895 35.95419
# Shear Modulus (GPa) = 58.58439 24.19048 41.38744
#
# Velocity S-wave (km/s) = 5.08252 3.26595 4.27191
# Velocity P-wave (km/s) = 6.98691 5.61735 6.33923
#
# Compressibility (1/GPa) = 0.03067539
#
# Stress axis : x y z
#
# Youngs Moduli (GPa) = 48.23782 106.37338 65.73800
#
# Poissons Ratio (x) = 0.27459 0.16371
# Poissons Ratio (y) = 0.12452 0.14872
# Poissons Ratio (z) = 0.12013 0.24064
#
# Static dielectric constant tensor:
#      x y z
#    x 4.143490 0.000000 0.536290 
#    y 0.000000 4.308880 0.000000 
#    z 0.536290 0.000000 3.915930 
# 
# 
# High freq. dielectric constant tensor:
#      x y z
#    x 1.867490 0.000000 0.054090 
#    y 0.000000 1.911190 0.000000 
#    z 0.054090 0.000000 1.879020 
# 
# From -- ./inp_files/12732.got.cif
#   From: 2010.06.25/outbox.cif.g09.slc.cpg/sg12_7_cif.got.tgz:12732.got - 2010.06.28 00:19:55.
