data_PCOD8105294
_publ_section_title
;
Structure prediction by ZEFSAII (Michael W. Deem and Ramdas Pophale) SiO2 
 PCOD8105294
Probable space group: C 2/M
;
_chemical_formula_sum "Si O2"
_cell_formula_units_Z 48
_cell_length_a 18.651440
_cell_length_b 26.379672
_cell_length_c 10.080898
_cell_angle_alpha 90.000000
_cell_angle_beta 29.307041
_cell_angle_gamma 90.000000
_cell_volume 2427.864595
_symmetry_space_group_name_H-M "C 2/M"
_symmetry_group_IT_number 12
_symmetry_cell_setting 'monoclinic'
loop_
_space_group_symop_operation_xyz
x,y,z
-x,y,-z
-x,-y,-z
x,-y,z
1/2+x,1/2+y,z
1/2-x,1/2+y,-z
1/2-x,1/2-y,-z
1/2+x,1/2-y,z
loop_
_atom_site_type_symbol
_atom_site_label
_atom_site_fract_x
_atom_site_fract_y
_atom_site_fract_z
Si Si1 0.599185 0.694012 0.523676
Si Si2 0.161962 0.141422 0.693746
Si Si3 0.403643 0.057501 0.276187
Si Si4 0.861105 0.693812 0.572822
Si Si5 0.554581 0.903834 0.274520
Si Si6 0.290548 0.666829 0.924513
O O1 0.669007 0.669363 0.541032
O O2 0.568524 0.753783 0.592608
O O3 0.452497 0.663440 0.724017
O O4 0.711615 0.691282 0.218441
O O5 0.259207 0.090788 0.530722
O O6 0.220337 0.180392 0.710131
O O7 0.000000 0.125155 0.000000
O O8 0.512640 0.057536 0.226746
O O9 0.352752 0.000000 0.331109
O O10 0.500000 0.079162 0.000000
O O11 0.981248 0.650545 0.360398
O O12 0.813492 0.697779 0.804735
O O13 0.500000 0.928102 0.500000
O O14 0.727748 0.890914 0.009252
#
# Coordination Sequence:
#
# PCOD8105294 Si02
#       6
#     8   8   8   8   8   8
#     4  11  22  32  54  80 116 159 191 229 268 332
#     4  11  22  40  58  83 118 152 192 240 288 340
#     4  10  22  42  65  86 108 142 191 246 301 351
#     4  10  21  35  52  80 114 157 193 231 269 326
#     4   9  20  35  57  82 112 145 183 234 282 339
#     4  10  21  33  52  80 114 152 192 227 273 326
#
# _framework density 19.770458999999999
#
# number of rings (size 3 to 8) (size 9 to 14) (size 15 to 20)
#    0.000    1.833    1.667    2.000    9.333    0.667 
#    0.000    0.833    0.000    0.000    0.000    4.667 
#    0.000    0.000    0.000    0.000    0.000    0.000 
#
# Total GULP energy -297539.075140 kJ/mol
# GULP energy per Si atom -12397.461464 kJ/mol
# Density = 1.972546 g / cm^3
# Si number density = 19.770459 Si / 1000 Ang^3
#
#
#
# Elastic Constant Matrix: (Units=GPa)
#
#
# Indices 1 2 3 4 5 6 
#
# 1 114.3381 27.1391 33.9381 0.0001 13.1650 0.0008
# 2 27.1391 56.9169 30.6036 -0.0002 4.2151 0.0001
# 3 33.9381 30.6036 84.8315 -0.0003 1.2577 0.0041
# 4 0.0001 -0.0002 -0.0003 16.1148 -0.0013 -1.4427
# 5 13.1650 4.2151 1.2577 -0.0013 35.4038 -0.0007
# 6 0.0008 0.0001 0.0041 -1.4427 -0.0007 19.7164
#
#
#
# Elastic Compliance Matrix: (Units=1/GPa)
#
#
# Indices 1 2 3 4 5 6 
#
# 1 0.010847 -0.003232 -0.003121 0.000000 -0.003538 0.000000
# 2 -0.003232 0.022952 -0.006968 0.000000 -0.001283 0.000001
# 3 -0.003121 -0.006968 0.015529 0.000000 0.001439 -0.000003
# 4 0.000000 0.000000 0.000000 0.062464 0.000003 0.004571
# 5 -0.003538 -0.001283 0.001439 0.000003 0.029663 0.000001
# 6 0.000000 0.000001 -0.000003 0.004571 0.000001 0.051054
#
#
# Mechanical properties :
#
#
# Convention : Reuss Voigt Hill
#
# Bulk Modulus (GPa) = 44.07996 48.82758 46.45377
# Shear Modulus (GPa) = 22.05429 25.20736 23.63083
#
# Velocity S-wave (km/s) = 3.34356 3.57459 3.46100
# Velocity P-wave (km/s) = 6.10329 6.46435 6.28641
#
# Compressibility (1/GPa) = 0.02268604
#
# Stress axis : x y z
#
# Youngs Moduli (GPa) = 92.19280 43.56864 64.39469
#
# Poissons Ratio (x) = 0.14081 0.20098
# Poissons Ratio (y) = 0.29795 0.44872
# Poissons Ratio (z) = 0.28774 0.30360
#
# Static dielectric constant tensor:
#      x y z
#    x 3.944310 0.000000 0.082570 
#    y 0.000000 3.208140 0.000000 
#    z 0.082570 0.000000 3.643510 
# 
# 
# High freq. dielectric constant tensor:
#      x y z
#    x 1.789040 0.000000 0.009270 
#    y 0.000000 1.732820 0.000000 
#    z 0.009270 0.000000 1.772490 
# 
# From -- ./inp_files/80609.got.cif
#   From: 2010.06.25/outbox.cif.g09.slc.cpg/sg12_41_cif.got.tgz:80609.got - 2010.06.28 00:19:55.
