data_PCOD8105013
_publ_section_title
;
Structure prediction by ZEFSAII (Michael W. Deem and Ramdas Pophale) SiO2 
 PCOD8105013
Probable space group: C 2/M
;
_chemical_formula_sum "Si O2"
_cell_formula_units_Z 48
_cell_length_a 29.738400
_cell_length_b 8.784519
_cell_length_c 14.562057
_cell_angle_alpha 90.000000
_cell_angle_beta 39.890805
_cell_angle_gamma 90.000000
_cell_volume 2439.706042
_symmetry_space_group_name_H-M "C 2/M"
_symmetry_group_IT_number 12
_symmetry_cell_setting 'monoclinic'
loop_
_space_group_symop_operation_xyz
x,y,z
-x,y,-z
-x,-y,-z
x,-y,z
1/2+x,1/2+y,z
1/2-x,1/2+y,-z
1/2-x,1/2-y,-z
1/2+x,1/2-y,z
loop_
_atom_site_type_symbol
_atom_site_label
_atom_site_fract_x
_atom_site_fract_y
_atom_site_fract_z
Si Si1 0.823889 0.321731 0.663167
Si Si2 0.679398 0.821476 0.648717
Si Si3 0.564698 0.674743 0.157645
Si Si4 0.680560 0.822733 0.858367
Si Si5 0.593922 0.678945 0.631260
Si Si6 0.077019 0.175359 0.350428
O O1 0.829798 0.500000 0.636420
O O2 0.743389 0.274467 0.803865
O O3 0.852774 0.234266 0.529749
O O4 0.865861 0.278089 0.688787
O O5 0.750000 0.750000 0.500000
O O6 0.669325 0.777584 0.770288
O O7 0.612728 0.755621 0.698659
O O8 0.683399 0.000000 0.627082
O O9 0.574050 0.500000 0.112149
O O10 0.484235 0.726006 0.274396
O O11 0.588803 0.697051 0.224246
O O12 0.609764 0.783376 0.022726
O O13 0.697859 0.000000 0.842477
O O14 0.602963 0.500000 0.626848
O O15 0.000000 0.231985 0.500000
O O16 0.086471 0.000000 0.366258
#
# Coordination Sequence:
#
# PCOD8105013 Si02
#       6
#     8   8   8   8   8   8
#     4  12  24  38  63  95 125 161 210 258 305 371
#     4  11  23  39  63  93 123 164 209 258 309 365
#     4  10  23  42  65  92 125 165 206 253 311 370
#     4  11  25  43  63  89 128 167 204 256 315 367
#     4  11  22  40  65  93 125 163 207 256 310 368
#     4  10  20  40  66  91 124 164 206 254 308 367
#
# _framework density 19.674503000000001
#
# number of rings (size 3 to 8) (size 9 to 14) (size 15 to 20)
#    0.000    1.167    3.333    3.000    0.000    5.667 
#    0.000    3.333    0.000    0.000    0.000    0.000 
#    0.000    0.000    0.000    0.000    0.000    0.000 
#
# Total GULP energy -297781.110397 kJ/mol
# GULP energy per Si atom -12407.546267 kJ/mol
# Density = 1.962972 g / cm^3
# Si number density = 19.674503 Si / 1000 Ang^3
#
#
#
# Elastic Constant Matrix: (Units=GPa)
#
#
# Indices 1 2 3 4 5 6 
#
# 1 109.2498 40.7466 16.0958 -0.0001 -0.5212 0.0000
# 2 40.7466 79.1994 28.1297 0.0008 2.5780 0.0000
# 3 16.0958 28.1297 78.6717 0.0001 7.5768 0.0000
# 4 -0.0001 0.0008 0.0001 34.3556 0.0001 -1.3591
# 5 -0.5212 2.5780 7.5768 0.0001 28.8577 0.0000
# 6 0.0000 0.0000 0.0000 -1.3591 0.0000 37.1005
#
#
#
# Elastic Compliance Matrix: (Units=1/GPa)
#
#
# Indices 1 2 3 4 5 6 
#
# 1 0.011350 -0.005743 -0.000347 0.000000 0.000809 0.000000
# 2 -0.005743 0.017369 -0.005002 0.000000 -0.000342 0.000000
# 3 -0.000347 -0.005002 0.014905 0.000000 -0.003473 0.000000
# 4 0.000000 0.000000 0.000000 0.029150 0.000000 0.001068
# 5 0.000809 -0.000342 -0.003473 0.000000 0.035610 0.000000
# 6 0.000000 0.000000 0.000000 0.001068 0.000000 0.026993
#
#
# Mechanical properties :
#
#
# Convention : Reuss Voigt Hill
#
# Bulk Modulus (GPa) = 46.64128 48.56280 47.60204
# Shear Modulus (GPa) = 30.35702 32.20601 31.28151
#
# Velocity S-wave (km/s) = 3.93232 4.05030 3.99175
# Velocity P-wave (km/s) = 6.66149 6.82715 6.74483
#
# Compressibility (1/GPa) = 0.02144023
#
# Stress axis : x y z
#
# Youngs Moduli (GPa) = 88.10521 57.57491 67.09095
#
# Poissons Ratio (x) = 0.33063 0.02327
# Poissons Ratio (y) = 0.50595 0.33562
# Poissons Ratio (z) = 0.03055 0.28802
#
# Static dielectric constant tensor:
#      x y z
#    x 3.824480 0.000000 0.035560 
#    y 0.000000 3.577380 0.000000 
#    z 0.035560 0.000000 3.472280 
# 
# 
# High freq. dielectric constant tensor:
#      x y z
#    x 1.783070 0.000000 -0.001510 
#    y 0.000000 1.770190 0.000000 
#    z -0.001510 0.000000 1.761590 
# 
# From -- ./inp_files/244732.got.cif
#   From: 2010.06.25/outbox.cif.g09.slc.cpg/sg12_123_cif.got.tgz:244732.got - 2010.06.28 00:19:55.
