data_PCOD8105818
_publ_section_title
;
Structure prediction by ZEFSAII (Michael W. Deem and Ramdas Pophale) SiO2 
 PCOD8105818
Probable space group: C 2/M
;
_chemical_formula_sum "Si O2"
_cell_formula_units_Z 64
_cell_length_a 30.083928
_cell_length_b 12.732935
_cell_length_c 16.842361
_cell_angle_alpha 90.000000
_cell_angle_beta 32.238073
_cell_angle_gamma 90.000000
_cell_volume 3441.520439
_symmetry_space_group_name_H-M "C 2/M"
_symmetry_group_IT_number 12
_symmetry_cell_setting 'monoclinic'
loop_
_space_group_symop_operation_xyz
x,y,z
-x,y,-z
-x,-y,-z
x,-y,z
1/2+x,1/2+y,z
1/2-x,1/2+y,-z
1/2-x,1/2-y,-z
1/2+x,1/2-y,z
loop_
_atom_site_type_symbol
_atom_site_label
_atom_site_fract_x
_atom_site_fract_y
_atom_site_fract_z
Si Si1 0.644413 0.185383 0.579757
Si Si2 0.663079 0.767104 0.375799
Si Si3 0.040203 0.620789 0.135538
Si Si4 0.490034 0.618169 0.421934
Si Si5 0.371589 0.251648 0.864297
Si Si6 0.710996 0.124845 0.148711
Si Si7 0.692523 0.119267 0.801196
Si Si8 0.235551 0.114833 0.472846
O O1 0.658478 0.166830 0.464590
O O2 0.553857 0.149936 0.745419
O O3 0.715235 0.120321 0.518760
O O4 0.657297 0.307150 0.584697
O O5 0.583887 0.691816 0.495103
O O6 0.661790 0.848137 0.304402
O O7 0.745428 0.695668 0.245345
O O8 0.044790 0.500000 0.155585
O O9 0.070138 0.692446 0.162012
O O10 0.097917 0.641794 0.971369
O O11 0.500000 0.620933 0.500000
O O12 0.472724 0.500000 0.417839
O O13 0.576975 0.657585 0.256026
O O14 0.341158 0.163958 0.848025
O O15 0.297251 0.311746 0.020709
O O16 0.724850 0.000000 0.121723
O O17 0.698960 0.139039 0.697162
O O18 0.717711 0.000000 0.785288
O O19 0.196076 0.000000 0.523707
#
# Coordination Sequence:
#
# PCOD8105818 Si02
#       8
#     8   8   8   8   8   8   8   8
#     4  10  21  35  58  87 115 148 183 234 283 341
#     4  11  20  38  56  82 117 145 190 232 276 341
#     4  11  21  35  58  87 115 147 187 234 287 333
#     4  11  22  37  59  85 112 148 191 238 283 325
#     4  11  22  42  56  81 117 149 195 237 274 335
#     4  11  24  39  58  80 113 159 193 230 282 335
#     4   9  19  35  58  83 110 144 183 235 286 331
#     4   9  19  38  59  84 112 147 189 230 286 341
#
# _framework density 18.596432
#
# number of rings (size 3 to 8) (size 9 to 14) (size 15 to 20)
#    0.000    1.625    3.750    1.500    0.000    2.000 
#    0.000    2.500    0.000    0.000    0.000    2.625 
#    0.000    0.000    0.000    0.000    0.000    0.000 
#
# Total GULP energy -396812.491691 kJ/mol
# GULP energy per Si atom -12400.390365 kJ/mol
# Density = 1.855411 g / cm^3
# Si number density = 18.596432 Si / 1000 Ang^3
#
#
#
# Elastic Constant Matrix: (Units=GPa)
#
#
# Indices 1 2 3 4 5 6 
#
# 1 57.1378 25.3793 3.9794 0.0000 4.2061 0.0000
# 2 25.3793 85.2084 21.6758 0.0000 9.2403 0.0000
# 3 3.9794 21.6758 71.4201 0.0000 -0.1439 0.0000
# 4 0.0000 0.0000 0.0000 44.3240 0.0000 0.7796
# 5 4.2061 9.2403 -0.1439 0.0000 22.7679 0.0000
# 6 0.0000 0.0000 0.0000 0.7796 0.0000 13.3540
#
#
#
# Elastic Compliance Matrix: (Units=1/GPa)
#
#
# Indices 1 2 3 4 5 6 
#
# 1 0.020243 -0.006073 0.000713 0.000000 -0.001270 0.000000
# 2 -0.006073 0.015183 -0.004280 0.000000 -0.005067 0.000000
# 3 0.000713 -0.004280 0.015264 0.000000 0.001702 0.000000
# 4 0.000000 0.000000 0.000000 0.022584 0.000000 -0.001318
# 5 -0.001270 -0.005067 0.001702 0.000000 0.046224 0.000000
# 6 0.000000 0.000000 0.000000 -0.001318 0.000000 0.074961
#
#
# Mechanical properties :
#
#
# Convention : Reuss Voigt Hill
#
# Bulk Modulus (GPa) = 31.83694 35.09280 33.46487
# Shear Modulus (GPa) = 22.30060 26.93794 24.61927
#
# Velocity S-wave (km/s) = 3.46669 3.81012 3.64245
# Velocity P-wave (km/s) = 5.76029 6.18609 5.97698
#
# Compressibility (1/GPa) = 0.03141005
#
# Stress axis : x y z
#
# Youngs Moduli (GPa) = 49.40011 65.86332 65.51233
#
# Poissons Ratio (x) = 0.39998 -0.04669
# Poissons Ratio (y) = 0.30000 0.28038
# Poissons Ratio (z) = -0.03520 0.28188
#
# Static dielectric constant tensor:
#      x y z
#    x 3.411830 0.000000 0.047450 
#    y 0.000000 3.522330 0.000000 
#    z 0.047450 0.000000 3.469160 
# 
# 
# High freq. dielectric constant tensor:
#      x y z
#    x 1.721940 0.000000 0.004660 
#    y 0.000000 1.724560 0.000000 
#    z 0.004660 0.000000 1.720520 
# 
# From -- ./inp_files/296460.got.cif
#   From: 2010.06.25/outbox.cif.g09.slc.cpg/sg12_149_cif.got.tgz:296460.got - 2010.06.28 00:19:55.
