data_PCOD8105561
_publ_section_title
;
Structure prediction by ZEFSAII (Michael W. Deem and Ramdas Pophale) SiO2 
 PCOD8105561
Probable space group: C 2/M
;
_chemical_formula_sum "Si O2"
_cell_formula_units_Z 64
_cell_length_a 9.284124
_cell_length_b 17.803901
_cell_length_c 20.147029
_cell_angle_alpha 90.000000
_cell_angle_beta 96.482459
_cell_angle_gamma 90.000000
_cell_volume 3308.883858
_symmetry_space_group_name_H-M "C 2/M"
_symmetry_group_IT_number 12
_symmetry_cell_setting 'monoclinic'
loop_
_space_group_symop_operation_xyz
x,y,z
-x,y,-z
-x,-y,-z
x,-y,z
1/2+x,1/2+y,z
1/2-x,1/2+y,-z
1/2-x,1/2-y,-z
1/2+x,1/2-y,z
loop_
_atom_site_type_symbol
_atom_site_label
_atom_site_fract_x
_atom_site_fract_y
_atom_site_fract_z
Si Si1 0.120051 0.331013 0.051044
Si Si2 0.091781 0.323581 0.194133
Si Si3 0.850193 0.588916 0.569385
Si Si4 0.864604 0.839267 0.961089
Si Si5 0.790383 0.910744 0.304016
Si Si6 0.614234 0.411737 0.299253
Si Si7 0.174176 0.410530 0.578284
Si Si8 0.251625 0.334041 0.815179
O O1 0.123064 0.364766 0.125151
O O2 0.079911 0.243256 0.057241
O O3 0.268787 0.339046 0.021468
O O4 0.000000 0.372754 0.000000
O O5 0.166370 0.374894 0.252595
O O6 0.162448 0.241470 0.198058
O O7 0.919722 0.318466 0.198170
O O8 0.858466 0.500000 0.567548
O O9 0.742750 0.615272 0.622178
O O10 0.789978 0.617250 0.494892
O O11 0.013940 0.618887 0.590264
O O12 0.789586 0.870013 0.890062
O O13 0.000000 0.885477 0.000000
O O14 0.949749 0.879772 0.292579
O O15 0.779409 0.000000 0.295496
O O16 0.604517 0.500000 0.307878
O O17 0.707042 0.376254 0.364911
O O18 0.696037 0.395116 0.234958
O O19 0.178921 0.500000 0.582619
#
# Coordination Sequence:
#
# PCOD8105561 Si02
#       8
#     8   8   8   8   8   8   8   8
#     4   9  16  30  47  74 100 126 168 213 260 302
#     4  11  22  34  55  78 106 137 172 218 259 310
#     4   8  14  27  49  75 101 131 172 213 253 297
#     4   9  18  28  49  74 100 130 165 214 260 302
#     4  10  21  35  52  77 108 142 174 212 258 306
#     4  10  21  35  52  76 109 142 174 212 257 308
#     4   8  14  27  49  75 101 132 170 214 253 297
#     4  11  22  35  53  80 105 137 174 214 262 308
#
# _framework density 19.341868999999999
#
# number of rings (size 3 to 8) (size 9 to 14) (size 15 to 20)
#    0.000    2.500    1.250    2.250    7.000    2.000 
#    0.000    2.500    0.000    2.250    0.000    0.000 
#    0.000    0.000    0.000    0.000    0.000    0.000 
#
# Total GULP energy -396452.804991 kJ/mol
# GULP energy per Si atom -12389.150156 kJ/mol
# Density = 1.929785 g / cm^3
# Si number density = 19.341869 Si / 1000 Ang^3
#
#
#
# Elastic Constant Matrix: (Units=GPa)
#
#
# Indices 1 2 3 4 5 6 
#
# 1 147.5750 15.8428 69.5531 0.0000 8.5433 0.0000
# 2 15.8428 11.0317 12.5626 0.0000 0.3234 0.0000
# 3 69.5531 12.5626 141.1747 0.0000 1.1785 0.0000
# 4 0.0000 0.0000 0.0000 15.7929 0.0000 0.9430
# 5 8.5433 0.3234 1.1785 0.0000 38.2430 0.0000
# 6 0.0000 0.0000 0.0000 0.9430 0.0000 19.5987
#
#
#
# Elastic Compliance Matrix: (Units=1/GPa)
#
#
# Indices 1 2 3 4 5 6 
#
# 1 0.009772 -0.009472 -0.003955 0.000000 -0.001981 0.000000
# 2 -0.009472 0.110063 -0.005139 0.000000 0.001344 0.000000
# 3 -0.003955 -0.005139 0.009484 0.000000 0.000635 0.000000
# 4 0.000000 0.000000 0.000000 0.063502 0.000000 -0.003055
# 5 -0.001981 0.001344 0.000635 0.000000 0.026560 0.000000
# 6 0.000000 0.000000 0.000000 -0.003055 0.000000 0.051171
#
#
# Mechanical properties :
#
#
# Convention : Reuss Voigt Hill
#
# Bulk Modulus (GPa) = 10.84741 55.07758 32.96250
# Shear Modulus (GPa) = 14.77491 28.18176 21.47834
#
# Velocity S-wave (km/s) = 2.76684 3.82125 3.33597
# Velocity P-wave (km/s) = 3.97840 6.92870 5.64954
#
# Compressibility (1/GPa) = 0.09218790
#
# Stress axis : x y z
#
# Youngs Moduli (GPa) = 102.33664 9.08571 105.44205
#
# Poissons Ratio (x) = 0.08606 0.41701
# Poissons Ratio (y) = 0.96928 0.54186
# Poissons Ratio (z) = 0.40473 0.04669
#
# Static dielectric constant tensor:
#      x y z
#    x 3.804080 0.000000 0.072320 
#    y 0.000000 2.857110 0.000000 
#    z 0.072320 0.000000 4.065320 
# 
# 
# High freq. dielectric constant tensor:
#      x y z
#    x 1.768350 0.000000 0.002660 
#    y 0.000000 1.674940 0.000000 
#    z 0.002660 0.000000 1.774950 
# 
# From -- ./inp_files/258098.got.cif
#   From: 2010.06.25/outbox.cif.g09.slc.cpg/sg12_130_cif.got.tgz:258098.got - 2010.06.28 00:19:55.
