data_PCOD8105069
_publ_section_title
;
Structure prediction by ZEFSAII (Michael W. Deem and Ramdas Pophale) SiO2 
 PCOD8105069
Probable space group: C 2/M
;
_chemical_formula_sum "Si O2"
_cell_formula_units_Z 56
_cell_length_a 16.279591
_cell_length_b 18.051277
_cell_length_c 7.980381
_cell_angle_alpha 90.000000
_cell_angle_beta 105.007087
_cell_angle_gamma 90.000000
_cell_volume 2265.188911
_symmetry_space_group_name_H-M "C 2/M"
_symmetry_group_IT_number 12
_symmetry_cell_setting 'monoclinic'
loop_
_space_group_symop_operation_xyz
x,y,z
-x,y,-z
-x,-y,-z
x,-y,z
1/2+x,1/2+y,z
1/2-x,1/2+y,-z
1/2-x,1/2-y,-z
1/2+x,1/2-y,z
loop_
_atom_site_type_symbol
_atom_site_label
_atom_site_fract_x
_atom_site_fract_y
_atom_site_fract_z
Si Si1 0.784585 0.711826 0.351196
Si Si2 0.439451 0.914781 0.128330
Si Si3 0.874287 0.080141 0.123475
Si Si4 0.165901 0.918911 0.276766
Si Si5 0.708248 0.154508 0.138591
Si Si6 0.420723 0.171671 0.648887
Si Si7 0.021828 0.175815 0.324984
O O1 0.750000 0.750000 0.500000
O O2 0.749130 0.630284 0.304136
O O3 0.755689 0.764123 0.178268
O O4 0.885029 0.694582 0.442735
O O5 0.497868 0.883634 0.312802
O O6 0.410416 0.000000 0.149833
O O7 0.500000 0.912055 0.000000
O O8 0.357576 0.859914 0.052977
O O9 0.782442 0.094984 0.156110
O O10 0.938048 0.145505 0.195757
O O11 0.904374 0.000000 0.210064
O O12 0.875882 0.075468 0.925716
O O13 0.097952 0.883599 0.368000
O O14 0.191518 0.000000 0.358204
O O15 0.656339 0.136961 0.281588
O O16 0.448873 0.248972 0.754171
O O17 0.000000 0.198014 0.500000
#
# Coordination Sequence:
#
# PCOD8105069 Si02
#       7
#     8   8   8   8   8   8   8
#     4  10  20  41  65  97 133 177 241 286 345 412
#     4   9  19  36  62 100 136 177 232 288 352 415
#     4  11  26  43  68 107 144 181 229 294 358 420
#     4  11  25  45  68  98 145 186 228 290 357 424
#     4  10  20  40  70  94 132 180 229 291 340 419
#     4  10  22  41  66  98 139 179 229 295 347 412
#     4  12  25  45  68 101 142 185 240 286 348 429
#
# _framework density 24.722002
#
# number of rings (size 3 to 8) (size 9 to 14) (size 15 to 20)
#    0.000    1.571    2.857    2.143    4.000    5.143 
#    2.571    2.143    0.000    0.429    0.000    0.000 
#    0.000    0.000    0.000    0.000    0.000    0.000 
#
# Total GULP energy -346925.525748 kJ/mol
# GULP energy per Si atom -12390.197348 kJ/mol
# Density = 2.466573 g / cm^3
# Si number density = 24.722002 Si / 1000 Ang^3
#
#
#
# Elastic Constant Matrix: (Units=GPa)
#
#
# Indices 1 2 3 4 5 6 
#
# 1 86.9355 45.8573 27.3708 0.0000 27.0501 0.0000
# 2 45.8573 144.2539 39.3009 0.0000 33.8974 0.0000
# 3 27.3708 39.3009 79.3632 0.0000 39.2780 0.0000
# 4 0.0000 0.0000 0.0000 24.1279 0.0000 1.5554
# 5 27.0501 33.8974 39.2780 0.0000 54.6179 0.0000
# 6 0.0000 0.0000 0.0000 1.5554 0.0000 20.1166
#
#
#
# Elastic Compliance Matrix: (Units=1/GPa)
#
#
# Indices 1 2 3 4 5 6 
#
# 1 0.015086 -0.003396 -0.001345 0.000000 -0.004396 0.000000
# 2 -0.003396 0.009178 -0.002153 0.000000 -0.002465 0.000000
# 3 -0.001345 -0.002153 0.020400 0.000000 -0.012668 0.000000
# 4 0.000000 0.000000 0.000000 0.041653 0.000000 -0.003221
# 5 -0.004396 -0.002465 -0.012668 0.000000 0.031126 0.000000
# 6 0.000000 0.000000 0.000000 -0.003221 0.000000 0.049959
#
#
# Mechanical properties :
#
#
# Convention : Reuss Voigt Hill
#
# Bulk Modulus (GPa) = 32.38971 59.51229 45.95100
# Shear Modulus (GPa) = 26.11193 32.97407 29.54300
#
# Velocity S-wave (km/s) = 3.25348 3.65608 3.46064
# Velocity P-wave (km/s) = 5.21954 6.47668 5.88179
#
# Compressibility (1/GPa) = 0.03087400
#
# Stress axis : x y z
#
# Youngs Moduli (GPa) = 66.28843 108.95806 49.01925
#
# Poissons Ratio (x) = 0.37003 0.06594
# Poissons Ratio (y) = 0.22512 0.10556
# Poissons Ratio (z) = 0.08917 0.23464
#
# Static dielectric constant tensor:
#      x y z
#    x 4.506140 0.000000 0.452550 
#    y 0.000000 4.857460 0.000000 
#    z 0.452550 0.000000 4.479720 
# 
# 
# High freq. dielectric constant tensor:
#      x y z
#    x 1.991620 0.000000 0.015500 
#    y 0.000000 1.984930 0.000000 
#    z 0.015500 0.000000 1.963250 
# 
# From -- ./inp_files/75974.got.cif
#   From: 2010.06.25/outbox.cif.g09.slc.cpg/sg12_38_cif.got.tgz:75974.got - 2010.06.28 00:19:55.
