data_PCOD8105808
_publ_section_title
;
Structure prediction by ZEFSAII (Michael W. Deem and Ramdas Pophale) SiO2 
 PCOD8105808
Probable space group: C 2/M
;
_chemical_formula_sum "Si O2"
_cell_formula_units_Z 56
_cell_length_a 17.685150
_cell_length_b 18.026912
_cell_length_c 9.285288
_cell_angle_alpha 90.000000
_cell_angle_beta 106.627334
_cell_angle_gamma 90.000000
_cell_volume 2836.451516
_symmetry_space_group_name_H-M "C 2/M"
_symmetry_group_IT_number 12
_symmetry_cell_setting 'monoclinic'
loop_
_space_group_symop_operation_xyz
x,y,z
-x,y,-z
-x,-y,-z
x,-y,z
1/2+x,1/2+y,z
1/2-x,1/2+y,-z
1/2-x,1/2-y,-z
1/2+x,1/2-y,z
loop_
_atom_site_type_symbol
_atom_site_label
_atom_site_fract_x
_atom_site_fract_y
_atom_site_fract_z
Si Si1 0.156735 0.815067 0.077243
Si Si2 0.369226 0.414298 0.186632
Si Si3 0.031833 0.157815 0.240993
Si Si4 0.069118 0.413518 0.647952
Si Si5 0.949408 0.698588 0.108271
Si Si6 0.209537 0.673655 0.619397
Si Si7 0.837926 0.832669 0.459532
O O1 0.080944 0.849232 0.119714
O O2 0.230370 0.804681 0.221030
O O3 0.179444 0.873262 0.965683
O O4 0.132458 0.735562 0.994089
O O5 0.348305 0.500000 0.168990
O O6 0.462671 0.402562 0.213343
O O7 0.337640 0.382598 0.319031
O O8 0.087130 0.143296 0.406924
O O9 0.995064 0.239942 0.227432
O O10 0.064325 0.500000 0.680770
O O11 0.064879 0.371026 0.797221
O O12 0.153903 0.395737 0.623552
O O13 0.000000 0.390016 0.500000
O O14 0.000000 0.670448 0.000000
O O15 0.154158 0.745428 0.570287
O O16 0.256273 0.653052 0.499857
#
# Coordination Sequence:
#
# PCOD8105808 Si02
#       7
#     8   8   8   8   8   8   8
#     4   9  20  36  57  84 111 144 182 219 270 326
#     4  11  22  34  52  84 121 150 178 214 259 321
#     4   9  18  35  57  83 111 145 183 220 265 319
#     4  11  24  39  56  79 108 146 186 224 274 329
#     4   9  18  35  60  85 109 135 177 231 272 316
#     4  10  21  40  60  79 107 141 183 232 275 323
#     4  10  21  35  58  84 106 141 187 229 272 312
#
# _framework density 19.742977
#
# number of rings (size 3 to 8) (size 9 to 14) (size 15 to 20)
#    0.000    2.143    0.000    4.286    0.000    7.143 
#    0.000    2.857    0.000    0.000    0.000    0.000 
#    0.000    0.000    0.000    0.000    0.000    0.000 
#
# Total GULP energy -347231.758028 kJ/mol
# GULP energy per Si atom -12401.134215 kJ/mol
# Density = 1.969804 g / cm^3
# Si number density = 19.742977 Si / 1000 Ang^3
#
#
#
# Elastic Constant Matrix: (Units=GPa)
#
#
# Indices 1 2 3 4 5 6 
#
# 1 66.9966 33.1606 35.2972 0.0000 -5.0069 0.0000
# 2 33.1606 88.0843 47.9246 0.0000 -17.1337 0.0000
# 3 35.2972 47.9246 110.0368 0.0000 -17.0677 0.0000
# 4 0.0000 0.0000 0.0000 10.3881 0.0000 0.3155
# 5 -5.0069 -17.1337 -17.0677 0.0000 27.6197 0.0000
# 6 0.0000 0.0000 0.0000 0.3155 0.0000 22.5666
#
#
#
# Elastic Compliance Matrix: (Units=1/GPa)
#
#
# Indices 1 2 3 4 5 6 
#
# 1 0.019772 -0.005600 -0.004298 0.000000 -0.002546 0.000000
# 2 -0.005600 0.017348 -0.004698 0.000000 0.006844 0.000000
# 3 -0.004298 -0.004698 0.013206 0.000000 0.004467 0.000000
# 4 0.000000 0.000000 0.000000 0.096305 0.000000 -0.001346
# 5 -0.002546 0.006844 0.004467 0.000000 0.042750 0.000000
# 6 0.000000 0.000000 0.000000 -0.001346 0.000000 0.044332
#
#
# Mechanical properties :
#
#
# Convention : Reuss Voigt Hill
#
# Bulk Modulus (GPa) = 47.31825 55.32028 51.31927
# Shear Modulus (GPa) = 18.52189 22.03055 20.27622
#
# Velocity S-wave (km/s) = 3.06625 3.34408 3.20818
# Velocity P-wave (km/s) = 6.04607 6.55680 6.30661
#
# Compressibility (1/GPa) = 0.02113349
#
# Stress axis : x y z
#
# Youngs Moduli (GPa) = 50.57584 57.64302 75.72562
#
# Poissons Ratio (x) = 0.32281 0.32549
# Poissons Ratio (y) = 0.28323 0.35574
# Poissons Ratio (z) = 0.21739 0.27079
#
# Static dielectric constant tensor:
#      x y z
#    x 3.670850 0.000000 -0.068310 
#    y 0.000000 3.258590 0.000000 
#    z -0.068310 0.000000 3.768890 
# 
# 
# High freq. dielectric constant tensor:
#      x y z
#    x 1.770430 0.000000 -0.007280 
#    y 0.000000 1.741050 0.000000 
#    z -0.007280 0.000000 1.786020 
# 
# From -- ./inp_files/75976.got.cif
#   From: 2010.06.25/outbox.cif.g09.slc.cpg/sg12_38_cif.got.tgz:75976.got - 2010.06.28 00:19:55.
