data_PCOD8105524
_publ_section_title
;
Structure prediction by ZEFSAII (Michael W. Deem and Ramdas Pophale) SiO2 
 PCOD8105524
Probable space group: C 2/M
;
_chemical_formula_sum "Si O2"
_cell_formula_units_Z 64
_cell_length_a 20.069080
_cell_length_b 9.373352
_cell_length_c 23.237206
_cell_angle_alpha 90.000000
_cell_angle_beta 51.941390
_cell_angle_gamma 90.000000
_cell_volume 3441.842444
_symmetry_space_group_name_H-M "C 2/M"
_symmetry_group_IT_number 12
_symmetry_cell_setting 'monoclinic'
loop_
_space_group_symop_operation_xyz
x,y,z
-x,y,-z
-x,-y,-z
x,-y,z
1/2+x,1/2+y,z
1/2-x,1/2+y,-z
1/2-x,1/2-y,-z
1/2+x,1/2-y,z
loop_
_atom_site_type_symbol
_atom_site_label
_atom_site_fract_x
_atom_site_fract_y
_atom_site_fract_z
Si Si1 0.871338 0.832898 0.904248
Si Si2 0.424701 0.835529 0.077947
Si Si3 0.970700 0.832290 0.254996
Si Si4 0.189008 0.662468 0.962911
Si Si5 0.334137 0.335534 0.648663
Si Si6 0.913994 0.660491 0.510663
Si Si7 0.499753 0.666476 0.370885
Si Si8 0.641937 0.167390 0.767001
O O1 0.785577 0.786529 0.917035
O O2 0.948385 0.781479 0.824304
O O3 0.875027 0.000000 0.913908
O O4 0.874617 0.753939 0.963671
O O5 0.337406 0.818622 0.089217
O O6 0.407965 0.769972 0.150242
O O7 0.449038 0.000000 0.074134
O O8 0.500000 0.762359 0.000000
O O9 0.988767 0.787759 0.310764
O O10 0.889609 0.749610 0.273015
O O11 0.954269 0.000000 0.258241
O O12 0.179168 0.500000 0.988634
O O13 0.344135 0.500000 0.624926
O O14 0.344100 0.241245 0.585904
O O15 0.404748 0.296467 0.659137
O O16 0.241597 0.304187 0.723624
O O17 0.882585 0.500000 0.513750
O O18 0.929545 0.745044 0.443258
O O19 0.000000 0.657891 0.500000
O O20 0.480880 0.500000 0.390088
O O21 0.624838 0.000000 0.768023
#
# Coordination Sequence:
#
# PCOD8105524 Si02
#       8
#     8   8   8   8   8   8   8   8
#     4   9  18  31  48  71 100 132 167 210 260 308
#     4   9  17  29  48  73  99 130 171 214 256 298
#     4  10  21  35  51  73 105 141 172 208 260 313
#     4   9  17  30  50  72  96 128 170 217 259 303
#     4   9  18  33  55  80 104 133 172 217 257 300
#     4   9  17  31  53  81 110 136 165 207 259 310
#     4   9  18  33  55  79 104 136 175 212 252 306
#     4  10  21  35  53  77 105 136 175 219 261 306
#
# _framework density 18.594691999999998
#
# number of rings (size 3 to 8) (size 9 to 14) (size 15 to 20)
#    0.000    2.750    0.000    1.125    1.750    4.000 
#    0.000    1.250    0.000    2.250    0.000    0.000 
#    0.000    0.000    0.000    0.000    0.000    0.000 
#
# Total GULP energy -396724.404116 kJ/mol
# GULP energy per Si atom -12397.637629 kJ/mol
# Density = 1.855237 g / cm^3
# Si number density = 18.594692 Si / 1000 Ang^3
#
#
#
# Elastic Constant Matrix: (Units=GPa)
#
#
# Indices 1 2 3 4 5 6 
#
# 1 86.6296 30.7800 51.1813 0.0000 12.5203 0.0001
# 2 30.7800 50.2341 43.3794 0.0000 7.2116 0.0001
# 3 51.1813 43.3794 115.1589 0.0000 11.8825 0.0000
# 4 0.0000 0.0000 0.0000 21.6965 0.0000 2.8366
# 5 12.5203 7.2116 11.8825 0.0000 25.4481 0.0000
# 6 0.0001 0.0001 0.0000 2.8366 0.0000 24.1337
#
#
#
# Elastic Compliance Matrix: (Units=1/GPa)
#
#
# Indices 1 2 3 4 5 6 
#
# 1 0.017147 -0.005454 -0.005101 0.000000 -0.004509 0.000000
# 2 -0.005454 0.031511 -0.009247 0.000000 -0.001929 0.000000
# 3 -0.005101 -0.009247 0.014608 0.000000 -0.001691 0.000000
# 4 0.000000 0.000000 0.000000 0.046810 0.000000 -0.005502
# 5 -0.004509 -0.001929 -0.001691 0.000000 0.042850 0.000000
# 6 0.000000 0.000000 0.000000 -0.005502 0.000000 0.042083
#
#
# Mechanical properties :
#
#
# Convention : Reuss Voigt Hill
#
# Bulk Modulus (GPa) = 42.26190 55.85601 49.05895
# Shear Modulus (GPa) = 20.61867 22.70110 21.65989
#
# Velocity S-wave (km/s) = 3.33355 3.49784 3.41668
# Velocity P-wave (km/s) = 6.13139 6.81301 6.48117
#
# Compressibility (1/GPa) = 0.02366198
#
# Stress axis : x y z
#
# Youngs Moduli (GPa) = 58.32076 31.73536 68.45396
#
# Poissons Ratio (x) = 0.17309 0.34918
# Poissons Ratio (y) = 0.31809 0.63298
# Poissons Ratio (z) = 0.29749 0.29345
#
# Static dielectric constant tensor:
#      x y z
#    x 3.349770 0.000000 0.015880 
#    y 0.000000 3.282290 0.000000 
#    z 0.015880 0.000000 3.502360 
# 
# 
# High freq. dielectric constant tensor:
#      x y z
#    x 1.714140 0.000000 0.000890 
#    y 0.000000 1.699720 0.000000 
#    z 0.000890 0.000000 1.721170 
# 
# From -- ./inp_files/346061.got.cif
#   From: 2010.06.25/outbox.cif.g09.slc.cpg/sg12_174_cif.got.tgz:346061.got - 2010.06.28 00:19:55.
