data_PCOD8105895
_publ_section_title
;
Structure prediction by ZEFSAII (Michael W. Deem and Ramdas Pophale) SiO2 
 PCOD8105895
Probable space group: C 2/M
;
_chemical_formula_sum "Si O2"
_cell_formula_units_Z 56
_cell_length_a 14.201822
_cell_length_b 9.422518
_cell_length_c 22.619985
_cell_angle_alpha 90.000000
_cell_angle_beta 74.374091
_cell_angle_gamma 90.000000
_cell_volume 2915.063830
_symmetry_space_group_name_H-M "C 2/M"
_symmetry_group_IT_number 12
_symmetry_cell_setting 'monoclinic'
loop_
_space_group_symop_operation_xyz
x,y,z
-x,y,-z
-x,-y,-z
x,-y,z
1/2+x,1/2+y,z
1/2-x,1/2+y,-z
1/2-x,1/2-y,-z
1/2+x,1/2-y,z
loop_
_atom_site_type_symbol
_atom_site_label
_atom_site_fract_x
_atom_site_fract_y
_atom_site_fract_z
Si Si1 0.174848 0.166022 0.229530
Si Si2 0.279517 0.664556 0.909361
Si Si3 0.604577 0.163177 0.558353
Si Si4 0.985567 0.834552 0.331003
Si Si5 0.889879 0.834336 0.008224
Si Si6 0.286117 0.340126 0.298271
Si Si7 0.713771 0.838417 0.431367
O O1 0.172663 0.207931 0.161055
O O2 0.266409 0.239738 0.246000
O O3 0.075554 0.221068 0.276637
O O4 0.188066 0.000000 0.235662
O O5 0.250403 0.500000 0.915967
O O6 0.180485 0.752476 0.934909
O O7 0.359303 0.700548 0.946051
O O8 0.519472 0.253358 0.604836
O O9 0.610578 0.178613 0.484953
O O10 0.710316 0.218991 0.561046
O O11 0.590826 0.000000 0.579367
O O12 0.889192 0.798732 0.309834
O O13 0.995435 0.000000 0.343500
O O14 0.880559 0.000000 0.024174
O O15 0.000000 0.780502 0.000000
O O16 0.289067 0.500000 0.273576
O O17 0.200813 0.320713 0.362714
O O18 0.754879 0.000000 0.435865
#
# Coordination Sequence:
#
# PCOD8105895 Si02
#       7
#     8   8   8   8   8   8   8
#     4  10  21  36  52  72 103 140 171 202 246 298
#     4   9  19  35  53  77 109 138 165 203 248 289
#     4   9  15  25  46  72  94 122 165 213 257 305
#     4   9  19  35  51  69  99 136 169 206 257 308
#     4   9  18  34  58  84 106 132 168 204 239 288
#     4   9  18  33  52  72  96 130 172 214 254 300
#     4   8  15  28  45  67  96 128 161 205 264 314
#
# _framework density 19.210556
#
# number of rings (size 3 to 8) (size 9 to 14) (size 15 to 20)
#    0.000    3.000    0.000    1.286    0.000    5.429 
#    0.000    3.571    0.000    4.286    0.000    0.000 
#    0.000    0.000    0.000    0.000    0.000    0.000 
#
# Total GULP energy -347019.954251 kJ/mol
# GULP energy per Si atom -12393.569795 kJ/mol
# Density = 1.916683 g / cm^3
# Si number density = 19.210556 Si / 1000 Ang^3
#
#
#
# Elastic Constant Matrix: (Units=GPa)
#
#
# Indices 1 2 3 4 5 6 
#
# 1 61.5141 22.1389 30.2426 0.0000 -8.5171 0.0000
# 2 22.1389 49.5083 38.4653 0.0000 -2.9182 0.0000
# 3 30.2426 38.4653 107.6674 0.0000 -7.5160 0.0000
# 4 0.0000 0.0000 0.0000 32.6111 0.0000 -0.8408
# 5 -8.5171 -2.9182 -7.5160 0.0000 25.5123 0.0000
# 6 0.0000 0.0000 0.0000 -0.8408 0.0000 23.0141
#
#
#
# Elastic Compliance Matrix: (Units=1/GPa)
#
#
# Indices 1 2 3 4 5 6 
#
# 1 0.020911 -0.006592 -0.003149 0.000000 0.005299 0.000000
# 2 -0.006592 0.030039 -0.008979 0.000000 -0.001410 0.000000
# 3 -0.003149 -0.008979 0.013513 0.000000 0.001903 0.000000
# 4 0.000000 0.000000 0.000000 0.030693 0.000000 0.001121
# 5 0.005299 -0.001410 0.001903 0.000000 0.041365 0.000000
# 6 0.000000 0.000000 0.000000 0.001121 0.000000 0.043493
#
#
# Mechanical properties :
#
#
# Convention : Reuss Voigt Hill
#
# Bulk Modulus (GPa) = 37.00396 44.48706 40.74551
# Shear Modulus (GPa) = 22.07893 24.75036 23.41464
#
# Velocity S-wave (km/s) = 3.39383 3.59329 3.49498
# Velocity P-wave (km/s) = 5.88741 6.35795 6.12720
#
# Compressibility (1/GPa) = 0.02702414
#
# Stress axis : x y z
#
# Youngs Moduli (GPa) = 47.82267 33.28975 74.00400
#
# Poissons Ratio (x) = 0.21945 0.23300
# Poissons Ratio (y) = 0.31525 0.66445
# Poissons Ratio (z) = 0.15057 0.29890
#
# Static dielectric constant tensor:
#      x y z
#    x 3.206770 0.000000 -0.114050 
#    y 0.000000 3.444300 0.000000 
#    z -0.114050 0.000000 3.798360 
# 
# 
# High freq. dielectric constant tensor:
#      x y z
#    x 1.721590 0.000000 -0.006360 
#    y 0.000000 1.742200 0.000000 
#    z -0.006360 0.000000 1.752830 
# 
# From -- ./inp_files/337835.got.cif
#   From: 2010.06.25/outbox.cif.g09.slc.cpg/sg12_169_cif.got.tgz:337835.got - 2010.06.28 00:19:55.
