data_PCOD8105721
_publ_section_title
;
Structure prediction by ZEFSAII (Michael W. Deem and Ramdas Pophale) SiO2 
 PCOD8105721
Probable space group: C 2/M
;
_chemical_formula_sum "Si O2"
_cell_formula_units_Z 48
_cell_length_a 23.814188
_cell_length_b 9.018591
_cell_length_c 11.886331
_cell_angle_alpha 90.000000
_cell_angle_beta 90.865223
_cell_angle_gamma 90.000000
_cell_volume 2552.541251
_symmetry_space_group_name_H-M "C 2/M"
_symmetry_group_IT_number 12
_symmetry_cell_setting 'monoclinic'
loop_
_space_group_symop_operation_xyz
x,y,z
-x,y,-z
-x,-y,-z
x,-y,z
1/2+x,1/2+y,z
1/2-x,1/2+y,-z
1/2-x,1/2-y,-z
1/2+x,1/2-y,z
loop_
_atom_site_type_symbol
_atom_site_label
_atom_site_fract_x
_atom_site_fract_y
_atom_site_fract_z
Si Si1 0.756255 0.172159 0.830857
Si Si2 0.589150 0.175349 0.460964
Si Si3 0.793718 0.824796 0.584068
Si Si4 0.335294 0.673052 0.038976
Si Si5 0.950325 0.325426 0.082593
Si Si6 0.519226 0.825301 0.671926
O O1 0.777647 0.221311 0.709832
O O2 0.700059 0.262701 0.857636
O O3 0.740228 0.000000 0.834527
O O4 0.804845 0.211083 0.921004
O O5 0.644571 0.266788 0.439221
O O6 0.541680 0.230985 0.371629
O O7 0.568046 0.216941 0.585527
O O8 0.600979 0.000000 0.450798
O O9 0.750000 0.750000 0.500000
O O10 0.791878 0.000000 0.566930
O O11 0.342793 0.500000 0.058435
O O12 0.395367 0.748383 0.033414
O O13 0.939333 0.500000 0.088417
O O14 0.965740 0.258867 0.205796
O O15 0.000000 0.284699 0.000000
O O16 0.514409 0.000000 0.679692
#
# Coordination Sequence:
#
# PCOD8105721 Si02
#       6
#     8   8   8   8   8   8
#     4   9  21  41  60  79 111 151 186 228 283 337
#     4   9  18  36  60  81 107 147 189 230 273 325
#     4  11  24  39  57  84 115 147 186 232 281 334
#     4  10  21  38  60  85 111 145 189 235 281 330
#     4  10  21  35  55  84 116 150 186 226 274 333
#     4   8  17  35  57  81 110 147 187 223 272 329
#
# _framework density 18.804790000000001
#
# number of rings (size 3 to 8) (size 9 to 14) (size 15 to 20)
#    0.000    2.500    0.000    2.000    4.667    2.333 
#    0.000    2.500    0.000    0.000    0.000    0.000 
#    0.000    0.000    0.000    0.000    0.000    0.000 
#
# Total GULP energy -297632.541784 kJ/mol
# GULP energy per Si atom -12401.355908 kJ/mol
# Density = 1.876199 g / cm^3
# Si number density = 18.804790 Si / 1000 Ang^3
#
#
#
# Elastic Constant Matrix: (Units=GPa)
#
#
# Indices 1 2 3 4 5 6 
#
# 1 156.8203 66.1988 72.1909 0.0000 -10.7233 0.0000
# 2 66.1988 59.6663 48.8553 0.0000 -7.7187 0.0000
# 3 72.1909 48.8553 140.8347 0.0000 -9.4710 0.0000
# 4 0.0000 0.0000 0.0000 22.9945 0.0000 -1.8988
# 5 -10.7233 -7.7187 -9.4710 0.0000 23.3118 0.0000
# 6 0.0000 0.0000 0.0000 -1.8988 0.0000 38.6182
#
#
#
# Elastic Compliance Matrix: (Units=1/GPa)
#
#
# Indices 1 2 3 4 5 6 
#
# 1 0.012492 -0.011942 -0.002200 0.000000 0.000898 0.000000
# 2 -0.011942 0.035310 -0.005871 0.000000 0.003813 0.000000
# 3 -0.002200 -0.005871 0.010349 0.000000 0.001248 0.000000
# 4 0.000000 0.000000 0.000000 0.043666 0.000000 0.002147
# 5 0.000898 0.003813 0.001248 0.000000 0.045080 0.000000
# 6 0.000000 0.000000 0.000000 0.002147 0.000000 0.026000
#
#
# Mechanical properties :
#
#
# Convention : Reuss Voigt Hill
#
# Bulk Modulus (GPa) = 55.17490 81.31238 68.24364
# Shear Modulus (GPa) = 22.83469 28.32333 25.57901
#
# Velocity S-wave (km/s) = 3.48846 3.88516 3.69214
# Velocity P-wave (km/s) = 6.75503 7.96618 7.38547
#
# Compressibility (1/GPa) = 0.01812418
#
# Stress axis : x y z
#
# Youngs Moduli (GPa) = 80.05035 28.32061 96.62724
#
# Poissons Ratio (x) = 0.33820 0.21261
# Poissons Ratio (y) = 0.95596 0.56732
# Poissons Ratio (z) = 0.17614 0.16628
#
# Static dielectric constant tensor:
#      x y z
#    x 3.480240 0.000000 0.101360 
#    y 0.000000 3.240270 0.000000 
#    z 0.101360 0.000000 3.916240 
# 
# 
# High freq. dielectric constant tensor:
#      x y z
#    x 1.740350 0.000000 0.000220 
#    y 0.000000 1.710490 0.000000 
#    z 0.000220 0.000000 1.741040 
# 
# From -- ./inp_files/172282.got.cif
#   From: 2010.06.25/outbox.cif.g09.slc.cpg/sg12_87_cif.got.tgz:172282.got - 2010.06.28 00:19:55.
