data_PCOD8105338
_publ_section_title
;
Structure prediction by ZEFSAII (Michael W. Deem and Ramdas Pophale) SiO2 
 PCOD8105338
Probable space group: C 2/M
;
_chemical_formula_sum "Si O2"
_cell_formula_units_Z 56
_cell_length_a 18.940990
_cell_length_b 9.004999
_cell_length_c 24.224512
_cell_angle_alpha 90.000000
_cell_angle_beta 136.332490
_cell_angle_gamma 90.000000
_cell_volume 2852.907324
_symmetry_space_group_name_H-M "C 2/M"
_symmetry_group_IT_number 12
_symmetry_cell_setting 'monoclinic'
loop_
_space_group_symop_operation_xyz
x,y,z
-x,y,-z
-x,-y,-z
x,-y,z
1/2+x,1/2+y,z
1/2-x,1/2+y,-z
1/2-x,1/2-y,-z
1/2+x,1/2-y,z
loop_
_atom_site_type_symbol
_atom_site_label
_atom_site_fract_x
_atom_site_fract_y
_atom_site_fract_z
Si Si1 0.907152 0.669241 0.981142
Si Si2 0.357111 0.827515 0.073459
Si Si3 0.571780 0.671524 0.592774
Si Si4 0.979850 0.824114 0.758654
Si Si5 0.025533 0.668727 0.676759
Si Si6 0.762453 0.164776 0.828111
Si Si7 0.281922 0.324648 0.717227
O O1 0.898768 0.500000 0.958459
O O2 0.801109 0.741210 0.901763
O O3 0.924446 0.687537 0.055999
O O4 0.000000 0.745967 0.000000
O O5 0.419492 0.747433 0.157031
O O6 0.339058 0.000000 0.079189
O O7 0.250000 0.750000 0.000000
O O8 0.500000 0.692022 0.500000
O O9 0.587499 0.500000 0.617527
O O10 0.515923 0.753283 0.612058
O O11 0.681036 0.741665 0.638551
O O12 0.962649 0.759350 0.687498
O O13 0.878792 0.779603 0.735413
O O14 0.995417 0.000000 0.765064
O O15 0.983900 0.500000 0.648966
O O16 0.141584 0.670124 0.761748
O O17 0.803191 0.226467 0.792320
O O18 0.804538 0.000000 0.860479
O O19 0.258874 0.500000 0.702557
#
# Coordination Sequence:
#
# PCOD8105338 Si02
#       7
#     8   8   8   8   8   8   8
#     4  10  21  34  48  70  99 133 177 227 275 322
#     4  11  23  37  53  75 107 148 191 237 290 340
#     4  10  21  38  62  91 118 144 180 225 271 326
#     4  11  22  37  57  82 113 147 189 238 284 333
#     4  10  21  37  58  83 111 145 183 222 272 333
#     4   9  18  33  52  74 100 134 179 225 270 325
#     4   9  20  37  57  83 114 149 186 228 281 336
#
# _framework density 19.629097999999999
#
# number of rings (size 3 to 8) (size 9 to 14) (size 15 to 20)
#    0.000    2.000    0.000    4.286    0.000    8.857 
#    0.000    0.714    0.000    0.000    0.000    0.000 
#    0.000    0.000    0.000    0.000    0.000    0.000 
#
# Total GULP energy -347214.748874 kJ/mol
# GULP energy per Si atom -12400.526746 kJ/mol
# Density = 1.958442 g / cm^3
# Si number density = 19.629098 Si / 1000 Ang^3
#
#
#
# Elastic Constant Matrix: (Units=GPa)
#
#
# Indices 1 2 3 4 5 6 
#
# 1 99.2280 38.9780 21.2578 0.0000 -13.1886 0.0000
# 2 38.9780 102.8523 41.3549 0.0000 -7.2915 0.0000
# 3 21.2578 41.3549 76.9955 0.0000 -10.6042 0.0000
# 4 0.0000 0.0000 0.0000 33.1960 0.0000 -2.0620
# 5 -13.1886 -7.2915 -10.6042 0.0000 22.4898 0.0000
# 6 0.0000 0.0000 0.0000 -2.0620 0.0000 29.8981
#
#
#
# Elastic Compliance Matrix: (Units=1/GPa)
#
#
# Indices 1 2 3 4 5 6 
#
# 1 0.012587 -0.004187 -0.000424 0.000000 0.005824 0.000000
# 2 -0.004187 0.013812 -0.006400 0.000000 -0.000995 0.000000
# 3 -0.000424 -0.006400 0.017349 0.000000 0.005856 0.000000
# 4 0.000000 0.000000 0.000000 0.030254 0.000000 0.002087
# 5 0.005824 -0.000995 0.005856 0.000000 0.050319 0.000000
# 6 0.000000 0.000000 0.000000 0.002087 0.000000 0.033591
#
#
# Mechanical properties :
#
#
# Convention : Reuss Voigt Hill
#
# Bulk Modulus (GPa) = 46.02631 53.58413 49.80522
# Shear Modulus (GPa) = 26.71292 28.94913 27.83102
#
# Velocity S-wave (km/s) = 3.69302 3.84449 3.76951
# Velocity P-wave (km/s) = 6.45627 6.86035 6.66137
#
# Compressibility (1/GPa) = 0.02172670
#
# Stress axis : x y z
#
# Youngs Moduli (GPa) = 79.44454 72.40106 57.64080
#
# Poissons Ratio (x) = 0.30312 0.02446
# Poissons Ratio (y) = 0.33261 0.36888
# Poissons Ratio (z) = 0.03372 0.46334
#
# Static dielectric constant tensor:
#      x y z
#    x 3.832310 0.000000 -0.156640 
#    y 0.000000 3.675490 0.000000 
#    z -0.156640 0.000000 3.340570 
# 
# 
# High freq. dielectric constant tensor:
#      x y z
#    x 1.774350 0.000000 -0.014460 
#    y 0.000000 1.770340 0.000000 
#    z -0.014460 0.000000 1.745950 
# 
# From -- ./inp_files/342571.got.cif
#   From: 2010.06.25/outbox.cif.g09.slc.cpg/sg12_172_cif.got.tgz:342571.got - 2010.06.28 00:19:55.
