data_PCOD8105206
_publ_section_title
;
Structure prediction by ZEFSAII (Michael W. Deem and Ramdas Pophale) SiO2 
 PCOD8105206
Probable space group: C 2/M
;
_chemical_formula_sum "Si O2"
_cell_formula_units_Z 48
_cell_length_a 17.927536
_cell_length_b 29.776127
_cell_length_c 9.451538
_cell_angle_alpha 90.000000
_cell_angle_beta 151.614361
_cell_angle_gamma 90.000000
_cell_volume 2398.578108
_symmetry_space_group_name_H-M "C 2/M"
_symmetry_group_IT_number 12
_symmetry_cell_setting 'monoclinic'
loop_
_space_group_symop_operation_xyz
x,y,z
-x,y,-z
-x,-y,-z
x,-y,z
1/2+x,1/2+y,z
1/2-x,1/2+y,-z
1/2-x,1/2-y,-z
1/2+x,1/2-y,z
loop_
_atom_site_type_symbol
_atom_site_label
_atom_site_fract_x
_atom_site_fract_y
_atom_site_fract_z
Si Si1 0.008816 0.000000 0.788998
Si Si2 0.240452 0.500000 0.568131
Si Si3 0.934656 0.090332 0.244199
Si Si4 0.815430 0.705968 0.180320
Si Si5 0.862109 0.155292 0.877252
Si Si6 0.869042 0.615820 0.168684
Si Si7 0.913569 0.404613 0.713971
O O1 0.979348 0.043727 0.644569
O O2 0.881887 0.000000 0.697296
O O3 0.184179 0.000000 0.148913
O O4 0.136622 0.456247 0.368081
O O5 0.000000 0.111286 0.500000
O O6 0.952789 0.123275 0.140295
O O7 0.751124 0.079663 0.966939
O O8 0.728455 0.695018 0.187602
O O9 0.780773 0.664371 0.014622
O O10 0.000000 0.714613 0.500000
O O11 0.750000 0.750000 0.000000
O O12 0.731589 0.127370 0.570595
O O13 0.000000 0.173009 0.000000
O O14 0.000000 0.625638 0.500000
O O15 0.938354 0.598519 0.141130
O O16 0.000000 0.388961 0.000000
#
# Coordination Sequence:
#
# PCOD8105206 Si02
#       7
#     4   4   8   8   8   8   8
#     4  11  21  39  57  86 133 169 226 280 326 370
#     4  11  23  39  61  90 127 185 218 280 332 374
#     4  11  23  37  62  93 126 172 225 273 325 386
#     4  10  21  44  71  97 132 168 212 267 335 399
#     4  11  23  45  69  99 133 178 217 269 334 399
#     4  10  20  43  64  88 127 171 213 267 335 390
#     4  12  24  41  65  94 134 174 226 273 328 390
#
# _framework density 20.011856000000002
#
# number of rings (size 3 to 8) (size 9 to 14) (size 15 to 20)
#    0.000    1.167    6.667    1.500    4.667    3.333 
#    0.000    3.333    0.000    0.000    0.000    0.000 
#    0.000    0.000    0.000    0.000    0.000    0.000 
#
# Total GULP energy -297330.511636 kJ/mol
# GULP energy per Si atom -12388.771318 kJ/mol
# Density = 1.996631 g / cm^3
# Si number density = 20.011856 Si / 1000 Ang^3
#
#
#
# Elastic Constant Matrix: (Units=GPa)
#
#
# Indices 1 2 3 4 5 6 
#
# 1 152.0489 53.2222 44.2770 -0.0001 14.7880 0.0000
# 2 53.2222 93.8128 43.7117 0.0000 -0.0588 0.0000
# 3 44.2770 43.7117 87.2355 -0.0001 -14.1268 0.0001
# 4 -0.0001 0.0000 -0.0001 242.6145 -0.0001 -88.6703
# 5 14.7880 -0.0588 -14.1268 -0.0001 38.6090 0.0000
# 6 0.0000 0.0000 0.0001 -88.6703 0.0000 61.2785
#
#
#
# Elastic Compliance Matrix: (Units=1/GPa)
#
#
# Indices 1 2 3 4 5 6 
#
# 1 0.009423 -0.003578 -0.003800 0.000000 -0.005005 0.000000
# 2 -0.003578 0.015533 -0.006103 0.000000 -0.000839 0.000000
# 3 -0.003800 -0.006103 0.017735 0.000000 0.007935 0.000000
# 4 0.000000 0.000000 0.000000 0.008748 0.000000 0.012659
# 5 -0.005005 -0.000839 0.007935 0.000000 0.030720 0.000000
# 6 0.000000 0.000000 0.000000 0.012659 0.000000 0.034636
#
#
# Mechanical properties :
#
#
# Convention : Reuss Voigt Hill
#
# Bulk Modulus (GPa) = 63.58007 68.39098 65.98553
# Shear Modulus (GPa) = 33.55722 81.29282 57.42502
#
# Velocity S-wave (km/s) = 4.09940 6.38048 5.36263
# Velocity P-wave (km/s) = 7.36525 9.40904 8.44917
#
# Compressibility (1/GPa) = 0.01572820
#
# Stress axis : x y z
#
# Youngs Moduli (GPa) = 106.12679 64.38105 56.38592
#
# Poissons Ratio (x) = 0.23037 0.21427
# Poissons Ratio (y) = 0.37974 0.34410
# Poissons Ratio (z) = 0.40329 0.39290
#
# Static dielectric constant tensor:
#      x y z
#    x 3.539370 0.000000 0.676000 
#    y 0.000000 3.107770 0.000000 
#    z 0.676000 0.000000 2.356270 
# 
# 
# High freq. dielectric constant tensor:
#      x y z
#    x 1.795700 0.000000 0.009220 
#    y 0.000000 1.757850 0.000000 
#    z 0.009220 0.000000 1.783730 
# 
# From -- ./inp_files/80878.got.cif
#   From: 2010.06.25/outbox.cif.g09.slc.cpg/sg12_41_cif.got.tgz:80878.got - 2010.06.28 00:19:55.
