data_PCOD8105857
_publ_section_title
;
Structure prediction by ZEFSAII (Michael W. Deem and Ramdas Pophale) SiO2 
 PCOD8105857
Probable space group: C 2/M
;
_chemical_formula_sum "Si O2"
_cell_formula_units_Z 64
_cell_length_a 17.832049
_cell_length_b 10.767437
_cell_length_c 31.549179
_cell_angle_alpha 90.000000
_cell_angle_beta 29.574166
_cell_angle_gamma 90.000000
_cell_volume 2989.734378
_symmetry_space_group_name_H-M "C 2/M"
_symmetry_group_IT_number 12
_symmetry_cell_setting 'monoclinic'
loop_
_space_group_symop_operation_xyz
x,y,z
-x,y,-z
-x,-y,-z
x,-y,z
1/2+x,1/2+y,z
1/2-x,1/2+y,-z
1/2-x,1/2-y,-z
1/2+x,1/2-y,z
loop_
_atom_site_type_symbol
_atom_site_label
_atom_site_fract_x
_atom_site_fract_y
_atom_site_fract_z
Si Si1 0.245164 0.750307 0.211740
Si Si2 0.013044 0.365559 0.038879
Si Si3 0.813051 0.207942 0.924325
Si Si4 0.056141 0.860385 0.617025
Si Si5 0.785041 0.638008 0.333468
Si Si6 0.254687 0.358906 0.556125
Si Si7 0.867783 0.636370 0.818326
Si Si8 0.159713 0.863288 0.753889
O O1 0.415262 0.804090 0.124456
O O2 0.194432 0.716585 0.189616
O O3 0.264363 0.640680 0.236757
O O4 0.125192 0.849210 0.289378
O O5 0.938683 0.500000 0.068038
O O6 0.186828 0.384808 0.967845
O O7 0.000000 0.292572 0.000000
O O8 0.814380 0.322353 0.891049
O O9 0.977470 0.145307 0.846114
O O10 0.750000 0.250000 0.000000
O O11 0.132761 0.749349 0.606122
O O12 0.100670 0.843194 0.545791
O O13 0.104405 0.000000 0.608842
O O14 0.753904 0.500000 0.328164
O O15 0.683116 0.657645 0.426093
O O16 0.766197 0.751013 0.309788
O O17 0.951443 0.640099 0.272214
O O18 0.185553 0.500000 0.584395
O O19 0.801795 0.500000 0.843988
O O20 0.198821 0.000000 0.715564
#
# Coordination Sequence:
#
# PCOD8105857 Si02
#       8
#     8   8   8   8   8   8   8   8
#     4  12  22  40  58  87 128 159 201 252 307 367
#     4  11  23  39  58  81 116 159 203 249 304 359
#     4  11  22  43  60  85 118 156 203 255 303 367
#     4  10  21  35  60  97 128 160 206 256 306 361
#     4   9  19  39  63  87 119 162 204 247 304 370
#     4   9  18  37  63  92 126 164 205 251 307 367
#     4  10  21  37  61  86 113 156 201 247 300 359
#     4  11  25  40  62  92 123 162 206 259 315 364
#
# _framework density 21.406583999999999
#
# number of rings (size 3 to 8) (size 9 to 14) (size 15 to 20)
#    0.000    1.625    3.750    1.125    0.000    3.000 
#    0.000    1.250    0.000    3.000    0.000    0.000 
#    0.000    0.000    0.000    0.000    0.000    0.000 
#
# Total GULP energy -396421.333235 kJ/mol
# GULP energy per Si atom -12388.166664 kJ/mol
# Density = 2.135786 g / cm^3
# Si number density = 21.406584 Si / 1000 Ang^3
#
#
#
# Elastic Constant Matrix: (Units=GPa)
#
#
# Indices 1 2 3 4 5 6 
#
# 1 87.4663 30.2484 24.2732 -0.0002 24.2550 -0.0007
# 2 30.2484 138.4464 37.7225 -0.0001 21.4008 0.0005
# 3 24.2732 37.7225 87.5463 -0.0006 23.9889 0.0001
# 4 -0.0002 -0.0001 -0.0006 20.8129 0.0000 2.6605
# 5 24.2550 21.4008 23.9889 0.0000 32.9515 -0.0002
# 6 -0.0007 0.0005 0.0001 2.6605 -0.0002 22.1679
#
#
#
# Elastic Compliance Matrix: (Units=1/GPa)
#
#
# Indices 1 2 3 4 5 6 
#
# 1 0.014776 -0.001559 -0.000902 0.000000 -0.009207 0.000000
# 2 -0.001559 0.008671 -0.002593 0.000000 -0.002597 0.000000
# 3 -0.000902 -0.002593 0.015173 0.000000 -0.008698 0.000000
# 4 0.000000 0.000000 0.000000 0.048796 0.000000 -0.005856
# 5 -0.009207 -0.002597 -0.008698 0.000000 0.045143 0.000000
# 6 0.000000 0.000000 0.000000 -0.005856 0.000000 0.045813
#
#
# Mechanical properties :
#
#
# Convention : Reuss Voigt Hill
#
# Bulk Modulus (GPa) = 35.07242 55.32747 45.19995
# Shear Modulus (GPa) = 25.25448 29.93412 27.59430
#
# Velocity S-wave (km/s) = 3.43848 3.74352 3.59424
# Velocity P-wave (km/s) = 5.67307 6.67738 6.19561
#
# Compressibility (1/GPa) = 0.02851243
#
# Stress axis : x y z
#
# Youngs Moduli (GPa) = 67.67893 115.32058 65.90550
#
# Poissons Ratio (x) = 0.17982 0.05945
# Poissons Ratio (y) = 0.10553 0.17087
# Poissons Ratio (z) = 0.06105 0.29898
#
# Static dielectric constant tensor:
#      x y z
#    x 3.759880 0.000000 0.160040 
#    y 0.000000 3.837570 0.000000 
#    z 0.160040 0.000000 4.059660 
# 
# 
# High freq. dielectric constant tensor:
#      x y z
#    x 1.829270 0.000000 0.017260 
#    y 0.000000 1.832830 0.000000 
#    z 0.017260 0.000000 1.844600 
# 
# From -- ./inp_files/379073.got.cif
#   From: 2010.06.25/outbox.cif.g09.slc.cpg/sg12_190_cif.got.tgz:379073.got - 2010.06.28 00:19:55.
