data_PCOD8105035
_publ_section_title
;
Structure prediction by ZEFSAII (Michael W. Deem and Ramdas Pophale) SiO2 
 PCOD8105035
Probable space group: C 2/M
;
_chemical_formula_sum "Si O2"
_cell_formula_units_Z 56
_cell_length_a 31.389500
_cell_length_b 8.978811
_cell_length_c 19.937343
_cell_angle_alpha 90.000000
_cell_angle_beta 149.897859
_cell_angle_gamma 90.000000
_cell_volume 2818.244956
_symmetry_space_group_name_H-M "C 2/M"
_symmetry_group_IT_number 12
_symmetry_cell_setting 'monoclinic'
loop_
_space_group_symop_operation_xyz
x,y,z
-x,y,-z
-x,-y,-z
x,-y,z
1/2+x,1/2+y,z
1/2-x,1/2+y,-z
1/2-x,1/2-y,-z
1/2+x,1/2-y,z
loop_
_atom_site_type_symbol
_atom_site_label
_atom_site_fract_x
_atom_site_fract_y
_atom_site_fract_z
Si Si1 0.261777 0.171257 0.688645
Si Si2 0.197478 0.827156 0.870637
Si Si3 0.591076 0.171264 0.428193
Si Si4 0.007112 0.176179 0.823416
Si Si5 0.183434 0.673048 0.089638
Si Si6 0.562670 0.171468 0.143629
Si Si7 0.025945 0.671166 0.608277
O O1 0.187091 0.271411 0.557609
O O2 0.287092 0.226730 0.797121
O O3 0.340653 0.192419 0.746620
O O4 0.231904 0.000000 0.650649
O O5 0.239855 0.795370 0.856549
O O6 0.102633 0.766110 0.742040
O O7 0.194542 0.000000 0.883394
O O8 0.250000 0.750000 0.000000
O O9 0.533655 0.265702 0.300227
O O10 0.554807 0.190579 0.453595
O O11 0.589753 0.000000 0.403255
O O12 0.951393 0.231346 0.809834
O O13 0.007064 0.000000 0.822572
O O14 0.103021 0.232662 0.957504
O O15 0.156826 0.500000 0.054589
O O16 0.541214 0.000000 0.130899
O O17 0.500000 0.228925 0.000000
O O18 0.055535 0.500000 0.644094
O O19 0.000000 0.732534 0.500000
#
# Coordination Sequence:
#
# PCOD8105035 Si02
#       7
#     8   8   8   8   8   8   8
#     4  10  21  39  65  91 117 152 198 247 296 356
#     4  11  23  37  59  88 120 157 200 250 300 355
#     4  11  24  41  61  87 123 164 201 244 303 362
#     4  12  25  39  61  91 124 160 202 252 296 350
#     4  10  21  40  62  87 119 158 200 245 303 362
#     4  10  20  40  67  91 120 159 196 241 303 362
#     4  10  22  41  63  87 120 160 201 249 305 361
#
# _framework density 19.870524
#
# number of rings (size 3 to 8) (size 9 to 14) (size 15 to 20)
#    0.000    1.429    1.429    3.857    0.000    8.000 
#    0.000    0.000    0.000    0.000    0.000    0.000 
#    0.000    0.000    0.000    0.000    0.000    0.000 
#
# Total GULP energy -347402.459854 kJ/mol
# GULP energy per Si atom -12407.230709 kJ/mol
# Density = 1.982530 g / cm^3
# Si number density = 19.870524 Si / 1000 Ang^3
#
#
#
# Elastic Constant Matrix: (Units=GPa)
#
#
# Indices 1 2 3 4 5 6 
#
# 1 63.9860 29.6901 15.7490 0.0000 0.0743 0.0000
# 2 29.6901 95.6027 43.5633 0.0000 1.2356 0.0000
# 3 15.7490 43.5633 104.9401 0.0000 3.0272 0.0000
# 4 0.0000 0.0000 0.0000 40.0651 0.0000 0.5854
# 5 0.0743 1.2356 3.0272 0.0000 35.4971 0.0000
# 6 0.0000 0.0000 0.0000 0.5854 0.0000 25.2332
#
#
#
# Elastic Compliance Matrix: (Units=1/GPa)
#
#
# Indices 1 2 3 4 5 6 
#
# 1 0.018280 -0.005460 -0.000483 0.000000 0.000193 0.000000
# 2 -0.005460 0.014531 -0.005211 0.000000 -0.000050 0.000000
# 3 -0.000483 -0.005211 0.011789 0.000000 -0.000823 0.000000
# 4 0.000000 0.000000 0.000000 0.024968 0.000000 -0.000579
# 5 0.000193 -0.000050 -0.000823 0.000000 0.028243 0.000000
# 6 0.000000 0.000000 0.000000 -0.000579 0.000000 0.039644
#
#
# Mechanical properties :
#
#
# Convention : Reuss Voigt Hill
#
# Bulk Modulus (GPa) = 44.85757 49.17040 47.01399
# Shear Modulus (GPa) = 29.90571 31.86086 30.88328
#
# Velocity S-wave (km/s) = 3.88368 4.00862 3.94664
# Velocity P-wave (km/s) = 6.53717 6.79886 6.66930
#
# Compressibility (1/GPa) = 0.02229278
#
# Stress axis : x y z
#
# Youngs Moduli (GPa) = 54.70365 68.81943 84.82671
#
# Poissons Ratio (x) = 0.37573 0.04093
# Poissons Ratio (y) = 0.29867 0.44206
# Poissons Ratio (z) = 0.02640 0.35864
#
# Static dielectric constant tensor:
#      x y z
#    x 3.698330 0.000000 -0.067220 
#    y 0.000000 3.599250 0.000000 
#    z -0.067220 0.000000 3.675650 
# 
# 
# High freq. dielectric constant tensor:
#      x y z
#    x 1.789150 0.000000 0.000900 
#    y 0.000000 1.771620 0.000000 
#    z 0.000900 0.000000 1.781690 
# 
# From -- ./inp_files/329659.got.cif
#   From: 2010.06.25/outbox.cif.g09.slc.cpg/sg12_165_cif.got.tgz:329659.got - 2010.06.28 00:19:55.
