data_PCOD8105005
_publ_section_title
;
Structure prediction by ZEFSAII (Michael W. Deem and Ramdas Pophale) SiO2 
 PCOD8105005
Probable space group: C 2/M
;
_chemical_formula_sum "Si O2"
_cell_formula_units_Z 56
_cell_length_a 30.646045
_cell_length_b 8.846455
_cell_length_c 11.701518
_cell_angle_alpha 90.000000
_cell_angle_beta 119.567730
_cell_angle_gamma 90.000000
_cell_volume 2759.254940
_symmetry_space_group_name_H-M "C 2/M"
_symmetry_group_IT_number 12
_symmetry_cell_setting 'monoclinic'
loop_
_space_group_symop_operation_xyz
x,y,z
-x,y,-z
-x,-y,-z
x,-y,z
1/2+x,1/2+y,z
1/2-x,1/2+y,-z
1/2-x,1/2-y,-z
1/2+x,1/2-y,z
loop_
_atom_site_type_symbol
_atom_site_label
_atom_site_fract_x
_atom_site_fract_y
_atom_site_fract_z
Si Si1 0.753704 0.827457 0.185168
Si Si2 0.558105 0.675856 0.070014
Si Si3 0.489671 0.324465 0.616685
Si Si4 0.576723 0.822590 0.863044
Si Si5 0.674498 0.326893 0.931640
Si Si6 0.392112 0.674498 0.625937
Si Si7 0.213857 0.676928 0.545130
O O1 0.799119 0.811401 0.155777
O O2 0.765948 0.719928 0.305243
O O3 0.747352 0.000000 0.218029
O O4 0.702047 0.773268 0.062390
O O5 0.565569 0.500000 0.050694
O O6 0.583604 0.720273 0.222042
O O7 0.500000 0.718335 0.000000
O O8 0.583375 0.774377 0.003430
O O9 0.500000 0.274264 0.500000
O O10 0.503337 0.500000 0.653218
O O11 0.522999 0.226148 0.745240
O O12 0.431809 0.294363 0.575295
O O13 0.618837 0.737624 0.843064
O O14 0.583670 0.000000 0.859759
O O15 0.673498 0.500000 0.971653
O O16 0.375850 0.500000 0.604885
O O17 0.343406 0.773505 0.542704
O O18 0.216765 0.500000 0.532728
O O19 0.250000 0.750000 0.500000
#
# Coordination Sequence:
#
# PCOD8105005 Si02
#       7
#     8   8   8   8   8   8   8
#     4  10  22  43  68  94 124 159 209 264 318 378
#     4  10  20  40  66  89 120 161 208 255 305 371
#     4  10  22  42  67  94 127 169 215 258 312 381
#     4  12  25  38  60  94 132 165 206 259 310 371
#     4  10  22  41  67  94 125 165 207 256 316 379
#     4  10  22  42  67  94 125 165 214 266 319 376
#     4  12  27  45  66  92 129 170 214 264 319 381
#
# _framework density 20.295335000000001
#
# number of rings (size 3 to 8) (size 9 to 14) (size 15 to 20)
#    0.000    1.429    1.429    3.429    4.000    3.429 
#    0.000    0.000    0.000    0.000    0.000    0.000 
#    0.000    0.000    0.000    0.000    0.000    0.000 
#
# Total GULP energy -347368.939887 kJ/mol
# GULP energy per Si atom -12406.033567 kJ/mol
# Density = 2.024914 g / cm^3
# Si number density = 20.295335 Si / 1000 Ang^3
#
#
#
# Elastic Constant Matrix: (Units=GPa)
#
#
# Indices 1 2 3 4 5 6 
#
# 1 114.3863 60.1583 43.4737 0.0000 1.6255 0.0000
# 2 60.1583 110.3127 34.7463 0.0000 -7.2511 0.0000
# 3 43.4737 34.7463 87.1038 0.0000 -14.1733 0.0000
# 4 0.0000 0.0000 0.0000 30.1751 0.0000 -2.1623
# 5 1.6255 -7.2511 -14.1733 0.0000 26.2563 0.0000
# 6 0.0000 0.0000 0.0000 -2.1623 0.0000 19.5496
#
#
#
# Elastic Compliance Matrix: (Units=1/GPa)
#
#
# Indices 1 2 3 4 5 6 
#
# 1 0.014289 -0.006436 -0.005479 0.000000 -0.005620 0.000000
# 2 -0.006436 0.013278 -0.001560 0.000000 0.003223 0.000000
# 3 -0.005479 -0.001560 0.016250 0.000000 0.008680 0.000000
# 4 0.000000 0.000000 0.000000 0.033405 0.000000 0.003695
# 5 -0.005620 0.003223 0.008680 0.000000 0.044010 0.000000
# 6 0.000000 0.000000 0.000000 0.003695 0.000000 0.051560
#
#
# Mechanical properties :
#
#
# Convention : Reuss Voigt Hill
#
# Bulk Modulus (GPa) = 59.28601 65.39546 62.34074
# Shear Modulus (GPa) = 24.34688 26.75783 25.55236
#
# Velocity S-wave (km/s) = 3.46732 3.63495 3.55213
# Velocity P-wave (km/s) = 6.73089 7.06463 6.89978
#
# Compressibility (1/GPa) = 0.01686739
#
# Stress axis : x y z
#
# Youngs Moduli (GPa) = 69.98165 75.31035 61.53955
#
# Poissons Ratio (x) = 0.48472 0.33716
# Poissons Ratio (y) = 0.45043 0.09600
# Poissons Ratio (z) = 0.38342 0.11748
#
# Static dielectric constant tensor:
#      x y z
#    x 3.981030 0.000000 -0.015510 
#    y 0.000000 3.648510 0.000000 
#    z -0.015510 0.000000 3.720510 
# 
# 
# High freq. dielectric constant tensor:
#      x y z
#    x 1.806290 0.000000 -0.001450 
#    y 0.000000 1.790400 0.000000 
#    z -0.001450 0.000000 1.795150 
# 
# From -- ./inp_files/187722.got.cif
#   From: 2010.06.25/outbox.cif.g09.slc.cpg/sg12_94_cif.got.tgz:187722.got - 2010.06.28 00:19:55.
