data_PCOD8105911
_publ_section_title
;
Structure prediction by ZEFSAII (Michael W. Deem and Ramdas Pophale) SiO2 
 PCOD8105911
Probable space group: C 2/M
;
_chemical_formula_sum "Si O2"
_cell_formula_units_Z 40
_cell_length_a 22.522255
_cell_length_b 14.438381
_cell_length_c 10.113703
_cell_angle_alpha 90.000000
_cell_angle_beta 45.537017
_cell_angle_gamma 90.000000
_cell_volume 2347.243634
_symmetry_space_group_name_H-M "C 2/M"
_symmetry_group_IT_number 12
_symmetry_cell_setting 'monoclinic'
loop_
_space_group_symop_operation_xyz
x,y,z
-x,y,-z
-x,-y,-z
x,-y,z
1/2+x,1/2+y,z
1/2-x,1/2+y,-z
1/2-x,1/2-y,-z
1/2+x,1/2-y,z
loop_
_atom_site_type_symbol
_atom_site_label
_atom_site_fract_x
_atom_site_fract_y
_atom_site_fract_z
Si Si1 0.313074 0.188319 0.822429
Si Si2 0.254020 0.104723 0.663533
Si Si3 0.396361 0.766925 0.439540
Si Si4 0.035306 0.602302 0.298179
Si Si5 0.916801 0.892842 0.207513
O O1 0.261843 0.115573 0.810880
O O2 0.371836 0.250169 0.632398
O O3 0.369349 0.136045 0.843014
O O4 0.250000 0.250000 0.000000
O O5 0.321022 0.173585 0.489173
O O6 0.160715 0.129557 0.766377
O O7 0.276585 0.000000 0.588113
O O8 0.480752 0.827141 0.295955
O O9 0.409506 0.668575 0.350274
O O10 0.032333 0.500000 0.237442
O O11 0.000000 0.596112 0.500000
O O12 0.918550 0.000000 0.249049
O O13 0.000000 0.865641 0.000000
#
# Coordination Sequence:
#
# PCOD8105911 Si02
#       5
#     8   8   8   8   8
#     4   9  19  30  51  80 109 133 166 201 260 315
#     4   9  18  33  55  77 101 136 176 213 258 312
#     4   9  19  31  57  75 104 131 172 218 260 303
#     4   9  16  30  52  79 104 130 166 207 254 309
#     4  10  21  36  53  73 101 141 183 216 254 306
#
# _framework density 17.041264000000002
#
# number of rings (size 3 to 8) (size 9 to 14) (size 15 to 20)
#    1.200    1.600    0.000    1.800    2.800    0.000 
#    0.000    2.000    0.000   10.200    0.000    0.000 
#    0.000    0.000    0.000    0.000    0.000    0.000 
#
# Total GULP energy -247805.663311 kJ/mol
# GULP energy per Si atom -12390.283166 kJ/mol
# Density = 1.700248 g / cm^3
# Si number density = 17.041264 Si / 1000 Ang^3
#
#
#
# Elastic Constant Matrix: (Units=GPa)
#
#
# Indices 1 2 3 4 5 6 
#
# 1 116.3298 51.4588 30.7631 0.0000 -22.0901 0.0000
# 2 51.4588 101.7155 50.0965 0.0000 -10.6763 0.0000
# 3 30.7631 50.0965 61.1747 0.0000 -10.1670 0.0000
# 4 0.0000 0.0000 0.0000 24.6320 0.0000 -1.3155
# 5 -22.0901 -10.6763 -10.1670 0.0000 19.1578 0.0000
# 6 0.0000 0.0000 0.0000 -1.3155 0.0000 29.7465
#
#
#
# Elastic Compliance Matrix: (Units=1/GPa)
#
#
# Indices 1 2 3 4 5 6 
#
# 1 0.013363 -0.005308 -0.000333 0.000000 0.012273 0.000000
# 2 -0.005308 0.018672 -0.013061 0.000000 -0.002647 0.000000
# 3 -0.000333 -0.013061 0.028445 0.000000 0.007433 0.000000
# 4 0.000000 0.000000 0.000000 0.040694 0.000000 0.001800
# 5 0.012273 -0.002647 0.007433 0.000000 0.068820 0.000000
# 6 0.000000 0.000000 0.000000 0.001800 0.000000 0.033697
#
#
# Mechanical properties :
#
#
# Convention : Reuss Voigt Hill
#
# Bulk Modulus (GPa) = 43.33623 60.42851 51.88237
# Shear Modulus (GPa) = 20.09752 24.50071 22.29911
#
# Velocity S-wave (km/s) = 3.43788 3.79585 3.62129
# Velocity P-wave (km/s) = 6.42216 7.39922 6.92793
#
# Compressibility (1/GPa) = 0.02307538
#
# Stress axis : x y z
#
# Youngs Moduli (GPa) = 74.83325 53.55701 35.15519
#
# Poissons Ratio (x) = 0.28429 0.01172
# Poissons Ratio (y) = 0.39722 0.45916
# Poissons Ratio (z) = 0.02494 0.69951
#
# Static dielectric constant tensor:
#      x y z
#    x 3.512610 0.000000 -0.249220 
#    y 0.000000 3.084570 0.000000 
#    z -0.249220 0.000000 2.768420 
# 
# 
# High freq. dielectric constant tensor:
#      x y z
#    x 1.667390 0.000000 -0.024500 
#    y 0.000000 1.651590 0.000000 
#    z -0.024500 0.000000 1.613700 
# 
# From -- ./inp_files/95600.got.cif
#   From: 2010.06.25/outbox.cif.g09.slc.cpg/sg12_48_cif.got.tgz:95600.got - 2010.06.28 00:19:55.
