data_PCOD8105683
_publ_section_title
;
Structure prediction by ZEFSAII (Michael W. Deem and Ramdas Pophale) SiO2 
 PCOD8105683
Probable space group: C 2/M
;
_chemical_formula_sum "Si O2"
_cell_formula_units_Z 56
_cell_length_a 14.899669
_cell_length_b 9.267708
_cell_length_c 20.757669
_cell_angle_alpha 90.000000
_cell_angle_beta 75.882209
_cell_angle_gamma 90.000000
_cell_volume 2779.764973
_symmetry_space_group_name_H-M "C 2/M"
_symmetry_group_IT_number 12
_symmetry_cell_setting 'monoclinic'
loop_
_space_group_symop_operation_xyz
x,y,z
-x,y,-z
-x,-y,-z
x,-y,z
1/2+x,1/2+y,z
1/2-x,1/2+y,-z
1/2-x,1/2-y,-z
1/2+x,1/2-y,z
loop_
_atom_site_type_symbol
_atom_site_label
_atom_site_fract_x
_atom_site_fract_y
_atom_site_fract_z
Si Si1 0.080149 0.837833 0.662602
Si Si2 0.048674 0.839211 0.054906
Si Si3 0.744424 0.835760 0.786742
Si Si4 0.949916 0.168599 0.575815
Si Si5 0.218581 0.673185 0.346313
Si Si6 0.538235 0.245216 0.808015
Si Si7 0.653602 0.839908 0.126638
O O1 0.013134 0.763529 0.622123
O O2 0.183156 0.771914 0.642693
O O3 0.039927 0.835401 0.741773
O O4 0.088398 0.000000 0.636878
O O5 0.134961 0.736845 0.060372
O O6 0.974762 0.847799 0.127092
O O7 0.085116 0.000000 0.033227
O O8 0.000000 0.772940 0.000000
O O9 0.793554 0.744417 0.721811
O O10 0.633368 0.842457 0.799563
O O11 0.773794 0.758966 0.847804
O O12 0.781923 0.000000 0.779127
O O13 0.000000 0.194661 0.500000
O O14 0.857201 0.263884 0.591786
O O15 0.925356 0.000000 0.590608
O O16 0.213148 0.500000 0.340580
O O17 0.446569 0.144567 0.819895
O O18 0.695388 0.000000 0.109943
#
# Coordination Sequence:
#
# PCOD8105683 Si02
#       7
#     8   8   8   8   8   8   8
#     4   9  18  34  55  80 109 145 185 226 281 335
#     4   9  19  36  58  83 112 151 194 235 285 341
#     4  11  21  36  58  85 115 147 187 235 288 340
#     4  10  21  37  57  82 113 150 190 230 276 337
#     4  10  21  36  55  81 112 145 186 234 282 335
#     4   9  20  34  58  82 111 147 189 237 283 336
#     4  10  21  35  54  83 114 146 187 233 283 335
#
# _framework density 20.145588
#
# number of rings (size 3 to 8) (size 9 to 14) (size 15 to 20)
#    0.857    1.429    0.000    3.000    0.000    4.000 
#    0.000    4.286    0.000    0.000    0.000    0.000 
#    0.000    0.000    0.000    0.000    0.000    0.000 
#
# Total GULP energy -346944.349146 kJ/mol
# GULP energy per Si atom -12390.869612 kJ/mol
# Density = 2.009974 g / cm^3
# Si number density = 20.145588 Si / 1000 Ang^3
#
#
#
# Elastic Constant Matrix: (Units=GPa)
#
#
# Indices 1 2 3 4 5 6 
#
# 1 75.8049 17.5721 29.1333 0.0000 13.2152 0.0000
# 2 17.5721 96.7643 8.7630 0.0000 7.9200 0.0000
# 3 29.1333 8.7630 81.9593 0.0000 17.3562 0.0000
# 4 0.0000 0.0000 0.0000 24.2380 0.0000 2.8738
# 5 13.2152 7.9200 17.3562 0.0000 24.8901 0.0000
# 6 0.0000 0.0000 0.0000 2.8738 0.0000 23.3724
#
#
#
# Elastic Compliance Matrix: (Units=1/GPa)
#
#
# Indices 1 2 3 4 5 6 
#
# 1 0.016270 -0.002152 -0.004539 0.000000 -0.004788 0.000000
# 2 -0.002152 0.010912 0.000107 0.000000 -0.002405 0.000000
# 3 -0.004539 0.000107 0.015604 0.000000 -0.008505 0.000000
# 4 0.000000 0.000000 0.000000 0.041868 0.000000 -0.005148
# 5 -0.004788 -0.002405 -0.008505 0.000000 0.049415 0.000000
# 6 0.000000 0.000000 0.000000 -0.005148 0.000000 0.043419
#
#
# Mechanical properties :
#
#
# Convention : Reuss Voigt Hill
#
# Bulk Modulus (GPa) = 33.76159 40.60726 37.18442
# Shear Modulus (GPa) = 24.93421 27.77077 26.35249
#
# Velocity S-wave (km/s) = 3.52191 3.71685 3.62069
# Velocity P-wave (km/s) = 5.77353 6.21455 5.99810
#
# Compressibility (1/GPa) = 0.02961946
#
# Stress axis : x y z
#
# Youngs Moduli (GPa) = 61.46364 91.64048 64.08485
#
# Poissons Ratio (x) = 0.19717 0.29089
# Poissons Ratio (y) = 0.13224 -0.00688
# Poissons Ratio (z) = 0.27900 -0.00983
#
# Static dielectric constant tensor:
#      x y z
#    x 3.715160 0.000000 0.154960 
#    y 0.000000 3.344370 0.000000 
#    z 0.154960 0.000000 3.443660 
# 
# 
# High freq. dielectric constant tensor:
#      x y z
#    x 1.791720 0.000000 0.010550 
#    y 0.000000 1.768180 0.000000 
#    z 0.010550 0.000000 1.768580 
# 
# From -- ./inp_files/337864.got.cif
#   From: 2010.06.25/outbox.cif.g09.slc.cpg/sg12_169_cif.got.tgz:337864.got - 2010.06.28 00:19:55.
