data_PCOD8105778
_publ_section_title
;
Structure prediction by ZEFSAII (Michael W. Deem and Ramdas Pophale) SiO2 
 PCOD8105778
Probable space group: C 2/M
;
_chemical_formula_sum "Si O2"
_cell_formula_units_Z 44
_cell_length_a 14.931024
_cell_length_b 20.328654
_cell_length_c 11.151893
_cell_angle_alpha 90.000000
_cell_angle_beta 43.944206
_cell_angle_gamma 90.000000
_cell_volume 2348.982170
_symmetry_space_group_name_H-M "C 2/M"
_symmetry_group_IT_number 12
_symmetry_cell_setting 'monoclinic'
loop_
_space_group_symop_operation_xyz
x,y,z
-x,y,-z
-x,-y,-z
x,-y,z
1/2+x,1/2+y,z
1/2-x,1/2+y,-z
1/2-x,1/2-y,-z
1/2+x,1/2-y,z
loop_
_atom_site_type_symbol
_atom_site_label
_atom_site_fract_x
_atom_site_fract_y
_atom_site_fract_z
Si Si1 0.676576 0.828785 0.144488
Si Si2 0.063718 0.771299 0.065962
Si Si3 0.000000 0.735393 0.500000
Si Si4 0.393375 0.924280 0.960854
Si Si5 0.845792 0.194730 0.454949
Si Si6 0.817486 0.422234 0.291091
O O1 0.635974 0.789425 0.061549
O O2 0.569207 0.814557 0.344937
O O3 0.674925 0.903213 0.097270
O O4 0.816547 0.820314 0.068964
O O5 0.961682 0.809587 0.247569
O O6 0.000000 0.750785 0.000000
O O7 0.898437 0.782600 0.532883
O O8 0.538664 0.894871 0.821794
O O9 0.420941 0.000000 0.933610
O O10 0.301835 0.908229 0.163563
O O11 0.750000 0.250000 0.500000
O O12 0.779836 0.123302 0.537107
O O13 0.793785 0.500000 0.344656
#
# Coordination Sequence:
#
# PCOD8105778 Si02
#       6
#     8   8   4   8   8   8
#     4  10  21  35  57  79 112 145 177 234 277 324
#     4  10  22  35  54  82 109 147 182 224 280 329
#     4  10  22  36  52  86 112 138 188 224 278 332
#     4   9  19  34  56  82 107 144 188 225 273 330
#     4  11  22  35  56  82 114 145 183 233 271 330
#     4   9  19  35  56  82 113 145 182 230 278 325
#
# _framework density 18.731515999999999
#
# number of rings (size 3 to 8) (size 9 to 14) (size 15 to 20)
#    0.000    2.182    0.000    4.364   12.727    0.000 
#    0.000    1.818    0.000    5.455    0.000    0.000 
#    0.000    0.000    0.000    0.000    0.000    0.000 
#
# Total GULP energy -272553.874769 kJ/mol
# GULP energy per Si atom -12388.812489 kJ/mol
# Density = 1.868888 g / cm^3
# Si number density = 18.731516 Si / 1000 Ang^3
#
#
#
# Elastic Constant Matrix: (Units=GPa)
#
#
# Indices 1 2 3 4 5 6 
#
# 1 115.6031 22.3469 22.3201 0.0001 0.8133 -0.0001
# 2 22.3469 47.1665 38.9133 0.0000 0.2899 0.0000
# 3 22.3201 38.9133 82.6497 0.0000 -3.1371 0.0000
# 4 0.0001 0.0000 0.0000 32.3656 -0.0001 4.3772
# 5 0.8133 0.2899 -3.1371 -0.0001 28.1385 0.0001
# 6 -0.0001 0.0000 0.0000 4.3772 0.0001 24.2993
#
#
#
# Elastic Compliance Matrix: (Units=1/GPa)
#
#
# Indices 1 2 3 4 5 6 
#
# 1 0.009552 -0.003901 -0.000755 0.000000 -0.000320 0.000000
# 2 -0.003901 0.036395 -0.016160 0.000000 -0.002064 0.000000
# 3 -0.000755 -0.016160 0.020004 0.000000 0.002418 0.000000
# 4 0.000000 0.000000 0.000000 0.031668 0.000000 -0.005705
# 5 -0.000320 -0.002064 0.002418 0.000000 0.035839 0.000000
# 6 0.000000 0.000000 0.000000 -0.005705 0.000000 0.042181
#
#
# Mechanical properties :
#
#
# Convention : Reuss Voigt Hill
#
# Bulk Modulus (GPa) = 41.12154 45.84219 43.48187
# Shear Modulus (GPa) = 22.18491 27.74994 24.96743
#
# Velocity S-wave (km/s) = 3.44519 3.85315 3.65486
# Velocity P-wave (km/s) = 6.15033 6.65748 6.40893
#
# Compressibility (1/GPa) = 0.02431815
#
# Stress axis : x y z
#
# Youngs Moduli (GPa) = 104.68566 27.47630 49.99064
#
# Poissons Ratio (x) = 0.10718 0.03776
# Poissons Ratio (y) = 0.40835 0.80787
# Poissons Ratio (z) = 0.07907 0.44403
#
# Static dielectric constant tensor:
#      x y z
#    x 3.662000 0.000000 -0.045370 
#    y 0.000000 3.336130 0.000000 
#    z -0.045370 0.000000 3.495410 
# 
# 
# High freq. dielectric constant tensor:
#      x y z
#    x 1.725320 0.000000 -0.002580 
#    y 0.000000 1.705770 0.000000 
#    z -0.002580 0.000000 1.729570 
# 
# From -- ./inp_files/65170.got.cif
#   From: 2010.06.25/outbox.cif.g09.slc.cpg/sg12_33_cif.got.tgz:65170.got - 2010.06.28 00:19:55.
