data_PCOD8105828
_publ_section_title
;
Structure prediction by ZEFSAII (Michael W. Deem and Ramdas Pophale) SiO2 
 PCOD8105828
Probable space group: C 2/M
;
_chemical_formula_sum "Si O2"
_cell_formula_units_Z 44
_cell_length_a 8.573569
_cell_length_b 22.921398
_cell_length_c 10.436722
_cell_angle_alpha 90.000000
_cell_angle_beta 89.283739
_cell_angle_gamma 90.000000
_cell_volume 2050.845428
_symmetry_space_group_name_H-M "C 2/M"
_symmetry_group_IT_number 12
_symmetry_cell_setting 'monoclinic'
loop_
_space_group_symop_operation_xyz
x,y,z
-x,y,-z
-x,-y,-z
x,-y,z
1/2+x,1/2+y,z
1/2-x,1/2+y,-z
1/2-x,1/2-y,-z
1/2+x,1/2-y,z
loop_
_atom_site_type_symbol
_atom_site_label
_atom_site_fract_x
_atom_site_fract_y
_atom_site_fract_z
Si Si1 0.000000 0.250724 0.500000
Si Si2 0.756878 0.817980 0.649428
Si Si3 0.182627 0.934364 0.474215
Si Si4 0.853056 0.565644 0.734551
Si Si5 0.832170 0.934450 0.017730
Si Si6 0.091809 0.644151 0.878345
O O1 0.924570 0.211001 0.614711
O O2 0.867747 0.291412 0.445300
O O3 0.767630 0.888064 0.633676
O O4 0.697490 0.808974 0.797611
O O5 0.282473 0.917684 0.598369
O O6 0.000000 0.928701 0.500000
O O7 0.223650 0.000000 0.427757
O O8 0.925655 0.500000 0.732363
O O9 0.977837 0.614054 0.775744
O O10 0.707675 0.567183 0.832411
O O11 0.698827 0.905087 0.936919
O O12 0.843538 0.000000 0.964284
O O13 0.000000 0.903008 0.000000
O O14 0.000000 0.674141 0.000000
#
# Coordination Sequence:
#
# PCOD8105828 Si02
#       6
#     4   8   8   8   8   8
#     4  10  24  42  66  90 116 160 214 250 304 360
#     4  11  22  42  64  90 120 160 203 258 301 365
#     4  10  21  35  58  95 129 156 194 251 314 364
#     4   9  18  33  51  79 125 167 200 240 294 367
#     4   9  18  30  50  81 119 164 206 240 290 363
#     4  10  21  37  58  85 118 158 207 251 303 359
#
# _framework density 21.454568999999999
#
# number of rings (size 3 to 8) (size 9 to 14) (size 15 to 20)
#    0.000    2.182    0.909    1.636    2.545    3.636 
#    0.000    3.182    0.000    0.000    0.000    0.000 
#    0.000    0.000    0.000    0.000    0.000    0.000 
#
# Total GULP energy -272668.686875 kJ/mol
# GULP energy per Si atom -12394.031222 kJ/mol
# Density = 2.140574 g / cm^3
# Si number density = 21.454569 Si / 1000 Ang^3
#
#
#
# Elastic Constant Matrix: (Units=GPa)
#
#
# Indices 1 2 3 4 5 6 
#
# 1 90.9296 17.8225 22.1694 0.0000 -19.5362 0.0000
# 2 17.8225 69.3370 19.6804 0.0000 -15.5967 0.0000
# 3 22.1694 19.6804 69.3142 0.0000 -24.9126 0.0000
# 4 0.0000 0.0000 0.0000 8.8080 0.0000 -4.2905
# 5 -19.5362 -15.5967 -24.9126 0.0000 41.2977 0.0000
# 6 0.0000 0.0000 0.0000 -4.2905 0.0000 12.8170
#
#
#
# Elastic Compliance Matrix: (Units=1/GPa)
#
#
# Indices 1 2 3 4 5 6 
#
# 1 0.012734 -0.001756 -0.002104 0.000000 0.004092 0.000000
# 2 -0.001756 0.016501 -0.002787 0.000000 0.003721 0.000000
# 3 -0.002104 -0.002787 0.019351 0.000000 0.009626 0.000000
# 4 0.000000 0.000000 0.000000 0.135653 0.000000 0.045410
# 5 0.004092 0.003721 0.009626 0.000000 0.033362 0.000000
# 6 0.000000 0.000000 0.000000 0.045410 0.000000 0.093222
#
#
# Mechanical properties :
#
#
# Convention : Reuss Voigt Hill
#
# Bulk Modulus (GPa) = 28.33326 38.76950 33.55138
# Shear Modulus (GPa) = 14.88632 23.91176 19.39904
#
# Velocity S-wave (km/s) = 2.63697 3.34208 3.01024
# Velocity P-wave (km/s) = 4.74408 5.74477 5.26824
#
# Compressibility (1/GPa) = 0.03529420
#
# Stress axis : x y z
#
# Youngs Moduli (GPa) = 78.53238 60.60089 51.67782
#
# Poissons Ratio (x) = 0.10639 0.10871
# Poissons Ratio (y) = 0.13787 0.14400
# Poissons Ratio (z) = 0.16520 0.16887
#
# Static dielectric constant tensor:
#      x y z
#    x 4.138430 0.000000 -0.333340 
#    y 0.000000 3.705370 0.000000 
#    z -0.333340 0.000000 3.971550 
# 
# 
# High freq. dielectric constant tensor:
#      x y z
#    x 1.856910 0.000000 -0.013520 
#    y 0.000000 1.810440 0.000000 
#    z -0.013520 0.000000 1.836710 
# 
# From -- ./inp_files/121365.got.cif
#   From: 2010.06.25/outbox.cif.g09.slc.cpg/sg12_61_cif.got.tgz:121365.got - 2010.06.28 00:19:55.
