data_PCOD8105101
_publ_section_title
;
Structure prediction by ZEFSAII (Michael W. Deem and Ramdas Pophale) SiO2 
 PCOD8105101
Probable space group: C 2/M
;
_chemical_formula_sum "Si O2"
_cell_formula_units_Z 36
_cell_length_a 9.246650
_cell_length_b 14.460183
_cell_length_c 21.171877
_cell_angle_alpha 90.000000
_cell_angle_beta 141.055516
_cell_angle_gamma 90.000000
_cell_volume 1779.382068
_symmetry_space_group_name_H-M "C 2/M"
_symmetry_group_IT_number 12
_symmetry_cell_setting 'monoclinic'
loop_
_space_group_symop_operation_xyz
x,y,z
-x,y,-z
-x,-y,-z
x,-y,z
1/2+x,1/2+y,z
1/2-x,1/2+y,-z
1/2-x,1/2-y,-z
1/2+x,1/2-y,z
loop_
_atom_site_type_symbol
_atom_site_label
_atom_site_fract_x
_atom_site_fract_y
_atom_site_fract_z
Si Si1 0.698594 0.000000 0.208843
Si Si2 0.933124 0.191721 0.100654
Si Si3 0.019037 0.000000 0.429553
Si Si4 0.803993 0.500000 0.989554
Si Si5 0.129938 0.197555 0.778264
Si Si6 0.254311 0.825245 0.448626
O O1 0.789743 0.907723 0.205409
O O2 0.426549 0.000000 0.100618
O O3 0.768927 0.000000 0.307635
O O4 0.946561 0.215715 0.177673
O O5 0.184824 0.220925 0.164652
O O6 0.870090 0.084978 0.071897
O O7 0.750000 0.250000 0.000000
O O8 0.163524 0.085172 0.453409
O O9 0.000000 0.000000 0.500000
O O10 0.000000 0.500000 0.000000
O O11 0.910873 0.215956 0.660753
O O12 0.500000 0.844849 0.500000
O O13 0.250000 0.750000 0.500000
#
# Coordination Sequence:
#
# PCOD8105101 Si02
#       6
#     4   8   4   4   8   8
#     4  10  20  41  64  89 124 175 204 257 319 390
#     4  12  22  38  64  93 125 168 209 260 312 383
#     4  10  23  41  69  99 133 167 220 283 335 388
#     4  12  20  40  64  93 128 170 211 253 321 387
#     4  11  23  40  64  94 124 168 216 259 321 379
#     4  11  23  43  67  96 132 175 221 274 329 393
#
# _framework density 20.231743000000002
#
# number of rings (size 3 to 8) (size 9 to 14) (size 15 to 20)
#    0.000    0.889    4.444    3.000    0.000    1.778 
#    0.000    6.667    0.000    0.000    0.000    0.000 
#    0.000    0.000    0.000    0.000    0.000    0.000 
#
# Total GULP energy -222991.764477 kJ/mol
# GULP energy per Si atom -12388.431360 kJ/mol
# Density = 2.018569 g / cm^3
# Si number density = 20.231743 Si / 1000 Ang^3
#
#
#
# Elastic Constant Matrix: (Units=GPa)
#
#
# Indices 1 2 3 4 5 6 
#
# 1 905.2146 412.8683 486.7950 0.0003 -91.5928 0.0004
# 2 412.8683 302.1614 246.2241 0.0001 -33.3432 0.0002
# 3 486.7950 246.2241 401.8397 0.0004 -52.3283 0.0003
# 4 0.0003 0.0001 0.0004 37.4101 0.0000 -3.5181
# 5 -91.5928 -33.3432 -52.3283 0.0000 54.1486 0.0000
# 6 0.0004 0.0002 0.0003 -3.5181 0.0000 19.8642
#
#
#
# Elastic Compliance Matrix: (Units=1/GPa)
#
#
# Indices 1 2 3 4 5 6 
#
# 1 0.004694 -0.003532 -0.003170 0.000000 0.002701 0.000000
# 2 -0.003532 0.009270 -0.001642 0.000000 -0.001854 0.000000
# 3 -0.003170 -0.001642 0.007442 0.000000 0.000818 0.000000
# 4 0.000000 0.000000 0.000000 0.027183 0.000000 0.004814
# 5 0.002701 -0.001854 0.000818 0.000000 0.022686 0.000000
# 6 0.000000 0.000000 0.000000 0.004814 0.000000 0.051194
#
#
# Mechanical properties :
#
#
# Convention : Reuss Voigt Hill
#
# Bulk Modulus (GPa) = 212.04884 433.44339 322.74611
# Shear Modulus (GPa) = 35.52906 53.17313 44.35109
#
# Velocity S-wave (km/s) = 4.19514 5.13216 4.68712
# Velocity P-wave (km/s) = 11.33592 15.80579 13.75366
#
# Compressibility (1/GPa) = 0.00471589
#
# Stress axis : x y z
#
# Youngs Moduli (GPa) = 213.04164 107.87904 134.37985
#
# Poissons Ratio (x) = 0.38107 0.42600
# Poissons Ratio (y) = 0.75255 0.22067
# Poissons Ratio (z) = 0.67536 0.17715
#
# Static dielectric constant tensor:
#      x y z
#    x 3.640810 0.000000 -0.159920 
#    y 0.000000 3.949540 0.000000 
#    z -0.159920 0.000000 4.292480 
# 
# 
# High freq. dielectric constant tensor:
#      x y z
#    x 1.774540 0.000000 -0.016190 
#    y 0.000000 1.805550 0.000000 
#    z -0.016190 0.000000 1.818600 
# 
# From -- ./inp_files/300095.got.cif
#   From: 2010.06.25/outbox.cif.g09.slc.cpg/sg12_151_cif.got.tgz:300095.got - 2010.06.28 00:19:55.
