data_PCOD8105811
_publ_section_title
;
Structure prediction by ZEFSAII (Michael W. Deem and Ramdas Pophale) SiO2 
 PCOD8105811
Probable space group: C 2/M
;
_chemical_formula_sum "Si O2"
_cell_formula_units_Z 56
_cell_length_a 26.863227
_cell_length_b 9.166242
_cell_length_c 11.415217
_cell_angle_alpha 90.000000
_cell_angle_beta 74.930621
_cell_angle_gamma 90.000000
_cell_volume 2714.164709
_symmetry_space_group_name_H-M "C 2/M"
_symmetry_group_IT_number 12
_symmetry_cell_setting 'monoclinic'
loop_
_space_group_symop_operation_xyz
x,y,z
-x,y,-z
-x,-y,-z
x,-y,z
1/2+x,1/2+y,z
1/2-x,1/2+y,-z
1/2-x,1/2-y,-z
1/2+x,1/2-y,z
loop_
_atom_site_type_symbol
_atom_site_label
_atom_site_fract_x
_atom_site_fract_y
_atom_site_fract_z
Si Si1 0.309986 0.176529 0.707253
Si Si2 0.444109 0.659253 0.248930
Si Si3 0.624367 0.734980 0.920367
Si Si4 0.800751 0.162778 0.935689
Si Si5 0.206508 0.333572 0.699755
Si Si6 0.970276 0.655935 0.897020
Si Si7 0.147661 0.823960 0.538911
O O1 0.329848 0.239668 0.819447
O O2 0.253160 0.244563 0.728007
O O3 0.348571 0.243899 0.587674
O O4 0.309266 0.000000 0.704836
O O5 0.460444 0.500000 0.277926
O O6 0.412971 0.647131 0.144738
O O7 0.498919 0.739370 0.209384
O O8 0.407070 0.724683 0.372015
O O9 0.658759 0.843939 0.820108
O O10 0.663209 0.637080 0.972616
O O11 0.589193 0.811144 0.040360
O O12 0.786434 0.000000 0.897841
O O13 0.750000 0.250000 0.000000
O O14 0.222239 0.500000 0.656946
O O15 0.192749 0.242168 0.592072
O O16 0.972558 0.500000 0.833055
O O17 0.000000 0.653442 0.000000
O O18 0.153464 0.000000 0.527452
#
# Coordination Sequence:
#
# PCOD8105811 Si02
#       7
#     8   8   8   8   8   8   8
#     4  12  25  39  56  79 111 150 196 238 284 338
#     4   9  19  35  58  87 115 146 183 233 287 343
#     4  10  21  35  58  84 118 153 193 228 283 341
#     4  12  25  40  59  82 115 156 197 237 281 334
#     4  11  21  35  57  82 113 149 190 237 288 340
#     4   9  18  32  53  84 117 149 184 228 281 340
#     4  10  21  38  58  81 112 147 190 237 291 344
#
# _framework density 20.632497999999998
#
# number of rings (size 3 to 8) (size 9 to 14) (size 15 to 20)
#    0.000    1.571    1.429    3.857    0.000   10.000 
#    0.000    0.000    0.000    0.857    0.000    5.000 
#    0.000    0.000    0.000    0.000    0.000    0.000 
#
# Total GULP energy -346919.101285 kJ/mol
# GULP energy per Si atom -12389.967903 kJ/mol
# Density = 2.058554 g / cm^3
# Si number density = 20.632498 Si / 1000 Ang^3
#
#
#
# Elastic Constant Matrix: (Units=GPa)
#
#
# Indices 1 2 3 4 5 6 
#
# 1 47.4932 17.4802 32.7278 0.0000 -19.6274 0.0000
# 2 17.4802 145.6447 47.2809 0.0000 -10.8151 0.0000
# 3 32.7278 47.2809 126.7758 0.0000 -19.7408 0.0000
# 4 0.0000 0.0000 0.0000 29.9023 0.0000 -4.7769
# 5 -19.6274 -10.8151 -19.7408 0.0000 33.6741 0.0000
# 6 0.0000 0.0000 0.0000 -4.7769 0.0000 16.1974
#
#
#
# Elastic Compliance Matrix: (Units=1/GPa)
#
#
# Indices 1 2 3 4 5 6 
#
# 1 0.031211 -0.000889 -0.005433 0.000000 0.014721 0.000000
# 2 -0.000889 0.007861 -0.002630 0.000000 0.000465 0.000000
# 3 -0.005433 -0.002630 0.010616 0.000000 0.002212 0.000000
# 4 0.000000 0.000000 0.000000 0.035096 0.000000 0.010350
# 5 0.014721 0.000465 0.002212 0.000000 0.039723 0.000000
# 6 0.000000 0.000000 0.000000 0.010350 0.000000 0.064791
#
#
# Mechanical properties :
#
#
# Convention : Reuss Voigt Hill
#
# Bulk Modulus (GPa) = 31.46331 57.21016 44.33674
# Shear Modulus (GPa) = 22.95736 30.78309 26.87023
#
# Velocity S-wave (km/s) = 3.33930 3.86679 3.61269
# Velocity P-wave (km/s) = 5.49094 6.90829 6.23999
#
# Compressibility (1/GPa) = 0.03178305
#
# Stress axis : x y z
#
# Youngs Moduli (GPa) = 32.04032 127.21072 94.19915
#
# Poissons Ratio (x) = 0.11308 0.51182
# Poissons Ratio (y) = 0.02848 0.24773
# Poissons Ratio (z) = 0.17409 0.33455
#
# Static dielectric constant tensor:
#      x y z
#    x 3.674390 0.000000 -0.178840 
#    y 0.000000 3.808070 0.000000 
#    z -0.178840 0.000000 3.936620 
# 
# 
# High freq. dielectric constant tensor:
#      x y z
#    x 1.779890 0.000000 -0.022150 
#    y 0.000000 1.811120 0.000000 
#    z -0.022150 0.000000 1.805200 
# 
# From -- ./inp_files/186457.got.cif
#   From: 2010.06.25/outbox.cif.g09.slc.cpg/sg12_94_cif.got.tgz:186457.got - 2010.06.28 00:19:55.
