data_PCOD8105723
_publ_section_title
;
Structure prediction by ZEFSAII (Michael W. Deem and Ramdas Pophale) SiO2 
 PCOD8105723
Probable space group: C 2/M
;
_chemical_formula_sum "Si O2"
_cell_formula_units_Z 56
_cell_length_a 19.001425
_cell_length_b 18.939346
_cell_length_c 13.624683
_cell_angle_alpha 90.000000
_cell_angle_beta 32.924965
_cell_angle_gamma 90.000000
_cell_volume 2665.073907
_symmetry_space_group_name_H-M "C 2/M"
_symmetry_group_IT_number 12
_symmetry_cell_setting 'monoclinic'
loop_
_space_group_symop_operation_xyz
x,y,z
-x,y,-z
-x,-y,-z
x,-y,z
1/2+x,1/2+y,z
1/2-x,1/2+y,-z
1/2-x,1/2-y,-z
1/2+x,1/2-y,z
loop_
_atom_site_type_symbol
_atom_site_label
_atom_site_fract_x
_atom_site_fract_y
_atom_site_fract_z
Si Si1 0.477795 0.817299 0.142008
Si Si2 0.151149 0.079021 0.076107
Si Si3 0.299872 0.719761 0.082703
Si Si4 0.928084 0.579123 0.824531
Si Si5 0.718948 0.284358 0.378380
Si Si6 0.423094 0.420114 0.492163
Si Si7 0.025682 0.706333 0.355087
O O1 0.505847 0.895093 0.151230
O O2 0.330583 0.789293 0.331480
O O3 0.500000 0.817103 0.000000
O O4 0.577026 0.768346 0.089608
O O5 0.018590 0.091839 0.289028
O O6 0.151148 0.000000 0.028948
O O7 0.164584 0.137145 0.974064
O O8 0.271575 0.084433 0.011532
O O9 0.270792 0.733749 0.231070
O O10 0.170875 0.739075 0.169135
O O11 0.975678 0.500000 0.749909
O O12 0.983009 0.626074 0.671025
O O13 0.695977 0.365521 0.371708
O O14 0.582289 0.252519 0.576294
O O15 0.500000 0.402651 0.500000
O O16 0.367964 0.500000 0.557870
O O17 0.000000 0.707486 0.500000
#
# Coordination Sequence:
#
# PCOD8105723 Si02
#       7
#     8   8   8   8   8   8   8
#     4  10  23  37  55  81 115 157 190 232 282 338
#     4   9  20  37  61  88 111 144 193 248 290 335
#     4   9  19  38  60  84 109 146 194 237 281 339
#     4  10  22  37  56  85 115 150 194 231 287 349
#     4  10  21  37  56  85 116 149 192 230 288 341
#     4  10  21  35  55  84 118 151 189 240 290 340
#     4   9  19  36  62  87 111 143 186 246 291 332
#
# _framework density 21.012550999999998
#
# number of rings (size 3 to 8) (size 9 to 14) (size 15 to 20)
#    0.000    2.429    0.000    1.286    8.000    2.857 
#    0.000    2.143    0.000    3.857    0.000    0.000 
#    0.000    0.000    0.000    0.000    0.000    0.000 
#
# Total GULP energy -347006.470485 kJ/mol
# GULP energy per Si atom -12393.088232 kJ/mol
# Density = 2.096473 g / cm^3
# Si number density = 21.012551 Si / 1000 Ang^3
#
#
#
# Elastic Constant Matrix: (Units=GPa)
#
#
# Indices 1 2 3 4 5 6 
#
# 1 99.6550 58.5307 36.8025 -0.0013 -32.8219 0.0011
# 2 58.5307 149.7377 50.4213 -0.0005 -22.2061 0.0005
# 3 36.8025 50.4213 73.6887 -0.0012 -20.0492 0.0011
# 4 -0.0013 -0.0005 -0.0012 16.1751 0.0012 15.0231
# 5 -32.8219 -22.2061 -20.0492 0.0012 24.4542 -0.0011
# 6 0.0011 0.0005 0.0011 15.0231 -0.0011 23.2082
#
#
#
# Elastic Compliance Matrix: (Units=1/GPa)
#
#
# Indices 1 2 3 4 5 6 
#
# 1 0.020375 -0.004234 -0.001138 -0.000001 0.022569 0.000001
# 2 -0.004234 0.009853 -0.004813 -0.000001 -0.000682 0.000001
# 3 -0.001138 -0.004813 0.020372 0.000002 0.010804 -0.000002
# 4 -0.000001 -0.000001 0.000002 0.155029 -0.000013 -0.100353
# 5 0.022569 -0.000682 0.010804 -0.000013 0.079424 0.000011
# 6 0.000001 0.000001 -0.000002 -0.100353 0.000011 0.108049
#
#
# Mechanical properties :
#
#
# Convention : Reuss Voigt Hill
#
# Bulk Modulus (GPa) = 33.07993 68.28781 50.68387
# Shear Modulus (GPa) = 11.80505 24.58929 18.19717
#
# Velocity S-wave (km/s) = 2.37282 3.42456 2.94600
# Velocity P-wave (km/s) = 4.82537 6.94305 5.97872
#
# Compressibility (1/GPa) = 0.03022981
#
# Stress axis : x y z
#
# Youngs Moduli (GPa) = 49.07974 101.49310 49.08770
#
# Poissons Ratio (x) = 0.42973 0.05587
# Poissons Ratio (y) = 0.20781 0.23624
# Poissons Ratio (z) = 0.05586 0.48845
#
# Static dielectric constant tensor:
#      x y z
#    x 3.834930 0.000000 -0.525640 
#    y 0.000000 3.917280 0.000000 
#    z -0.525640 0.000000 4.149300 
# 
# 
# High freq. dielectric constant tensor:
#      x y z
#    x 1.806250 0.000000 -0.012640 
#    y 0.000000 1.822220 0.000000 
#    z -0.012640 0.000000 1.825720 
# 
# From -- ./inp_files/234637.got.cif
#   From: 2010.06.25/outbox.cif.g09.slc.cpg/sg12_118_cif.got.tgz:234637.got - 2010.06.28 00:19:55.
