data_PCOD8105519
_publ_section_title
;
Structure prediction by ZEFSAII (Michael W. Deem and Ramdas Pophale) SiO2 
 PCOD8105519
Probable space group: C 2/M
;
_chemical_formula_sum "Si O2"
_cell_formula_units_Z 48
_cell_length_a 13.441526
_cell_length_b 26.928387
_cell_length_c 15.401692
_cell_angle_alpha 90.000000
_cell_angle_beta 150.778572
_cell_angle_gamma 90.000000
_cell_volume 2721.527645
_symmetry_space_group_name_H-M "C 2/M"
_symmetry_group_IT_number 12
_symmetry_cell_setting 'monoclinic'
loop_
_space_group_symop_operation_xyz
x,y,z
-x,y,-z
-x,-y,-z
x,-y,z
1/2+x,1/2+y,z
1/2-x,1/2+y,-z
1/2-x,1/2-y,-z
1/2+x,1/2-y,z
loop_
_atom_site_type_symbol
_atom_site_label
_atom_site_fract_x
_atom_site_fract_y
_atom_site_fract_z
Si Si1 0.567428 0.193976 0.295983
Si Si2 0.317075 0.611357 0.702843
Si Si3 0.911408 0.388643 0.297172
Si Si4 0.024520 0.806021 0.295955
Si Si5 0.384741 0.859688 0.000012
Si Si6 0.774635 0.057170 0.999992
O O1 0.434235 0.163334 0.264069
O O2 0.807250 0.191078 0.500018
O O3 0.487136 0.249998 0.237124
O O4 0.534410 0.171933 0.175447
O O5 0.253747 0.620479 0.753750
O O6 0.406111 0.663334 0.735950
O O7 0.126177 0.593377 0.500008
O O8 0.485721 0.568640 0.825588
O O9 0.834577 0.431360 0.174434
O O10 0.816441 0.828056 0.175393
O O11 0.326751 0.911688 0.999997
O O12 0.500000 0.872671 0.000000
O O13 0.744249 0.000000 0.999993
#
# Coordination Sequence:
#
# PCOD8105519 Si02
#       6
#     8   8   8   8   8   8
#     4   9  18  33  52  75 104 135 165 197 236 286
#     4   9  18  32  50  74 102 128 157 198 247 297
#     4   9  18  32  50  74 102 128 157 198 247 297
#     4   9  18  33  52  75 104 135 165 197 236 286
#     4  10  21  35  51  73 100 131 168 208 245 282
#     4  10  21  36  52  70  94 126 165 208 252 296
#
# _framework density 17.637153000000001
#
# number of rings (size 3 to 8) (size 9 to 14) (size 15 to 20)
#    0.000    2.667    0.000    1.000    0.000    4.333 
#    0.000    5.000    0.000    0.000    0.000    9.333 
#    0.000    0.000    0.000    0.000    0.000    0.000 
#
# Total GULP energy -297655.160959 kJ/mol
# GULP energy per Si atom -12402.298373 kJ/mol
# Density = 1.759701 g / cm^3
# Si number density = 17.637153 Si / 1000 Ang^3
#
#
#
# Elastic Constant Matrix: (Units=GPa)
#
#
# Indices 1 2 3 4 5 6 
#
# 1 133.3381 47.9977 59.5858 -0.0001 2.7398 0.0000
# 2 47.9977 132.9380 57.2970 0.0000 -0.6692 0.0000
# 3 59.5858 57.2970 101.8259 -0.0001 -0.5684 -0.0002
# 4 -0.0001 0.0000 -0.0001 15.5838 -0.0002 -0.3286
# 5 2.7398 -0.6692 -0.5684 -0.0002 17.4058 -0.0001
# 6 0.0000 0.0000 -0.0002 -0.3286 -0.0001 10.8871
#
#
#
# Elastic Compliance Matrix: (Units=1/GPa)
#
#
# Indices 1 2 3 4 5 6 
#
# 1 0.010435 -0.001506 -0.005269 0.000000 -0.001873 0.000000
# 2 -0.001506 0.010149 -0.004827 0.000000 0.000470 0.000000
# 3 -0.005269 -0.004827 0.015627 0.000000 0.001154 0.000000
# 4 0.000000 0.000000 0.000000 0.064210 0.000001 0.001938
# 5 -0.001873 0.000470 0.001154 0.000001 0.057803 0.000000
# 6 0.000000 0.000000 0.000000 0.001938 0.000000 0.091910
#
#
# Mechanical properties :
#
#
# Convention : Reuss Voigt Hill
#
# Bulk Modulus (GPa) = 76.88623 77.54033 77.21328
# Shear Modulus (GPa) = 18.00679 22.32344 20.16512
#
# Velocity S-wave (km/s) = 3.19871 3.56154 3.38499
# Velocity P-wave (km/s) = 7.57168 7.80848 7.69099
#
# Compressibility (1/GPa) = 0.01300623
#
# Stress axis : x y z
#
# Youngs Moduli (GPa) = 95.83073 98.53402 63.99307
#
# Poissons Ratio (x) = 0.14838 0.33721
# Poissons Ratio (y) = 0.14431 0.30888
# Poissons Ratio (z) = 0.50497 0.47561
#
# Static dielectric constant tensor:
#      x y z
#    x 3.118460 0.000000 -0.030880 
#    y 0.000000 3.090800 0.000000 
#    z -0.030880 0.000000 3.558940 
# 
# 
# High freq. dielectric constant tensor:
#      x y z
#    x 1.669430 0.000000 -0.002180 
#    y 0.000000 1.671640 0.000000 
#    z -0.002180 0.000000 1.700580 
# 
# From -- ./inp_files/50716.got.cif
#   From: 2010.06.25/outbox.cif.g09.slc.cpg/sg12_26_cif.got.tgz:50716.got - 2010.06.28 00:19:55.
