data_PCOD8105705
_publ_section_title
;
Structure prediction by ZEFSAII (Michael W. Deem and Ramdas Pophale) SiO2 
 PCOD8105705
Probable space group: C 2/M
;
_chemical_formula_sum "Si O2"
_cell_formula_units_Z 56
_cell_length_a 21.723997
_cell_length_b 17.254432
_cell_length_c 23.852375
_cell_angle_alpha 90.000000
_cell_angle_beta 19.114409
_cell_angle_gamma 90.000000
_cell_volume 2927.685065
_symmetry_space_group_name_H-M "C 2/M"
_symmetry_group_IT_number 12
_symmetry_cell_setting 'monoclinic'
loop_
_space_group_symop_operation_xyz
x,y,z
-x,y,-z
-x,-y,-z
x,-y,z
1/2+x,1/2+y,z
1/2-x,1/2+y,-z
1/2-x,1/2-y,-z
1/2+x,1/2-y,z
loop_
_atom_site_type_symbol
_atom_site_label
_atom_site_fract_x
_atom_site_fract_y
_atom_site_fract_z
Si Si1 0.542746 0.186502 0.199161
Si Si2 0.286239 0.587941 0.501951
Si Si3 0.418836 0.702390 0.729706
Si Si4 0.043017 0.756061 0.081603
Si Si5 0.233531 0.416733 0.421607
Si Si6 0.619581 0.230169 0.452554
Si Si7 0.138703 0.086690 0.032823
O O1 0.344276 0.147636 0.350665
O O2 0.522124 0.233386 0.275086
O O3 0.596234 0.244475 0.102063
O O4 0.684276 0.114012 0.082860
O O5 0.284957 0.500000 0.525857
O O6 0.500820 0.619288 0.319376
O O7 0.185830 0.593815 0.527710
O O8 0.509762 0.716409 0.590666
O O9 0.189631 0.702017 0.920697
O O10 0.825421 0.736360 0.257533
O O11 0.092369 0.846973 0.025472
O O12 0.157837 0.500000 0.465263
O O13 0.139436 0.353606 0.463445
O O14 0.458901 0.415680 0.227568
O O15 0.500000 0.221690 0.500000
O O16 0.175946 0.000000 0.975084
#
# Coordination Sequence:
#
# PCOD8105705 Si02
#       7
#     8   8   8   8   8   8   8
#     4  11  18  32  54  81 114 145 175 219 283 339
#     4  11  20  31  55  86 115 142 172 217 288 347
#     4  11  20  36  57  79 114 143 178 231 272 328
#     4  10  21  35  55  81 108 146 181 224 284 325
#     4   9  18  33  51  79 115 148 179 222 272 325
#     4  11  22  37  56  78 106 151 199 231 261 309
#     4   9  17  29  47  76 112 143 175 210 260 332
#
# _framework density 19.127739999999999
#
# number of rings (size 3 to 8) (size 9 to 14) (size 15 to 20)
#    0.000    1.714    2.857    5.143    0.000    0.857 
#    0.000    0.714    0.000    0.429    0.000    9.000 
#    0.000    0.000    0.000    0.000    0.000    0.000 
#
# Total GULP energy -346910.773158 kJ/mol
# GULP energy per Si atom -12389.670470 kJ/mol
# Density = 1.908420 g / cm^3
# Si number density = 19.127740 Si / 1000 Ang^3
#
#
#
# Elastic Constant Matrix: (Units=GPa)
#
#
# Indices 1 2 3 4 5 6 
#
# 1 66.4769 22.2639 25.6378 -0.0131 -9.0094 0.0185
# 2 22.2639 78.3369 22.2903 0.0349 2.5164 -0.0007
# 3 25.6378 22.2903 101.4926 0.0939 -9.0809 0.0465
# 4 -0.0131 0.0349 0.0939 21.4819 0.0291 -1.8763
# 5 -9.0094 2.5164 -9.0809 0.0291 18.9169 -0.0350
# 6 0.0185 -0.0007 0.0465 -1.8763 -0.0350 12.6302
#
#
#
# Elastic Compliance Matrix: (Units=1/GPa)
#
#
# Indices 1 2 3 4 5 6 
#
# 1 0.018912 -0.004787 -0.002992 0.000022 0.008208 0.000009
# 2 -0.004787 0.015040 -0.002588 -0.000009 -0.005523 0.000001
# 3 -0.002992 -0.002588 0.011578 -0.000057 0.004477 -0.000034
# 4 0.000022 -0.000009 -0.000057 0.047163 -0.000075 0.007006
# 5 0.008208 -0.005523 0.004477 -0.000075 0.059656 0.000125
# 6 0.000009 0.000001 -0.000034 0.007006 0.000125 0.080216
#
#
# Mechanical properties :
#
#
# Convention : Reuss Voigt Hill
#
# Bulk Modulus (GPa) = 40.32928 42.96559 41.64744
# Shear Modulus (GPa) = 19.11572 22.34677 20.73124
#
# Velocity S-wave (km/s) = 3.16471 3.42174 3.29573
# Velocity P-wave (km/s) = 5.87229 6.17432 6.02520
#
# Compressibility (1/GPa) = 0.02479588
#
# Stress axis : x y z
#
# Youngs Moduli (GPa) = 52.87555 66.49030 86.37318
#
# Poissons Ratio (x) = 0.31832 0.25839
# Poissons Ratio (y) = 0.25314 0.22353
# Poissons Ratio (z) = 0.15818 0.17207
#
# Static dielectric constant tensor:
#      x y z
#    x 2.891790 -0.000030 0.015250 
#    y -0.000030 3.688650 0.000290 
#    z 0.015250 0.000290 3.839490 
# 
# 
# High freq. dielectric constant tensor:
#      x y z
#    x 1.675160 0.000000 -0.000180 
#    y 0.000000 1.738910 0.000020 
#    z -0.000180 0.000020 1.766150 
# 
# From -- ./inp_files/347759.got.cif
#   From: 2010.06.25/outbox.cif.g09.slc.cpg/sg12_174_cif.got.tgz:347759.got - 2010.06.28 00:19:55.
