data_PCOD8105195
_publ_section_title
;
Structure prediction by ZEFSAII (Michael W. Deem and Ramdas Pophale) SiO2 
 PCOD8105195
Probable space group: C 2/M
;
_chemical_formula_sum "Si O2"
_cell_formula_units_Z 56
_cell_length_a 30.448268
_cell_length_b 8.724142
_cell_length_c 18.265487
_cell_angle_alpha 90.000000
_cell_angle_beta 144.205822
_cell_angle_gamma 90.000000
_cell_volume 2837.787194
_symmetry_space_group_name_H-M "C 2/M"
_symmetry_group_IT_number 12
_symmetry_cell_setting 'monoclinic'
loop_
_space_group_symop_operation_xyz
x,y,z
-x,y,-z
-x,-y,-z
x,-y,z
1/2+x,1/2+y,z
1/2-x,1/2+y,-z
1/2-x,1/2-y,-z
1/2+x,1/2-y,z
loop_
_atom_site_type_symbol
_atom_site_label
_atom_site_fract_x
_atom_site_fract_y
_atom_site_fract_z
Si Si1 0.673195 0.175989 0.870248
Si Si2 0.913412 0.682472 0.390050
Si Si3 0.733682 0.817967 0.557168
Si Si4 0.608241 0.320405 0.487089
Si Si5 0.969484 0.324150 0.231359
Si Si6 0.018057 0.181400 0.907089
Si Si7 0.885965 0.179921 0.829886
O O1 0.636373 0.243348 0.745675
O O2 0.615216 0.202201 0.857527
O O3 0.690691 0.000000 0.879596
O O4 0.750000 0.250000 0.000000
O O5 0.912214 0.500000 0.392872
O O6 0.874311 0.750358 0.409737
O O7 0.000000 0.739301 0.500000
O O8 0.750000 0.750000 0.500000
O O9 0.658366 0.752673 0.490629
O O10 0.801697 0.763543 0.701782
O O11 0.727814 0.000000 0.543001
O O12 0.622731 0.500000 0.508490
O O13 0.522532 0.283743 0.351374
O O14 0.994384 0.500000 0.277439
O O15 0.972973 0.281469 0.152041
O O16 0.942313 0.241832 0.843728
O O17 0.016204 0.000000 0.886366
O O18 0.088169 0.226554 0.053902
O O19 0.892563 0.000000 0.831690
#
# Coordination Sequence:
#
# PCOD8105195 Si02
#       7
#     8   8   8   8   8   8   8
#     4  10  23  41  63  89 122 159 195 246 311 373
#     4  10  20  42  68  88 119 161 204 253 311 371
#     4  11  22  38  59  87 124 163 202 249 303 359
#     4  12  25  39  60  91 120 157 207 257 305 362
#     4  11  22  39  59  85 117 153 194 244 304 366
#     4   9  17  34  59  85 111 148 195 243 289 352
#     4   8  17  34  56  80 113 153 194 238 293 351
#
# _framework density 19.733684
#
# number of rings (size 3 to 8) (size 9 to 14) (size 15 to 20)
#    0.000    1.857    1.429    3.857    0.000    4.286 
#    0.000    7.857    0.000    0.000    0.000    0.000 
#    0.000    0.000    0.000    0.000    0.000    0.000 
#
# Total GULP energy -347178.440811 kJ/mol
# GULP energy per Si atom -12399.230029 kJ/mol
# Density = 1.968877 g / cm^3
# Si number density = 19.733684 Si / 1000 Ang^3
#
#
#
# Elastic Constant Matrix: (Units=GPa)
#
#
# Indices 1 2 3 4 5 6 
#
# 1 101.7772 32.0353 41.7098 0.0000 -13.4665 0.0000
# 2 32.0353 57.5397 34.0510 0.0000 0.9994 0.0000
# 3 41.7098 34.0510 131.1563 0.0000 -3.2909 0.0000
# 4 0.0000 0.0000 0.0000 28.8807 0.0000 -3.7870
# 5 -13.4665 0.9994 -3.2909 0.0000 33.7394 0.0000
# 6 0.0000 0.0000 0.0000 -3.7870 0.0000 34.1887
#
#
#
# Elastic Compliance Matrix: (Units=1/GPa)
#
#
# Indices 1 2 3 4 5 6 
#
# 1 0.013501 -0.006081 -0.002581 0.000000 0.005317 0.000000
# 2 -0.006081 0.023317 -0.004208 0.000000 -0.003528 0.000000
# 3 -0.002581 -0.004208 0.009538 0.000000 0.000025 0.000000
# 4 0.000000 0.000000 0.000000 0.035136 0.000000 0.003892
# 5 0.005317 -0.003528 0.000025 0.000000 0.031868 0.000000
# 6 0.000000 0.000000 0.000000 0.003892 0.000000 0.029681
#
#
# Mechanical properties :
#
#
# Convention : Reuss Voigt Hill
#
# Bulk Modulus (GPa) = 48.50923 56.22947 52.36935
# Shear Modulus (GPa) = 28.46517 31.54024 30.00270
#
# Velocity S-wave (km/s) = 3.80210 4.00220 3.90344
# Velocity P-wave (km/s) = 6.62646 7.06490 6.84919
#
# Compressibility (1/GPa) = 0.02061463
#
# Stress axis : x y z
#
# Youngs Moduli (GPa) = 74.06901 42.88771 104.83852
#
# Poissons Ratio (x) = 0.26082 0.27061
# Poissons Ratio (y) = 0.45045 0.44116
# Poissons Ratio (z) = 0.19119 0.18047
#
# Static dielectric constant tensor:
#      x y z
#    x 4.218590 0.000000 1.483460 
#    y 0.000000 3.376960 0.000000 
#    z 1.483460 0.000000 8.585210 
# 
# 
# High freq. dielectric constant tensor:
#      x y z
#    x 1.776080 0.000000 -0.007070 
#    y 0.000000 1.750170 0.000000 
#    z -0.007070 0.000000 1.778470 
# 
# From -- ./inp_files/292508.got.cif
#   From: 2010.06.25/outbox.cif.g09.slc.cpg/sg12_147_cif.got.tgz:292508.got - 2010.06.28 00:19:55.
