data_PCOD8105352
_publ_section_title
;
Structure prediction by ZEFSAII (Michael W. Deem and Ramdas Pophale) SiO2 
 PCOD8105352
Probable space group: C 2/M
;
_chemical_formula_sum "Si O2"
_cell_formula_units_Z 40
_cell_length_a 20.883370
_cell_length_b 7.907095
_cell_length_c 19.415571
_cell_angle_alpha 90.000000
_cell_angle_beta 133.796207
_cell_angle_gamma 90.000000
_cell_volume 2314.132507
_symmetry_space_group_name_H-M "C 2/M"
_symmetry_group_IT_number 12
_symmetry_cell_setting 'monoclinic'
loop_
_space_group_symop_operation_xyz
x,y,z
-x,y,-z
-x,-y,-z
x,-y,z
1/2+x,1/2+y,z
1/2-x,1/2+y,-z
1/2-x,1/2-y,-z
1/2+x,1/2-y,z
loop_
_atom_site_type_symbol
_atom_site_label
_atom_site_fract_x
_atom_site_fract_y
_atom_site_fract_z
Si Si1 0.010414 0.000000 0.894213
Si Si2 0.768169 0.811269 0.725848
Si Si3 0.571118 0.811424 0.237815
Si Si4 0.909068 0.197621 0.460899
Si Si5 0.851207 0.199765 0.566218
Si Si6 0.359248 0.500000 0.895472
O O1 0.998318 0.170013 0.840322
O O2 0.942212 0.000000 0.905504
O O3 0.109563 0.000000 0.002014
O O4 0.834716 0.696519 0.731432
O O5 0.669962 0.734684 0.651801
O O6 0.801439 0.832277 0.830891
O O7 0.768913 0.000000 0.692404
O O8 0.587772 0.786480 0.330978
O O9 0.531652 0.000000 0.196404
O O10 0.884683 0.271380 0.517671
O O11 0.000000 0.281180 0.500000
O O12 0.923042 0.000000 0.478356
O O13 0.750000 0.250000 0.500000
O O14 0.861757 0.000000 0.579679
#
# Coordination Sequence:
#
# PCOD8105352 Si02
#       6
#     4   8   8   8   8   4
#     4   9  16  34  48  72 109 130 168 227 262 310
#     4   9  17  31  49  70 100 137 174 206 258 311
#     4  11  19  30  50  76 104 138 173 214 259 311
#     4  10  21  34  49  74 110 143 178 217 256 309
#     4  11  20  31  49  75 105 143 176 209 257 311
#     4   7  16  30  51  68 102 136 167 217 270 310
#
# _framework density 17.285094999999998
#
# number of rings (size 3 to 8) (size 9 to 14) (size 15 to 20)
#    0.600    1.600    4.000    1.200    0.000    1.200 
#    0.000    9.000    0.000    0.000    0.000    1.400 
#    0.000    0.000    0.000    0.000    0.000    0.000 
#
# Total GULP energy -247797.406199 kJ/mol
# GULP energy per Si atom -12389.870310 kJ/mol
# Density = 1.724575 g / cm^3
# Si number density = 17.285095 Si / 1000 Ang^3
#
#
#
# Elastic Constant Matrix: (Units=GPa)
#
#
# Indices 1 2 3 4 5 6 
#
# 1 81.8634 18.0290 49.8525 0.0000 1.3156 0.0000
# 2 18.0290 85.6269 33.7188 0.0000 -6.0499 0.0000
# 3 49.8525 33.7188 152.7677 0.0000 1.7534 0.0000
# 4 0.0000 0.0000 0.0000 21.0386 0.0000 2.9418
# 5 1.3156 -6.0499 1.7534 0.0000 13.6756 0.0000
# 6 0.0000 0.0000 0.0000 2.9418 0.0000 12.4979
#
#
#
# Elastic Compliance Matrix: (Units=1/GPa)
#
#
# Indices 1 2 3 4 5 6 
#
# 1 0.015425 -0.001514 -0.004682 0.000000 -0.001553 0.000000
# 2 -0.001514 0.013455 -0.002550 0.000000 0.006425 0.000000
# 3 -0.004682 -0.002550 0.008657 0.000000 -0.001787 0.000000
# 4 0.000000 0.000000 0.000000 0.049149 0.000000 -0.011569
# 5 -0.001553 0.006425 -0.001787 0.000000 0.076344 0.000000
# 6 0.000000 0.000000 0.000000 -0.011569 0.000000 0.082737
#
#
# Mechanical properties :
#
#
# Convention : Reuss Voigt Hill
#
# Bulk Modulus (GPa) = 49.88321 58.16205 54.02263
# Shear Modulus (GPa) = 18.52269 24.01960 21.27114
#
# Velocity S-wave (km/s) = 3.27708 3.73180 3.51181
# Velocity P-wave (km/s) = 6.57577 7.23119 6.91125
#
# Compressibility (1/GPa) = 0.02004683
#
# Stress axis : x y z
#
# Youngs Moduli (GPa) = 64.83066 74.32032 115.51530
#
# Poissons Ratio (x) = 0.11252 0.54079
# Poissons Ratio (y) = 0.09815 0.29451
# Poissons Ratio (z) = 0.30351 0.18948
#
# Static dielectric constant tensor:
#      x y z
#    x 3.008800 0.000000 -0.005650 
#    y 0.000000 3.175540 0.000000 
#    z -0.005650 0.000000 3.590620 
# 
# 
# High freq. dielectric constant tensor:
#      x y z
#    x 1.616720 0.000000 0.000390 
#    y 0.000000 1.665030 0.000000 
#    z 0.000390 0.000000 1.665980 
# 
# From -- ./inp_files/273783.got.cif
#   From: 2010.06.25/outbox.cif.g09.slc.cpg/sg12_137_cif.got.tgz:273783.got - 2010.06.28 00:19:55.
