data_PCOD8105980
_publ_section_title
;
Structure prediction by ZEFSAII (Michael W. Deem and Ramdas Pophale) SiO2 
 PCOD8105980
Probable space group: C 2/M
;
_chemical_formula_sum "Si O2"
_cell_formula_units_Z 56
_cell_length_a 19.704296
_cell_length_b 9.165562
_cell_length_c 30.019518
_cell_angle_alpha 90.000000
_cell_angle_beta 144.058798
_cell_angle_gamma 90.000000
_cell_volume 3182.206310
_symmetry_space_group_name_H-M "C 2/M"
_symmetry_group_IT_number 12
_symmetry_cell_setting 'monoclinic'
loop_
_space_group_symop_operation_xyz
x,y,z
-x,y,-z
-x,-y,-z
x,-y,z
1/2+x,1/2+y,z
1/2-x,1/2+y,-z
1/2-x,1/2-y,-z
1/2+x,1/2-y,z
loop_
_atom_site_type_symbol
_atom_site_label
_atom_site_fract_x
_atom_site_fract_y
_atom_site_fract_z
Si Si1 0.867136 0.169851 0.050413
Si Si2 0.515762 0.828693 0.648004
Si Si3 0.921878 0.834467 0.774637
Si Si4 0.717793 0.328528 0.214703
Si Si5 0.878858 0.667253 0.662189
Si Si6 0.478367 0.169008 0.936638
Si Si7 0.826863 0.169491 0.504875
O O1 0.921710 0.244049 0.035948
O O2 0.951768 0.188355 0.137379
O O3 0.844551 0.000000 0.027951
O O4 0.750000 0.250000 0.000000
O O5 0.649217 0.784750 0.719213
O O6 0.458787 0.774977 0.664060
O O7 0.453305 0.745025 0.573397
O O8 0.497418 0.000000 0.630780
O O9 0.825460 0.784221 0.759042
O O10 0.912247 0.744558 0.724948
O O11 0.900212 0.000000 0.749525
O O12 0.695531 0.500000 0.194404
O O13 0.646885 0.237232 0.140614
O O14 0.908773 0.500000 0.685507
O O15 0.741769 0.689068 0.578392
O O16 0.480877 0.000000 0.923460
O O17 0.500000 0.187807 0.000000
O O18 0.750000 0.250000 0.500000
O O19 0.838650 0.000000 0.523370
#
# Coordination Sequence:
#
# PCOD8105980 Si02
#       7
#     8   8   8   8   8   8   8
#     4  10  21  37  56  78 104 135 172 212 256 306
#     4   9  18  33  52  74  99 128 167 210 248 293
#     4   9  19  34  51  72  99 131 165 202 245 296
#     4   9  19  36  54  73 100 134 171 208 250 301
#     4   9  18  31  49  74 100 128 164 205 248 296
#     4  10  21  36  54  78 106 135 171 213 255 303
#     4   9  17  30  48  72 100 129 164 204 248 295
#
# _framework density 17.597854000000002
#
# number of rings (size 3 to 8) (size 9 to 14) (size 15 to 20)
#    0.000    2.714    0.000    3.000    0.000    8.571 
#    0.000    3.571    0.000    4.286    0.000    0.000 
#    0.000    0.000    0.000    0.000    0.000    0.000 
#
# Total GULP energy -347116.814362 kJ/mol
# GULP energy per Si atom -12397.029084 kJ/mol
# Density = 1.755780 g / cm^3
# Si number density = 17.597854 Si / 1000 Ang^3
#
#
#
# Elastic Constant Matrix: (Units=GPa)
#
#
# Indices 1 2 3 4 5 6 
#
# 1 81.3622 45.8349 69.6771 0.0000 11.6797 -0.0001
# 2 45.8349 91.6702 62.2816 0.0000 6.1371 -0.0001
# 3 69.6771 62.2816 112.8982 0.0000 16.2205 0.0000
# 4 0.0000 0.0000 0.0000 38.7050 0.0000 -1.0746
# 5 11.6797 6.1371 16.2205 0.0000 30.6983 0.0000
# 6 -0.0001 -0.0001 0.0000 -1.0746 0.0000 28.0906
#
#
#
# Elastic Compliance Matrix: (Units=1/GPa)
#
#
# Indices 1 2 3 4 5 6 
#
# 1 0.026839 -0.003559 -0.014324 0.000000 -0.001932 0.000000
# 2 -0.003559 0.018005 -0.008023 0.000000 0.001994 0.000000
# 3 -0.014324 -0.008023 0.022844 0.000000 -0.005017 0.000000
# 4 0.000000 0.000000 0.000000 0.025864 0.000000 0.000989
# 5 -0.001932 0.001994 -0.005017 0.000000 0.035562 0.000000
# 6 0.000000 0.000000 0.000000 0.000989 0.000000 0.035637
#
#
# Mechanical properties :
#
#
# Convention : Reuss Voigt Hill
#
# Bulk Modulus (GPa) = 62.97829 71.27976 67.12903
# Shear Modulus (GPa) = 22.53717 26.70794 24.62255
#
# Velocity S-wave (km/s) = 3.58254 3.89997 3.74462
# Velocity P-wave (km/s) = 7.27859 7.80208 7.54488
#
# Compressibility (1/GPa) = 0.01587849
#
# Stress axis : x y z
#
# Youngs Moduli (GPa) = 37.25895 55.53872 43.77431
#
# Poissons Ratio (x) = 0.19764 0.62701
# Poissons Ratio (y) = 0.13259 0.35121
# Poissons Ratio (z) = 0.53368 0.44559
#
# Static dielectric constant tensor:
#      x y z
#    x 3.170280 0.000000 0.239930 
#    y 0.000000 3.407580 0.000000 
#    z 0.239930 0.000000 3.720410 
# 
# 
# High freq. dielectric constant tensor:
#      x y z
#    x 1.659550 0.000000 0.005560 
#    y 0.000000 1.687430 0.000000 
#    z 0.005560 0.000000 1.689070 
# 
# From -- ./inp_files/280206.got.cif
#   From: 2010.06.25/outbox.cif.g09.slc.cpg/sg12_141_cif.got.tgz:280206.got - 2010.06.28 00:19:55.
