data_PCOD8105891
_publ_section_title
;
Structure prediction by ZEFSAII (Michael W. Deem and Ramdas Pophale) SiO2 
 PCOD8105891
Probable space group: C 2/M
;
_chemical_formula_sum "Si O2"
_cell_formula_units_Z 64
_cell_length_a 29.592470
_cell_length_b 9.736762
_cell_length_c 12.014757
_cell_angle_alpha 90.000000
_cell_angle_beta 89.180004
_cell_angle_gamma 90.000000
_cell_volume 3461.515526
_symmetry_space_group_name_H-M "C 2/M"
_symmetry_group_IT_number 12
_symmetry_cell_setting 'monoclinic'
loop_
_space_group_symop_operation_xyz
x,y,z
-x,y,-z
-x,-y,-z
x,-y,z
1/2+x,1/2+y,z
1/2-x,1/2+y,-z
1/2-x,1/2-y,-z
1/2+x,1/2-y,z
loop_
_atom_site_type_symbol
_atom_site_label
_atom_site_fract_x
_atom_site_fract_y
_atom_site_fract_z
Si Si1 0.933337 0.658567 0.202005
Si Si2 0.246138 0.340716 0.608600
Si Si3 0.490278 0.158917 0.627597
Si Si4 0.928191 0.848697 0.005324
Si Si5 0.830090 0.657080 0.221295
Si Si6 0.920960 0.838298 0.756673
Si Si7 0.321025 0.346902 0.025721
Si Si8 0.680610 0.337088 0.216647
O O1 0.936949 0.500000 0.168859
O O2 0.882235 0.697759 0.239561
O O3 0.964960 0.696320 0.304326
O O4 0.949345 0.742891 0.092823
O O5 0.254499 0.500000 0.578151
O O6 0.250000 0.250000 0.500000
O O7 0.196558 0.318841 0.662857
O O8 0.283627 0.286065 0.693905
O O9 0.500000 0.193668 0.500000
O O10 0.448862 0.253028 0.666011
O O11 0.476830 0.000000 0.644339
O O12 0.940759 0.805481 0.878922
O O13 0.947954 0.000000 0.031043
O O14 0.874735 0.852578 0.016908
O O15 0.825415 0.500000 0.182511
O O16 0.806393 0.746791 0.125789
O O17 0.869312 0.785058 0.748709
O O18 0.924573 0.000000 0.730144
O O19 0.301859 0.500000 0.049926
O O20 0.304074 0.285977 0.907376
O O21 0.679112 0.500000 0.208274
#
# Coordination Sequence:
#
# PCOD8105891 Si02
#       8
#     8   8   8   8   8   8   8   8
#     4   9  18  33  51  71  99 133 163 196 245 298
#     4  10  21  36  52  72 100 133 170 207 242 285
#     4  10  22  37  50  68  97 132 170 209 246 286
#     4   8  15  29  50  76 101 124 156 200 246 293
#     4   9  18  32  50  73 101 130 160 200 247 291
#     4   9  18  34  55  76  99 128 162 201 246 295
#     4   8  14  28  51  75  99 128 160 194 241 300
#     4   8  16  33  54  75 102 132 158 196 251 296
#
# _framework density 18.489011999999999
#
# number of rings (size 3 to 8) (size 9 to 14) (size 15 to 20)
#    0.000    3.125    0.000    1.500    0.000    3.750 
#    0.000    6.875    0.000    0.000    0.000    0.000 
#    0.000    0.000    0.000    0.000    0.000    0.000 
#
# Total GULP energy -396701.837711 kJ/mol
# GULP energy per Si atom -12396.932428 kJ/mol
# Density = 1.844693 g / cm^3
# Si number density = 18.489012 Si / 1000 Ang^3
#
#
#
# Elastic Constant Matrix: (Units=GPa)
#
#
# Indices 1 2 3 4 5 6 
#
# 1 50.2843 14.8319 16.2435 0.0000 2.5749 0.0000
# 2 14.8319 51.0502 37.0479 0.0000 -2.6781 0.0000
# 3 16.2435 37.0479 93.9978 0.0000 4.1708 0.0000
# 4 0.0000 0.0000 0.0000 37.4857 0.0000 -4.0022
# 5 2.5749 -2.6781 4.1708 0.0000 29.5044 0.0000
# 6 0.0000 0.0000 0.0000 -4.0022 0.0000 18.8440
#
#
#
# Elastic Compliance Matrix: (Units=1/GPa)
#
#
# Indices 1 2 3 4 5 6 
#
# 1 0.022102 -0.005371 -0.001605 0.000000 -0.002190 0.000000
# 2 -0.005371 0.029230 -0.010798 0.000000 0.004648 0.000000
# 3 -0.001605 -0.010798 0.015305 0.000000 -0.003004 0.000000
# 4 0.000000 0.000000 0.000000 0.027296 0.000000 0.005797
# 5 -0.002190 0.004648 -0.003004 0.000000 0.034931 0.000000
# 6 0.000000 0.000000 0.000000 0.005797 0.000000 0.054298
#
#
# Mechanical properties :
#
#
# Convention : Reuss Voigt Hill
#
# Bulk Modulus (GPa) = 32.16800 36.84210 34.50505
# Shear Modulus (GPa) = 21.82699 25.64743 23.73721
#
# Velocity S-wave (km/s) = 3.43962 3.72852 3.58698
# Velocity P-wave (km/s) = 5.76289 6.20528 5.98817
#
# Compressibility (1/GPa) = 0.03108679
#
# Stress axis : x y z
#
# Youngs Moduli (GPa) = 45.24496 34.21188 65.33694
#
# Poissons Ratio (x) = 0.18376 0.10488
# Poissons Ratio (y) = 0.24303 0.70554
# Poissons Ratio (z) = 0.07263 0.36944
#
# Static dielectric constant tensor:
#      x y z
#    x 3.407510 0.000000 0.108570 
#    y 0.000000 3.379340 0.000000 
#    z 0.108570 0.000000 3.460110 
# 
# 
# High freq. dielectric constant tensor:
#      x y z
#    x 1.713960 0.000000 0.002140 
#    y 0.000000 1.700390 0.000000 
#    z 0.002140 0.000000 1.712140 
# 
# From -- ./inp_files/187635.got.cif
#   From: 2010.06.25/outbox.cif.g09.slc.cpg/sg12_94_cif.got.tgz:187635.got - 2010.06.28 00:19:55.
