data_PCOD8105824
_publ_section_title
;
Structure prediction by ZEFSAII (Michael W. Deem and Ramdas Pophale) SiO2 
 PCOD8105824
Probable space group: C 2/M
;
_chemical_formula_sum "Si O2"
_cell_formula_units_Z 64
_cell_length_a 16.661004
_cell_length_b 17.574118
_cell_length_c 11.185303
_cell_angle_alpha 90.000000
_cell_angle_beta 92.446125
_cell_angle_gamma 90.000000
_cell_volume 3272.099853
_symmetry_space_group_name_H-M "C 2/M"
_symmetry_group_IT_number 12
_symmetry_cell_setting 'monoclinic'
loop_
_space_group_symop_operation_xyz
x,y,z
-x,y,-z
-x,-y,-z
x,-y,z
1/2+x,1/2+y,z
1/2-x,1/2+y,-z
1/2-x,1/2-y,-z
1/2+x,1/2-y,z
loop_
_atom_site_type_symbol
_atom_site_label
_atom_site_fract_x
_atom_site_fract_y
_atom_site_fract_z
Si Si1 0.799656 0.584623 0.284079
Si Si2 0.877178 0.183961 0.432353
Si Si3 0.784289 0.587116 0.559997
Si Si4 0.140536 0.160614 0.186126
Si Si5 0.580714 0.797274 0.753198
Si Si6 0.418889 0.670066 0.064029
Si Si7 0.479669 0.587986 0.278019
Si Si8 0.901777 0.710691 0.661513
O O1 0.792047 0.500000 0.232634
O O2 0.813165 0.585261 0.426133
O O3 0.720388 0.629527 0.247470
O O4 0.877022 0.621784 0.225311
O O5 0.801196 0.128336 0.434804
O O6 0.861760 0.249146 0.332585
O O7 0.954952 0.134413 0.395761
O O8 0.892871 0.225682 0.558059
O O9 0.777932 0.500000 0.608540
O O10 0.851654 0.633895 0.636950
O O11 0.130144 0.249278 0.219839
O O12 0.066885 0.112788 0.237386
O O13 0.149057 0.157541 0.041473
O O14 0.577756 0.754726 0.880225
O O15 0.494745 0.810366 0.685560
O O16 0.413476 0.608109 0.170854
O O17 0.500000 0.655057 0.000000
O O18 0.479145 0.500000 0.309376
#
# Coordination Sequence:
#
# PCOD8105824 Si02
#       8
#     8   8   8   8   8   8   8   8
#     4  11  24  38  55  86 123 158 195 244 298 348
#     4  11  20  37  58  88 119 154 193 239 295 357
#     4  11  24  38  57  87 127 163 193 240 297 356
#     4  11  21  38  61  87 116 157 202 239 293 356
#     4  11  22  38  63  87 116 151 203 249 290 347
#     4   9  19  38  61  86 111 148 201 247 290 352
#     4  10  21  35  58  88 122 156 188 241 300 355
#     4  12  21  37  63  87 116 157 202 242 294 351
#
# _framework density 19.559304000000001
#
# number of rings (size 3 to 8) (size 9 to 14) (size 15 to 20)
#    0.000    1.250    6.250    2.250    0.000    3.750 
#    0.000    1.875    0.000    4.125    0.000    0.000 
#    0.000    0.000    0.000    0.000    0.000    0.000 
#
# Total GULP energy -396662.503319 kJ/mol
# GULP energy per Si atom -12395.703229 kJ/mol
# Density = 1.951479 g / cm^3
# Si number density = 19.559304 Si / 1000 Ang^3
#
#
#
# Elastic Constant Matrix: (Units=GPa)
#
#
# Indices 1 2 3 4 5 6 
#
# 1 90.3189 63.9379 14.7225 0.0000 9.7722 0.0000
# 2 63.9379 77.4872 20.1460 0.0000 11.1354 0.0000
# 3 14.7225 20.1460 48.0460 0.0000 5.5010 0.0000
# 4 0.0000 0.0000 0.0000 19.8488 0.0000 -0.7096
# 5 9.7722 11.1354 5.5010 0.0000 13.9554 0.0000
# 6 0.0000 0.0000 0.0000 -0.7096 0.0000 14.5866
#
#
#
# Elastic Compliance Matrix: (Units=1/GPa)
#
#
# Indices 1 2 3 4 5 6 
#
# 1 0.026712 -0.022153 0.001279 0.000000 -0.001532 0.000000
# 2 -0.022153 0.034198 -0.006496 0.000000 -0.009214 0.000000
# 3 0.001279 -0.006496 0.023725 0.000000 -0.005064 0.000000
# 4 0.000000 0.000000 0.000000 0.050469 0.000000 0.002455
# 5 -0.001532 -0.009214 -0.005064 0.000000 0.082079 0.000000
# 6 0.000000 0.000000 0.000000 0.002455 0.000000 0.068675
#
#
# Mechanical properties :
#
#
# Convention : Reuss Voigt Hill
#
# Bulk Modulus (GPa) = 33.45090 45.94052 39.69571
# Shear Modulus (GPa) = 14.26276 17.48120 15.87198
#
# Velocity S-wave (km/s) = 2.70331 2.99281 2.85174
# Velocity P-wave (km/s) = 5.18491 5.95663 5.58411
#
# Compressibility (1/GPa) = 0.02989456
#
# Stress axis : x y z
#
# Youngs Moduli (GPa) = 37.43661 29.24134 42.14940
#
# Poissons Ratio (x) = 0.64780 -0.05393
# Poissons Ratio (y) = 0.82935 0.27381
# Poissons Ratio (z) = -0.04790 0.18996
#
# Static dielectric constant tensor:
#      x y z
#    x 3.472440 0.000000 0.071520 
#    y 0.000000 3.695850 0.000000 
#    z 0.071520 0.000000 4.216160 
# 
# 
# High freq. dielectric constant tensor:
#      x y z
#    x 1.751830 0.000000 0.005550 
#    y 0.000000 1.755990 0.000000 
#    z 0.005550 0.000000 1.757620 
# 
# From -- ./inp_files/157878.got.cif
#   From: 2010.06.25/outbox.cif.g09.slc.cpg/sg12_79_cif.got.tgz:157878.got - 2010.06.28 00:19:55.
