data_PCOD8105743
_publ_section_title
;
Structure prediction by ZEFSAII (Michael W. Deem and Ramdas Pophale) SiO2 
 PCOD8105743
Probable space group: C 2/M
;
_chemical_formula_sum "Si O2"
_cell_formula_units_Z 64
_cell_length_a 32.484984
_cell_length_b 9.063527
_cell_length_c 19.189660
_cell_angle_alpha 90.000000
_cell_angle_beta 34.418123
_cell_angle_gamma 90.000000
_cell_volume 3193.528598
_symmetry_space_group_name_H-M "C 2/M"
_symmetry_group_IT_number 12
_symmetry_cell_setting 'monoclinic'
loop_
_space_group_symop_operation_xyz
x,y,z
-x,y,-z
-x,-y,-z
x,-y,z
1/2+x,1/2+y,z
1/2-x,1/2+y,-z
1/2-x,1/2-y,-z
1/2+x,1/2-y,z
loop_
_atom_site_type_symbol
_atom_site_label
_atom_site_fract_x
_atom_site_fract_y
_atom_site_fract_z
Si Si1 0.537849 0.169067 0.872579
Si Si2 0.810941 0.830719 0.762034
Si Si3 0.545710 0.171879 0.616238
Si Si4 0.791790 0.674012 0.377073
Si Si5 0.591508 0.830652 0.275923
Si Si6 0.338932 0.171439 0.964614
Si Si7 0.463465 0.673920 0.854811
Si Si8 0.803919 0.174143 0.617476
O O1 0.623057 0.215839 0.749441
O O2 0.493267 0.283738 0.888475
O O3 0.529874 0.000000 0.857841
O O4 0.500000 0.185568 0.000000
O O5 0.883712 0.752997 0.688996
O O6 0.784827 0.772705 0.722605
O O7 0.831970 0.000000 0.726066
O O8 0.746527 0.801987 0.906610
O O9 0.493593 0.198679 0.621877
O O10 0.507664 0.231027 0.737864
O O11 0.618532 0.260885 0.508069
O O12 0.562599 0.000000 0.602424
O O13 0.781989 0.500000 0.400812
O O14 0.750000 0.750000 0.500000
O O15 0.755274 0.730242 0.355811
O O16 0.639384 0.777493 0.143087
O O17 0.606450 0.000000 0.270277
O O18 0.379843 0.273634 0.964213
O O19 0.360310 0.000000 0.947222
O O20 0.471190 0.500000 0.831008
O O21 0.809085 0.000000 0.605440
#
# Coordination Sequence:
#
# PCOD8105743 Si02
#       8
#     8   8   8   8   8   8   8   8
#     4  10  22  39  63  89 117 158 201 243 296 363
#     4  10  21  35  56  83 115 152 190 236 288 345
#     4  10  21  39  60  82 110 151 198 236 280 347
#     4  10  22  40  62  88 116 153 199 243 295 355
#     4   9  19  35  55  81 112 147 193 242 284 335
#     4   9  19  36  58  82 113 155 196 232 277 347
#     4  11  22  36  58  87 117 148 186 242 295 340
#     4  10  22  38  57  85 116 146 187 241 293 340
#
# _framework density 20.040527999999998
#
# number of rings (size 3 to 8) (size 9 to 14) (size 15 to 20)
#    0.000    2.125    0.000    3.375    1.750    7.250 
#    0.000    2.500    0.000    0.000    0.000    0.000 
#    0.000    0.000    0.000    0.000    0.000    0.000 
#
# Total GULP energy -396701.378718 kJ/mol
# GULP energy per Si atom -12396.918085 kJ/mol
# Density = 1.999491 g / cm^3
# Si number density = 20.040528 Si / 1000 Ang^3
#
#
#
# Elastic Constant Matrix: (Units=GPa)
#
#
# Indices 1 2 3 4 5 6 
#
# 1 143.5308 82.0907 33.5915 -0.0043 -0.9103 0.0030
# 2 82.0907 402.7726 126.6612 -0.0122 -37.3518 0.0222
# 3 33.5915 126.6612 90.8276 -0.0057 -16.2746 0.0069
# 4 -0.0043 -0.0122 -0.0057 24.2997 0.0043 -0.3366
# 5 -0.9103 -37.3518 -16.2746 0.0043 26.3923 -0.0034
# 6 0.0030 0.0222 0.0069 -0.3366 -0.0034 35.2534
#
#
#
# Elastic Compliance Matrix: (Units=1/GPa)
#
#
# Indices 1 2 3 4 5 6 
#
# 1 0.008118 -0.001438 -0.001474 0.000001 -0.002664 0.000000
# 2 -0.001438 0.004863 -0.005650 0.000000 0.003349 -0.000002
# 3 -0.001474 -0.005650 0.020227 0.000001 0.004426 0.000000
# 4 0.000001 0.000000 0.000001 0.041158 -0.000006 0.000393
# 5 -0.002664 0.003349 0.004426 -0.000006 0.045267 0.000002
# 6 0.000000 -0.000002 0.000000 0.000393 0.000002 0.028370
#
#
# Mechanical properties :
#
#
# Convention : Reuss Voigt Hill
#
# Bulk Modulus (GPa) = 62.17529 124.64641 93.41085
# Shear Modulus (GPa) = 29.32741 43.50824 36.41782
#
# Velocity S-wave (km/s) = 3.82960 4.66447 4.26750
# Velocity P-wave (km/s) = 7.11664 9.55729 8.42581
#
# Compressibility (1/GPa) = 0.01608356
#
# Stress axis : x y z
#
# Youngs Moduli (GPa) = 123.18743 205.62578 49.43832
#
# Poissons Ratio (x) = 0.29567 0.07289
# Poissons Ratio (y) = 0.17713 0.27933
# Poissons Ratio (z) = 0.18163 1.16178
#
# Static dielectric constant tensor:
#      x y z
#    x 3.871770 0.000000 0.044330 
#    y 0.000000 3.585120 -0.000020 
#    z 0.044330 -0.000020 3.416430 
# 
# 
# High freq. dielectric constant tensor:
#      x y z
#    x 1.793960 0.000000 -0.003530 
#    y 0.000000 1.770010 0.000000 
#    z -0.003530 0.000000 1.779390 
# 
# From -- ./inp_files/295624.got.cif
#   From: 2010.06.25/outbox.cif.g09.slc.cpg/sg12_148_cif.got.tgz:295624.got - 2010.06.28 00:19:55.
