data_PCOD8105681
_publ_section_title
;
Structure prediction by ZEFSAII (Michael W. Deem and Ramdas Pophale) SiO2 
 PCOD8105681
Probable space group: C 2/M
;
_chemical_formula_sum "Si O2"
_cell_formula_units_Z 48
_cell_length_a 26.543490
_cell_length_b 9.707779
_cell_length_c 14.381141
_cell_angle_alpha 90.000000
_cell_angle_beta 139.031336
_cell_angle_gamma 90.000000
_cell_volume 2429.633555
_symmetry_space_group_name_H-M "C 2/M"
_symmetry_group_IT_number 12
_symmetry_cell_setting 'monoclinic'
loop_
_space_group_symop_operation_xyz
x,y,z
-x,y,-z
-x,-y,-z
x,-y,z
1/2+x,1/2+y,z
1/2-x,1/2+y,-z
1/2-x,1/2-y,-z
1/2+x,1/2-y,z
loop_
_atom_site_type_symbol
_atom_site_label
_atom_site_fract_x
_atom_site_fract_y
_atom_site_fract_z
Si Si1 0.219670 0.341966 0.803195
Si Si2 0.265132 0.658676 0.658371
Si Si3 0.522466 0.156557 0.927938
Si Si4 0.355439 0.155111 0.661204
Si Si5 0.613657 0.657819 0.919115
Si Si6 0.923632 0.160664 0.338267
O O1 0.192018 0.500000 0.774339
O O2 0.245716 0.305994 0.735987
O O3 0.149429 0.244618 0.729329
O O4 0.295290 0.314021 0.972017
O O5 0.287524 0.500000 0.676341
O O6 0.337051 0.749301 0.724536
O O7 0.191213 0.701824 0.494407
O O8 0.444754 0.166472 0.758839
O O9 0.585268 0.250716 0.965547
O O10 0.554114 0.000000 0.975755
O O11 0.500000 0.207304 0.000000
O O12 0.334087 0.000000 0.661149
O O13 0.602244 0.500000 0.934316
O O14 0.567140 0.689289 0.759309
O O15 0.000000 0.209121 0.500000
O O16 0.907683 0.000000 0.334787
#
# Coordination Sequence:
#
# PCOD8105681 Si02
#       6
#     8   8   8   8   8   8
#     4  10  21  37  59  84 110 143 186 232 280 333
#     4   9  18  32  51  77 107 140 181 227 273 323
#     4  10  21  35  54  82 115 149 187 228 275 331
#     4   9  18  32  49  74 109 144 182 225 268 322
#     4  10  22  39  58  83 115 149 188 232 279 333
#     4  10  23  41  59  83 114 146 186 235 283 334
#
# _framework density 19.756066000000001
#
# number of rings (size 3 to 8) (size 9 to 14) (size 15 to 20)
#    0.000    2.333    0.000    1.500    2.333    3.333 
#    0.000    0.000    0.000    0.000    0.000    0.000 
#    0.000    0.000    0.000    0.000    0.000    0.000 
#
# Total GULP energy -297567.185244 kJ/mol
# GULP energy per Si atom -12398.632718 kJ/mol
# Density = 1.971110 g / cm^3
# Si number density = 19.756066 Si / 1000 Ang^3
#
#
#
# Elastic Constant Matrix: (Units=GPa)
#
#
# Indices 1 2 3 4 5 6 
#
# 1 85.9044 60.2250 41.2991 0.0000 7.9299 0.0000
# 2 60.2250 77.5232 35.4805 0.0000 5.1929 0.0000
# 3 41.2991 35.4805 104.3197 0.0000 -0.6003 0.0000
# 4 0.0000 0.0000 0.0000 24.4622 0.0000 4.9651
# 5 7.9299 5.1929 -0.6003 0.0000 25.2136 0.0000
# 6 0.0000 0.0000 0.0000 4.9651 0.0000 41.3375
#
#
#
# Elastic Compliance Matrix: (Units=1/GPa)
#
#
# Indices 1 2 3 4 5 6 
#
# 1 0.027618 -0.019083 -0.004471 0.000000 -0.004862 0.000000
# 2 -0.019083 0.028738 -0.002219 0.000000 0.000030 0.000000
# 3 -0.004471 -0.002219 0.012123 0.000000 0.002152 0.000000
# 4 0.000000 0.000000 0.000000 0.041901 0.000000 -0.005033
# 5 -0.004862 0.000030 0.002152 0.000000 0.041235 0.000000
# 6 0.000000 0.000000 0.000000 -0.005033 0.000000 0.024796
#
#
# Mechanical properties :
#
#
# Convention : Reuss Voigt Hill
#
# Bulk Modulus (GPa) = 59.05991 60.19516 59.62754
# Shear Modulus (GPa) = 21.40386 26.91884 24.16135
#
# Velocity S-wave (km/s) = 3.29509 3.69529 3.50091
# Velocity P-wave (km/s) = 6.66605 6.98157 6.82563
#
# Compressibility (1/GPa) = 0.01693196
#
# Stress axis : x y z
#
# Youngs Moduli (GPa) = 36.20820 34.79689 82.48690
#
# Poissons Ratio (x) = 0.66404 0.36881
# Poissons Ratio (y) = 0.69098 0.18305
# Poissons Ratio (z) = 0.16189 0.07722
#
# Static dielectric constant tensor:
#      x y z
#    x 3.340290 0.000000 -0.071720 
#    y 0.000000 3.538080 0.000000 
#    z -0.071720 0.000000 3.953410 
# 
# 
# High freq. dielectric constant tensor:
#      x y z
#    x 1.750610 0.000000 -0.004310 
#    y 0.000000 1.764460 0.000000 
#    z -0.004310 0.000000 1.791790 
# 
# From -- ./inp_files/244891.got.cif
#   From: 2010.06.25/outbox.cif.g09.slc.cpg/sg12_123_cif.got.tgz:244891.got - 2010.06.28 00:19:55.
