data_PCOD8105816
_publ_section_title
;
Structure prediction by ZEFSAII (Michael W. Deem and Ramdas Pophale) SiO2 
 PCOD8105816
Probable space group: C 2/M
;
_chemical_formula_sum "Si O2"
_cell_formula_units_Z 48
_cell_length_a 8.128715
_cell_length_b 22.989444
_cell_length_c 20.324525
_cell_angle_alpha 90.000000
_cell_angle_beta 142.045148
_cell_angle_gamma 90.000000
_cell_volume 2336.008270
_symmetry_space_group_name_H-M "C 2/M"
_symmetry_group_IT_number 12
_symmetry_cell_setting 'monoclinic'
loop_
_space_group_symop_operation_xyz
x,y,z
-x,y,-z
-x,-y,-z
x,-y,z
1/2+x,1/2+y,z
1/2-x,1/2+y,-z
1/2-x,1/2-y,-z
1/2+x,1/2-y,z
loop_
_atom_site_type_symbol
_atom_site_label
_atom_site_fract_x
_atom_site_fract_y
_atom_site_fract_z
Si Si1 0.476088 0.660786 0.328603
Si Si2 0.113976 0.263463 0.607765
Si Si3 0.438382 0.066242 0.816703
Si Si4 0.734326 0.137534 0.459355
Si Si5 0.249124 0.567523 0.039292
Si Si6 0.827740 0.432701 0.251223
O O1 0.621607 0.696436 0.316178
O O2 0.320800 0.704496 0.330873
O O3 0.284052 0.613783 0.233670
O O4 0.690586 0.624771 0.440626
O O5 0.000000 0.247379 0.500000
O O6 0.886599 0.296840 0.579237
O O7 0.696229 0.075810 0.944712
O O8 0.516864 0.078223 0.767109
O O9 0.329628 0.000000 0.791913
O O10 0.497121 0.094921 0.363295
O O11 0.000000 0.129782 0.500000
O O12 0.267963 0.500000 0.063545
O O13 0.531779 0.595941 0.150176
O O14 0.000000 0.596053 0.000000
O O15 0.802682 0.500000 0.259491
#
# Coordination Sequence:
#
# PCOD8105816 Si02
#       6
#     8   8   8   8   8   8
#     4  11  21  37  59  88 117 157 192 247 285 345
#     4  10  22  36  58  83 113 157 204 241 274 340
#     4  10  21  36  60  89 118 152 192 238 297 348
#     4  11  20  35  56  86 119 150 195 236 288 344
#     4   9  19  37  59  83 113 151 199 242 282 345
#     4  10  21  35  58  86 119 158 192 235 290 354
#
# _framework density 20.547872999999999
#
# number of rings (size 3 to 8) (size 9 to 14) (size 15 to 20)
#    0.000    1.833    1.667    4.000    2.333    3.000 
#    0.000    0.000    0.000    4.000    0.000    0.000 
#    0.000    0.000    0.000    0.000    0.000    0.000 
#
# Total GULP energy -297413.974654 kJ/mol
# GULP energy per Si atom -12392.248944 kJ/mol
# Density = 2.050111 g / cm^3
# Si number density = 20.547873 Si / 1000 Ang^3
#
#
#
# Elastic Constant Matrix: (Units=GPa)
#
#
# Indices 1 2 3 4 5 6 
#
# 1 57.8408 31.6531 34.9458 0.0000 9.9067 0.0001
# 2 31.6531 62.9401 50.0528 0.0000 17.8760 0.0000
# 3 34.9458 50.0528 126.1802 0.0000 21.3170 0.0004
# 4 0.0000 0.0000 0.0000 15.4348 0.0000 9.0977
# 5 9.9067 17.8760 21.3170 0.0000 26.4794 0.0001
# 6 0.0001 0.0000 0.0004 9.0977 0.0001 20.4289
#
#
#
# Elastic Compliance Matrix: (Units=1/GPa)
#
#
# Indices 1 2 3 4 5 6 
#
# 1 0.024500 -0.010088 -0.002761 0.000000 -0.000133 0.000000
# 2 -0.010088 0.029659 -0.007206 0.000000 -0.010447 0.000000
# 3 -0.002761 -0.007206 0.012213 0.000000 -0.003934 0.000000
# 4 0.000000 0.000000 0.000000 0.087849 0.000000 -0.039122
# 5 -0.000133 -0.010447 -0.003934 0.000000 0.048035 0.000000
# 6 0.000000 0.000000 0.000000 -0.039122 0.000000 0.066373
#
#
# Mechanical properties :
#
#
# Convention : Reuss Voigt Hill
#
# Bulk Modulus (GPa) = 38.07787 53.36274 45.72031
# Shear Modulus (GPa) = 15.74832 21.15590 18.45211
#
# Velocity S-wave (km/s) = 2.77143 3.21220 2.99993
# Velocity P-wave (km/s) = 5.36774 6.30746 5.85648
#
# Compressibility (1/GPa) = 0.02626197
#
# Stress axis : x y z
#
# Youngs Moduli (GPa) = 40.81557 33.71620 81.87868
#
# Poissons Ratio (x) = 0.34012 0.22610
# Poissons Ratio (y) = 0.41173 0.59005
# Poissons Ratio (z) = 0.11271 0.24297
#
# Static dielectric constant tensor:
#      x y z
#    x 3.824440 0.000000 0.135930 
#    y 0.000000 3.543550 0.000000 
#    z 0.135930 0.000000 3.759890 
# 
# 
# High freq. dielectric constant tensor:
#      x y z
#    x 1.813920 0.000000 0.008350 
#    y 0.000000 1.773050 0.000000 
#    z 0.008350 0.000000 1.789520 
# 
# From -- ./inp_files/334118.got.cif
#   From: 2010.06.25/outbox.cif.g09.slc.cpg/sg12_168_cif.got.tgz:334118.got - 2010.06.28 00:19:55.
