data_PCOD8105047
_publ_section_title
;
Structure prediction by ZEFSAII (Michael W. Deem and Ramdas Pophale) SiO2 
 PCOD8105047
Probable space group: C 2/M
;
_chemical_formula_sum "Si O2"
_cell_formula_units_Z 44
_cell_length_a 8.893921
_cell_length_b 16.980645
_cell_length_c 15.478604
_cell_angle_alpha 90.000000
_cell_angle_beta 107.674343
_cell_angle_gamma 90.000000
_cell_volume 2227.305877
_symmetry_space_group_name_H-M "C 2/M"
_symmetry_group_IT_number 12
_symmetry_cell_setting 'monoclinic'
loop_
_space_group_symop_operation_xyz
x,y,z
-x,y,-z
-x,-y,-z
x,-y,z
1/2+x,1/2+y,z
1/2-x,1/2+y,-z
1/2-x,1/2-y,-z
1/2+x,1/2-y,z
loop_
_atom_site_type_symbol
_atom_site_label
_atom_site_fract_x
_atom_site_fract_y
_atom_site_fract_z
Si Si1 0.500000 0.762233 0.500000
Si Si2 0.034727 0.661452 0.909813
Si Si3 0.744928 0.909643 0.235084
Si Si4 0.355106 0.408433 0.913367
Si Si5 0.186680 0.694534 0.376291
Si Si6 0.469745 0.306541 0.782588
O O1 0.360155 0.705370 0.445098
O O2 0.439232 0.816612 0.568257
O O3 0.196595 0.613081 0.936420
O O4 0.050248 0.736741 0.850925
O O5 0.894197 0.603170 0.857738
O O6 0.000000 0.691801 0.000000
O O7 0.682434 0.884714 0.318799
O O8 0.893389 0.856225 0.237747
O O9 0.797137 0.000000 0.244231
O O10 0.357603 0.500000 0.890458
O O11 0.363465 0.361182 0.825170
O O12 0.500000 0.385343 0.000000
O O13 0.143123 0.770894 0.310736
#
# Coordination Sequence:
#
# PCOD8105047 Si02
#       6
#     4   8   8   8   8   8
#     4  10  20  40  68  90 118 148 202 242 296 354
#     4  11  23  39  60  86 118 161 207 246 284 340
#     4  11  23  39  60  90 125 155 193 244 299 351
#     4  11  24  39  57  85 123 162 199 241 294 346
#     4  10  21  39  66  93 115 156 195 244 292 360
#     4  11  22  39  62  89 117 158 200 245 288 348
#
# _framework density 19.754809000000002
#
# number of rings (size 3 to 8) (size 9 to 14) (size 15 to 20)
#    0.000    1.273    1.818    4.909    2.545    5.091 
#    0.000    0.909    0.000    0.000    0.000    0.000 
#    0.000    0.000    0.000    0.000    0.000    0.000 
#
# Total GULP energy -272913.856552 kJ/mol
# GULP energy per Si atom -12405.175298 kJ/mol
# Density = 1.970985 g / cm^3
# Si number density = 19.754809 Si / 1000 Ang^3
#
#
#
# Elastic Constant Matrix: (Units=GPa)
#
#
# Indices 1 2 3 4 5 6 
#
# 1 99.9556 29.6423 42.1705 0.0000 -2.4029 0.0000
# 2 29.6423 106.6839 42.2320 0.0000 -1.0170 0.0000
# 3 42.1705 42.2320 117.8347 0.0000 -12.6127 0.0000
# 4 0.0000 0.0000 0.0000 5.0868 0.0000 4.8982
# 5 -2.4029 -1.0170 -12.6127 0.0000 39.8858 0.0000
# 6 0.0000 0.0000 0.0000 4.8982 0.0000 23.2977
#
#
#
# Elastic Compliance Matrix: (Units=1/GPa)
#
#
# Indices 1 2 3 4 5 6 
#
# 1 0.012122 -0.001905 -0.003708 0.000000 -0.000491 0.000000
# 2 -0.001905 0.011261 -0.003453 0.000000 -0.000919 0.000000
# 3 -0.003708 -0.003453 0.011404 0.000000 0.003295 0.000000
# 4 0.000000 0.000000 0.000000 0.246488 0.000000 -0.051823
# 5 -0.000491 -0.000919 0.003295 0.000000 0.026060 0.000000
# 6 0.000000 0.000000 0.000000 -0.051823 0.000000 0.053818
#
#
# Mechanical properties :
#
#
# Convention : Reuss Voigt Hill
#
# Bulk Modulus (GPa) = 60.04104 61.39599 60.71852
# Shear Modulus (GPa) = 12.99257 27.68269 20.33763
#
# Velocity S-wave (km/s) = 2.56733 3.74747 3.21207
# Velocity P-wave (km/s) = 6.26477 7.06196 6.67528
#
# Compressibility (1/GPa) = 0.01665527
#
# Stress axis : x y z
#
# Youngs Moduli (GPa) = 82.49510 88.80423 87.69231
#
# Poissons Ratio (x) = 0.16917 0.32516
# Poissons Ratio (y) = 0.15715 0.30276
# Poissons Ratio (z) = 0.30589 0.30660
#
# Static dielectric constant tensor:
#      x y z
#    x 3.736840 0.000000 -0.142120 
#    y 0.000000 3.408900 0.000000 
#    z -0.142120 0.000000 3.831160 
# 
# 
# High freq. dielectric constant tensor:
#      x y z
#    x 1.786400 0.000000 -0.005640 
#    y 0.000000 1.750600 0.000000 
#    z -0.005640 0.000000 1.777970 
# 
# From -- ./inp_files/195565.got.cif
#   From: 2010.06.25/outbox.cif.g09.slc.cpg/sg12_98_cif.got.tgz:195565.got - 2010.06.28 00:19:55.
