data_PCOD8105182
_publ_section_title
;
Structure prediction by ZEFSAII (Michael W. Deem and Ramdas Pophale) SiO2 
 PCOD8105182
Probable space group: C 2/M
;
_chemical_formula_sum "Si O2"
_cell_formula_units_Z 48
_cell_length_a 32.009814
_cell_length_b 8.266882
_cell_length_c 9.058190
_cell_angle_alpha 90.000000
_cell_angle_beta 87.580021
_cell_angle_gamma 90.000000
_cell_volume 2394.852799
_symmetry_space_group_name_H-M "C 2/M"
_symmetry_group_IT_number 12
_symmetry_cell_setting 'monoclinic'
loop_
_space_group_symop_operation_xyz
x,y,z
-x,y,-z
-x,-y,-z
x,-y,z
1/2+x,1/2+y,z
1/2-x,1/2+y,-z
1/2-x,1/2-y,-z
1/2+x,1/2-y,z
loop_
_atom_site_type_symbol
_atom_site_label
_atom_site_fract_x
_atom_site_fract_y
_atom_site_fract_z
Si Si1 0.177875 0.264000 0.753355
Si Si2 0.506803 0.813239 0.667113
Si Si3 0.678050 0.000000 0.491096
Si Si4 0.587363 0.191011 0.833035
Si Si5 0.693930 0.000000 0.004546
Si Si6 0.745324 0.500000 0.741569
Si Si7 0.881967 0.500000 0.761368
Si Si8 0.932613 0.187938 0.848392
O O1 0.176554 0.348909 0.597197
O O2 0.129938 0.209665 0.791894
O O3 0.214056 0.142210 0.718449
O O4 0.194259 0.347803 0.898391
O O5 0.500000 0.758242 0.500000
O O6 0.555347 0.789550 0.702310
O O7 0.479358 0.700053 0.777520
O O8 0.493203 0.000000 0.691367
O O9 0.636627 0.000000 0.399077
O O10 0.719081 0.000000 0.385879
O O11 0.598598 0.000000 0.856876
O O12 0.566117 0.268496 0.979502
O O13 0.735420 0.000000 0.097667
O O14 0.652973 0.000000 0.109402
O O15 0.906259 0.328593 0.769740
O O16 0.916677 0.000000 0.827831
#
# Coordination Sequence:
#
# PCOD8105182 Si02
#       8
#     8   8   4   8   4   4   4   8
#     4  11  21  40  64  95 124 168 217 268 319 397
#     4  10  23  40  66  94 130 178 221 263 322 389
#     4  10  24  42  67  84 133 174 209 254 348 386
#     4  11  21  40  66  91 127 174 222 267 325 380
#     4  10  20  42  65  90 127 173 210 266 329 384
#     4  11  24  38  64  98 128 164 213 275 325 397
#     4  11  22  44  66  94 133 172 215 276 318 387
#     4  12  24  41  66  97 132 171 223 267 326 379
#
# _framework density 20.042985999999999
#
# number of rings (size 3 to 8) (size 9 to 14) (size 15 to 20)
#    0.000    1.167    5.000    1.500    3.500    3.000 
#    1.500    0.000    3.667    0.000    0.000    0.000 
#    0.000    0.000    0.000    0.000    0.000    0.000 
#
# Total GULP energy -297365.322495 kJ/mol
# GULP energy per Si atom -12390.221771 kJ/mol
# Density = 1.999737 g / cm^3
# Si number density = 20.042986 Si / 1000 Ang^3
#
#
#
# Elastic Constant Matrix: (Units=GPa)
#
#
# Indices 1 2 3 4 5 6 
#
# 1 114.7370 38.8804 61.6598 0.0000 9.9742 0.0000
# 2 38.8804 84.4029 30.8174 0.0000 10.1145 0.0000
# 3 61.6598 30.8174 145.9835 0.0000 13.3920 0.0000
# 4 0.0000 0.0000 0.0000 30.5588 0.0000 -20.5745
# 5 9.9742 10.1145 13.3920 0.0000 35.1087 0.0000
# 6 0.0000 0.0000 0.0000 -20.5745 0.0000 49.2215
#
#
#
# Elastic Compliance Matrix: (Units=1/GPa)
#
#
# Indices 1 2 3 4 5 6 
#
# 1 0.012500 -0.004084 -0.004352 0.000000 -0.000715 0.000000
# 2 -0.004084 0.014435 -0.001085 0.000000 -0.002584 0.000000
# 3 -0.004352 -0.001085 0.009094 0.000000 -0.001920 0.000000
# 4 0.000000 0.000000 0.000000 0.045540 0.000000 0.019036
# 5 -0.000715 -0.002584 -0.001920 0.000000 0.030163 0.000000
# 6 0.000000 0.000000 0.000000 0.019036 0.000000 0.028273
#
#
# Mechanical properties :
#
#
# Convention : Reuss Voigt Hill
#
# Bulk Modulus (GPa) = 58.86982 67.53764 63.20373
# Shear Modulus (GPa) = 30.35647 37.22887 33.79267
#
# Velocity S-wave (km/s) = 3.89597 4.31449 4.11056
# Velocity P-wave (km/s) = 7.04795 7.65437 7.35741
#
# Compressibility (1/GPa) = 0.01698663
#
# Stress axis : x y z
#
# Youngs Moduli (GPa) = 79.99743 69.27576 109.96766
#
# Poissons Ratio (x) = 0.28289 0.47861
# Poissons Ratio (y) = 0.32668 0.11936
# Poissons Ratio (z) = 0.34817 0.07519
#
# Static dielectric constant tensor:
#      x y z
#    x 3.779590 0.000000 0.041510 
#    y 0.000000 3.522710 0.000000 
#    z 0.041510 0.000000 3.763080 
# 
# 
# High freq. dielectric constant tensor:
#      x y z
#    x 1.792980 0.000000 -0.001580 
#    y 0.000000 1.762710 0.000000 
#    z -0.001580 0.000000 1.797350 
# 
# From -- ./inp_files/108861.got.cif
#   From: 2010.06.25/outbox.cif.g09.slc.cpg/sg12_55_cif.got.tgz:108861.got - 2010.06.28 00:19:55.
