data_PCOD8105710
_publ_section_title
;
Structure prediction by ZEFSAII (Michael W. Deem and Ramdas Pophale) SiO2 
 PCOD8105710
Probable space group: C 2/M
;
_chemical_formula_sum "Si O2"
_cell_formula_units_Z 64
_cell_length_a 17.924044
_cell_length_b 17.169376
_cell_length_c 17.154448
_cell_angle_alpha 90.000000
_cell_angle_beta 39.976917
_cell_angle_gamma 90.000000
_cell_volume 3391.768134
_symmetry_space_group_name_H-M "C 2/M"
_symmetry_group_IT_number 12
_symmetry_cell_setting 'monoclinic'
loop_
_space_group_symop_operation_xyz
x,y,z
-x,y,-z
-x,-y,-z
x,-y,z
1/2+x,1/2+y,z
1/2-x,1/2+y,-z
1/2-x,1/2-y,-z
1/2+x,1/2-y,z
loop_
_atom_site_type_symbol
_atom_site_label
_atom_site_fract_x
_atom_site_fract_y
_atom_site_fract_z
Si Si1 0.134038 0.085254 0.371440
Si Si2 0.134463 0.089294 0.806034
Si Si3 0.495852 0.910275 0.589893
Si Si4 0.733156 0.155638 0.161896
Si Si5 0.771117 0.647430 0.553641
Si Si6 0.899245 0.091764 0.906412
Si Si7 0.897717 0.816847 0.746844
Si Si8 0.658605 0.684470 0.494462
O O1 0.156981 0.120220 0.267798
O O2 0.192002 0.139338 0.389601
O O3 0.000000 0.078174 0.500000
O O4 0.192135 0.000000 0.326260
O O5 0.169709 0.148143 0.847489
O O6 0.223359 0.097688 0.663550
O O7 0.006070 0.109778 0.878837
O O8 0.140015 0.000000 0.832116
O O9 0.500000 0.871117 0.500000
O O10 0.372794 0.898525 0.728271
O O11 0.594174 0.873335 0.566321
O O12 0.523820 0.000000 0.558900
O O13 0.689324 0.243445 0.182086
O O14 0.782813 0.120656 0.042066
O O15 0.697300 0.628835 0.535187
O O16 0.760507 0.739740 0.576559
O O17 0.913446 0.143307 0.817844
O O18 0.893145 0.000000 0.890433
O O19 0.023293 0.791733 0.612120
#
# Coordination Sequence:
#
# PCOD8105710 Si02
#       8
#     8   8   8   8   8   8   8   8
#     4   9  19  33  54  81 109 145 188 234 281 334
#     4  11  22  37  60  87 120 154 189 236 293 350
#     4  11  22  34  54  84 117 153 185 226 286 350
#     4  12  23  38  58  85 120 153 194 236 285 354
#     4  11  20  35  55  85 117 152 189 231 286 352
#     4  11  24  41  61  84 115 154 198 245 289 342
#     4  11  21  39  58  83 113 152 195 238 292 338
#     4  10  21  35  55  82 118 152 189 237 287 341
#
# _framework density 18.869213999999999
#
# number of rings (size 3 to 8) (size 9 to 14) (size 15 to 20)
#    0.000    1.250    3.750    3.375    0.000    2.500 
#    0.000    0.000    0.000    0.000    0.000    0.000 
#    0.000    9.000    0.000    0.000    0.000    0.000 
#
# Total GULP energy -396808.608487 kJ/mol
# GULP energy per Si atom -12400.269015 kJ/mol
# Density = 1.882627 g / cm^3
# Si number density = 18.869214 Si / 1000 Ang^3
#
#
#
# Elastic Constant Matrix: (Units=GPa)
#
#
# Indices 1 2 3 4 5 6 
#
# 1 95.7302 42.0738 20.9244 0.0000 2.2415 0.0000
# 2 42.0738 86.3566 12.7214 0.0000 -4.3234 0.0000
# 3 20.9244 12.7214 67.1314 0.0001 -5.4025 -0.0001
# 4 0.0000 0.0000 0.0001 24.6992 0.0000 2.4110
# 5 2.2415 -4.3234 -5.4025 0.0000 17.3495 0.0000
# 6 0.0000 0.0000 -0.0001 2.4110 0.0000 28.5018
#
#
#
# Elastic Compliance Matrix: (Units=1/GPa)
#
#
# Indices 1 2 3 4 5 6 
#
# 1 0.014254 -0.006652 -0.003553 0.000000 -0.004606 0.000000
# 2 -0.006652 0.015109 -0.000428 0.000000 0.004491 0.000000
# 3 -0.003553 -0.000428 0.016527 0.000000 0.005499 0.000000
# 4 0.000000 0.000000 0.000000 0.040824 0.000000 -0.003453
# 5 -0.004606 0.004491 0.005499 0.000000 0.061065 0.000000
# 6 0.000000 0.000000 0.000000 -0.003453 0.000000 0.035378
#
#
# Mechanical properties :
#
#
# Convention : Reuss Voigt Hill
#
# Bulk Modulus (GPa) = 40.61143 44.51749 42.56446
# Shear Modulus (GPa) = 23.51492 25.67667 24.59580
#
# Velocity S-wave (km/s) = 3.53399 3.69286 3.61430
# Velocity P-wave (km/s) = 6.18235 6.46737 6.32647
#
# Compressibility (1/GPa) = 0.02462361
#
# Stress axis : x y z
#
# Youngs Moduli (GPa) = 70.15591 66.18722 60.50592
#
# Poissons Ratio (x) = 0.44027 0.21498
# Poissons Ratio (y) = 0.46667 0.02592
# Poissons Ratio (z) = 0.24926 0.02835
#
# Static dielectric constant tensor:
#      x y z
#    x 3.572550 0.000000 0.081450 
#    y 0.000000 3.471010 0.000000 
#    z 0.081450 0.000000 3.327480 
# 
# 
# High freq. dielectric constant tensor:
#      x y z
#    x 1.735020 0.000000 0.008990 
#    y 0.000000 1.734700 0.000000 
#    z 0.008990 0.000000 1.716920 
# 
# From -- ./inp_files/226823.got.cif
#   From: 2010.06.25/outbox.cif.g09.slc.cpg/sg12_114_cif.got.tgz:226823.got - 2010.06.28 00:19:55.
