data_PCOD8105286
_publ_section_title
;
Structure prediction by ZEFSAII (Michael W. Deem and Ramdas Pophale) SiO2 
 PCOD8105286
Probable space group: C 2/M
;
_chemical_formula_sum "Si O2"
_cell_formula_units_Z 64
_cell_length_a 23.275112
_cell_length_b 9.181686
_cell_length_c 24.673154
_cell_angle_alpha 90.000000
_cell_angle_beta 139.649115
_cell_angle_gamma 90.000000
_cell_volume 3413.944280
_symmetry_space_group_name_H-M "C 2/M"
_symmetry_group_IT_number 12
_symmetry_cell_setting 'monoclinic'
loop_
_space_group_symop_operation_xyz
x,y,z
-x,y,-z
-x,-y,-z
x,-y,z
1/2+x,1/2+y,z
1/2-x,1/2+y,-z
1/2-x,1/2-y,-z
1/2+x,1/2-y,z
loop_
_atom_site_type_symbol
_atom_site_label
_atom_site_fract_x
_atom_site_fract_y
_atom_site_fract_z
Si Si1 0.134103 0.329915 0.566269
Si Si2 0.970682 0.168959 0.921182
Si Si3 0.299546 0.158854 0.677045
Si Si4 0.847414 0.830961 0.221419
Si Si5 0.550126 0.171092 0.618342
Si Si6 0.002936 0.669127 0.163737
Si Si7 0.820570 0.672570 0.090470
Si Si8 0.195373 0.343421 0.197371
O O1 0.149609 0.500000 0.576384
O O2 0.221102 0.262111 0.598786
O O3 0.115658 0.283786 0.615848
O O4 0.049738 0.286108 0.469537
O O5 0.022317 0.250702 0.910265
O O6 0.867257 0.203435 0.845286
O O7 0.990254 0.000000 0.928382
O O8 0.000000 0.230232 0.000000
O O9 0.400658 0.223825 0.744065
O O10 0.267615 0.141094 0.715845
O O11 0.296671 0.000000 0.646142
O O12 0.930781 0.757714 0.311912
O O13 0.815320 0.744729 0.145404
O O14 0.769134 0.809923 0.207125
O O15 0.867308 0.000000 0.221790
O O16 0.558834 0.000000 0.636604
O O17 0.013976 0.500000 0.157848
O O18 0.922401 0.700359 0.146123
O O19 0.799367 0.500000 0.077277
O O20 0.750000 0.750000 0.000000
O O21 0.149044 0.500000 0.149331
#
# Coordination Sequence:
#
# PCOD8105286 Si02
#       8
#     8   8   8   8   8   8   8   8
#     4   9  17  29  49  81 118 152 183 218 270 329
#     4  10  21  33  50  79 107 132 170 223 274 325
#     4   9  16  31  53  78 108 142 179 218 263 324
#     4  11  22  37  57  82 111 146 189 234 277 328
#     4   9  18  32  50  78 118 155 184 220 270 333
#     4   9  21  40  57  75 104 143 182 220 275 336
#     4  11  25  44  63  82 106 144 189 236 284 331
#     4   9  19  33  49  74 107 144 179 213 269 333
#
# _framework density 18.746645000000001
#
# number of rings (size 3 to 8) (size 9 to 14) (size 15 to 20)
#    0.000    2.375    1.250    2.625    1.750    5.500 
#    0.000    1.250    0.000    0.750    0.000    0.000 
#    0.000    0.000    0.000    0.000    0.000    0.000 
#
# Total GULP energy -396423.581999 kJ/mol
# GULP energy per Si atom -12388.236937 kJ/mol
# Density = 1.870398 g / cm^3
# Si number density = 18.746645 Si / 1000 Ang^3
#
#
#
# Elastic Constant Matrix: (Units=GPa)
#
#
# Indices 1 2 3 4 5 6 
#
# 1 68.9789 22.3454 25.0919 0.0000 14.0929 0.0000
# 2 22.3454 64.1819 37.8385 0.0000 1.2566 0.0001
# 3 25.0919 37.8385 86.8832 0.0000 -1.2279 0.0000
# 4 0.0000 0.0000 0.0000 33.1920 0.0000 0.3418
# 5 14.0929 1.2566 -1.2279 0.0000 28.0720 0.0000
# 6 0.0000 0.0001 0.0000 0.3418 0.0000 21.2171
#
#
#
# Elastic Compliance Matrix: (Units=1/GPa)
#
#
# Indices 1 2 3 4 5 6 
#
# 1 0.019239 -0.004243 -0.003845 0.000000 -0.009637 0.000000
# 2 -0.004243 0.021949 -0.008323 0.000000 0.000784 0.000000
# 3 -0.003845 -0.008323 0.016287 0.000000 0.003015 0.000000
# 4 0.000000 0.000000 0.000000 0.030133 0.000000 -0.000485
# 5 -0.009637 0.000784 0.003015 0.000000 0.040557 0.000000
# 6 0.000000 0.000000 0.000000 -0.000485 0.000000 0.047140
#
#
# Mechanical properties :
#
#
# Convention : Reuss Voigt Hill
#
# Bulk Modulus (GPa) = 40.55960 43.39952 41.97956
# Shear Modulus (GPa) = 23.11135 25.48077 24.29606
#
# Velocity S-wave (km/s) = 3.51497 3.69076 3.60394
# Velocity P-wave (km/s) = 6.17705 6.43141 6.30552
#
# Compressibility (1/GPa) = 0.02465508
#
# Stress axis : x y z
#
# Youngs Moduli (GPa) = 51.97767 45.55969 61.39773
#
# Poissons Ratio (x) = 0.19331 0.23605
# Poissons Ratio (y) = 0.22054 0.51099
# Poissons Ratio (z) = 0.19983 0.37918
#
# Static dielectric constant tensor:
#      x y z
#    x 3.304440 0.000000 0.100980 
#    y 0.000000 3.548740 0.000000 
#    z 0.100980 0.000000 3.454170 
# 
# 
# High freq. dielectric constant tensor:
#      x y z
#    x 1.707860 0.000000 0.014380 
#    y 0.000000 1.730760 0.000000 
#    z 0.014380 0.000000 1.717970 
# 
# From -- ./inp_files/346174.got.cif
#   From: 2010.06.25/outbox.cif.g09.slc.cpg/sg12_174_cif.got.tgz:346174.got - 2010.06.28 00:19:55.
