data_PCOD8105193
_publ_section_title
;
Structure prediction by ZEFSAII (Michael W. Deem and Ramdas Pophale) SiO2 
 PCOD8105193
Probable space group: C 2/M
;
_chemical_formula_sum "Si O2"
_cell_formula_units_Z 44
_cell_length_a 14.348323
_cell_length_b 9.711927
_cell_length_c 17.932289
_cell_angle_alpha 90.000000
_cell_angle_beta 111.770880
_cell_angle_gamma 90.000000
_cell_volume 2320.629352
_symmetry_space_group_name_H-M "C 2/M"
_symmetry_group_IT_number 12
_symmetry_cell_setting 'monoclinic'
loop_
_space_group_symop_operation_xyz
x,y,z
-x,y,-z
-x,-y,-z
x,-y,z
1/2+x,1/2+y,z
1/2-x,1/2+y,-z
1/2-x,1/2-y,-z
1/2+x,1/2-y,z
loop_
_atom_site_type_symbol
_atom_site_label
_atom_site_fract_x
_atom_site_fract_y
_atom_site_fract_z
Si Si1 0.695392 0.340172 0.694059
Si Si2 0.835340 0.708993 0.871552
Si Si3 0.997979 0.500000 0.911031
Si Si4 0.209136 0.500000 0.013980
Si Si5 0.382560 0.500000 0.948518
Si Si6 0.519502 0.843611 0.589531
Si Si7 0.300365 0.845519 0.575367
O O1 0.666071 0.500000 0.684117
O O2 0.745807 0.301252 0.786614
O O3 0.595428 0.252217 0.656059
O O4 0.769666 0.300198 0.648954
O O5 0.935514 0.635333 0.867013
O O6 0.799352 0.635992 0.937250
O O7 0.858008 0.867453 0.892102
O O8 0.000000 0.500000 0.000000
O O9 0.116682 0.500000 0.924589
O O10 0.315460 0.500000 0.003647
O O11 0.500000 0.500000 0.000000
O O12 0.500000 0.788023 0.500000
O O13 0.419392 0.835316 0.607966
O O14 0.561069 0.000000 0.597526
O O15 0.250000 0.750000 0.500000
O O16 0.263636 0.000000 0.546946
#
# Coordination Sequence:
#
# PCOD8105193 Si02
#       7
#     8   8   4   4   4   8   8
#     4  11  22  40  61  86 124 153 199 250 288 349
#     4  10  21  40  60  92 119 149 194 247 298 342
#     4   8  16  38  66  80 111 157 191 230 281 356
#     4  10  20  42  68  84 113 161 197 233 285 370
#     4  12  24  40  62  92 121 152 194 241 297 359
#     4  10  21  38  60  86 120 159 199 246 297 348
#     4  10  21  38  60  86 115 160 204 240 290 349
#
# _framework density 18.960374999999999
#
# number of rings (size 3 to 8) (size 9 to 14) (size 15 to 20)
#    0.000    2.000    3.636    2.182    1.273    1.091 
#    6.545    0.000    0.000    0.000    0.000    0.000 
#    0.000    0.000    0.000    0.000    0.000    0.000 
#
# Total GULP energy -272773.173506 kJ/mol
# GULP energy per Si atom -12398.780614 kJ/mol
# Density = 1.891722 g / cm^3
# Si number density = 18.960375 Si / 1000 Ang^3
#
#
#
# Elastic Constant Matrix: (Units=GPa)
#
#
# Indices 1 2 3 4 5 6 
#
# 1 105.5162 42.1896 38.6404 0.0000 12.0583 0.0000
# 2 42.1896 136.2199 60.7233 0.0000 14.0789 0.0000
# 3 38.6404 60.7233 112.6897 0.0000 27.3357 0.0000
# 4 0.0000 0.0000 0.0000 36.0197 0.0000 10.0021
# 5 12.0583 14.0789 27.3357 0.0000 26.8102 0.0000
# 6 0.0000 0.0000 0.0000 10.0021 0.0000 22.3403
#
#
#
# Elastic Compliance Matrix: (Units=1/GPa)
#
#
# Indices 1 2 3 4 5 6 
#
# 1 0.011434 -0.002371 -0.002255 0.000000 -0.001598 0.000000
# 2 -0.002371 0.010155 -0.004815 0.000000 0.000643 0.000000
# 3 -0.002255 -0.004815 0.015123 0.000000 -0.011876 0.000000
# 4 0.000000 0.000000 0.000000 0.031704 0.000000 -0.014195
# 5 -0.001598 0.000643 -0.011876 0.000000 0.049789 0.000000
# 6 0.000000 0.000000 0.000000 -0.014195 0.000000 0.051117
#
#
# Mechanical properties :
#
#
# Convention : Reuss Voigt Hill
#
# Bulk Modulus (GPa) = 56.08823 70.83694 63.46258
# Shear Modulus (GPa) = 25.75342 31.22552 28.48947
#
# Velocity S-wave (km/s) = 3.68948 4.06258 3.88052
# Velocity P-wave (km/s) = 6.91344 7.71024 7.32268
#
# Compressibility (1/GPa) = 0.01782905
#
# Stress axis : x y z
#
# Youngs Moduli (GPa) = 87.46103 98.46969 66.12440
#
# Poissons Ratio (x) = 0.23343 0.14914
# Poissons Ratio (y) = 0.20734 0.31842
# Poissons Ratio (z) = 0.19727 0.47417
#
# Static dielectric constant tensor:
#      x y z
#    x 3.713490 0.000000 0.260060 
#    y 0.000000 3.446330 0.000000 
#    z 0.260060 0.000000 3.429860 
# 
# 
# High freq. dielectric constant tensor:
#      x y z
#    x 1.733240 0.000000 0.012000 
#    y 0.000000 1.743770 0.000000 
#    z 0.012000 0.000000 1.728270 
# 
# From -- ./inp_files/308677.got.cif
#   From: 2010.06.25/outbox.cif.g09.slc.cpg/sg12_155_cif.got.tgz:308677.got - 2010.06.28 00:19:55.
