data_PCOD8105852
_publ_section_title
;
Structure prediction by ZEFSAII (Michael W. Deem and Ramdas Pophale) SiO2 
 PCOD8105852
Probable space group: C 2/M
;
_chemical_formula_sum "Si O2"
_cell_formula_units_Z 64
_cell_length_a 31.856982
_cell_length_b 15.508160
_cell_length_c 12.396900
_cell_angle_alpha 90.000000
_cell_angle_beta 30.754635
_cell_angle_gamma 90.000000
_cell_volume 3131.893378
_symmetry_space_group_name_H-M "C 2/M"
_symmetry_group_IT_number 12
_symmetry_cell_setting 'monoclinic'
loop_
_space_group_symop_operation_xyz
x,y,z
-x,y,-z
-x,-y,-z
x,-y,z
1/2+x,1/2+y,z
1/2-x,1/2+y,-z
1/2-x,1/2-y,-z
1/2+x,1/2-y,z
loop_
_atom_site_type_symbol
_atom_site_label
_atom_site_fract_x
_atom_site_fract_y
_atom_site_fract_z
Si Si1 0.078518 0.791321 0.402936
Si Si2 0.064101 0.095362 0.644294
Si Si3 0.148743 0.720583 0.788880
Si Si4 0.685664 0.594574 0.023444
Si Si5 0.182520 0.786010 0.496080
Si Si6 0.621532 0.405728 0.929802
Si Si7 0.356229 0.157636 0.591356
Si Si8 0.994758 0.402734 0.883178
O O1 0.058982 0.850657 0.547114
O O2 0.099425 0.695335 0.399772
O O3 0.000000 0.785562 0.500000
O O4 0.157179 0.830945 0.167858
O O5 0.120695 0.135054 0.613371
O O6 0.973382 0.092589 0.892719
O O7 0.097089 0.000000 0.544933
O O8 0.147166 0.717633 0.662324
O O9 0.229456 0.676195 0.661402
O O10 0.159561 0.823188 0.787222
O O11 0.070796 0.670192 0.010838
O O12 0.664342 0.500000 0.118335
O O13 0.783964 0.594017 0.787102
O O14 0.634544 0.607947 0.027599
O O15 0.190416 0.735366 0.366430
O O16 0.660033 0.500000 0.810667
O O17 0.420953 0.112846 0.367442
O O18 0.964722 0.500000 0.921690
O O19 0.000000 0.393713 0.000000
#
# Coordination Sequence:
#
# PCOD8105852 Si02
#       8
#     8   8   8   8   8   8   8   8
#     4  11  22  37  64  91 119 166 210 257 320 386
#     4  10  21  37  57  86 122 155 200 255 311 374
#     4  11  21  40  60  87 127 161 204 253 311 377
#     4  11  22  38  60  91 125 159 209 263 311 373
#     4  10  22  36  59  87 119 162 201 251 314 375
#     4  10  21  35  60  91 123 161 199 248 308 375
#     4  11  22  41  60  90 124 160 211 263 308 366
#     4  11  24  41  66  93 121 167 218 258 306 371
#
# _framework density 20.434923000000001
#
# number of rings (size 3 to 8) (size 9 to 14) (size 15 to 20)
#    0.000    1.375    3.750    2.625    0.000    1.500 
#    0.000    3.125    0.000    4.500    0.000    0.000 
#    0.000    0.000    0.000    0.000    0.000    0.000 
#
# Total GULP energy -396620.506430 kJ/mol
# GULP energy per Si atom -12394.390826 kJ/mol
# Density = 2.038841 g / cm^3
# Si number density = 20.434923 Si / 1000 Ang^3
#
#
#
# Elastic Constant Matrix: (Units=GPa)
#
#
# Indices 1 2 3 4 5 6 
#
# 1 105.4070 39.0353 29.2349 0.0000 -16.1004 0.0000
# 2 39.0353 97.3414 25.0092 0.0000 -10.6323 0.0000
# 3 29.2349 25.0092 102.2805 0.0000 -10.2471 0.0000
# 4 0.0000 0.0000 0.0000 23.9441 0.0000 1.7275
# 5 -16.1004 -10.6323 -10.2471 0.0000 26.6503 0.0000
# 6 0.0000 0.0000 0.0000 1.7275 0.0000 17.8315
#
#
#
# Elastic Compliance Matrix: (Units=1/GPa)
#
#
# Indices 1 2 3 4 5 6 
#
# 1 0.012252 -0.003830 -0.002056 0.000000 0.005083 0.000000
# 2 -0.003830 0.012478 -0.001757 0.000000 0.001989 0.000000
# 3 -0.002056 -0.001757 0.011024 0.000000 0.002296 0.000000
# 4 0.000000 0.000000 0.000000 0.042058 0.000000 -0.004074
# 5 0.005083 0.001989 0.002296 0.000000 0.042270 0.000000
# 6 0.000000 0.000000 0.000000 -0.004074 0.000000 0.056475
#
#
# Mechanical properties :
#
#
# Convention : Reuss Voigt Hill
#
# Bulk Modulus (GPa) = 48.85705 54.62085 51.73895
# Shear Modulus (GPa) = 25.16784 27.80181 26.48483
#
# Velocity S-wave (km/s) = 3.51324 3.69250 3.60398
# Velocity P-wave (km/s) = 6.35749 6.70572 6.53392
#
# Compressibility (1/GPa) = 0.02046787
#
# Stress axis : x y z
#
# Youngs Moduli (GPa) = 81.61884 80.14409 90.70780
#
# Poissons Ratio (x) = 0.30693 0.18652
# Poissons Ratio (y) = 0.31258 0.15938
# Poissons Ratio (z) = 0.16783 0.14082
#
# Static dielectric constant tensor:
#      x y z
#    x 3.734150 0.000000 -0.079070 
#    y 0.000000 3.832960 0.000000 
#    z -0.079070 0.000000 3.537200 
# 
# 
# High freq. dielectric constant tensor:
#      x y z
#    x 1.795460 0.000000 -0.007790 
#    y 0.000000 1.793870 0.000000 
#    z -0.007790 0.000000 1.791890 
# 
# From -- ./inp_files/190042.got.cif
#   From: 2010.06.25/outbox.cif.g09.slc.cpg/sg12_96_cif.got.tgz:190042.got - 2010.06.28 00:19:55.
