data_PCOD8105498
_publ_section_title
;
Structure prediction by ZEFSAII (Michael W. Deem and Ramdas Pophale) SiO2 
 PCOD8105498
Probable space group: C 2/M
;
_chemical_formula_sum "Si O2"
_cell_formula_units_Z 56
_cell_length_a 18.007235
_cell_length_b 9.432166
_cell_length_c 20.427569
_cell_angle_alpha 90.000000
_cell_angle_beta 61.473956
_cell_angle_gamma 90.000000
_cell_volume 3048.361135
_symmetry_space_group_name_H-M "C 2/M"
_symmetry_group_IT_number 12
_symmetry_cell_setting 'monoclinic'
loop_
_space_group_symop_operation_xyz
x,y,z
-x,y,-z
-x,-y,-z
x,-y,z
1/2+x,1/2+y,z
1/2-x,1/2+y,-z
1/2-x,1/2-y,-z
1/2+x,1/2-y,z
loop_
_atom_site_type_symbol
_atom_site_label
_atom_site_fract_x
_atom_site_fract_y
_atom_site_fract_z
Si Si1 0.631017 0.662787 0.095633
Si Si2 0.709179 0.660923 0.935555
Si Si3 0.246262 0.664193 0.656060
Si Si4 0.563590 0.164964 0.233273
Si Si5 0.757646 0.660078 0.777724
Si Si6 0.100724 0.332950 0.619117
Si Si7 0.089046 0.834925 0.492214
O O1 0.621551 0.500000 0.121163
O O2 0.723545 0.719031 0.075088
O O3 0.560844 0.752574 0.164627
O O4 0.626509 0.678949 0.017561
O O5 0.746449 0.500000 0.930431
O O6 0.689929 0.677401 0.865986
O O7 0.233331 0.500000 0.676011
O O8 0.228045 0.742003 0.731447
O O9 0.179141 0.715442 0.630522
O O10 0.340319 0.698485 0.591731
O O11 0.649224 0.203249 0.235739
O O12 0.485500 0.216306 0.309857
O O13 0.556472 0.000000 0.219916
O O14 0.759585 0.500000 0.750481
O O15 0.101340 0.500000 0.605116
O O16 0.110480 0.253994 0.546896
O O17 0.000000 0.785619 0.500000
O O18 0.088247 0.000000 0.511691
#
# Coordination Sequence:
#
# PCOD8105498 Si02
#       7
#     8   8   8   8   8   8   8
#     4   9  15  24  43  70  97 126 161 202 247 290
#     4   8  15  27  42  66 100 130 160 201 244 287
#     4  10  21  35  50  72 101 129 160 199 241 287
#     4   9  18  32  48  69  98 128 162 205 245 284
#     4   9  17  30  49  71  95 126 162 199 240 285
#     4  10  21  36  53  72  97 131 166 198 236 287
#     4  10  21  36  54  77 103 126 153 198 248 288
#
# _framework density 18.370526000000002
#
# number of rings (size 3 to 8) (size 9 to 14) (size 15 to 20)
#    0.000    2.714    0.000    2.571    0.000    4.857 
#    0.000    0.000    0.000    0.857    0.000    6.000 
#    0.000    0.000    0.000    0.000    0.000    0.000 
#
# Total GULP energy -347039.956615 kJ/mol
# GULP energy per Si atom -12394.284165 kJ/mol
# Density = 1.832871 g / cm^3
# Si number density = 18.370526 Si / 1000 Ang^3
#
#
#
# Elastic Constant Matrix: (Units=GPa)
#
#
# Indices 1 2 3 4 5 6 
#
# 1 56.4093 23.6566 28.5175 0.0000 20.9895 0.0001
# 2 23.6566 60.0125 49.0506 -0.0001 14.0084 0.0000
# 3 28.5175 49.0506 111.1199 0.0000 27.6737 0.0000
# 4 0.0000 -0.0001 0.0000 35.7841 0.0000 5.5476
# 5 20.9895 14.0084 27.6737 0.0000 17.7102 0.0000
# 6 0.0001 0.0000 0.0000 5.5476 0.0000 17.1960
#
#
#
# Elastic Compliance Matrix: (Units=1/GPa)
#
#
# Indices 1 2 3 4 5 6 
#
# 1 0.034195 -0.007876 0.005308 0.000000 -0.042591 0.000000
# 2 -0.007876 0.028086 -0.011735 0.000000 0.005456 0.000000
# 3 0.005308 -0.011735 0.019763 0.000000 -0.027890 0.000000
# 4 0.000000 0.000000 0.000000 0.029417 0.000000 -0.009490
# 5 -0.042591 0.005456 -0.027890 0.000000 0.146207 0.000000
# 6 0.000000 0.000000 0.000000 -0.009490 0.000000 0.061215
#
#
# Mechanical properties :
#
#
# Convention : Reuss Voigt Hill
#
# Bulk Modulus (GPa) = 18.71354 47.77679 33.24516
# Shear Modulus (GPa) = 13.68732 22.55919 18.12326
#
# Velocity S-wave (km/s) = 2.73256 3.50810 3.14433
# Velocity P-wave (km/s) = 4.49051 6.51711 5.59631
#
# Compressibility (1/GPa) = 0.05343725
#
# Stress axis : x y z
#
# Youngs Moduli (GPa) = 29.24400 35.60498 50.59944
#
# Poissons Ratio (x) = 0.28043 -0.26858
# Poissons Ratio (y) = 0.23033 0.59380
# Poissons Ratio (z) = -0.15523 0.41784
#
# Static dielectric constant tensor:
#      x y z
#    x 3.064870 0.000000 -0.108430 
#    y 0.000000 3.342090 0.000000 
#    z -0.108430 0.000000 3.735420 
# 
# 
# High freq. dielectric constant tensor:
#      x y z
#    x 1.666100 0.000000 -0.003800 
#    y 0.000000 1.711450 0.000000 
#    z -0.003800 0.000000 1.734440 
# 
# From -- ./inp_files/275352.got.cif
#   From: 2010.06.25/outbox.cif.g09.slc.cpg/sg12_138_cif.got.tgz:275352.got - 2010.06.28 00:19:55.
