data_PCOD8105689
_publ_section_title
;
Structure prediction by ZEFSAII (Michael W. Deem and Ramdas Pophale) SiO2 
 PCOD8105689
Probable space group: C 2/M
;
_chemical_formula_sum "Si O2"
_cell_formula_units_Z 44
_cell_length_a 9.167162
_cell_length_b 19.094796
_cell_length_c 14.575223
_cell_angle_alpha 90.000000
_cell_angle_beta 55.444031
_cell_angle_gamma 90.000000
_cell_volume 2101.197990
_symmetry_space_group_name_H-M "C 2/M"
_symmetry_group_IT_number 12
_symmetry_cell_setting 'monoclinic'
loop_
_space_group_symop_operation_xyz
x,y,z
-x,y,-z
-x,-y,-z
x,-y,z
1/2+x,1/2+y,z
1/2-x,1/2+y,-z
1/2-x,1/2-y,-z
1/2+x,1/2-y,z
loop_
_atom_site_type_symbol
_atom_site_label
_atom_site_fract_x
_atom_site_fract_y
_atom_site_fract_z
Si Si1 0.376183 0.579858 0.800738
Si Si2 0.840002 0.579852 0.949012
Si Si3 0.500000 0.359882 0.000000
Si Si4 0.820153 0.080444 0.608940
Si Si5 0.859436 0.811062 0.226225
Si Si6 0.989615 0.670456 0.262418
O O1 0.426251 0.500000 0.803013
O O2 0.317903 0.592465 0.718373
O O3 0.558737 0.621447 0.752055
O O4 0.207037 0.600172 0.927482
O O5 0.914766 0.500000 0.915846
O O6 0.657840 0.585675 0.958432
O O7 0.968735 0.633807 0.850807
O O8 0.469057 0.305309 0.093054
O O9 0.652420 0.123662 0.630870
O O10 0.000000 0.110023 0.500000
O O11 0.795555 0.000000 0.589473
O O12 0.652815 0.819618 0.274189
O O13 0.895381 0.743933 0.275436
#
# Coordination Sequence:
#
# PCOD8105689 Si02
#       6
#     8   8   4   8   8   8
#     4   9  19  37  59  83 114 147 182 228 278 329
#     4   9  17  30  53  83 111 144 184 225 273 327
#     4   8  17  30  50  78 117 152 176 224 273 326
#     4  10  22  41  62  83 109 142 181 229 282 330
#     4  10  21  35  54  84 116 151 187 222 274 327
#     4  11  22  36  56  82 115 149 185 228 271 327
#
# _framework density 20.940435000000001
#
# number of rings (size 3 to 8) (size 9 to 14) (size 15 to 20)
#    0.000    2.364    0.000    1.909    0.000   13.818 
#    0.000    7.273    0.000    3.273    0.000    0.000 
#    0.000    0.000    0.000    0.000    0.000    0.000 
#
# Total GULP energy -272618.399655 kJ/mol
# GULP energy per Si atom -12391.745439 kJ/mol
# Density = 2.089277 g / cm^3
# Si number density = 20.940435 Si / 1000 Ang^3
#
#
#
# Elastic Constant Matrix: (Units=GPa)
#
#
# Indices 1 2 3 4 5 6 
#
# 1 71.3077 46.3864 18.7611 0.0000 -30.2175 0.0000
# 2 46.3864 91.5653 32.6054 0.0000 -25.3400 0.0000
# 3 18.7611 32.6054 56.1713 0.0000 -26.3375 0.0000
# 4 0.0000 0.0000 0.0000 18.4565 0.0000 -8.7414
# 5 -30.2175 -25.3400 -26.3375 0.0000 29.3016 0.0000
# 6 0.0000 0.0000 0.0000 -8.7414 0.0000 26.4660
#
#
#
# Elastic Compliance Matrix: (Units=1/GPa)
#
#
# Indices 1 2 3 4 5 6 
#
# 1 0.033132 -0.011327 0.011989 0.000000 0.035149 0.000000
# 2 -0.011327 0.018869 -0.008634 0.000000 -0.003123 0.000000
# 3 0.011989 -0.008634 0.036481 0.000000 0.037688 0.000000
# 4 0.000000 0.000000 0.000000 0.064229 0.000000 0.021214
# 5 0.035149 -0.003123 0.037688 0.000000 0.101550 0.000000
# 6 0.000000 0.000000 0.000000 0.021214 0.000000 0.044791
#
#
# Mechanical properties :
#
#
# Convention : Reuss Voigt Hill
#
# Bulk Modulus (GPa) = 13.78566 46.06112 29.92339
# Shear Modulus (GPa) = 14.74162 22.93092 18.83627
#
# Velocity S-wave (km/s) = 2.65614 3.31275 3.00245
# Velocity P-wave (km/s) = 4.00054 6.05611 5.13229
#
# Compressibility (1/GPa) = 0.07253913
#
# Stress axis : x y z
#
# Youngs Moduli (GPa) = 30.18203 52.99579 27.41142
#
# Poissons Ratio (x) = 0.60026 -0.32864
# Poissons Ratio (y) = 0.34186 0.23668
# Poissons Ratio (z) = -0.36186 0.45759
#
# Static dielectric constant tensor:
#      x y z
#    x 3.867220 0.000000 -0.092520 
#    y 0.000000 3.709610 0.000000 
#    z -0.092520 0.000000 3.724890 
# 
# 
# High freq. dielectric constant tensor:
#      x y z
#    x 1.826000 0.000000 -0.008780 
#    y 0.000000 1.814960 0.000000 
#    z -0.008780 0.000000 1.793830 
# 
# From -- ./inp_files/195867.got.cif
#   From: 2010.06.25/outbox.cif.g09.slc.cpg/sg12_98_cif.got.tgz:195867.got - 2010.06.28 00:19:55.
