data_PCOD8105819
_publ_section_title
;
Structure prediction by ZEFSAII (Michael W. Deem and Ramdas Pophale) SiO2 
 PCOD8105819
Probable space group: C 2/M
;
_chemical_formula_sum "Si O2"
_cell_formula_units_Z 40
_cell_length_a 13.286464
_cell_length_b 13.919135
_cell_length_c 14.523018
_cell_angle_alpha 90.000000
_cell_angle_beta 41.392709
_cell_angle_gamma 90.000000
_cell_volume 1775.914933
_symmetry_space_group_name_H-M "C 2/M"
_symmetry_group_IT_number 12
_symmetry_cell_setting 'monoclinic'
loop_
_space_group_symop_operation_xyz
x,y,z
-x,y,-z
-x,-y,-z
x,-y,z
1/2+x,1/2+y,z
1/2-x,1/2+y,-z
1/2-x,1/2-y,-z
1/2+x,1/2-y,z
loop_
_atom_site_type_symbol
_atom_site_label
_atom_site_fract_x
_atom_site_fract_y
_atom_site_fract_z
Si Si1 0.415499 0.109540 0.470829
Si Si2 0.653697 0.207949 0.845098
Si Si3 0.203997 0.113138 0.090860
Si Si4 0.614058 0.391463 0.775533
Si Si5 0.511884 0.113759 0.778865
O O1 0.500000 0.160845 0.500000
O O2 0.233839 0.115161 0.609603
O O3 0.462813 0.156403 0.341164
O O4 0.473835 0.000000 0.427743
O O5 0.789626 0.167343 0.814877
O O6 0.666159 0.323655 0.824657
O O7 0.645812 0.160117 0.749263
O O8 0.500000 0.174982 0.000000
O O9 0.048387 0.146194 0.149079
O O10 0.203642 0.000000 0.110701
O O11 0.342881 0.143790 0.928791
O O12 0.604362 0.500000 0.821008
O O13 0.534314 0.000000 0.767053
#
# Coordination Sequence:
#
# PCOD8105819 Si02
#       5
#     8   8   8   8   8
#     4   9  19  36  56  80 114 153 189 229 282 341
#     4  10  21  35  58  87 116 148 189 234 284 339
#     4   9  19  38  62  86 113 146 188 238 285 332
#     4  10  22  38  56  82 117 153 190 233 279 331
#     4   9  18  35  59  84 112 149 191 234 284 340
#
# _framework density 22.523603000000001
#
# number of rings (size 3 to 8) (size 9 to 14) (size 15 to 20)
#    0.000    2.600    0.000    0.600    0.000   10.000 
#    0.000    5.000    0.000    6.000    0.000    0.000 
#    0.000    0.000    0.000    0.000    0.000    0.000 
#
# Total GULP energy -247988.885411 kJ/mol
# GULP energy per Si atom -12399.444271 kJ/mol
# Density = 2.247234 g / cm^3
# Si number density = 22.523603 Si / 1000 Ang^3
#
#
#
# Elastic Constant Matrix: (Units=GPa)
#
#
# Indices 1 2 3 4 5 6 
#
# 1 87.0721 43.7233 42.4204 -0.0002 17.7581 0.0002
# 2 43.7233 60.6976 22.5371 0.0000 7.0478 0.0000
# 3 42.4204 22.5371 78.4514 -0.0001 15.8104 0.0001
# 4 -0.0002 0.0000 -0.0001 16.0242 0.0000 7.9899
# 5 17.7581 7.0478 15.8104 0.0000 41.6466 0.0000
# 6 0.0002 0.0000 0.0001 7.9899 0.0000 31.4716
#
#
#
# Elastic Compliance Matrix: (Units=1/GPa)
#
#
# Indices 1 2 3 4 5 6 
#
# 1 0.022612 -0.012940 -0.007588 0.000000 -0.004571 0.000000
# 2 -0.012940 0.025903 -0.000729 0.000000 0.001411 0.000000
# 3 -0.007588 -0.000729 0.017739 0.000000 -0.003376 0.000000
# 4 0.000000 0.000000 0.000000 0.071451 0.000000 -0.018140
# 5 -0.004571 0.001411 -0.003376 0.000000 0.027003 0.000000
# 6 0.000000 0.000000 0.000000 -0.018140 0.000000 0.036380
#
#
# Mechanical properties :
#
#
# Convention : Reuss Voigt Hill
#
# Bulk Modulus (GPa) = 42.12174 49.28698 45.70436
# Shear Modulus (GPa) = 19.87952 25.66449 22.77201
#
# Velocity S-wave (km/s) = 2.97410 3.37923 3.18312
# Velocity P-wave (km/s) = 5.52589 6.09553 5.81769
#
# Compressibility (1/GPa) = 0.02374071
#
# Stress axis : x y z
#
# Youngs Moduli (GPa) = 44.22505 38.60528 56.37181
#
# Poissons Ratio (x) = 0.49955 0.42775
# Poissons Ratio (y) = 0.57227 0.04108
# Poissons Ratio (z) = 0.33558 0.02813
#
# Static dielectric constant tensor:
#      x y z
#    x 4.153180 0.000000 0.160200 
#    y 0.000000 3.893140 0.000000 
#    z 0.160200 0.000000 4.033980 
# 
# 
# High freq. dielectric constant tensor:
#      x y z
#    x 1.885030 0.000000 0.006990 
#    y 0.000000 1.881700 0.000000 
#    z 0.006990 0.000000 1.870270 
# 
# From -- ./inp_files/204158.got.cif
#   From: 2010.06.25/outbox.cif.g09.slc.cpg/sg12_103_cif.got.tgz:204158.got - 2010.06.28 00:19:55.
