data_PCOD8105426
_publ_section_title
;
Structure prediction by ZEFSAII (Michael W. Deem and Ramdas Pophale) SiO2 
 PCOD8105426
Probable space group: C 2/M
;
_chemical_formula_sum "Si O2"
_cell_formula_units_Z 44
_cell_length_a 15.377647
_cell_length_b 19.953707
_cell_length_c 8.516525
_cell_angle_alpha 90.000000
_cell_angle_beta 49.158022
_cell_angle_gamma 90.000000
_cell_volume 1976.942741
_symmetry_space_group_name_H-M "C 2/M"
_symmetry_group_IT_number 12
_symmetry_cell_setting 'monoclinic'
loop_
_space_group_symop_operation_xyz
x,y,z
-x,y,-z
-x,-y,-z
x,-y,z
1/2+x,1/2+y,z
1/2-x,1/2+y,-z
1/2-x,1/2-y,-z
1/2+x,1/2-y,z
loop_
_atom_site_type_symbol
_atom_site_label
_atom_site_fract_x
_atom_site_fract_y
_atom_site_fract_z
Si Si1 0.122650 0.573462 0.366105
Si Si2 0.791309 0.575892 0.087017
Si Si3 0.421156 0.747345 0.358664
Si Si4 0.655370 0.307105 0.129213
Si Si5 0.000000 0.351365 0.000000
Si Si6 0.282213 0.674713 0.282644
O O1 0.099670 0.500000 0.462178
O O2 0.173775 0.573080 0.134060
O O3 0.209499 0.606472 0.387739
O O4 0.000000 0.612411 0.500000
O O5 0.753000 0.500000 0.184669
O O6 0.896263 0.600699 0.069788
O O7 0.689551 0.632347 0.209027
O O8 0.531752 0.722447 0.325523
O O9 0.455300 0.806084 0.196517
O O10 0.368193 0.684806 0.324652
O O11 0.319718 0.768095 0.600476
O O12 0.750000 0.250000 0.000000
O O13 0.642975 0.330793 0.963191
#
# Coordination Sequence:
#
# PCOD8105426 Si02
#       6
#     8   8   8   8   4   8
#     4   9  18  33  52  78 109 144 186 229 279 335
#     4  10  21  34  55  81 111 151 186 228 287 338
#     4  11  21  35  55  85 113 148 188 232 283 331
#     4  11  20  37  57  82 116 147 188 236 275 335
#     4  12  19  36  52  80 119 144 188 236 277 328
#     4  10  21  34  55  82 114 144 185 234 281 333
#
# _framework density 22.256587
#
# number of rings (size 3 to 8) (size 9 to 14) (size 15 to 20)
#    0.000    1.636    3.636    1.364    2.545    0.000 
#    0.000    1.818    0.000    4.364    0.000   12.727 
#    0.000    0.000    0.000    0.000    0.000    0.000 
#
# Total GULP energy -272568.167566 kJ/mol
# GULP energy per Si atom -12389.462162 kJ/mol
# Density = 2.220593 g / cm^3
# Si number density = 22.256587 Si / 1000 Ang^3
#
#
#
# Elastic Constant Matrix: (Units=GPa)
#
#
# Indices 1 2 3 4 5 6 
#
# 1 132.8043 61.8365 6.8260 0.0000 -22.0271 0.0000
# 2 61.8365 123.4287 0.7351 0.0000 -5.4901 0.0000
# 3 6.8260 0.7351 44.2984 0.0000 -6.5004 0.0000
# 4 0.0000 0.0000 0.0000 13.5549 0.0000 -8.0797
# 5 -22.0271 -5.4901 -6.5004 0.0000 27.5833 0.0000
# 6 0.0000 0.0000 0.0000 -8.0797 0.0000 39.7265
#
#
#
# Elastic Compliance Matrix: (Units=1/GPa)
#
#
# Indices 1 2 3 4 5 6 
#
# 1 0.011344 -0.005330 -0.000503 0.000000 0.007880 0.000000
# 2 -0.005330 0.010679 0.000343 0.000000 -0.002050 0.000000
# 3 -0.000503 0.000343 0.023407 0.000000 0.005182 0.000000
# 4 0.000000 0.000000 0.000000 0.083952 0.000000 0.017074
# 5 0.007880 -0.002050 0.005182 0.000000 0.043360 0.000000
# 6 0.000000 0.000000 0.000000 0.017074 0.000000 0.028645
#
#
# Mechanical properties :
#
#
# Convention : Reuss Voigt Hill
#
# Bulk Modulus (GPa) = 29.02772 48.81407 38.92089
# Shear Modulus (GPa) = 22.33644 31.58184 26.95914
#
# Velocity S-wave (km/s) = 3.17138 3.77103 3.48413
# Velocity P-wave (km/s) = 5.14595 6.39851 5.80611
#
# Compressibility (1/GPa) = 0.03444983
#
# Stress axis : x y z
#
# Youngs Moduli (GPa) = 88.14895 93.64291 42.72310
#
# Poissons Ratio (x) = 0.49911 0.02150
# Poissons Ratio (y) = 0.46983 -0.01467
# Poissons Ratio (z) = 0.04437 -0.03215
#
# Static dielectric constant tensor:
#      x y z
#    x 4.096460 0.000000 -0.079510 
#    y 0.000000 4.609540 0.000000 
#    z -0.079510 0.000000 4.070670 
# 
# 
# High freq. dielectric constant tensor:
#      x y z
#    x 1.879090 0.000000 0.000960 
#    y 0.000000 1.860550 0.000000 
#    z 0.000960 0.000000 1.863970 
# 
# From -- ./inp_files/63270.got.cif
#   From: 2010.06.25/outbox.cif.g09.slc.cpg/sg12_32_cif.got.tgz:63270.got - 2010.06.28 00:19:55.
