data_PCOD8105650
_publ_section_title
;
Structure prediction by ZEFSAII (Michael W. Deem and Ramdas Pophale) SiO2 
 PCOD8105650
Probable space group: C 2/M
;
_chemical_formula_sum "Si O2"
_cell_formula_units_Z 56
_cell_length_a 8.724803
_cell_length_b 19.686505
_cell_length_c 32.299628
_cell_angle_alpha 90.000000
_cell_angle_beta 149.756519
_cell_angle_gamma 90.000000
_cell_volume 2794.298260
_symmetry_space_group_name_H-M "C 2/M"
_symmetry_group_IT_number 12
_symmetry_cell_setting 'monoclinic'
loop_
_space_group_symop_operation_xyz
x,y,z
-x,y,-z
-x,-y,-z
x,-y,z
1/2+x,1/2+y,z
1/2-x,1/2+y,-z
1/2-x,1/2-y,-z
1/2+x,1/2-y,z
loop_
_atom_site_type_symbol
_atom_site_label
_atom_site_fract_x
_atom_site_fract_y
_atom_site_fract_z
Si Si1 0.155311 0.076853 0.755678
Si Si2 0.713465 0.389284 0.408306
Si Si3 0.579449 0.739223 0.559723
Si Si4 0.869902 0.646691 0.690354
Si Si5 0.981292 0.078938 0.807692
Si Si6 0.099094 0.688408 0.827424
Si Si7 0.828172 0.807401 0.092380
O O1 0.454648 0.121073 0.814702
O O2 0.873192 0.080668 0.657022
O O3 0.027398 0.099235 0.770554
O O4 0.274601 0.000000 0.785102
O O5 0.762529 0.309658 0.414652
O O6 0.424141 0.400380 0.370797
O O7 0.000000 0.423227 0.500000
O O8 0.500000 0.696492 0.500000
O O9 0.822216 0.698688 0.642431
O O10 0.250000 0.750000 0.500000
O O11 0.140918 0.596123 0.742668
O O12 0.927898 0.695362 0.743589
O O13 0.204665 0.122763 0.889258
O O14 0.048725 0.000000 0.831214
O O15 0.040902 0.750778 0.845109
O O16 0.456529 0.682913 0.897941
O O17 0.500000 0.784000 0.000000
#
# Coordination Sequence:
#
# PCOD8105650 Si02
#       7
#     8   8   8   8   8   8   8
#     4  10  23  42  62  84 120 163 205 247 289 349
#     4  10  21  35  53  85 116 155 202 245 302 340
#     4  11  21  33  52  84 121 152 197 250 303 348
#     4  10  22  35  58  84 116 161 194 249 290 347
#     4  10  24  42  62  87 116 159 202 241 294 357
#     4  10  23  38  63  92 121 156 195 238 294 353
#     4  11  23  40  66  96 124 151 185 242 296 353
#
# _framework density 20.04081
#
# number of rings (size 3 to 8) (size 9 to 14) (size 15 to 20)
#    0.000    1.714    2.857    1.286   12.000    5.714 
#    0.000    0.000    0.000    4.286    0.000    0.000 
#    0.000    0.000    0.000    0.000    0.000    0.000 
#
# Total GULP energy -346909.973138 kJ/mol
# GULP energy per Si atom -12389.641898 kJ/mol
# Density = 1.999520 g / cm^3
# Si number density = 20.040810 Si / 1000 Ang^3
#
#
#
# Elastic Constant Matrix: (Units=GPa)
#
#
# Indices 1 2 3 4 5 6 
#
# 1 121.9958 33.4800 41.5820 -0.0177 -2.8978 -0.0052
# 2 33.4800 88.1177 30.3768 -0.0055 -10.9737 0.0035
# 3 41.5820 30.3768 88.8774 -0.0064 5.4795 -0.0059
# 4 -0.0177 -0.0055 -0.0064 12.0791 -0.0132 -2.3134
# 5 -2.8978 -10.9737 5.4795 -0.0132 32.8668 -0.0043
# 6 -0.0052 0.0035 -0.0059 -2.3134 -0.0043 30.1807
#
#
#
# Elastic Compliance Matrix: (Units=1/GPa)
#
#
# Indices 1 2 3 4 5 6 
#
# 1 0.010246 -0.002413 -0.004017 0.000013 0.000767 0.000002
# 2 -0.002413 0.014331 -0.004093 0.000006 0.005254 -0.000002
# 3 -0.004017 -0.004093 0.014788 -0.000004 -0.004186 0.000002
# 4 0.000013 0.000006 -0.000004 0.084021 0.000039 0.006440
# 5 0.000767 0.005254 -0.004186 0.000039 0.032946 0.000006
# 6 0.000002 -0.000002 0.000002 0.006440 0.000006 0.033627
#
#
# Mechanical properties :
#
#
# Convention : Reuss Voigt Hill
#
# Bulk Modulus (GPa) = 54.58574 56.65205 55.61889
# Shear Modulus (GPa) = 23.02976 27.92880 25.47928
#
# Velocity S-wave (km/s) = 3.39358 3.73714 3.56950
# Velocity P-wave (km/s) = 6.53082 6.85210 6.69339
#
# Compressibility (1/GPa) = 0.01831980
#
# Stress axis : x y z
#
# Youngs Moduli (GPa) = 97.59482 69.78095 67.62425
#
# Poissons Ratio (x) = 0.16838 0.27161
# Poissons Ratio (y) = 0.23549 0.27678
# Poissons Ratio (z) = 0.39199 0.28561
#
# Static dielectric constant tensor:
#      x y z
#    x 3.857850 -0.000010 -0.129390 
#    y -0.000010 3.483090 -0.000010 
#    z -0.129390 -0.000010 3.826150 
# 
# 
# High freq. dielectric constant tensor:
#      x y z
#    x 1.801910 0.000000 -0.003480 
#    y 0.000000 1.760160 0.000000 
#    z -0.003480 0.000000 1.779760 
# 
# From -- ./inp_files/373183.got.cif
#   From: 2010.06.25/outbox.cif.g09.slc.cpg/sg12_187_cif.got.tgz:373183.got - 2010.06.28 00:19:55.
