data_PCOD8105751
_publ_section_title
;
Structure prediction by ZEFSAII (Michael W. Deem and Ramdas Pophale) SiO2 
 PCOD8105751
Probable space group: C 2/M
;
_chemical_formula_sum "Si O2"
_cell_formula_units_Z 64
_cell_length_a 28.119980
_cell_length_b 19.354008
_cell_length_c 12.176289
_cell_angle_alpha 90.000000
_cell_angle_beta 29.177690
_cell_angle_gamma 90.000000
_cell_volume 3230.673427
_symmetry_space_group_name_H-M "C 2/M"
_symmetry_group_IT_number 12
_symmetry_cell_setting 'monoclinic'
loop_
_space_group_symop_operation_xyz
x,y,z
-x,y,-z
-x,-y,-z
x,-y,z
1/2+x,1/2+y,z
1/2-x,1/2+y,-z
1/2-x,1/2-y,-z
1/2+x,1/2-y,z
loop_
_atom_site_type_symbol
_atom_site_label
_atom_site_fract_x
_atom_site_fract_y
_atom_site_fract_z
Si Si1 0.108174 0.833415 0.328707
Si Si2 0.712279 0.421908 0.525569
Si Si3 0.924100 0.681490 0.557885
Si Si4 0.472815 0.220238 0.219204
Si Si5 0.840925 0.699295 0.292533
Si Si6 0.135426 0.921542 0.911022
Si Si7 0.927813 0.131141 0.363183
Si Si8 0.747946 0.080422 0.111245
O O1 0.134612 0.752234 0.294040
O O2 0.117811 0.873623 0.424045
O O3 0.000000 0.837716 0.500000
O O4 0.178815 0.872729 0.105187
O O5 0.751051 0.500000 0.460746
O O6 0.801870 0.371670 0.316187
O O7 0.668489 0.391673 0.727329
O O8 0.629009 0.421757 0.600430
O O9 0.977644 0.688285 0.331654
O O10 0.857399 0.613868 0.689235
O O11 0.000000 0.665421 0.500000
O O12 0.401910 0.178311 0.279362
O O13 0.417406 0.293250 0.333174
O O14 0.582845 0.229693 0.950788
O O15 0.750000 0.750000 0.500000
O O16 0.223316 0.913860 0.819380
O O17 0.103389 0.000000 0.958764
O O18 0.042076 0.882496 0.144591
O O19 0.748206 0.000000 0.072176
#
# Coordination Sequence:
#
# PCOD8105751 Si02
#       8
#     8   8   8   8   8   8   8   8
#     4  10  21  40  60  87 120 156 200 251 310 363
#     4  11  23  37  57  89 124 159 197 244 307 360
#     4  10  23  43  61  88 122 161 208 260 299 357
#     4  10  23  39  63  92 117 164 214 243 309 359
#     4  11  21  40  63  90 125 160 204 256 297 359
#     4  10  21  35  56  85 123 161 192 240 307 373
#     4  11  20  36  58  87 122 154 197 255 303 362
#     4  11  23  40  64  89 119 166 207 247 305 365
#
# _framework density 19.810110999999999
#
# number of rings (size 3 to 8) (size 9 to 14) (size 15 to 20)
#    0.000    1.500    2.500    2.625    1.750    3.500 
#    0.000    1.875    0.000    0.000    0.000    0.000 
#    0.000    0.000    0.000    0.000    0.000    0.000 
#
# Total GULP energy -396744.014041 kJ/mol
# GULP energy per Si atom -12398.250439 kJ/mol
# Density = 1.976502 g / cm^3
# Si number density = 19.810111 Si / 1000 Ang^3
#
#
#
# Elastic Constant Matrix: (Units=GPa)
#
#
# Indices 1 2 3 4 5 6 
#
# 1 120.1035 32.6233 39.8170 0.0000 5.8949 0.0000
# 2 32.6233 77.0575 27.9301 0.0000 -4.4706 0.0000
# 3 39.8170 27.9301 83.6635 0.0000 1.6893 0.0000
# 4 0.0000 0.0000 0.0000 24.7436 0.0000 -4.1175
# 5 5.8949 -4.4706 1.6893 0.0000 30.8879 0.0000
# 6 0.0000 0.0000 0.0000 -4.1175 0.0000 31.0898
#
#
#
# Elastic Compliance Matrix: (Units=1/GPa)
#
#
# Indices 1 2 3 4 5 6 
#
# 1 0.010611 -0.003197 -0.003937 0.000000 -0.002273 0.000000
# 2 -0.003197 0.015908 -0.003852 0.000000 0.003123 0.000000
# 3 -0.003937 -0.003852 0.015125 0.000000 -0.000633 0.000000
# 4 0.000000 0.000000 0.000000 0.041325 0.000000 0.005473
# 5 -0.002273 0.003123 -0.000633 0.000000 0.033296 0.000000
# 6 0.000000 0.000000 0.000000 0.005473 0.000000 0.032890
#
#
# Mechanical properties :
#
#
# Convention : Reuss Voigt Hill
#
# Bulk Modulus (GPa) = 50.83371 53.50724 52.17047
# Shear Modulus (GPa) = 28.13960 29.37455 28.75707
#
# Velocity S-wave (km/s) = 3.77300 3.85490 3.81417
# Velocity P-wave (km/s) = 6.68557 6.84707 6.76680
#
# Compressibility (1/GPa) = 0.01967199
#
# Stress axis : x y z
#
# Youngs Moduli (GPa) = 94.23892 62.85963 66.11540
#
# Poissons Ratio (x) = 0.20098 0.26029
# Poissons Ratio (y) = 0.30132 0.25469
# Poissons Ratio (z) = 0.37100 0.24215
#
# Static dielectric constant tensor:
#      x y z
#    x 3.661510 0.000000 0.109840 
#    y 0.000000 3.622530 0.000000 
#    z 0.109840 0.000000 3.641650 
# 
# 
# High freq. dielectric constant tensor:
#      x y z
#    x 1.784130 0.000000 0.008600 
#    y 0.000000 1.765240 0.000000 
#    z 0.008600 0.000000 1.760090 
# 
# From -- ./inp_files/190035.got.cif
#   From: 2010.06.25/outbox.cif.g09.slc.cpg/sg12_96_cif.got.tgz:190035.got - 2010.06.28 00:19:55.
