data_PCOD8105144
_publ_section_title
;
Structure prediction by ZEFSAII (Michael W. Deem and Ramdas Pophale) SiO2 
 PCOD8105144
Probable space group: C 2/M
;
_chemical_formula_sum "Si O2"
_cell_formula_units_Z 64
_cell_length_a 27.925506
_cell_length_b 13.053698
_cell_length_c 18.038847
_cell_angle_alpha 90.000000
_cell_angle_beta 28.269627
_cell_angle_gamma 90.000000
_cell_volume 3114.402207
_symmetry_space_group_name_H-M "C 2/M"
_symmetry_group_IT_number 12
_symmetry_cell_setting 'monoclinic'
loop_
_space_group_symop_operation_xyz
x,y,z
-x,y,-z
-x,-y,-z
x,-y,z
1/2+x,1/2+y,z
1/2-x,1/2+y,-z
1/2-x,1/2-y,-z
1/2+x,1/2-y,z
loop_
_atom_site_type_symbol
_atom_site_label
_atom_site_fract_x
_atom_site_fract_y
_atom_site_fract_z
Si Si1 0.718662 0.614644 0.148612
Si Si2 0.949190 0.883254 0.741315
Si Si3 0.788150 0.613121 0.649198
Si Si4 0.386350 0.248655 0.126986
Si Si5 0.626652 0.813590 0.606581
Si Si6 0.584453 0.270406 0.441539
Si Si7 0.757433 0.619745 0.407308
Si Si8 0.907501 0.260306 0.925674
O O1 0.756424 0.500000 0.109599
O O2 0.655873 0.626426 0.158986
O O3 0.647072 0.640529 0.315924
O O4 0.818434 0.682544 0.003850
O O5 0.928785 0.845532 0.852980
O O6 0.035008 0.814535 0.584193
O O7 0.987418 0.000000 0.691780
O O8 0.772270 0.500000 0.703103
O O9 0.682809 0.654272 0.757019
O O10 0.864519 0.612876 0.476198
O O11 0.835955 0.680733 0.649664
O O12 0.335183 0.148347 0.234184
O O13 0.500000 0.264317 0.000000
O O14 0.375600 0.251433 0.053677
O O15 0.660266 0.695931 0.539484
O O16 0.689291 0.862333 0.587473
O O17 0.510727 0.823130 0.787345
O O18 0.500000 0.227040 0.500000
O O19 0.725405 0.500000 0.442232
#
# Coordination Sequence:
#
# PCOD8105144 Si02
#       8
#     8   8   8   8   8   8   8   8
#     4  10  22  40  65  95 125 161 203 258 324 374
#     4  10  22  41  66  93 124 164 207 255 316 379
#     4  11  23  42  63  87 123 169 212 254 311 376
#     4  11  24  43  62  90 129 165 211 258 307 371
#     4  10  22  41  61  90 122 158 206 259 308 366
#     4  10  20  41  67  93 125 158 206 266 313 375
#     4  10  22  42  66  89 119 162 210 259 310 363
#     4  12  22  40  61  90 130 162 203 259 311 372
#
# _framework density 20.549689000000001
#
# number of rings (size 3 to 8) (size 9 to 14) (size 15 to 20)
#    0.000    1.500    3.750    1.125    0.000    4.750 
#    0.000    0.000    0.000    0.000    0.000    0.000 
#    0.000    0.000    0.000    0.000    0.000    0.000 
#
# Total GULP energy -396688.487173 kJ/mol
# GULP energy per Si atom -12396.515224 kJ/mol
# Density = 2.050292 g / cm^3
# Si number density = 20.549689 Si / 1000 Ang^3
#
#
#
# Elastic Constant Matrix: (Units=GPa)
#
#
# Indices 1 2 3 4 5 6 
#
# 1 76.9765 27.6901 21.5625 0.0000 4.1810 0.0000
# 2 27.6901 113.8392 22.3596 0.0000 -4.6061 0.0000
# 3 21.5625 22.3596 64.0313 0.0000 -5.2511 0.0000
# 4 0.0000 0.0000 0.0000 19.1432 0.0000 3.3006
# 5 4.1810 -4.6061 -5.2511 0.0000 48.0252 0.0000
# 6 0.0000 0.0000 0.0000 3.3006 0.0000 23.3979
#
#
#
# Elastic Compliance Matrix: (Units=1/GPa)
#
#
# Indices 1 2 3 4 5 6 
#
# 1 0.015385 -0.002980 -0.004312 0.000000 -0.002097 0.000000
# 2 -0.002980 0.010023 -0.002418 0.000000 0.000956 0.000000
# 3 -0.004312 -0.002418 0.018088 0.000000 0.002121 0.000000
# 4 0.000000 0.000000 0.000000 0.053540 0.000000 -0.007553
# 5 -0.002097 0.000956 0.002121 0.000000 0.021329 0.000000
# 6 0.000000 0.000000 0.000000 -0.007553 0.000000 0.043804
#
#
# Mechanical properties :
#
#
# Convention : Reuss Voigt Hill
#
# Bulk Modulus (GPa) = 41.53682 44.23016 42.88349
# Shear Modulus (GPa) = 26.36939 30.32891 28.34915
#
# Velocity S-wave (km/s) = 3.58607 3.84589 3.71825
# Velocity P-wave (km/s) = 6.11582 6.42584 6.27274
#
# Compressibility (1/GPa) = 0.02407502
#
# Stress axis : x y z
#
# Youngs Moduli (GPa) = 64.99944 99.77253 55.28593
#
# Poissons Ratio (x) = 0.29733 0.23840
# Poissons Ratio (y) = 0.19370 0.13368
# Poissons Ratio (z) = 0.28029 0.24125
#
# Static dielectric constant tensor:
#      x y z
#    x 3.818930 0.000000 -0.015150 
#    y 0.000000 3.530520 0.000000 
#    z -0.015150 0.000000 3.816880 
# 
# 
# High freq. dielectric constant tensor:
#      x y z
#    x 1.817600 0.000000 -0.003570 
#    y 0.000000 1.780280 0.000000 
#    z -0.003570 0.000000 1.811140 
# 
# From -- ./inp_files/296480.got.cif
#   From: 2010.06.25/outbox.cif.g09.slc.cpg/sg12_149_cif.got.tgz:296480.got - 2010.06.28 00:19:55.
