data_PCOD8105820
_publ_section_title
;
Structure prediction by ZEFSAII (Michael W. Deem and Ramdas Pophale) SiO2 
 PCOD8105820
Probable space group: C 2/M
;
_chemical_formula_sum "Si O2"
_cell_formula_units_Z 48
_cell_length_a 9.719975
_cell_length_b 28.233858
_cell_length_c 17.989416
_cell_angle_alpha 90.000000
_cell_angle_beta 151.404809
_cell_angle_gamma 90.000000
_cell_volume 2362.879726
_symmetry_space_group_name_H-M "C 2/M"
_symmetry_group_IT_number 12
_symmetry_cell_setting 'monoclinic'
loop_
_space_group_symop_operation_xyz
x,y,z
-x,y,-z
-x,-y,-z
x,-y,z
1/2+x,1/2+y,z
1/2-x,1/2+y,-z
1/2-x,1/2-y,-z
1/2+x,1/2-y,z
loop_
_atom_site_type_symbol
_atom_site_label
_atom_site_fract_x
_atom_site_fract_y
_atom_site_fract_z
Si Si1 0.203376 0.696490 0.202881
Si Si2 0.158208 0.500000 0.419017
Si Si3 0.661435 0.912745 0.153014
Si Si4 0.657221 0.000000 0.251656
Si Si5 0.289437 0.672668 0.462771
Si Si6 0.318325 0.910485 0.483493
Si Si7 0.813320 0.274188 0.145736
O O1 0.110061 0.641368 0.155180
O O2 0.507798 0.704542 0.388574
O O3 0.250112 0.720068 0.143898
O O4 0.953394 0.724469 0.129845
O O5 0.028605 0.500000 0.274146
O O6 0.501229 0.500000 0.579699
O O7 0.042135 0.455563 0.410261
O O8 0.549745 0.951886 0.159446
O O9 0.999385 0.920437 0.302276
O O10 0.500000 0.922795 0.000000
O O11 0.500000 0.650749 0.500000
O O12 0.154358 0.630107 0.443257
O O13 0.027660 0.702062 0.305687
O O14 0.500000 0.893966 0.500000
O O15 0.500000 0.300126 0.000000
#
# Coordination Sequence:
#
# PCOD8105820 Si02
#       7
#     8   4   8   4   8   8   8
#     4  10  22  38  58  82 117 154 196 235 286 344
#     4   9  19  32  59  85 117 144 200 234 286 348
#     4  10  21  38  61  88 117 151 196 238 288 349
#     4   9  19  34  63  89 110 155 192 238 286 342
#     4   9  21  37  57  80 113 153 201 235 278 348
#     4  10  21  35  58  87 116 154 189 242 290 339
#     4  11  22  36  56  83 115 153 193 243 291 337
#
# _framework density 20.314194000000001
#
# number of rings (size 3 to 8) (size 9 to 14) (size 15 to 20)
#    0.000    2.167    0.000    2.000    9.333    4.000 
#    0.000    0.833    0.000    1.000    0.000    0.000 
#    0.000    0.000    0.000    0.000    0.000    0.000 
#
# Total GULP energy -297460.359522 kJ/mol
# GULP energy per Si atom -12394.181647 kJ/mol
# Density = 2.026796 g / cm^3
# Si number density = 20.314194 Si / 1000 Ang^3
#
#
#
# Elastic Constant Matrix: (Units=GPa)
#
#
# Indices 1 2 3 4 5 6 
#
# 1 108.2706 70.4631 3.3866 -0.0003 -2.9496 -0.0009
# 2 70.4631 136.0256 34.9565 0.0014 -2.7591 0.0013
# 3 3.3866 34.9565 78.8257 -0.0252 -8.1266 -0.0147
# 4 -0.0003 0.0014 -0.0252 -18.8149 -0.0009 -42.6031
# 5 -2.9496 -2.7591 -8.1266 -0.0009 28.9591 -0.0011
# 6 -0.0009 0.0013 -0.0147 -42.6031 -0.0011 10.9016
#
#
#
# Elastic Compliance Matrix: (Units=1/GPa)
#
#
# Indices 1 2 3 4 5 6 
#
# 1 0.014635 -0.008385 0.003255 -0.000002 0.001605 -0.000001
# 2 -0.008385 0.013103 -0.005571 0.000003 -0.001169 0.000002
# 3 0.003255 -0.005571 0.015443 -0.000007 0.004134 -0.000006
# 4 -0.000002 0.000003 -0.000007 -0.005396 -0.000003 -0.021089
# 5 0.001605 -0.001169 0.004134 -0.000003 0.035744 -0.000002
# 6 -0.000001 0.000002 -0.000006 -0.021089 -0.000002 0.009314
#
#
# Mechanical properties :
#
#
# Convention : Reuss Voigt Hill
#
# Bulk Modulus (GPa) = 45.91475 60.08160 52.99817
# Shear Modulus (GPa) = 44.84128 18.49687 31.66907
#
# Velocity S-wave (km/s) = 4.70338 3.02079 3.95265
# Velocity P-wave (km/s) = 7.22129 6.46585 6.85399
#
# Compressibility (1/GPa) = 0.02177950
#
# Stress axis : x y z
#
# Youngs Moduli (GPa) = 68.32856 76.31742 64.75356
#
# Poissons Ratio (x) = 0.63994 -0.21079
# Poissons Ratio (y) = 0.57295 0.36075
# Poissons Ratio (z) = -0.22243 0.42517
#
# Static dielectric constant tensor:
#      x y z
#    x 3.701470 0.000000 -0.241740 
#    y 0.000000 3.656460 0.000000 
#    z -0.241740 0.000000 3.883060 
# 
# 
# High freq. dielectric constant tensor:
#      x y z
#    x 1.790230 0.000000 -0.022490 
#    y 0.000000 1.788840 0.000000 
#    z -0.022490 0.000000 1.792690 
# 
# From -- ./inp_files/80636.got.cif
#   From: 2010.06.25/outbox.cif.g09.slc.cpg/sg12_41_cif.got.tgz:80636.got - 2010.06.28 00:19:55.
