data_PCOD8105853
_publ_section_title
;
Structure prediction by ZEFSAII (Michael W. Deem and Ramdas Pophale) SiO2 
 PCOD8105853
Probable space group: C 2/M
;
_chemical_formula_sum "Si O2"
_cell_formula_units_Z 60
_cell_length_a 20.663560
_cell_length_b 25.174123
_cell_length_c 8.644894
_cell_angle_alpha 90.000000
_cell_angle_beta 140.627865
_cell_angle_gamma 90.000000
_cell_volume 2852.668339
_symmetry_space_group_name_H-M "C 2/M"
_symmetry_group_IT_number 12
_symmetry_cell_setting 'monoclinic'
loop_
_space_group_symop_operation_xyz
x,y,z
-x,y,-z
-x,-y,-z
x,-y,z
1/2+x,1/2+y,z
1/2-x,1/2+y,-z
1/2-x,1/2-y,-z
1/2+x,1/2-y,z
loop_
_atom_site_type_symbol
_atom_site_label
_atom_site_fract_x
_atom_site_fract_y
_atom_site_fract_z
Si Si1 0.104302 0.706637 0.267370
Si Si2 0.816965 0.060623 0.498048
Si Si3 0.176203 0.398275 0.481861
Si Si4 0.216008 0.130459 0.851938
Si Si5 0.360965 0.339604 0.979365
Si Si6 0.000000 0.112315 0.000000
Si Si7 0.616044 0.940197 0.685256
Si Si8 0.245700 0.266721 0.260194
O O1 0.086985 0.645240 0.286255
O O2 0.196534 0.703627 0.315281
O O3 0.143189 0.743288 0.482585
O O4 0.000000 0.729397 0.000000
O O5 0.709294 0.069990 0.388182
O O6 0.831311 0.097580 0.375378
O O7 0.909402 0.073285 0.783790
O O8 0.822356 0.000000 0.453130
O O9 0.272488 0.364506 0.713827
O O10 0.138718 0.438638 0.543809
O O11 0.240405 0.190882 0.850105
O O12 0.134958 0.133206 0.843435
O O13 0.318839 0.102109 0.099113
O O14 0.334706 0.277367 0.947783
O O15 0.466349 0.349963 0.081848
O O16 0.500000 0.924720 0.500000
O O17 0.639989 0.000000 0.787561
#
# Coordination Sequence:
#
# PCOD8105853 Si02
#       8
#     8   8   8   8   8   4   8   8
#     4  10  21  35  60  92 124 162 204 253 307 369
#     4  11  22  39  64  89 121 163 208 260 313 364
#     4   9  19  38  59  86 117 158 203 247 308 370
#     4  11  22  40  61  89 124 157 201 257 311 363
#     4   9  21  39  62  83 121 159 198 252 308 368
#     4  10  23  42  62  90 120 164 215 252 300 382
#     4  10  22  39  60  86 121 160 202 251 308 369
#     4  10  21  38  60  91 125 165 202 250 313 378
#
# _framework density 21.03294
#
# number of rings (size 3 to 8) (size 9 to 14) (size 15 to 20)
#    0.000    2.000    1.333    1.400    4.667    0.533 
#    0.000    2.667    2.933    3.200    0.000    0.000 
#    0.000    0.000    0.000    0.000    0.000    0.000 
#
# Total GULP energy -371961.097120 kJ/mol
# GULP energy per Si atom -12398.703237 kJ/mol
# Density = 2.098507 g / cm^3
# Si number density = 21.032940 Si / 1000 Ang^3
#
#
#
# Elastic Constant Matrix: (Units=GPa)
#
#
# Indices 1 2 3 4 5 6 
#
# 1 119.3036 43.5366 32.7128 0.0000 -10.8084 0.0000
# 2 43.5366 120.1942 34.0442 0.0000 -0.6156 0.0000
# 3 32.7128 34.0442 74.9579 0.0000 -1.5433 0.0000
# 4 0.0000 0.0000 0.0000 32.9693 0.0000 -6.4809
# 5 -10.8084 -0.6156 -1.5433 0.0000 29.6773 0.0000
# 6 0.0000 0.0000 0.0000 -6.4809 0.0000 22.4027
#
#
#
# Elastic Compliance Matrix: (Units=1/GPa)
#
#
# Indices 1 2 3 4 5 6 
#
# 1 0.010673 -0.002926 -0.003254 0.000000 0.003657 0.000000
# 2 -0.002926 0.010350 -0.003445 0.000000 -0.001030 0.000000
# 3 -0.003254 -0.003445 0.016317 0.000000 -0.000408 0.000000
# 4 0.000000 0.000000 0.000000 0.032160 0.000000 0.009304
# 5 0.003657 -0.001030 -0.000408 0.000000 0.034985 0.000000
# 6 0.000000 0.000000 0.000000 0.009304 0.000000 0.047329
#
#
# Mechanical properties :
#
#
# Convention : Reuss Voigt Hill
#
# Bulk Modulus (GPa) = 55.27599 59.44924 57.36262
# Shear Modulus (GPa) = 28.23353 30.62066 29.42709
#
# Velocity S-wave (km/s) = 3.66778 3.81969 3.74451
# Velocity P-wave (km/s) = 6.65391 6.91228 6.78432
#
# Compressibility (1/GPa) = 0.01809104
#
# Stress axis : x y z
#
# Youngs Moduli (GPa) = 93.69301 96.61691 61.28500
#
# Poissons Ratio (x) = 0.28267 0.19941
# Poissons Ratio (y) = 0.27411 0.21114
# Poissons Ratio (z) = 0.30486 0.33287
#
# Static dielectric constant tensor:
#      x y z
#    x 3.839570 0.000000 -0.137050 
#    y 0.000000 3.794300 0.000000 
#    z -0.137050 0.000000 3.578570 
# 
# 
# High freq. dielectric constant tensor:
#      x y z
#    x 1.819620 0.000000 -0.011440 
#    y 0.000000 1.828980 0.000000 
#    z -0.011440 0.000000 1.804770 
# 
# From -- ./inp_files/91256.got.cif
#   From: 2010.06.25/outbox.cif.g09.slc.cpg/sg12_46_cif.got.tgz:91256.got - 2010.06.28 00:19:55.
