data_PCOD8105239
_publ_section_title
;
Structure prediction by ZEFSAII (Michael W. Deem and Ramdas Pophale) SiO2 
 PCOD8105239
Probable space group: C 2/M
;
_chemical_formula_sum "Si O2"
_cell_formula_units_Z 56
_cell_length_a 9.080102
_cell_length_b 26.453475
_cell_length_c 15.376561
_cell_angle_alpha 90.000000
_cell_angle_beta 130.991462
_cell_angle_gamma 90.000000
_cell_volume 2787.846033
_symmetry_space_group_name_H-M "C 2/M"
_symmetry_group_IT_number 12
_symmetry_cell_setting 'monoclinic'
loop_
_space_group_symop_operation_xyz
x,y,z
-x,y,-z
-x,-y,-z
x,-y,z
1/2+x,1/2+y,z
1/2-x,1/2+y,-z
1/2-x,1/2-y,-z
1/2+x,1/2-y,z
loop_
_atom_site_type_symbol
_atom_site_label
_atom_site_fract_x
_atom_site_fract_y
_atom_site_fract_z
Si Si1 0.829798 0.253887 0.341267
Si Si2 0.672723 0.681656 0.432276
Si Si3 0.517459 0.890096 0.865650
Si Si4 0.391377 0.374766 0.209069
Si Si5 0.611337 0.442148 0.956556
Si Si6 0.689976 0.203353 0.031336
Si Si7 0.457445 0.179523 0.696780
O O1 0.808568 0.290547 0.415237
O O2 0.647567 0.214714 0.269410
O O3 0.029104 0.221712 0.422499
O O4 0.850213 0.290290 0.263619
O O5 0.561152 0.632958 0.346951
O O6 0.814188 0.663292 0.563443
O O7 0.304326 0.899001 0.824522
O O8 0.508542 0.873818 0.761162
O O9 0.654733 0.938777 0.933640
O O10 0.640960 0.846469 0.959122
O O11 0.458793 0.410113 0.155218
O O12 0.351654 0.316222 0.163508
O O13 0.557830 0.500000 0.916242
O O14 0.500000 0.422566 0.000000
O O15 0.500000 0.226098 0.000000
O O16 0.750000 0.250000 0.000000
#
# Coordination Sequence:
#
# PCOD8105239 Si02
#       7
#     8   8   8   8   8   8   8
#     4  10  21  32  48  75 116 171 208 226 255 298
#     4  11  20  33  51  80 119 158 200 233 260 311
#     4  10  22  36  55  83 110 144 185 223 278 332
#     4  10  22  36  55  83 110 144 185 223 278 332
#     4  10  23  45  67  85 102 128 178 237 291 353
#     4   9  20  32  42  66 105 144 180 218 257 304
#     4  11  20  33  51  80 119 158 200 233 260 311
#
# _framework density 20.087192000000002
#
# number of rings (size 3 to 8) (size 9 to 14) (size 15 to 20)
#    0.000    1.857    1.429    4.714    6.000    3.429 
#    0.000    0.000    0.000    0.857    0.000    4.000 
#    0.000    0.000    0.000    0.000    0.000    0.000 
#
# Total GULP energy -346987.043391 kJ/mol
# GULP energy per Si atom -12392.394407 kJ/mol
# Density = 2.004147 g / cm^3
# Si number density = 20.087192 Si / 1000 Ang^3
#
#
#
# Elastic Constant Matrix: (Units=GPa)
#
#
# Indices 1 2 3 4 5 6 
#
# 1 114.0732 29.8819 24.4507 0.0000 -16.9594 0.0000
# 2 29.8819 52.7708 19.7814 0.0000 -4.6267 0.0000
# 3 24.4507 19.7814 75.6793 0.0000 -6.2368 0.0000
# 4 0.0000 0.0000 0.0000 20.3026 0.0000 -0.9190
# 5 -16.9594 -4.6267 -6.2368 0.0000 24.1662 0.0000
# 6 0.0000 0.0000 0.0000 -0.9190 0.0000 33.5021
#
#
#
# Elastic Compliance Matrix: (Units=1/GPa)
#
#
# Indices 1 2 3 4 5 6 
#
# 1 0.011514 -0.005266 -0.001799 0.000000 0.006608 0.000000
# 2 -0.005266 0.023586 -0.004492 0.000000 -0.000339 0.000000
# 3 -0.001799 -0.004492 0.015115 0.000000 0.001779 0.000000
# 4 0.000000 0.000000 0.000000 0.049316 0.000000 0.001353
# 5 0.006608 -0.000339 0.001779 0.000000 0.046411 0.000000
# 6 0.000000 0.000000 0.000000 0.001353 0.000000 0.029886
#
#
# Mechanical properties :
#
#
# Convention : Reuss Voigt Hill
#
# Bulk Modulus (GPa) = 36.89773 43.41681 40.15727
# Shear Modulus (GPa) = 24.04135 26.82147 25.43141
#
# Velocity S-wave (km/s) = 3.46330 3.65807 3.56202
# Velocity P-wave (km/s) = 5.86526 6.28515 6.07883
#
# Compressibility (1/GPa) = 0.02710194
#
# Stress axis : x y z
#
# Youngs Moduli (GPa) = 86.85299 42.39845 66.15749
#
# Poissons Ratio (x) = 0.22327 0.11901
# Poissons Ratio (y) = 0.45737 0.29715
# Poissons Ratio (z) = 0.15624 0.19043
#
# Static dielectric constant tensor:
#      x y z
#    x 3.660590 0.000000 -0.334010 
#    y 0.000000 3.172470 0.000000 
#    z -0.334010 0.000000 3.613140 
# 
# 
# High freq. dielectric constant tensor:
#      x y z
#    x 1.805170 0.000000 -0.011690 
#    y 0.000000 1.724870 0.000000 
#    z -0.011690 0.000000 1.784030 
# 
# From -- ./inp_files/199913.got.cif
#   From: 2010.06.25/outbox.cif.g09.slc.cpg/sg12_100_cif.got.tgz:199913.got - 2010.06.28 00:19:55.
