data_PCOD8105885
_publ_section_title
;
Structure prediction by ZEFSAII (Michael W. Deem and Ramdas Pophale) SiO2 
 PCOD8105885
Probable space group: C 2/M
;
_chemical_formula_sum "Si O2"
_cell_formula_units_Z 64
_cell_length_a 16.097006
_cell_length_b 26.113089
_cell_length_c 9.207130
_cell_angle_alpha 90.000000
_cell_angle_beta 64.727471
_cell_angle_gamma 90.000000
_cell_volume 3499.726322
_symmetry_space_group_name_H-M "C 2/M"
_symmetry_group_IT_number 12
_symmetry_cell_setting 'monoclinic'
loop_
_space_group_symop_operation_xyz
x,y,z
-x,y,-z
-x,-y,-z
x,-y,z
1/2+x,1/2+y,z
1/2-x,1/2+y,-z
1/2-x,1/2-y,-z
1/2+x,1/2-y,z
loop_
_atom_site_type_symbol
_atom_site_label
_atom_site_fract_x
_atom_site_fract_y
_atom_site_fract_z
Si Si1 0.709131 0.137509 0.999364
Si Si2 0.089334 0.243337 0.351862
Si Si3 0.913804 0.722498 0.964051
Si Si4 0.855523 0.116025 0.320112
Si Si5 0.280836 0.557197 0.125700
Si Si6 0.852937 0.871020 0.652801
Si Si7 0.543540 0.559965 0.206418
Si Si8 0.777921 0.204742 0.201545
O O1 0.609276 0.163186 0.055626
O O2 0.756973 0.131866 0.808313
O O3 0.701678 0.082835 0.084773
O O4 0.773006 0.171603 0.058167
O O5 0.099125 0.184173 0.387963
O O6 0.176850 0.278276 0.333655
O O7 0.000000 0.265828 0.500000
O O8 0.071227 0.245452 0.193195
O O9 0.827932 0.743053 0.120348
O O10 0.000000 0.726731 0.000000
O O11 0.783800 0.081733 0.283166
O O12 0.830388 0.111264 0.507113
O O13 0.838669 0.174561 0.276903
O O14 0.957522 0.093751 0.215808
O O15 0.248549 0.500000 0.168640
O O16 0.380028 0.563319 0.975573
O O17 0.919512 0.913816 0.673669
O O18 0.517226 0.500000 0.253986
#
# Coordination Sequence:
#
# PCOD8105885 Si02
#       8
#     8   8   8   8   8   8   8   8
#     4   9  18  39  55  72 109 141 184 220 267 326
#     4  11  22  38  54  78 112 144 187 228 276 321
#     4  11  22  35  58  79 104 150 187 224 264 321
#     4  11  22  30  49  76 108 137 179 223 267 312
#     4   9  19  35  57  75  99 143 184 223 271 331
#     4  11  21  34  51  74 110 149 178 227 274 316
#     4  10  21  36  51  73 108 148 185 223 272 332
#     4  10  21  38  55  75 107 155 185 221 265 325
#
# _framework density 18.287144000000001
#
# number of rings (size 3 to 8) (size 9 to 14) (size 15 to 20)
#    0.000    1.750    2.500    2.625    3.500    4.000 
#    0.000    0.000    0.000    0.375    0.000    0.000 
#    0.000   51.000    0.000    0.000    0.000    0.000 
#
# Total GULP energy -396694.300961 kJ/mol
# GULP energy per Si atom -12396.696905 kJ/mol
# Density = 1.824552 g / cm^3
# Si number density = 18.287144 Si / 1000 Ang^3
#
#
#
# Elastic Constant Matrix: (Units=GPa)
#
#
# Indices 1 2 3 4 5 6 
#
# 1 65.2099 37.4697 34.6165 0.0000 4.6209 0.0000
# 2 37.4697 104.9771 39.9231 0.0000 3.7438 0.0000
# 3 34.6165 39.9231 89.3712 0.0000 11.1448 0.0000
# 4 0.0000 0.0000 0.0000 16.6298 0.0000 5.3652
# 5 4.6209 3.7438 11.1448 0.0000 28.5011 0.0000
# 6 0.0000 0.0000 0.0000 5.3652 0.0000 18.3102
#
#
#
# Elastic Compliance Matrix: (Units=1/GPa)
#
#
# Indices 1 2 3 4 5 6 
#
# 1 0.021631 -0.005469 -0.005874 0.000000 -0.000492 0.000000
# 2 -0.005469 0.012866 -0.003710 0.000000 0.000647 0.000000
# 3 -0.005874 -0.003710 0.015708 0.000000 -0.004703 0.000000
# 4 0.000000 0.000000 0.000000 0.066411 0.000000 -0.019459
# 5 -0.000492 0.000647 -0.004703 0.000000 0.036920 0.000000
# 6 0.000000 0.000000 0.000000 -0.019459 0.000000 0.060316
#
#
# Mechanical properties :
#
#
# Convention : Reuss Voigt Hill
#
# Bulk Modulus (GPa) = 49.75351 53.73077 51.74214
# Shear Modulus (GPa) = 19.94762 22.52484 21.23623
#
# Velocity S-wave (km/s) = 3.30631 3.51341 3.41143
# Velocity P-wave (km/s) = 6.46850 6.77527 6.62366
#
# Compressibility (1/GPa) = 0.02009908
#
# Stress axis : x y z
#
# Youngs Moduli (GPa) = 46.23063 77.72595 63.66219
#
# Poissons Ratio (x) = 0.42511 0.37394
# Poissons Ratio (y) = 0.25285 0.23616
# Poissons Ratio (z) = 0.27155 0.28833
#
# Static dielectric constant tensor:
#      x y z
#    x 3.221560 0.000000 0.167220 
#    y 0.000000 3.610040 0.000000 
#    z 0.167220 0.000000 3.312400 
# 
# 
# High freq. dielectric constant tensor:
#      x y z
#    x 1.683100 0.000000 0.019960 
#    y 0.000000 1.707450 0.000000 
#    z 0.019960 0.000000 1.705760 
# 
# From -- ./inp_files/66907.got.cif
#   From: 2010.06.25/outbox.cif.g09.slc.cpg/sg12_34_cif.got.tgz:66907.got - 2010.06.28 00:19:55.
