data_PCOD8105792
_publ_section_title
;
Structure prediction by ZEFSAII (Michael W. Deem and Ramdas Pophale) SiO2 
 PCOD8105792
Probable space group: C 2/M
;
_chemical_formula_sum "Si O2"
_cell_formula_units_Z 56
_cell_length_a 23.584094
_cell_length_b 9.174440
_cell_length_c 14.088871
_cell_angle_alpha 90.000000
_cell_angle_beta 106.885687
_cell_angle_gamma 90.000000
_cell_volume 2916.991974
_symmetry_space_group_name_H-M "C 2/M"
_symmetry_group_IT_number 12
_symmetry_cell_setting 'monoclinic'
loop_
_space_group_symop_operation_xyz
x,y,z
-x,y,-z
-x,-y,-z
x,-y,z
1/2+x,1/2+y,z
1/2-x,1/2+y,-z
1/2-x,1/2-y,-z
1/2+x,1/2-y,z
loop_
_atom_site_type_symbol
_atom_site_label
_atom_site_fract_x
_atom_site_fract_y
_atom_site_fract_z
Si Si1 0.760366 0.829534 0.103677
Si Si2 0.911003 0.667000 0.519274
Si Si3 0.673913 0.328362 0.203918
Si Si4 0.394497 0.332368 0.155657
Si Si5 0.433687 0.327600 0.972837
Si Si6 0.039034 0.334748 0.656969
Si Si7 0.807285 0.828338 0.568441
O O1 0.722924 0.758976 0.169312
O O2 0.828971 0.806186 0.164075
O O3 0.744868 0.000000 0.085298
O O4 0.750000 0.750000 0.000000
O O5 0.887783 0.500000 0.509856
O O6 0.926789 0.717079 0.420646
O O7 0.862553 0.777611 0.533539
O O8 0.968883 0.681479 0.612101
O O9 0.684355 0.500000 0.192016
O O10 0.608062 0.281354 0.136232
O O11 0.681208 0.284540 0.316886
O O12 0.411506 0.500000 0.161861
O O13 0.442778 0.259609 0.245264
O O14 0.401230 0.269668 0.052175
O O15 0.439302 0.500000 0.976843
O O16 0.500000 0.258846 0.000000
O O17 0.056775 0.500000 0.686445
O O18 0.750000 0.750000 0.500000
O O19 0.799070 0.000000 0.553201
#
# Coordination Sequence:
#
# PCOD8105792 Si02
#       7
#     8   8   8   8   8   8   8
#     4  11  22  38  59  85 118 153 191 241 289 339
#     4   9  20  41  62  83 116 156 196 240 297 354
#     4  10  22  41  61  85 114 155 201 239 292 355
#     4  10  21  35  57  88 116 147 192 241 287 343
#     4   9  18  35  59  84 116 152 187 231 284 346
#     4   9  20  38  61  86 116 154 192 239 296 354
#     4  11  25  41  62  88 118 157 202 250 299 356
#
# _framework density 19.197859999999999
#
# number of rings (size 3 to 8) (size 9 to 14) (size 15 to 20)
#    0.000    2.143    1.429    1.714    4.000    3.429 
#    0.000    1.429    0.000    0.857    0.000    0.000 
#    0.000    0.000    0.000    0.000    0.000    0.000 
#
# Total GULP energy -347195.569932 kJ/mol
# GULP energy per Si atom -12399.841783 kJ/mol
# Density = 1.915416 g / cm^3
# Si number density = 19.197860 Si / 1000 Ang^3
#
#
#
# Elastic Constant Matrix: (Units=GPa)
#
#
# Indices 1 2 3 4 5 6 
#
# 1 126.8260 43.1485 53.1350 0.0000 -0.5142 0.0000
# 2 43.1485 58.7170 43.0887 0.0000 3.5786 0.0000
# 3 53.1350 43.0887 133.0097 0.0000 14.8252 0.0000
# 4 0.0000 0.0000 0.0000 35.0883 0.0000 0.6984
# 5 -0.5142 3.5786 14.8252 0.0000 23.3354 0.0000
# 6 0.0000 0.0000 0.0000 0.6984 0.0000 34.4137
#
#
#
# Elastic Compliance Matrix: (Units=1/GPa)
#
#
# Indices 1 2 3 4 5 6 
#
# 1 0.011229 -0.006425 -0.002735 0.000000 0.002971 0.000000
# 2 -0.006425 0.026053 -0.005825 0.000000 -0.000437 0.000000
# 3 -0.002735 -0.005825 0.011198 0.000000 -0.006281 0.000000
# 4 0.000000 0.000000 0.000000 0.028511 0.000000 -0.000579
# 5 0.002971 -0.000437 -0.006281 0.000000 0.046976 0.000000
# 6 0.000000 0.000000 0.000000 -0.000579 0.000000 0.029070
#
#
# Mechanical properties :
#
#
# Convention : Reuss Voigt Hill
#
# Bulk Modulus (GPa) = 54.02558 66.36633 60.19596
# Shear Modulus (GPa) = 26.43014 30.51284 28.47149
#
# Velocity S-wave (km/s) = 3.71445 3.99104 3.85522
# Velocity P-wave (km/s) = 6.82632 7.47546 7.15826
#
# Compressibility (1/GPa) = 0.01850975
#
# Stress axis : x y z
#
# Youngs Moduli (GPa) = 89.05607 38.38262 89.30221
#
# Poissons Ratio (x) = 0.24662 0.24427
# Poissons Ratio (y) = 0.57222 0.52015
# Poissons Ratio (z) = 0.24360 0.22356
#
# Static dielectric constant tensor:
#      x y z
#    x 3.744760 0.000000 0.011020 
#    y 0.000000 3.351280 0.000000 
#    z 0.011020 0.000000 3.617270 
# 
# 
# High freq. dielectric constant tensor:
#      x y z
#    x 1.755880 0.000000 0.003870 
#    y 0.000000 1.729040 0.000000 
#    z 0.003870 0.000000 1.754850 
# 
# From -- ./inp_files/237834.got.cif
#   From: 2010.06.25/outbox.cif.g09.slc.cpg/sg12_119_cif.got.tgz:237834.got - 2010.06.28 00:19:55.
