data_PCOD8105394
_publ_section_title
;
Structure prediction by ZEFSAII (Michael W. Deem and Ramdas Pophale) SiO2 
 PCOD8105394
Probable space group: C 2/M
;
_chemical_formula_sum "Si O2"
_cell_formula_units_Z 48
_cell_length_a 12.478370
_cell_length_b 26.224429
_cell_length_c 14.388316
_cell_angle_alpha 90.000000
_cell_angle_beta 150.906359
_cell_angle_gamma 90.000000
_cell_volume 2289.407609
_symmetry_space_group_name_H-M "C 2/M"
_symmetry_group_IT_number 12
_symmetry_cell_setting 'monoclinic'
loop_
_space_group_symop_operation_xyz
x,y,z
-x,y,-z
-x,-y,-z
x,-y,z
1/2+x,1/2+y,z
1/2-x,1/2+y,-z
1/2-x,1/2-y,-z
1/2+x,1/2-y,z
loop_
_atom_site_type_symbol
_atom_site_label
_atom_site_fract_x
_atom_site_fract_y
_atom_site_fract_z
Si Si1 0.938367 0.747505 0.844002
Si Si2 0.143307 0.375717 0.873286
Si Si3 0.011606 0.055239 0.117839
Si Si4 0.127611 0.203533 0.817748
Si Si5 0.823026 0.158812 0.430676
Si Si6 0.283696 0.850161 0.284242
O O1 0.746639 0.705550 0.690306
O O2 0.882969 0.803771 0.835063
O O3 0.019685 0.751628 0.797520
O O4 0.157312 0.729359 0.072066
O O5 0.172607 0.358584 0.789986
O O6 0.882237 0.378095 0.699376
O O7 0.270557 0.430015 0.977498
O O8 0.264568 0.339095 0.036191
O O9 0.188126 0.100602 0.267921
O O10 0.082228 0.000000 0.214951
O O11 0.000000 0.048330 0.000000
O O12 0.940083 0.179364 0.611942
O O13 0.000000 0.128275 0.500000
O O14 0.500000 0.832200 0.500000
#
# Coordination Sequence:
#
# PCOD8105394 Si02
#       6
#     8   8   8   8   8   8
#     4  10  21  34  52  83 117 157 193 231 279 337
#     4  10  22  38  60  84 116 158 191 234 293 340
#     4   9  19  38  61  88 118 147 184 233 296 360
#     4  10  21  37  55  77 118 157 198 237 272 341
#     4  11  24  38  53  81 114 157 203 241 279 326
#     4  11  21  35  60  89 122 157 189 234 285 352
#
# _framework density 20.966123
#
# number of rings (size 3 to 8) (size 9 to 14) (size 15 to 20)
#    0.000    1.833    1.667    2.000    0.000   11.000 
#    0.000    0.000    0.000    0.500    0.000    1.167 
#    0.000    0.000    0.000    0.000    0.000    0.000 
#
# Total GULP energy -297376.633747 kJ/mol
# GULP energy per Si atom -12390.693073 kJ/mol
# Density = 2.091840 g / cm^3
# Si number density = 20.966123 Si / 1000 Ang^3
#
#
#
# Elastic Constant Matrix: (Units=GPa)
#
#
# Indices 1 2 3 4 5 6 
#
# 1 62.8430 39.6416 44.2794 0.0009 34.4274 -0.0002
# 2 39.6416 97.1665 25.9286 -0.0001 17.9795 -0.0001
# 3 44.2794 25.9286 124.3865 0.0003 5.5016 0.0006
# 4 0.0009 -0.0001 0.0003 23.9532 0.0008 2.9147
# 5 34.4274 17.9795 5.5016 0.0008 45.8512 0.0002
# 6 -0.0002 -0.0001 0.0006 2.9147 0.0002 -12.9493
#
#
#
# Elastic Compliance Matrix: (Units=1/GPa)
#
#
# Indices 1 2 3 4 5 6 
#
# 1 0.050011 -0.010773 -0.014159 0.000000 -0.031628 -0.000002
# 2 -0.010773 0.014010 0.000804 0.000000 0.002499 0.000000
# 3 -0.014159 0.000804 0.012522 0.000000 0.008813 0.000001
# 4 0.000000 0.000000 0.000000 0.040635 -0.000001 0.009146
# 5 -0.031628 0.002499 0.008813 -0.000001 0.043520 0.000001
# 6 -0.000002 0.000000 0.000001 0.009146 0.000001 -0.075165
#
#
# Mechanical properties :
#
#
# Convention : Reuss Voigt Hill
#
# Bulk Modulus (GPa) = 35.35012 56.01056 45.68034
# Shear Modulus (GPa) = 34.91208 23.00745 28.95976
#
# Velocity S-wave (km/s) = 4.08507 3.31624 3.72057
# Velocity P-wave (km/s) = 6.25680 6.43708 6.34758
#
# Compressibility (1/GPa) = 0.02828844
#
# Stress axis : x y z
#
# Youngs Moduli (GPa) = 19.99559 71.37898 79.85786
#
# Poissons Ratio (x) = 0.76895 1.13067
# Poissons Ratio (y) = 0.21541 -0.06421
# Poissons Ratio (z) = 0.28311 -0.05739
#
# Static dielectric constant tensor:
#      x y z
#    x 4.395070 0.000000 0.424320 
#    y 0.000000 4.069620 0.000000 
#    z 0.424320 0.000000 4.217470 
# 
# 
# High freq. dielectric constant tensor:
#      x y z
#    x 1.838250 0.000000 0.012260 
#    y 0.000000 1.774410 0.000000 
#    z 0.012260 0.000000 1.835800 
# 
# From -- ./inp_files/209306.got.cif
#   From: 2010.06.25/outbox.cif.g09.slc.cpg/sg12_105_cif.got.tgz:209306.got - 2010.06.28 00:19:55.
