data_PCOD8105653
_publ_section_title
;
Structure prediction by ZEFSAII (Michael W. Deem and Ramdas Pophale) SiO2 
 PCOD8105653
Probable space group: C 2/M
;
_chemical_formula_sum "Si O2"
_cell_formula_units_Z 56
_cell_length_a 13.304907
_cell_length_b 26.440005
_cell_length_c 15.801159
_cell_angle_alpha 90.000000
_cell_angle_beta 146.962279
_cell_angle_gamma 90.000000
_cell_volume 3030.477371
_symmetry_space_group_name_H-M "C 2/M"
_symmetry_group_IT_number 12
_symmetry_cell_setting 'monoclinic'
loop_
_space_group_symop_operation_xyz
x,y,z
-x,y,-z
-x,-y,-z
x,-y,z
1/2+x,1/2+y,z
1/2-x,1/2+y,-z
1/2-x,1/2-y,-z
1/2+x,1/2-y,z
loop_
_atom_site_type_symbol
_atom_site_label
_atom_site_fract_x
_atom_site_fract_y
_atom_site_fract_z
Si Si1 0.369224 0.892952 0.832532
Si Si2 0.997375 0.891327 0.326920
Si Si3 0.300218 0.774356 0.345094
Si Si4 0.932976 0.000000 0.584981
Si Si5 0.927069 0.817660 0.138492
Si Si6 0.661586 0.779762 0.820742
Si Si7 0.698376 0.000000 0.262470
Si Si8 0.197962 0.324831 0.368008
O O1 0.422215 0.950612 0.845231
O O2 0.401882 0.858437 0.773844
O O3 0.155680 0.890273 0.707833
O O4 0.500000 0.873602 0.000000
O O5 0.161761 0.856055 0.475712
O O6 0.914097 0.870547 0.179980
O O7 0.067966 0.948648 0.359760
O O8 0.500000 0.800087 0.500000
O O9 0.265783 0.767939 0.221263
O O10 0.302497 0.720724 0.394957
O O11 0.141725 0.809700 0.270152
O O12 0.750110 0.000000 0.398095
O O13 0.114759 0.000000 0.657735
O O14 0.841474 0.774144 0.136240
O O15 0.805988 0.818183 0.967597
O O16 0.458191 0.804156 0.678600
#
# Coordination Sequence:
#
# PCOD8105653 Si02
#       8
#     8   8   8   4   8   8   4   8
#     4  11  20  30  48  74 106 140 173 211 257 308
#     4  11  20  35  53  77 103 140 178 215 259 307
#     4  11  21  34  52  76 103 139 174 214 254 307
#     4   9  18  32  54  72 105 133 173 221 257 303
#     4  10  21  35  54  75 106 140 173 215 262 311
#     4  10  21  36  50  77 109 136 175 216 258 308
#     4   9  17  32  46  72 101 138 171 212 258 307
#     4  11  21  32  53  75 104 140 177 211 252 309
#
# _framework density 18.478936999999998
#
# number of rings (size 3 to 8) (size 9 to 14) (size 15 to 20)
#    0.000    1.571    1.429    5.357    0.000    4.571 
#    0.000    0.000    0.000    0.000    0.000    7.500 
#    0.000    0.000    0.000    0.000    0.000    0.000 
#
# Total GULP energy -347221.771738 kJ/mol
# GULP energy per Si atom -12400.777562 kJ/mol
# Density = 1.843688 g / cm^3
# Si number density = 18.478937 Si / 1000 Ang^3
#
#
#
# Elastic Constant Matrix: (Units=GPa)
#
#
# Indices 1 2 3 4 5 6 
#
# 1 53.9764 27.3247 3.3043 0.0000 -7.8372 0.0000
# 2 27.3247 81.9974 18.5563 0.0000 0.2930 0.0000
# 3 3.3043 18.5563 75.9965 0.0002 -7.2483 0.0001
# 4 0.0000 0.0000 0.0002 31.5014 0.0000 -8.3633
# 5 -7.8372 0.2930 -7.2483 0.0000 21.8827 0.0000
# 6 0.0000 0.0000 0.0001 -8.3633 0.0000 18.3206
#
#
#
# Elastic Compliance Matrix: (Units=1/GPa)
#
#
# Indices 1 2 3 4 5 6 
#
# 1 0.024066 -0.008488 0.001920 0.000000 0.009369 0.000000
# 2 -0.008488 0.015936 -0.003957 0.000000 -0.004564 0.000000
# 3 0.001920 -0.003957 0.014572 0.000000 0.005567 0.000000
# 4 0.000000 0.000000 0.000000 0.036123 0.000000 0.016490
# 5 0.009369 -0.004564 0.005567 0.000000 0.050959 0.000000
# 6 0.000000 0.000000 0.000000 0.016490 0.000000 0.062111
#
#
# Mechanical properties :
#
#
# Convention : Reuss Voigt Hill
#
# Bulk Modulus (GPa) = 29.82984 34.48230 32.15607
# Shear Modulus (GPa) = 21.18718 25.19327 23.19022
#
# Velocity S-wave (km/s) = 3.38976 3.69636 3.54638
# Velocity P-wave (km/s) = 5.61233 6.07604 5.84879
#
# Compressibility (1/GPa) = 0.03352347
#
# Stress axis : x y z
#
# Youngs Moduli (GPa) = 41.55216 62.75190 68.62340
#
# Poissons Ratio (x) = 0.53262 -0.13173
# Poissons Ratio (y) = 0.35268 0.27157
# Poissons Ratio (z) = -0.07976 0.24833
#
# Static dielectric constant tensor:
#      x y z
#    x 3.202440 0.000000 -0.062940 
#    y 0.000000 3.471890 0.000000 
#    z -0.062940 0.000000 3.498470 
# 
# 
# High freq. dielectric constant tensor:
#      x y z
#    x 1.688650 0.000000 -0.001790 
#    y 0.000000 1.698410 0.000000 
#    z -0.001790 0.000000 1.731810 
# 
# From -- ./inp_files/80147.got.cif
#   From: 2010.06.25/outbox.cif.g09.slc.cpg/sg12_41_cif.got.tgz:80147.got - 2010.06.28 00:19:55.
