data_PCOD8105276
_publ_section_title
;
Structure prediction by ZEFSAII (Michael W. Deem and Ramdas Pophale) SiO2 
 PCOD8105276
Probable space group: C 2/M
;
_chemical_formula_sum "Si O2"
_cell_formula_units_Z 48
_cell_length_a 15.224322
_cell_length_b 9.477202
_cell_length_c 28.786037
_cell_angle_alpha 90.000000
_cell_angle_beta 36.719312
_cell_angle_gamma 90.000000
_cell_volume 2483.276960
_symmetry_space_group_name_H-M "C 2/M"
_symmetry_group_IT_number 12
_symmetry_cell_setting 'monoclinic'
loop_
_space_group_symop_operation_xyz
x,y,z
-x,y,-z
-x,-y,-z
x,-y,z
1/2+x,1/2+y,z
1/2-x,1/2+y,-z
1/2-x,1/2-y,-z
1/2+x,1/2-y,z
loop_
_atom_site_type_symbol
_atom_site_label
_atom_site_fract_x
_atom_site_fract_y
_atom_site_fract_z
Si Si1 0.359180 0.846298 0.160374
Si Si2 0.570077 0.833227 0.685357
Si Si3 0.649224 0.836727 0.409955
Si Si4 0.641663 0.655333 0.170737
Si Si5 0.669590 0.165668 0.995216
Si Si6 0.845934 0.337054 0.698917
O O1 0.224291 0.862757 0.183556
O O2 0.498656 0.790973 0.071645
O O3 0.306833 0.740546 0.222801
O O4 0.395383 0.000000 0.167175
O O5 0.729074 0.760453 0.616868
O O6 0.487217 0.768357 0.765797
O O7 0.484273 0.797983 0.673551
O O8 0.586854 0.000000 0.685491
O O9 0.500000 0.806220 0.500000
O O10 0.619051 0.796221 0.368976
O O11 0.697730 0.000000 0.393926
O O12 0.577979 0.500000 0.183363
O O13 0.758092 0.713532 0.083857
O O14 0.690532 0.000000 0.993271
O O15 0.750000 0.250000 0.000000
O O16 0.809733 0.500000 0.720141
#
# Coordination Sequence:
#
# PCOD8105276 Si02
#       6
#     8   8   8   8   8   8
#     4   9  18  34  55  77 102 139 186 228 267 316
#     4  10  21  37  58  85 115 144 181 232 281 325
#     4  10  22  40  61  84 112 148 185 221 271 339
#     4   9  18  35  56  75 102 144 186 223 268 322
#     4  10  21  33  48  75 108 142 181 225 268 315
#     4   9  20  38  58  82 113 147 182 226 280 329
#
# _framework density 19.329298000000001
#
# number of rings (size 3 to 8) (size 9 to 14) (size 15 to 20)
#    0.000    2.500    0.000    1.000    2.333    5.667 
#    0.000    0.000    0.000    5.000    0.000    0.000 
#    0.000    0.000    0.000    0.000    0.000    0.000 
#
# Total GULP energy -297450.730438 kJ/mol
# GULP energy per Si atom -12393.780435 kJ/mol
# Density = 1.928530 g / cm^3
# Si number density = 19.329298 Si / 1000 Ang^3
#
#
#
# Elastic Constant Matrix: (Units=GPa)
#
#
# Indices 1 2 3 4 5 6 
#
# 1 59.8948 37.4027 37.2621 0.0000 0.9385 -0.0002
# 2 37.4027 66.4163 53.9776 0.0000 -3.9102 -0.0004
# 3 37.2621 53.9776 144.1007 0.0000 4.5439 0.0000
# 4 0.0000 0.0000 0.0000 27.3851 0.0000 -2.4673
# 5 0.9385 -3.9102 4.5439 0.0000 33.2775 0.0000
# 6 -0.0002 -0.0004 0.0000 -2.4673 0.0000 25.8504
#
#
#
# Elastic Compliance Matrix: (Units=1/GPa)
#
#
# Indices 1 2 3 4 5 6 
#
# 1 0.026212 -0.013559 -0.001633 0.000000 -0.002110 0.000000
# 2 -0.013559 0.029115 -0.007552 0.000000 0.004835 0.000000
# 3 -0.001633 -0.007552 0.010261 0.000000 -0.002243 0.000000
# 4 0.000000 0.000000 0.000000 0.036833 0.000000 0.003515
# 5 -0.002110 0.004835 -0.002243 0.000000 0.030984 0.000000
# 6 0.000000 0.000000 0.000000 0.003515 0.000000 0.039020
#
#
# Mechanical properties :
#
#
# Convention : Reuss Voigt Hill
#
# Bulk Modulus (GPa) = 49.74923 58.63298 54.19110
# Shear Modulus (GPa) = 22.26065 26.75387 24.50726
#
# Velocity S-wave (km/s) = 3.39728 3.72440 3.56460
# Velocity P-wave (km/s) = 6.41734 6.99246 6.71106
#
# Compressibility (1/GPa) = 0.02010082
#
# Stress axis : x y z
#
# Youngs Moduli (GPa) = 38.15094 34.34701 97.45260
#
# Poissons Ratio (x) = 0.46570 0.15910
# Poissons Ratio (y) = 0.51727 0.73599
# Poissons Ratio (z) = 0.06228 0.25940
#
# Static dielectric constant tensor:
#      x y z
#    x 3.326370 0.000000 0.041430 
#    y 0.000000 3.667390 0.000000 
#    z 0.041430 0.000000 3.414370 
# 
# 
# High freq. dielectric constant tensor:
#      x y z
#    x 1.743350 0.000000 -0.001090 
#    y 0.000000 1.747440 0.000000 
#    z -0.001090 0.000000 1.755800 
# 
# From -- ./inp_files/274131.got.cif
#   From: 2010.06.25/outbox.cif.g09.slc.cpg/sg12_138_cif.got.tgz:274131.got - 2010.06.28 00:19:55.
