data_PCOD8105735
_publ_section_title
;
Structure prediction by ZEFSAII (Michael W. Deem and Ramdas Pophale) SiO2 
 PCOD8105735
Probable space group: C 2/M
;
_chemical_formula_sum "Si O2"
_cell_formula_units_Z 64
_cell_length_a 6.372149
_cell_length_b 22.347811
_cell_length_c 21.032377
_cell_angle_alpha 90.000000
_cell_angle_beta 111.649865
_cell_angle_gamma 90.000000
_cell_volume 2783.799736
_symmetry_space_group_name_H-M "C 2/M"
_symmetry_group_IT_number 12
_symmetry_cell_setting 'monoclinic'
loop_
_space_group_symop_operation_xyz
x,y,z
-x,y,-z
-x,-y,-z
x,-y,z
1/2+x,1/2+y,z
1/2-x,1/2+y,-z
1/2-x,1/2-y,-z
1/2+x,1/2-y,z
loop_
_atom_site_type_symbol
_atom_site_label
_atom_site_fract_x
_atom_site_fract_y
_atom_site_fract_z
Si Si1 0.198574 0.629457 0.716543
Si Si2 0.219440 0.180454 0.986217
Si Si3 0.409763 0.696914 0.844224
Si Si4 0.049986 0.303839 0.410697
Si Si5 0.867739 0.173182 0.552873
Si Si6 0.477995 0.433391 0.642153
Si Si7 0.401424 0.066214 0.777466
Si Si8 0.522742 0.167801 0.126669
O O1 0.384379 0.674923 0.768413
O O2 0.295713 0.588810 0.672286
O O3 0.990558 0.669142 0.664129
O O4 0.124221 0.586276 0.764880
O O5 0.157774 0.174292 0.902252
O O6 0.250000 0.250000 0.000000
O O7 0.456746 0.155037 0.043863
O O8 0.000000 0.156577 0.000000
O O9 0.364590 0.768098 0.844192
O O10 0.221716 0.667081 0.866951
O O11 0.009250 0.232247 0.405100
O O12 0.304223 0.319571 0.468876
O O13 0.871165 0.332511 0.438354
O O14 0.997306 0.111651 0.584177
O O15 0.411710 0.500000 0.610603
O O16 0.714558 0.435033 0.702904
O O17 0.339239 0.112161 0.827502
O O18 0.436721 0.000000 0.810876
#
# Coordination Sequence:
#
# PCOD8105735 Si02
#       8
#     8   8   8   8   8   8   8   8
#     4  10  21  35  56  78 104 134 173 219 263 305
#     4   8  14  28  44  69 105 130 161 203 257 310
#     4   9  18  28  49  80 104 130 167 211 269 312
#     4   9  19  33  53  82 104 137 164 215 271 306
#     4   9  19  35  53  78 108 134 173 210 261 312
#     4  10  22  38  56  75 104 142 176 214 252 303
#     4  10  22  37  53  76 105 141 178 211 253 304
#     4   9  18  30  50  74 105 135 168 214 257 308
#
# _framework density 22.990158999999998
#
# number of rings (size 3 to 8) (size 9 to 14) (size 15 to 20)
#    0.000    2.750    0.000    0.375    5.250    2.000 
#    0.000    5.625    0.000   11.625    0.000    1.750 
#    0.000    0.000    0.000    0.000    0.000    0.000 
#
# Total GULP energy -396505.921338 kJ/mol
# GULP energy per Si atom -12390.810042 kJ/mol
# Density = 2.293783 g / cm^3
# Si number density = 22.990159 Si / 1000 Ang^3
#
#
#
# Elastic Constant Matrix: (Units=GPa)
#
#
# Indices 1 2 3 4 5 6 
#
# 1 28.7716 21.6358 19.7782 0.0000 2.4133 0.0000
# 2 21.6358 173.2108 88.6353 0.0000 0.0060 0.0000
# 3 19.7782 88.6353 141.2929 0.0000 9.9740 0.0000
# 4 0.0000 0.0000 0.0000 14.0006 0.0000 1.0649
# 5 2.4133 0.0060 9.9740 0.0000 34.7254 0.0000
# 6 0.0000 0.0000 0.0000 1.0649 0.0000 24.4496
#
#
#
# Elastic Compliance Matrix: (Units=1/GPa)
#
#
# Indices 1 2 3 4 5 6 
#
# 1 0.039665 -0.003207 -0.003415 0.000000 -0.001775 0.000000
# 2 -0.003207 0.008846 -0.005222 0.000000 0.001721 0.000000
# 3 -0.003415 -0.005222 0.011038 0.000000 -0.002932 0.000000
# 4 0.000000 0.000000 0.000000 0.071663 0.000000 -0.003121
# 5 -0.001775 0.001721 -0.002932 0.000000 0.029763 0.000000
# 6 0.000000 0.000000 0.000000 -0.003121 0.000000 0.041036
#
#
# Mechanical properties :
#
#
# Convention : Reuss Voigt Hill
#
# Bulk Modulus (GPa) = 27.88546 67.04155 47.46351
# Shear Modulus (GPa) = 21.03919 28.85019 24.94469
#
# Velocity S-wave (km/s) = 3.02841 3.54629 3.29753
# Velocity P-wave (km/s) = 4.93801 6.78178 5.93197
#
# Compressibility (1/GPa) = 0.03586098
#
# Stress axis : x y z
#
# Youngs Moduli (GPa) = 25.21145 113.04670 90.59394
#
# Poissons Ratio (x) = 0.36252 0.30940
# Poissons Ratio (y) = 0.08085 0.47306
# Poissons Ratio (z) = 0.08610 0.59031
#
# Static dielectric constant tensor:
#      x y z
#    x 4.499780 0.000000 0.166160 
#    y 0.000000 4.050720 0.000000 
#    z 0.166160 0.000000 5.278790 
# 
# 
# High freq. dielectric constant tensor:
#      x y z
#    x 1.938670 0.000000 0.006010 
#    y 0.000000 1.860230 0.000000 
#    z 0.006010 0.000000 1.923190 
# 
# From -- ./inp_files/334003.got.cif
#   From: 2010.06.25/outbox.cif.g09.slc.cpg/sg12_168_cif.got.tgz:334003.got - 2010.06.28 00:19:55.
