data_PCOD8105172
_publ_section_title
;
Structure prediction by ZEFSAII (Michael W. Deem and Ramdas Pophale) SiO2 
 PCOD8105172
Probable space group: C 2/M
;
_chemical_formula_sum "Si O2"
_cell_formula_units_Z 44
_cell_length_a 9.555206
_cell_length_b 16.438775
_cell_length_c 18.218297
_cell_angle_alpha 90.000000
_cell_angle_beta 130.800301
_cell_angle_gamma 90.000000
_cell_volume 2166.248909
_symmetry_space_group_name_H-M "C 2/M"
_symmetry_group_IT_number 12
_symmetry_cell_setting 'monoclinic'
loop_
_space_group_symop_operation_xyz
x,y,z
-x,y,-z
-x,-y,-z
x,-y,z
1/2+x,1/2+y,z
1/2-x,1/2+y,-z
1/2-x,1/2-y,-z
1/2+x,1/2-y,z
loop_
_atom_site_type_symbol
_atom_site_label
_atom_site_fract_x
_atom_site_fract_y
_atom_site_fract_z
Si Si1 0.471589 0.755316 0.160401
Si Si2 0.863129 0.831406 0.519361
Si Si3 0.660303 0.000000 0.223322
Si Si4 0.281268 0.500000 0.432115
Si Si5 0.841679 0.858664 0.995426
Si Si6 0.147613 0.500000 0.987082
Si Si7 0.156738 0.162285 0.742441
O O1 0.439033 0.716886 0.069133
O O2 0.686502 0.780176 0.240510
O O3 0.422986 0.695309 0.209274
O O4 0.332395 0.832113 0.115149
O O5 0.750000 0.750000 0.500000
O O6 0.736078 0.913069 0.457796
O O7 0.000000 0.810238 0.500000
O O8 0.985321 0.852453 0.630886
O O9 0.680620 0.000000 0.318620
O O10 0.445663 0.000000 0.126370
O O11 0.752257 0.924513 0.213313
O O12 0.500000 0.500000 0.500000
O O13 0.775275 0.920604 0.035580
O O14 0.000000 0.900028 0.000000
O O15 0.000000 0.500000 0.000000
#
# Coordination Sequence:
#
# PCOD8105172 Si02
#       7
#     8   8   4   4   8   4   8
#     4  11  24  38  63  91 125 170 213 264 326 384
#     4  11  22  40  67  96 128 167 214 267 328 393
#     4  12  22  39  67  92 126 167 217 266 315 387
#     4  10  20  42  62  95 128 170 206 267 328 384
#     4  11  23  42  59  87 134 168 211 274 327 377
#     4  12  25  39  66  95 124 172 229 263 323 400
#     4  12  22  40  64  94 125 164 218 264 318 398
#
# _framework density 20.311606999999999
#
# number of rings (size 3 to 8) (size 9 to 14) (size 15 to 20)
#    0.000    0.727    7.273    2.455    0.000    0.000 
#    0.000    0.455    0.000    1.091    0.000    0.000 
#    0.000    0.000    0.000    0.000    0.000    0.000 
#
# Total GULP energy -272668.139676 kJ/mol
# GULP energy per Si atom -12394.006349 kJ/mol
# Density = 2.026538 g / cm^3
# Si number density = 20.311607 Si / 1000 Ang^3
#
#
#
# Elastic Constant Matrix: (Units=GPa)
#
#
# Indices 1 2 3 4 5 6 
#
# 1 105.9790 42.6565 12.2149 0.0000 -6.2162 0.0000
# 2 42.6565 130.1476 5.2327 0.0000 -4.5559 0.0000
# 3 12.2149 5.2327 67.7513 0.0000 -6.7389 0.0000
# 4 0.0000 0.0000 0.0000 29.4513 0.0000 -12.8187
# 5 -6.2162 -4.5559 -6.7389 0.0000 26.1691 0.0000
# 6 0.0000 0.0000 0.0000 -12.8187 0.0000 282.9861
#
#
#
# Elastic Compliance Matrix: (Units=1/GPa)
#
#
# Indices 1 2 3 4 5 6 
#
# 1 0.011133 -0.003529 -0.001573 0.000000 0.001625 0.000000
# 2 -0.003529 0.008864 0.000022 0.000000 0.000711 0.000000
# 3 -0.001573 0.000022 0.015399 0.000000 0.003596 0.000000
# 4 0.000000 0.000000 0.000000 0.034637 0.000000 0.001569
# 5 0.001625 0.000711 0.003596 0.000000 0.039649 0.000000
# 6 0.000000 0.000000 0.000000 0.001569 0.000000 0.003605
#
#
# Mechanical properties :
#
#
# Convention : Reuss Voigt Hill
#
# Bulk Modulus (GPa) = 39.62354 47.12067 43.37210
# Shear Modulus (GPa) = 37.91948 83.97288 60.94618
#
# Velocity S-wave (km/s) = 4.32544 6.43677 5.48368
# Velocity P-wave (km/s) = 6.67054 8.85957 7.84181
#
# Compressibility (1/GPa) = 0.02523753
#
# Stress axis : x y z
#
# Youngs Moduli (GPa) = 89.82520 112.81444 64.93764
#
# Poissons Ratio (x) = 0.39809 0.10214
# Poissons Ratio (y) = 0.31696 -0.00145
# Poissons Ratio (z) = 0.14129 -0.00251
#
# Static dielectric constant tensor:
#      x y z
#    x 3.203360 0.000000 0.112700 
#    y 0.000000 4.298320 0.000000 
#    z 0.112700 0.000000 3.820920 
# 
# 
# High freq. dielectric constant tensor:
#      x y z
#    x 1.771600 0.000000 -0.002700 
#    y 0.000000 1.807190 0.000000 
#    z -0.002700 0.000000 1.797580 
# 
# From -- ./inp_files/195480.got.cif
#   From: 2010.06.25/outbox.cif.g09.slc.cpg/sg12_98_cif.got.tgz:195480.got - 2010.06.28 00:19:55.
