data_PCOD8105238
_publ_section_title
;
Structure prediction by ZEFSAII (Michael W. Deem and Ramdas Pophale) SiO2 
 PCOD8105238
Probable space group: C 2/M
;
_chemical_formula_sum "Si O2"
_cell_formula_units_Z 52
_cell_length_a 16.275307
_cell_length_b 22.631239
_cell_length_c 10.241537
_cell_angle_alpha 90.000000
_cell_angle_beta 135.479839
_cell_angle_gamma 90.000000
_cell_volume 2644.964898
_symmetry_space_group_name_H-M "C 2/M"
_symmetry_group_IT_number 12
_symmetry_cell_setting 'monoclinic'
loop_
_space_group_symop_operation_xyz
x,y,z
-x,y,-z
-x,-y,-z
x,-y,z
1/2+x,1/2+y,z
1/2-x,1/2+y,-z
1/2-x,1/2-y,-z
1/2+x,1/2-y,z
loop_
_atom_site_type_symbol
_atom_site_label
_atom_site_fract_x
_atom_site_fract_y
_atom_site_fract_z
Si Si1 0.745296 0.135088 0.260198
Si Si2 0.931488 0.746447 0.176235
Si Si3 0.500000 0.826758 0.000000
Si Si4 0.323617 0.249665 0.453162
Si Si5 0.954124 0.067498 0.594530
Si Si6 0.372285 0.150792 0.322279
Si Si7 0.825074 0.128845 0.065237
O O1 0.770478 0.205441 0.287582
O O2 0.828444 0.100903 0.458187
O O3 0.765852 0.112988 0.136748
O O4 0.609700 0.129052 0.151420
O O5 0.880817 0.696969 0.213586
O O6 0.843194 0.801134 0.060033
O O7 0.046531 0.773905 0.373461
O O8 0.968386 0.715967 0.083291
O O9 0.250000 0.250000 0.500000
O O10 0.326959 0.183349 0.401014
O O11 0.000000 0.074239 0.500000
O O12 0.050439 0.094829 0.803303
O O13 0.933346 0.000000 0.611304
O O14 0.500000 0.121135 0.500000
O O15 0.268991 0.106679 0.153135
#
# Coordination Sequence:
#
# PCOD8105238 Si02
#       7
#     8   8   4   8   8   8   8
#     4  11  20  34  51  76 110 142 176 218 276 311
#     4  11  20  30  48  76 112 148 181 204 256 323
#     4  12  22  30  49  82 117 146 176 208 256 338
#     4  11  20  31  46  75 113 148 176 213 253 322
#     4   9  20  36  58  82 102 131 185 237 273 317
#     4  10  21  32  47  74 110 147 180 208 256 322
#     4  11  19  34  56  73 104 150 176 219 274 309
#
# _framework density 19.659997000000001
#
# number of rings (size 3 to 8) (size 9 to 14) (size 15 to 20)
#    0.000    1.385    6.154    1.385    0.000    0.000 
#    0.000    0.385    0.000    0.462    0.000    4.846 
#    0.000    0.000    0.000    0.000    0.000    0.000 
#
# Total GULP energy -322188.270025 kJ/mol
# GULP energy per Si atom -12391.856539 kJ/mol
# Density = 1.961525 g / cm^3
# Si number density = 19.659997 Si / 1000 Ang^3
#
#
#
# Elastic Constant Matrix: (Units=GPa)
#
#
# Indices 1 2 3 4 5 6 
#
# 1 78.2740 8.6971 32.6863 0.0000 6.4279 0.0000
# 2 8.6971 50.1922 36.4284 0.0000 13.6430 0.0000
# 3 32.6863 36.4284 174.9368 0.0000 38.7250 0.0000
# 4 0.0000 0.0000 0.0000 17.8115 0.0000 1.8226
# 5 6.4279 13.6430 38.7250 0.0000 40.2804 0.0000
# 6 0.0000 0.0000 0.0000 1.8226 0.0000 10.5782
#
#
#
# Elastic Compliance Matrix: (Units=1/GPa)
#
#
# Indices 1 2 3 4 5 6 
#
# 1 0.013880 -0.000678 -0.002557 0.000000 0.000473 0.000000
# 2 -0.000678 0.024057 -0.003942 0.000000 -0.004250 0.000000
# 3 -0.002557 -0.003942 0.008421 0.000000 -0.006353 0.000000
# 4 0.000000 0.000000 0.000000 0.057151 0.000000 -0.009847
# 5 0.000473 -0.004250 -0.006353 0.000000 0.032298 0.000000
# 6 0.000000 0.000000 0.000000 -0.009847 0.000000 0.096231
#
#
# Mechanical properties :
#
#
# Convention : Reuss Voigt Hill
#
# Bulk Modulus (GPa) = 31.24545 51.00293 41.12419
# Shear Modulus (GPa) = 19.45070 28.77342 24.11206
#
# Velocity S-wave (km/s) = 3.14881 3.82979 3.50587
# Velocity P-wave (km/s) = 5.39884 6.74946 6.11157
#
# Compressibility (1/GPa) = 0.03200466
#
# Stress axis : x y z
#
# Youngs Moduli (GPa) = 72.04685 41.56755 118.74633
#
# Poissons Ratio (x) = 0.02817 0.30363
# Poissons Ratio (y) = 0.04883 0.46811
# Poissons Ratio (z) = 0.18422 0.16387
#
# Static dielectric constant tensor:
#      x y z
#    x 3.458620 0.000000 0.817720 
#    y 0.000000 3.383490 0.000000 
#    z 0.817720 0.000000 1.378840 
# 
# 
# High freq. dielectric constant tensor:
#      x y z
#    x 1.750110 0.000000 0.022720 
#    y 0.000000 1.693120 0.000000 
#    z 0.022720 0.000000 1.798180 
# 
# From -- ./inp_files/148868.got.cif
#   From: 2010.06.25/outbox.cif.g09.slc.cpg/sg12_75_cif.got.tgz:148868.got - 2010.06.28 00:19:55.
