data_PCOD8105744
_publ_section_title
;
Structure prediction by ZEFSAII (Michael W. Deem and Ramdas Pophale) SiO2 
 PCOD8105744
Probable space group: C 2/M
;
_chemical_formula_sum "Si O2"
_cell_formula_units_Z 64
_cell_length_a 19.088275
_cell_length_b 12.205258
_cell_length_c 27.757840
_cell_angle_alpha 90.000000
_cell_angle_beta 150.131469
_cell_angle_gamma 90.000000
_cell_volume 3220.614286
_symmetry_space_group_name_H-M "C 2/M"
_symmetry_group_IT_number 12
_symmetry_cell_setting 'monoclinic'
loop_
_space_group_symop_operation_xyz
x,y,z
-x,y,-z
-x,-y,-z
x,-y,z
1/2+x,1/2+y,z
1/2-x,1/2+y,-z
1/2-x,1/2-y,-z
1/2+x,1/2-y,z
loop_
_atom_site_type_symbol
_atom_site_label
_atom_site_fract_x
_atom_site_fract_y
_atom_site_fract_z
Si Si1 0.102121 0.881247 0.395352
Si Si2 0.721333 0.725967 0.553774
Si Si3 0.339465 0.735239 0.124811
Si Si4 0.107240 0.370875 0.264916
Si Si5 0.533768 0.126162 0.576265
Si Si6 0.681003 0.739822 0.218377
Si Si7 0.288750 0.625076 0.196989
Si Si8 0.098865 0.875000 0.935630
O O1 0.138381 0.793045 0.376201
O O2 0.194768 0.867531 0.498601
O O3 0.939552 0.873762 0.312825
O O4 0.136359 0.000000 0.393599
O O5 0.752121 0.669255 0.623089
O O6 0.591269 0.809127 0.472646
O O7 0.467760 0.820795 0.206151
O O8 0.304519 0.671922 0.152864
O O9 0.380094 0.646128 0.108675
O O10 0.199182 0.799014 0.026908
O O11 0.093851 0.500000 0.259452
O O12 0.126474 0.335174 0.221367
O O13 0.500000 0.133498 0.500000
O O14 0.679464 0.182898 0.677708
O O15 0.536401 0.000000 0.595232
O O16 0.694030 0.795775 0.173625
O O17 0.561629 0.647196 0.144241
O O18 0.229141 0.500000 0.159435
O O19 0.135698 0.000000 0.968732
#
# Coordination Sequence:
#
# PCOD8105744 Si02
#       8
#     8   8   8   8   8   8   8   8
#     4  10  21  35  56  83 119 159 199 248 297 350
#     4  11  20  37  55  87 119 155 208 245 296 349
#     4  10  22  42  66  95 118 150 205 252 300 360
#     4  11  22  38  61  89 122 161 202 250 299 350
#     4  11  22  37  57  83 118 158 201 248 294 345
#     4  11  23  41  59  92 126 160 201 244 298 367
#     4  11  22  40  63  90 123 161 197 245 304 357
#     4  10  22  43  69  91 119 156 198 252 303 357
#
# _framework density 19.871986
#
# number of rings (size 3 to 8) (size 9 to 14) (size 15 to 20)
#    0.000    1.375    3.750    2.250    0.000    0.500 
#    0.000    7.500    0.000    0.000    0.000    0.000 
#    0.000    0.000    0.000    0.000    0.000    0.000 
#
# Total GULP energy -396789.894056 kJ/mol
# GULP energy per Si atom -12399.684189 kJ/mol
# Density = 1.982676 g / cm^3
# Si number density = 19.871986 Si / 1000 Ang^3
#
#
#
# Elastic Constant Matrix: (Units=GPa)
#
#
# Indices 1 2 3 4 5 6 
#
# 1 95.8240 38.3433 26.3057 0.0000 -1.9851 0.0000
# 2 38.3433 111.9351 31.1172 0.0001 -1.5017 0.0000
# 3 26.3057 31.1172 80.6491 0.0003 6.0033 0.0001
# 4 0.0000 0.0001 0.0003 14.2125 0.0001 4.4264
# 5 -1.9851 -1.5017 6.0033 0.0001 27.1917 0.0000
# 6 0.0000 0.0000 0.0001 4.4264 0.0000 11.2860
#
#
#
# Elastic Compliance Matrix: (Units=1/GPa)
#
#
# Indices 1 2 3 4 5 6 
#
# 1 0.012661 -0.003520 -0.002873 0.000000 0.001364 0.000000
# 2 -0.003520 0.011041 -0.003190 0.000000 0.001057 0.000000
# 3 -0.002873 -0.003190 0.014840 0.000000 -0.003662 0.000000
# 4 0.000000 0.000000 0.000000 0.080151 0.000000 -0.031435
# 5 0.001364 0.001057 -0.003662 0.000000 0.037742 0.000000
# 6 0.000000 0.000000 0.000000 -0.031435 0.000000 0.100934
#
#
# Mechanical properties :
#
#
# Convention : Reuss Voigt Hill
#
# Bulk Modulus (GPa) = 51.61350 53.32673 52.47012
# Shear Modulus (GPa) = 17.66814 23.38085 20.52449
#
# Velocity S-wave (km/s) = 2.98501 3.43384 3.21726
# Velocity P-wave (km/s) = 6.15709 6.52802 6.34527
#
# Compressibility (1/GPa) = 0.01937478
#
# Stress axis : x y z
#
# Youngs Moduli (GPa) = 78.98044 90.57439 67.38479
#
# Poissons Ratio (x) = 0.31883 0.19361
# Poissons Ratio (y) = 0.27802 0.21498
# Poissons Ratio (z) = 0.22693 0.28897
#
# Static dielectric constant tensor:
#      x y z
#    x 3.487570 0.000000 0.054650 
#    y 0.000000 3.592360 0.000000 
#    z 0.054650 0.000000 3.634460 
# 
# 
# High freq. dielectric constant tensor:
#      x y z
#    x 1.767750 0.000000 0.002100 
#    y 0.000000 1.781230 0.000000 
#    z 0.002100 0.000000 1.778930 
# 
# From -- ./inp_files/250851.got.cif
#   From: 2010.06.25/outbox.cif.g09.slc.cpg/sg12_126_cif.got.tgz:250851.got - 2010.06.28 00:19:55.
