data_PCOD8105403
_publ_section_title
;
Structure prediction by ZEFSAII (Michael W. Deem and Ramdas Pophale) SiO2 
 PCOD8105403
Probable space group: C 2/M
;
_chemical_formula_sum "Si O2"
_cell_formula_units_Z 40
_cell_length_a 5.113657
_cell_length_b 33.380382
_cell_length_c 11.809390
_cell_angle_alpha 90.000000
_cell_angle_beta 70.678774
_cell_angle_gamma 90.000000
_cell_volume 1902.279800
_symmetry_space_group_name_H-M "C 2/M"
_symmetry_group_IT_number 12
_symmetry_cell_setting 'monoclinic'
loop_
_space_group_symop_operation_xyz
x,y,z
-x,y,-z
-x,-y,-z
x,-y,z
1/2+x,1/2+y,z
1/2-x,1/2+y,-z
1/2-x,1/2-y,-z
1/2+x,1/2-y,z
loop_
_atom_site_type_symbol
_atom_site_label
_atom_site_fract_x
_atom_site_fract_y
_atom_site_fract_z
Si Si1 0.794258 0.956210 0.730022
Si Si2 0.807970 0.062911 0.129177
Si Si3 0.238048 0.148043 0.779663
Si Si4 0.660843 0.628945 0.365239
Si Si5 0.695739 0.767181 0.133918
O O1 0.502679 0.953969 0.839670
O O2 0.813959 0.919670 0.638618
O O3 0.055600 0.953105 0.775695
O O4 0.811797 0.000000 0.667185
O O5 0.789495 0.111031 0.130900
O O6 0.000000 0.047734 0.000000
O O7 0.532265 0.147367 0.672876
O O8 0.216962 0.186868 0.862675
O O9 0.992969 0.146375 0.722926
O O10 0.500000 0.642539 0.500000
O O11 0.369067 0.759447 0.200466
O O12 0.750000 0.750000 0.000000
#
# Coordination Sequence:
#
# PCOD8105403 Si02
#       5
#     8   8   8   8   8
#     4  10  21  36  53  82 114 145 195 245 281 330
#     4  10  21  34  53  80 113 159 187 223 283 351
#     4  10  21  38  58  85 120 145 191 238 275 342
#     4  10  21  39  62  83 108 155 198 237 289 327
#     4  10  21  36  57  89 118 151 176 227 285 339
#
# _framework density 21.027401000000001
#
# number of rings (size 3 to 8) (size 9 to 14) (size 15 to 20)
#    0.000    2.000    0.000    3.000    2.800    2.800 
#    7.200    0.000    0.000   19.200    0.000    0.000 
#    0.000    0.000    0.000    0.000    0.000    0.000 
#
# Total GULP energy -247874.263942 kJ/mol
# GULP energy per Si atom -12393.713197 kJ/mol
# Density = 2.097954 g / cm^3
# Si number density = 21.027401 Si / 1000 Ang^3
#
#
#
# Elastic Constant Matrix: (Units=GPa)
#
#
# Indices 1 2 3 4 5 6 
#
# 1 128.8960 26.1773 -3.2804 0.0000 -3.2705 0.0000
# 2 26.1773 139.1610 9.3325 0.0000 14.1180 0.0000
# 3 -3.2804 9.3325 48.1220 0.0000 -10.3197 0.0000
# 4 0.0000 0.0000 0.0000 12.0035 0.0000 4.3981
# 5 -3.2705 14.1180 -10.3197 0.0000 23.8510 0.0000
# 6 0.0000 0.0000 0.0000 4.3981 0.0000 18.5568
#
#
#
# Elastic Compliance Matrix: (Units=1/GPa)
#
#
# Indices 1 2 3 4 5 6 
#
# 1 0.008273 -0.001965 0.001585 0.000000 0.002983 0.000000
# 2 -0.001965 0.008445 -0.003198 0.000000 -0.006652 0.000000
# 3 0.001585 -0.003198 0.024208 0.000000 0.012584 0.000000
# 4 0.000000 0.000000 0.000000 0.091231 0.000000 -0.021622
# 5 0.002983 -0.006652 0.012584 0.000000 0.051718 0.000000
# 6 0.000000 0.000000 0.000000 -0.021622 0.000000 0.059013
#
#
# Mechanical properties :
#
#
# Convention : Reuss Voigt Hill
#
# Bulk Modulus (GPa) = 29.61329 42.29311 35.95320
# Shear Modulus (GPa) = 19.13492 29.81224 24.47358
#
# Velocity S-wave (km/s) = 3.01989 3.76943 3.41528
# Velocity P-wave (km/s) = 5.12576 6.25314 5.71731
#
# Compressibility (1/GPa) = 0.03376862
#
# Stress axis : x y z
#
# Youngs Moduli (GPa) = 120.87007 118.41415 41.30950
#
# Poissons Ratio (x) = 0.23271 -0.06547
# Poissons Ratio (y) = 0.23754 0.13212
# Poissons Ratio (z) = -0.19157 0.37872
#
# Static dielectric constant tensor:
#      x y z
#    x 0.898070 0.000000 0.461250 
#    y 0.000000 3.921250 0.000000 
#    z 0.461250 0.000000 3.061640 
# 
# 
# High freq. dielectric constant tensor:
#      x y z
#    x 1.856950 0.000000 -0.007050 
#    y 0.000000 1.826500 0.000000 
#    z -0.007050 0.000000 1.767830 
# 
# From -- ./inp_files/115539.got.cif
#   From: 2010.06.25/outbox.cif.g09.slc.cpg/sg12_58_cif.got.tgz:115539.got - 2010.06.28 00:19:55.
