data_PCOD8105263
_publ_section_title
;
Structure prediction by ZEFSAII (Michael W. Deem and Ramdas Pophale) SiO2 
 PCOD8105263
Probable space group: C 2/M
;
_chemical_formula_sum "Si O2"
_cell_formula_units_Z 56
_cell_length_a 8.727689
_cell_length_b 19.044052
_cell_length_c 18.723233
_cell_angle_alpha 90.000000
_cell_angle_beta 112.144374
_cell_angle_gamma 90.000000
_cell_volume 2882.448642
_symmetry_space_group_name_H-M "C 2/M"
_symmetry_group_IT_number 12
_symmetry_cell_setting 'monoclinic'
loop_
_space_group_symop_operation_xyz
x,y,z
-x,y,-z
-x,-y,-z
x,-y,z
1/2+x,1/2+y,z
1/2-x,1/2+y,-z
1/2-x,1/2-y,-z
1/2+x,1/2-y,z
loop_
_atom_site_type_symbol
_atom_site_label
_atom_site_fract_x
_atom_site_fract_y
_atom_site_fract_z
Si Si1 0.478577 0.348533 0.704310
Si Si2 0.685468 0.581343 0.855891
Si Si3 0.186120 0.744868 0.661109
Si Si4 0.153471 0.691519 0.440298
Si Si5 0.544110 0.922735 0.924394
Si Si6 0.823656 0.826977 0.005584
Si Si7 0.133362 0.920131 0.461102
O O1 0.551377 0.405938 0.770716
O O2 0.313321 0.315175 0.709988
O O3 0.611609 0.286085 0.715697
O O4 0.437715 0.382273 0.620982
O O5 0.672896 0.500000 0.879310
O O6 0.650525 0.633757 0.914915
O O7 0.869564 0.595916 0.855336
O O8 0.283570 0.801599 0.630081
O O9 0.042745 0.705174 0.590293
O O10 0.250000 0.750000 0.500000
O O11 0.197574 0.615832 0.481275
O O12 0.605528 0.000000 0.912214
O O13 0.500000 0.920069 0.000000
O O14 0.692433 0.869277 0.932805
O O15 0.750000 0.750000 0.000000
O O16 0.000000 0.822332 0.000000
O O17 0.000000 0.913369 0.500000
O O18 0.175594 0.000000 0.449686
#
# Coordination Sequence:
#
# PCOD8105263 Si02
#       7
#     8   8   8   8   8   8   8
#     4  11  22  37  55  86 116 158 192 245 295 356
#     4  10  22  41  61  84 124 163 192 234 299 363
#     4  10  21  32  58  80 108 145 199 243 299 343
#     4  11  17  34  57  79 104 145 196 257 293 347
#     4   8  16  34  59  85 112 149 191 227 277 347
#     4  11  22  37  64  93 120 150 192 248 287 337
#     4  11  21  33  55  83 112 150 201 249 291 350
#
# _framework density 19.427925999999999
#
# number of rings (size 3 to 8) (size 9 to 14) (size 15 to 20)
#    0.000    1.714    4.286    3.429    0.000    3.429 
#    0.000    3.571    0.000    0.000    0.000    0.000 
#    0.000    0.000    0.000    0.000    0.000    0.000 
#
# Total GULP energy -347090.289398 kJ/mol
# GULP energy per Si atom -12396.081764 kJ/mol
# Density = 1.938371 g / cm^3
# Si number density = 19.427926 Si / 1000 Ang^3
#
#
#
# Elastic Constant Matrix: (Units=GPa)
#
#
# Indices 1 2 3 4 5 6 
#
# 1 115.6626 60.3486 29.8203 0.0000 22.3156 0.0000
# 2 60.3486 129.5495 36.7287 0.0000 16.4908 0.0000
# 3 29.8203 36.7287 75.3812 0.0000 18.8572 0.0000
# 4 0.0000 0.0000 0.0000 34.5250 0.0000 8.7237
# 5 22.3156 16.4908 18.8572 0.0000 26.5666 0.0000
# 6 0.0000 0.0000 0.0000 8.7237 0.0000 30.6118
#
#
#
# Elastic Compliance Matrix: (Units=1/GPa)
#
#
# Indices 1 2 3 4 5 6 
#
# 1 0.012742 -0.004766 -0.000950 0.000000 -0.007070 0.000000
# 2 -0.004766 0.010939 -0.003341 0.000000 -0.000416 0.000000
# 3 -0.000950 -0.003341 0.017692 0.000000 -0.009687 0.000000
# 4 0.000000 0.000000 0.000000 0.031212 0.000000 -0.008895
# 5 -0.007070 -0.000416 -0.009687 0.000000 0.050714 0.000000
# 6 0.000000 0.000000 0.000000 -0.008895 0.000000 0.035202
#
#
# Mechanical properties :
#
#
# Convention : Reuss Voigt Hill
#
# Bulk Modulus (GPa) = 42.99106 63.82096 53.40601
# Shear Modulus (GPa) = 27.11969 31.25373 29.18671
#
# Velocity S-wave (km/s) = 3.74024 4.01521 3.88017
# Velocity P-wave (km/s) = 6.38977 7.37681 6.90096
#
# Compressibility (1/GPa) = 0.02326065
#
# Stress axis : x y z
#
# Youngs Moduli (GPa) = 78.48290 91.41298 56.52123
#
# Poissons Ratio (x) = 0.43570 0.05367
# Poissons Ratio (y) = 0.37407 0.18881
# Poissons Ratio (z) = 0.07452 0.30537
#
# Static dielectric constant tensor:
#      x y z
#    x 3.719360 0.000000 0.348030 
#    y 0.000000 3.998150 0.000000 
#    z 0.348030 0.000000 3.501790 
# 
# 
# High freq. dielectric constant tensor:
#      x y z
#    x 1.752520 0.000000 0.023300 
#    y 0.000000 1.757420 0.000000 
#    z 0.023300 0.000000 1.734950 
# 
# From -- ./inp_files/300886.got.cif
#   From: 2010.06.25/outbox.cif.g09.slc.cpg/sg12_151_cif.got.tgz:300886.got - 2010.06.28 00:19:55.
