data_PCOD8105414
_publ_section_title
;
Structure prediction by ZEFSAII (Michael W. Deem and Ramdas Pophale) SiO2 
 PCOD8105414
Probable space group: C 2/M
;
_chemical_formula_sum "Si O2"
_cell_formula_units_Z 48
_cell_length_a 34.360149
_cell_length_b 9.042227
_cell_length_c 8.011551
_cell_angle_alpha 90.000000
_cell_angle_beta 89.069251
_cell_angle_gamma 90.000000
_cell_volume 2488.798524
_symmetry_space_group_name_H-M "C 2/M"
_symmetry_group_IT_number 12
_symmetry_cell_setting 'monoclinic'
loop_
_space_group_symop_operation_xyz
x,y,z
-x,y,-z
-x,-y,-z
x,-y,z
1/2+x,1/2+y,z
1/2-x,1/2+y,-z
1/2-x,1/2-y,-z
1/2+x,1/2-y,z
loop_
_atom_site_type_symbol
_atom_site_label
_atom_site_fract_x
_atom_site_fract_y
_atom_site_fract_z
Si Si1 0.291522 0.824342 0.003220
Si Si2 0.921407 0.827252 0.304475
Si Si3 0.842081 0.670920 0.691832
Si Si4 0.428438 0.171530 0.643333
Si Si5 0.342891 0.825236 0.313320
Si Si6 0.493442 0.840742 0.188381
O O1 0.310255 0.780119 0.180818
O O2 0.287629 0.000000 0.991447
O O3 0.250000 0.750000 0.000000
O O4 0.316014 0.759497 0.842723
O O5 0.930002 0.783414 0.491816
O O6 0.882794 0.745329 0.242639
O O7 0.959419 0.778668 0.200609
O O8 0.914933 0.000000 0.284519
O O9 0.831692 0.500000 0.686646
O O10 0.887227 0.697485 0.739983
O O11 0.833186 0.733770 0.503590
O O12 0.465477 0.220476 0.747568
O O13 0.430605 0.000000 0.586271
O O14 0.349394 0.000000 0.319007
O O15 0.482750 0.000000 0.276684
O O16 0.500000 0.877982 0.000000
#
# Coordination Sequence:
#
# PCOD8105414 Si02
#       6
#     8   8   8   8   8   8
#     4  10  21  36  58  84 112 142 176 222 278 334
#     4  11  22  35  53  78 111 147 180 225 283 329
#     4   8  16  33  56  81 106 139 182 227 268 316
#     4   9  18  35  57  78 103 140 189 232 267 317
#     4   9  19  37  60  80 105 145 190 229 269 323
#     4  10  21  34  54  81 107 143 190 232 268 318
#
# _framework density 19.286414000000001
#
# number of rings (size 3 to 8) (size 9 to 14) (size 15 to 20)
#    0.000    2.500    0.000    3.000    2.333    4.333 
#    0.000    3.333    0.000    0.000    0.000    0.000 
#    0.000    0.000    0.000    0.000    0.000    0.000 
#
# Total GULP energy -297353.131637 kJ/mol
# GULP energy per Si atom -12389.713818 kJ/mol
# Density = 1.924252 g / cm^3
# Si number density = 19.286414 Si / 1000 Ang^3
#
#
#
# Elastic Constant Matrix: (Units=GPa)
#
#
# Indices 1 2 3 4 5 6 
#
# 1 142.1104 36.0373 66.3219 0.0000 8.1843 0.0000
# 2 36.0373 47.9105 24.4145 0.0000 3.5566 0.0000
# 3 66.3219 24.4145 94.6851 0.0000 1.9843 0.0000
# 4 0.0000 0.0000 0.0000 14.5509 0.0000 4.0135
# 5 8.1843 3.5566 1.9843 0.0000 40.0479 0.0000
# 6 0.0000 0.0000 0.0000 4.0135 0.0000 34.1368
#
#
#
# Elastic Compliance Matrix: (Units=1/GPa)
#
#
# Indices 1 2 3 4 5 6 
#
# 1 0.011587 -0.005157 -0.006753 0.000000 -0.001575 0.000000
# 2 -0.005157 0.026460 -0.003186 0.000000 -0.001138 0.000000
# 3 -0.006753 -0.003186 0.016095 0.000000 0.000866 0.000000
# 4 0.000000 0.000000 0.000000 0.071027 0.000000 -0.008351
# 5 -0.001575 -0.001138 0.000866 0.000000 0.025350 0.000000
# 6 0.000000 0.000000 0.000000 -0.008351 0.000000 0.030276
#
#
# Mechanical properties :
#
#
# Convention : Reuss Voigt Hill
#
# Bulk Modulus (GPa) = 41.75724 59.80594 50.78159
# Shear Modulus (GPa) = 22.83401 28.27593 25.55497
#
# Velocity S-wave (km/s) = 3.44458 3.83313 3.64404
# Velocity P-wave (km/s) = 6.12522 7.11809 6.64024
#
# Compressibility (1/GPa) = 0.02394795
#
# Stress axis : x y z
#
# Youngs Moduli (GPa) = 86.30344 37.79343 62.13058
#
# Poissons Ratio (x) = 0.19491 0.41959
# Poissons Ratio (y) = 0.44508 0.19797
# Poissons Ratio (z) = 0.58283 0.12043
#
# Static dielectric constant tensor:
#      x y z
#    x 44.831640 0.000000 -0.137710 
#    y 0.000000 3.182810 0.000000 
#    z -0.137710 0.000000 3.727980 
# 
# 
# High freq. dielectric constant tensor:
#      x y z
#    x 1.755580 0.000000 0.002320 
#    y 0.000000 1.714470 0.000000 
#    z 0.002320 0.000000 1.751620 
# 
# From -- ./inp_files/108605.got.cif
#   From: 2010.06.25/outbox.cif.g09.slc.cpg/sg12_55_cif.got.tgz:108605.got - 2010.06.28 00:19:55.
