data_PCOD8105189
_publ_section_title
;
Structure prediction by ZEFSAII (Michael W. Deem and Ramdas Pophale) SiO2 
 PCOD8105189
Probable space group: C 2/M
;
_chemical_formula_sum "Si O2"
_cell_formula_units_Z 36
_cell_length_a 11.715484
_cell_length_b 26.031506
_cell_length_c 5.261205
_cell_angle_alpha 90.000000
_cell_angle_beta 107.206449
_cell_angle_gamma 90.000000
_cell_volume 1532.708477
_symmetry_space_group_name_H-M "C 2/M"
_symmetry_group_IT_number 12
_symmetry_cell_setting 'monoclinic'
loop_
_space_group_symop_operation_xyz
x,y,z
-x,y,-z
-x,-y,-z
x,-y,z
1/2+x,1/2+y,z
1/2-x,1/2+y,-z
1/2-x,1/2-y,-z
1/2+x,1/2-y,z
loop_
_atom_site_type_symbol
_atom_site_label
_atom_site_fract_x
_atom_site_fract_y
_atom_site_fract_z
Si Si1 0.768781 0.442471 0.097754
Si Si2 0.500000 0.709821 0.000000
Si Si3 0.671653 0.855860 0.481217
Si Si4 0.500000 0.908894 0.000000
Si Si5 0.500000 0.776419 0.500000
Si Si6 0.621924 0.362949 0.736318
O O1 0.732395 0.500000 0.156947
O O2 0.776805 0.405530 0.343793
O O3 0.896649 0.445072 0.043427
O O4 0.667272 0.419702 0.843992
O O5 0.470134 0.742867 0.730327
O O6 0.607859 0.671796 0.982662
O O7 0.553380 0.871743 0.248418
O O8 0.621035 0.810140 0.626955
O O9 0.776855 0.835319 0.367473
O O10 0.500000 0.367913 0.500000
#
# Coordination Sequence:
#
# PCOD8105189 Si02
#       6
#     8   4   8   4   4   8
#     4  11  24  42  75 108 148 198 241 306 378 441
#     4  12  27  50  76 108 147 201 256 305 378 434
#     4  11  24  44  75 109 153 187 247 307 371 454
#     4  10  20  42  67 108 158 183 240 301 373 448
#     4  12  26  46  79 114 145 198 242 310 392 436
#     4  11  26  51  69 104 153 197 253 311 355 448
#
# _framework density 23.487831
#
# number of rings (size 3 to 8) (size 9 to 14) (size 15 to 20)
#    0.000    0.889    3.333    2.333    3.111    7.556 
#    0.000    3.889    0.000    0.000    0.000    0.000 
#    0.000    0.000    0.000    0.000    0.000    0.000 
#
# Total GULP energy -223126.266669 kJ/mol
# GULP energy per Si atom -12395.903704 kJ/mol
# Density = 2.343437 g / cm^3
# Si number density = 23.487831 Si / 1000 Ang^3
#
#
#
# Elastic Constant Matrix: (Units=GPa)
#
#
# Indices 1 2 3 4 5 6 
#
# 1 139.5882 94.9884 56.6365 0.0000 -13.3325 0.0000
# 2 94.9884 139.7580 50.8456 0.0000 -12.4983 0.0000
# 3 56.6365 50.8456 123.1849 0.0000 -5.4976 0.0000
# 4 0.0000 0.0000 0.0000 24.1571 0.0000 -1.8530
# 5 -13.3325 -12.4983 -5.4976 0.0000 51.1833 0.0000
# 6 0.0000 0.0000 0.0000 -1.8530 0.0000 19.8679
#
#
#
# Elastic Compliance Matrix: (Units=1/GPa)
#
#
# Indices 1 2 3 4 5 6 
#
# 1 0.014298 -0.008506 -0.003003 0.000000 0.001325 0.000000
# 2 -0.008506 0.013629 -0.001673 0.000000 0.000932 0.000000
# 3 -0.003003 -0.001673 0.010185 0.000000 -0.000097 0.000000
# 4 0.000000 0.000000 0.000000 0.041694 0.000000 0.003889
# 5 0.001325 0.000932 -0.000097 0.000000 0.020100 0.000000
# 6 0.000000 0.000000 0.000000 0.003889 0.000000 0.050695
#
#
# Mechanical properties :
#
#
# Convention : Reuss Voigt Hill
#
# Bulk Modulus (GPa) = 85.13512 89.71912 87.42712
# Shear Modulus (GPa) = 27.64256 32.37904 30.01080
#
# Velocity S-wave (km/s) = 3.43430 3.71690 3.57839
# Velocity P-wave (km/s) = 7.21464 7.53004 7.37403
#
# Compressibility (1/GPa) = 0.01174603
#
# Stress axis : x y z
#
# Youngs Moduli (GPa) = 69.94195 73.37457 98.18507
#
# Poissons Ratio (x) = 0.62416 0.29488
# Poissons Ratio (y) = 0.59496 0.16424
# Poissons Ratio (z) = 0.21006 0.12274
#
# Static dielectric constant tensor:
#      x y z
#    x 4.437100 0.000000 -0.212690 
#    y 0.000000 4.137540 0.000000 
#    z -0.212690 0.000000 4.233840 
# 
# 
# High freq. dielectric constant tensor:
#      x y z
#    x 1.941350 0.000000 -0.012920 
#    y 0.000000 1.918320 0.000000 
#    z -0.012920 0.000000 1.929290 
# 
# From -- ./inp_files/7830.got.cif
#   From: 2010.06.25/outbox.cif.g09.slc.cpg/sg12_4_cif.got.tgz:7830.got - 2010.06.28 00:19:55.
