data_PCOD8105258
_publ_section_title
;
Structure prediction by ZEFSAII (Michael W. Deem and Ramdas Pophale) SiO2 
 PCOD8105258
Probable space group: C 2/M
;
_chemical_formula_sum "Si O2"
_cell_formula_units_Z 52
_cell_length_a 8.535316
_cell_length_b 24.566325
_cell_length_c 13.778827
_cell_angle_alpha 90.000000
_cell_angle_beta 76.912379
_cell_angle_gamma 90.000000
_cell_volume 2814.116744
_symmetry_space_group_name_H-M "C 2/M"
_symmetry_group_IT_number 12
_symmetry_cell_setting 'monoclinic'
loop_
_space_group_symop_operation_xyz
x,y,z
-x,y,-z
-x,-y,-z
x,-y,z
1/2+x,1/2+y,z
1/2-x,1/2+y,-z
1/2-x,1/2-y,-z
1/2+x,1/2-y,z
loop_
_atom_site_type_symbol
_atom_site_label
_atom_site_fract_x
_atom_site_fract_y
_atom_site_fract_z
Si Si1 0.238493 0.326983 0.755218
Si Si2 0.811113 0.000000 0.012226
Si Si3 0.359768 0.087336 0.088378
Si Si4 0.775956 0.702018 0.570609
Si Si5 0.815042 0.108144 0.551577
Si Si6 0.471221 0.000000 0.808186
Si Si7 0.493272 0.242470 0.697843
Si Si8 0.604911 0.000000 0.582364
O O1 0.238272 0.363522 0.850836
O O2 0.310358 0.358676 0.652628
O O3 0.343356 0.273753 0.765558
O O4 0.058236 0.305520 0.758129
O O5 0.714276 0.000000 0.128391
O O6 0.764767 0.052871 0.957248
O O7 0.000000 0.000000 0.000000
O O8 0.437791 0.052685 0.164002
O O9 0.500000 0.110271 0.000000
O O10 0.750000 0.750000 0.500000
O O11 0.768853 0.643116 0.521988
O O12 0.626559 0.710408 0.664609
O O13 0.943576 0.711057 0.604513
O O14 0.000000 0.095888 0.500000
O O15 0.719156 0.052171 0.573032
O O16 0.479837 0.000000 0.690354
O O17 0.500000 0.000000 0.500000
#
# Coordination Sequence:
#
# PCOD8105258 Si02
#       8
#     8   4   8   8   8   4   8   4
#     4  11  21  36  59  85 116 153 199 247 304 348
#     4   9  19  40  69  98 112 135 208 267 289 345
#     4   9  19  39  67  85 112 157 198 243 306 361
#     4  11  18  31  54  82 109 156 208 249 279 324
#     4  12  23  38  56  78 123 162 205 243 293 352
#     4   9  18  40  63  88 114 159 201 237 287 367
#     4  10  21  32  54  86 117 149 206 254 283 345
#     4  12  28  40  53  88 132 166 193 236 307 372
#
# _framework density 18.478266999999999
#
# number of rings (size 3 to 8) (size 9 to 14) (size 15 to 20)
#    0.000    1.538    6.154    1.615    2.154    0.000 
#    2.769    6.923    0.000    0.000    0.000    0.000 
#    0.000    0.000    0.000    0.000    0.000    0.000 
#
# Total GULP energy -322325.413270 kJ/mol
# GULP energy per Si atom -12397.131280 kJ/mol
# Density = 1.843621 g / cm^3
# Si number density = 18.478267 Si / 1000 Ang^3
#
#
#
# Elastic Constant Matrix: (Units=GPa)
#
#
# Indices 1 2 3 4 5 6 
#
# 1 113.9472 43.0043 46.7713 0.0000 -3.5006 0.0000
# 2 43.0043 101.7285 45.1762 0.0000 -7.9932 0.0000
# 3 46.7713 45.1762 107.2845 0.0000 -10.6665 0.0000
# 4 0.0000 0.0000 0.0000 32.3449 0.0000 -5.4295
# 5 -3.5006 -7.9932 -10.6665 0.0000 18.7311 0.0000
# 6 0.0000 0.0000 0.0000 -5.4295 0.0000 28.1197
#
#
#
# Elastic Compliance Matrix: (Units=1/GPa)
#
#
# Indices 1 2 3 4 5 6 
#
# 1 0.011530 -0.003309 -0.003773 0.000000 -0.001406 0.000000
# 2 -0.003309 0.013143 -0.003811 0.000000 0.002820 0.000000
# 3 -0.003773 -0.003811 0.013080 0.000000 0.005117 0.000000
# 4 0.000000 0.000000 0.000000 0.031952 0.000000 0.006170
# 5 -0.001406 0.002820 0.005117 0.000000 0.057242 0.000000
# 6 0.000000 0.000000 0.000000 0.006170 0.000000 0.036753
#
#
# Mechanical properties :
#
#
# Convention : Reuss Voigt Hill
#
# Bulk Modulus (GPa) = 62.63403 65.87376 64.25389
# Shear Modulus (GPa) = 26.20411 28.37304 27.28857
#
# Velocity S-wave (km/s) = 3.76986 3.92277 3.84708
# Velocity P-wave (km/s) = 7.27453 7.49962 7.38793
#
# Compressibility (1/GPa) = 0.01596576
#
# Stress axis : x y z
#
# Youngs Moduli (GPa) = 86.72705 76.08522 76.45537
#
# Poissons Ratio (x) = 0.25178 0.28847
# Poissons Ratio (y) = 0.28700 0.29140
# Poissons Ratio (z) = 0.32723 0.28999
#
# Static dielectric constant tensor:
#      x y z
#    x 3.861920 0.000000 -0.186790 
#    y 0.000000 3.045220 0.000000 
#    z -0.186790 0.000000 3.323770 
# 
# 
# High freq. dielectric constant tensor:
#      x y z
#    x 1.721800 0.000000 -0.006970 
#    y 0.000000 1.713460 0.000000 
#    z -0.006970 0.000000 1.693410 
# 
# From -- ./inp_files/123745.got.cif
#   From: 2010.06.25/outbox.cif.g09.slc.cpg/sg12_62_cif.got.tgz:123745.got - 2010.06.28 00:19:55.
