data_PCOD8105584
_publ_section_title
;
Structure prediction by ZEFSAII (Michael W. Deem and Ramdas Pophale) SiO2 
 PCOD8105584
Probable space group: C 2/M
;
_chemical_formula_sum "Si O2"
_cell_formula_units_Z 64
_cell_length_a 18.399868
_cell_length_b 8.768373
_cell_length_c 33.899795
_cell_angle_alpha 90.000000
_cell_angle_beta 143.317961
_cell_angle_gamma 90.000000
_cell_volume 3267.209255
_symmetry_space_group_name_H-M "C 2/M"
_symmetry_group_IT_number 12
_symmetry_cell_setting 'monoclinic'
loop_
_space_group_symop_operation_xyz
x,y,z
-x,y,-z
-x,-y,-z
x,-y,z
1/2+x,1/2+y,z
1/2-x,1/2+y,-z
1/2-x,1/2-y,-z
1/2+x,1/2-y,z
loop_
_atom_site_type_symbol
_atom_site_label
_atom_site_fract_x
_atom_site_fract_y
_atom_site_fract_z
Si Si1 0.356896 0.677319 0.126833
Si Si2 0.002224 0.172722 0.112252
Si Si3 0.577787 0.821790 0.495067
Si Si4 0.575026 0.177055 0.262634
Si Si5 0.414618 0.179584 0.996630
Si Si6 0.515033 0.680305 0.624521
Si Si7 0.769685 0.177926 0.736548
Si Si8 0.841398 0.678375 0.613800
O O1 0.364249 0.500000 0.142032
O O2 0.403520 0.701847 0.102965
O O3 0.438299 0.771441 0.192954
O O4 0.220880 0.745631 0.068493
O O5 0.135608 0.209945 0.187098
O O6 0.995435 0.000000 0.093876
O O7 0.972215 0.284182 0.063735
O O8 0.500000 0.788741 0.500000
O O9 0.507829 0.743629 0.428842
O O10 0.708894 0.749408 0.557568
O O11 0.591385 0.000000 0.492305
O O12 0.674356 0.269684 0.280771
O O13 0.592993 0.211905 0.316363
O O14 0.592339 0.000000 0.260244
O O15 0.406237 0.000000 0.989000
O O16 0.500000 0.250693 0.000000
O O17 0.504425 0.500000 0.619719
O O18 0.649786 0.729840 0.696064
O O19 0.416982 0.745736 0.611907
O O20 0.738576 0.000000 0.719151
O O21 0.830400 0.500000 0.600230
#
# Coordination Sequence:
#
# PCOD8105584 Si02
#       8
#     8   8   8   8   8   8   8   8
#     4   9  19  36  56  79 110 147 187 232 283 337
#     4   9  19  35  56  80 106 143 186 229 278 333
#     4  11  24  42  65  90 117 153 194 236 286 340
#     4  10  21  37  60  88 114 147 193 239 283 336
#     4  10  21  35  52  78 111 145 183 231 285 339
#     4  12  25  40  61  88 119 155 194 235 283 339
#     4  10  21  39  61  86 118 150 186 235 288 342
#     4  11  24  41  60  86 122 156 191 238 286 336
#
# _framework density 19.588584000000001
#
# number of rings (size 3 to 8) (size 9 to 14) (size 15 to 20)
#    0.000    1.750    0.000    4.875    0.000    9.250 
#    0.000    2.500    0.000    0.000    0.000    0.000 
#    0.000    0.000    0.000    0.000    0.000    0.000 
#
# Total GULP energy -396944.517961 kJ/mol
# GULP energy per Si atom -12404.516186 kJ/mol
# Density = 1.954400 g / cm^3
# Si number density = 19.588584 Si / 1000 Ang^3
#
#
#
# Elastic Constant Matrix: (Units=GPa)
#
#
# Indices 1 2 3 4 5 6 
#
# 1 115.1969 50.9333 62.8987 0.0000 27.4582 0.0000
# 2 50.9333 72.4369 37.5008 0.0001 19.3177 -0.0001
# 3 62.8987 37.5008 108.5754 0.0000 25.3255 0.0000
# 4 0.0000 0.0001 0.0000 22.7204 -0.0001 -5.0761
# 5 27.4582 19.3177 25.3255 -0.0001 17.1138 0.0001
# 6 0.0000 -0.0001 0.0000 -5.0761 0.0001 25.7611
#
#
#
# Elastic Compliance Matrix: (Units=1/GPa)
#
#
# Indices 1 2 3 4 5 6 
#
# 1 0.017173 -0.005947 -0.004632 0.000000 -0.013985 0.000000
# 2 -0.005947 0.022256 -0.000928 0.000000 -0.014207 0.000000
# 3 -0.004632 -0.000928 0.015632 0.000000 -0.014653 0.000000
# 4 0.000000 0.000000 0.000000 0.046040 0.000000 0.009072
# 5 -0.013985 -0.014207 -0.014653 0.000000 0.118592 0.000000
# 6 0.000000 0.000000 0.000000 0.009072 0.000000 0.040606
#
#
# Mechanical properties :
#
#
# Convention : Reuss Voigt Hill
#
# Bulk Modulus (GPa) = 31.20502 66.54167 48.87334
# Shear Modulus (GPa) = 17.00703 22.77746 19.89225
#
# Velocity S-wave (km/s) = 2.94974 3.41367 3.19015
# Velocity P-wave (km/s) = 5.25034 7.04137 6.21076
#
# Compressibility (1/GPa) = 0.03204613
#
# Stress axis : x y z
#
# Youngs Moduli (GPa) = 58.23044 44.93167 63.97091
#
# Poissons Ratio (x) = 0.26723 0.29634
# Poissons Ratio (y) = 0.34632 0.05936
# Poissons Ratio (z) = 0.26974 0.04169
#
# Static dielectric constant tensor:
#      x y z
#    x 3.717840 0.000000 0.217500 
#    y 0.000000 3.620610 0.000000 
#    z 0.217500 0.000000 3.798150 
# 
# 
# High freq. dielectric constant tensor:
#      x y z
#    x 1.767010 0.000000 0.006740 
#    y 0.000000 1.767240 0.000000 
#    z 0.006740 0.000000 1.776200 
# 
# From -- ./inp_files/378287.got.cif
#   From: 2010.06.25/outbox.cif.g09.slc.cpg/sg12_190_cif.got.tgz:378287.got - 2010.06.28 00:19:55.
