data_PCOD8105869
_publ_section_title
;
Structure prediction by ZEFSAII (Michael W. Deem and Ramdas Pophale) SiO2 
 PCOD8105869
Probable space group: C 2/M
;
_chemical_formula_sum "Si O2"
_cell_formula_units_Z 40
_cell_length_a 24.548066
_cell_length_b 19.000409
_cell_length_c 5.224942
_cell_angle_alpha 90.000000
_cell_angle_beta 50.287700
_cell_angle_gamma 90.000000
_cell_volume 1874.719154
_symmetry_space_group_name_H-M "C 2/M"
_symmetry_group_IT_number 12
_symmetry_cell_setting 'monoclinic'
loop_
_space_group_symop_operation_xyz
x,y,z
-x,y,-z
-x,-y,-z
x,-y,z
1/2+x,1/2+y,z
1/2-x,1/2+y,-z
1/2-x,1/2-y,-z
1/2+x,1/2-y,z
loop_
_atom_site_type_symbol
_atom_site_label
_atom_site_fract_x
_atom_site_fract_y
_atom_site_fract_z
Si Si1 0.138758 0.423056 0.559837
Si Si2 0.083693 0.921461 0.247808
Si Si3 0.322607 0.215317 0.360672
Si Si4 0.421381 0.870235 0.770763
Si Si5 0.584014 0.336733 0.746222
O O1 0.176396 0.500000 0.456919
O O2 0.193775 0.357720 0.433968
O O3 0.099735 0.417041 0.407103
O O4 0.081691 0.418246 0.963182
O O5 0.108572 0.880298 0.425164
O O6 0.000000 0.927955 0.500000
O O7 0.116929 0.000000 0.148727
O O8 0.108663 0.880679 0.920069
O O9 0.250000 0.250000 0.500000
O O10 0.371770 0.264504 0.390621
O O11 0.368124 0.196336 0.968412
O O12 0.500000 0.839610 0.500000
O O13 0.500000 0.320482 0.000000
#
# Coordination Sequence:
#
# PCOD8105869 Si02
#       5
#     8   8   8   8   8
#     4  10  23  42  67  97 133 173 220 269 329 397
#     4   9  18  35  58  88 121 154 200 257 310 361
#     4  10  26  44  65  92 137 171 216 264 337 385
#     4  10  23  39  68  98 130 170 219 271 327 390
#     4  10  21  35  62  89 118 160 209 258 310 377
#
# _framework density 21.336528000000001
#
# number of rings (size 3 to 8) (size 9 to 14) (size 15 to 20)
#    1.200    1.000    0.000    1.800    5.600    6.400 
#    0.000    2.000    0.000    0.000    0.000    0.000 
#    0.000    0.000    0.000    0.000    0.000    0.000 
#
# Total GULP energy -247813.260571 kJ/mol
# GULP energy per Si atom -12390.663029 kJ/mol
# Density = 2.128796 g / cm^3
# Si number density = 21.336528 Si / 1000 Ang^3
#
#
#
# Elastic Constant Matrix: (Units=GPa)
#
#
# Indices 1 2 3 4 5 6 
#
# 1 108.9001 74.8862 59.7842 0.0000 18.5237 0.0000
# 2 74.8862 191.9478 48.4463 0.0000 0.1181 0.0000
# 3 59.7842 48.4463 72.0773 0.0000 25.4721 0.0000
# 4 0.0000 0.0000 0.0000 6.4100 0.0000 2.5271
# 5 18.5237 0.1181 25.4721 0.0000 48.8332 0.0000
# 6 0.0000 0.0000 0.0000 2.5271 0.0000 24.9777
#
#
#
# Elastic Compliance Matrix: (Units=1/GPa)
#
#
# Indices 1 2 3 4 5 6 
#
# 1 0.019333 -0.004269 -0.012969 0.000000 -0.000558 0.000000
# 2 -0.004269 0.007516 -0.002546 0.000000 0.002929 0.000000
# 3 -0.012969 -0.002546 0.030162 0.000000 -0.010807 0.000000
# 4 0.000000 0.000000 0.000000 0.162487 0.000000 -0.016440
# 5 -0.000558 0.002929 -0.010807 0.000000 0.026320 0.000000
# 6 0.000000 0.000000 0.000000 -0.016440 0.000000 0.041699
#
#
# Mechanical properties :
#
#
# Convention : Reuss Voigt Hill
#
# Bulk Modulus (GPa) = 57.33132 82.12874 69.73003
# Shear Modulus (GPa) = 15.01954 28.69808 21.85881
#
# Velocity S-wave (km/s) = 2.65606 3.67143 3.20422
# Velocity P-wave (km/s) = 6.02781 7.51985 6.81479
#
# Compressibility (1/GPa) = 0.01744247
#
# Stress axis : x y z
#
# Youngs Moduli (GPa) = 51.72486 133.04811 33.15446
#
# Poissons Ratio (x) = 0.56797 0.42998
# Poissons Ratio (y) = 0.22081 0.08442
# Poissons Ratio (z) = 0.67082 0.33878
#
# Static dielectric constant tensor:
#      x y z
#    x 3.660090 0.000000 0.305930 
#    y 0.000000 3.971350 0.000000 
#    z 0.305930 0.000000 3.641170 
# 
# 
# High freq. dielectric constant tensor:
#      x y z
#    x 1.818640 0.000000 0.032990 
#    y 0.000000 1.846800 0.000000 
#    z 0.032990 0.000000 1.813540 
# 
# From -- ./inp_files/25191.got.cif
#   From: 2010.06.25/outbox.cif.g09.slc.cpg/sg12_13_cif.got.tgz:25191.got - 2010.06.28 00:19:55.
