data_PCOD8105965
_publ_section_title
;
Structure prediction by ZEFSAII (Michael W. Deem and Ramdas Pophale) SiO2 
 PCOD8105965
Probable space group: C 2/M
;
_chemical_formula_sum "Si O2"
_cell_formula_units_Z 56
_cell_length_a 19.566462
_cell_length_b 9.195570
_cell_length_c 21.064763
_cell_angle_alpha 90.000000
_cell_angle_beta 54.510335
_cell_angle_gamma 90.000000
_cell_volume 3085.953916
_symmetry_space_group_name_H-M "C 2/M"
_symmetry_group_IT_number 12
_symmetry_cell_setting 'monoclinic'
loop_
_space_group_symop_operation_xyz
x,y,z
-x,y,-z
-x,-y,-z
x,-y,z
1/2+x,1/2+y,z
1/2-x,1/2+y,-z
1/2-x,1/2-y,-z
1/2+x,1/2-y,z
loop_
_atom_site_type_symbol
_atom_site_label
_atom_site_fract_x
_atom_site_fract_y
_atom_site_fract_z
Si Si1 0.189139 0.832299 0.985929
Si Si2 0.161673 0.328819 0.551973
Si Si3 0.896311 0.670196 0.277017
Si Si4 0.563978 0.665461 0.157745
Si Si5 0.270089 0.327532 0.700206
Si Si6 0.593762 0.333106 0.473181
Si Si7 0.219357 0.828322 0.161991
O O1 0.199438 0.753417 0.912248
O O2 0.216018 0.000000 0.965262
O O3 0.250000 0.750000 0.000000
O O4 0.096806 0.819654 0.067176
O O5 0.175308 0.500000 0.536063
O O6 0.250000 0.250000 0.500000
O O7 0.118800 0.291014 0.641709
O O8 0.100528 0.266739 0.531315
O O9 0.904095 0.500000 0.262195
O O10 0.818988 0.732733 0.277043
O O11 0.982123 0.738502 0.207231
O O12 0.539709 0.500000 0.186143
O O13 0.634671 0.716614 0.170293
O O14 0.269885 0.500000 0.698923
O O15 0.343963 0.271212 0.614436
O O16 0.287995 0.272827 0.761800
O O17 0.500000 0.320161 0.500000
O O18 0.616718 0.500000 0.477988
O O19 0.235468 0.000000 0.148418
#
# Coordination Sequence:
#
# PCOD8105965 Si02
#       7
#     8   8   8   8   8   8   8
#     4   9  17  32  53  78 108 138 173 218 262 313
#     4  11  22  38  58  80 110 146 186 229 273 324
#     4  10  21  36  54  76 107 143 177 220 266 317
#     4   9  19  33  53  81 106 133 175 220 262 313
#     4   9  18  36  54  76 109 140 178 221 263 317
#     4  10  21  37  60  83 108 146 186 226 275 327
#     4   9  18  33  56  80 105 139 176 220 265 312
#
# _framework density 18.146737999999999
#
# number of rings (size 3 to 8) (size 9 to 14) (size 15 to 20)
#    0.000    2.429    1.429    1.714    2.000    4.286 
#    0.000    2.143    0.000    4.286    0.000    0.000 
#    0.000    0.000    0.000    0.000    0.000    0.000 
#
# Total GULP energy -347129.987145 kJ/mol
# GULP energy per Si atom -12397.499541 kJ/mol
# Density = 1.810544 g / cm^3
# Si number density = 18.146738 Si / 1000 Ang^3
#
#
#
# Elastic Constant Matrix: (Units=GPa)
#
#
# Indices 1 2 3 4 5 6 
#
# 1 91.6474 26.2528 61.4154 0.0000 -0.9167 -0.0002
# 2 26.2528 51.6193 41.2197 0.0000 -6.4517 -0.0006
# 3 61.4154 41.2197 123.5084 0.0000 -8.0455 0.0001
# 4 0.0000 0.0000 0.0000 33.4760 0.0000 -1.9079
# 5 -0.9167 -6.4517 -8.0455 0.0000 28.9086 0.0001
# 6 -0.0002 -0.0006 0.0001 -1.9079 0.0001 26.3343
#
#
#
# Elastic Compliance Matrix: (Units=1/GPa)
#
#
# Indices 1 2 3 4 5 6 
#
# 1 0.016735 -0.002761 -0.007542 0.000000 -0.002185 0.000000
# 2 -0.002761 0.027220 -0.007457 0.000000 0.003912 0.000001
# 3 -0.007542 -0.007457 0.014474 0.000000 0.002125 0.000000
# 4 0.000000 0.000000 0.000000 0.029996 0.000000 0.002173
# 5 -0.002185 0.003912 0.002125 0.000000 0.035987 0.000000
# 6 0.000000 0.000001 0.000000 0.002173 0.000000 0.038131
#
#
# Mechanical properties :
#
#
# Convention : Reuss Voigt Hill
#
# Bulk Modulus (GPa) = 43.65142 58.28343 50.96743
# Shear Modulus (GPa) = 24.30733 26.93626 25.62179
#
# Velocity S-wave (km/s) = 3.66387 3.85692 3.76163
# Velocity P-wave (km/s) = 6.48117 7.21263 6.85666
#
# Compressibility (1/GPa) = 0.02290876
#
# Stress axis : x y z
#
# Youngs Moduli (GPa) = 59.75578 36.73733 69.08950
#
# Poissons Ratio (x) = 0.10145 0.52109
# Poissons Ratio (y) = 0.16501 0.51517
# Poissons Ratio (z) = 0.45069 0.27393
#
# Static dielectric constant tensor:
#      x y z
#    x 3.257110 0.000000 0.092930 
#    y 0.000000 3.380210 0.000000 
#    z 0.092930 0.000000 3.743160 
# 
# 
# High freq. dielectric constant tensor:
#      x y z
#    x 1.687900 0.000000 0.002010 
#    y 0.000000 1.688770 0.000000 
#    z 0.002010 0.000000 1.717160 
# 
# From -- ./inp_files/313739.got.cif
#   From: 2010.06.25/outbox.cif.g09.slc.cpg/sg12_157_cif.got.tgz:313739.got - 2010.06.28 00:19:55.
