data_PCOD8105868
_publ_section_title
;
Structure prediction by ZEFSAII (Michael W. Deem and Ramdas Pophale) SiO2 
 PCOD8105868
Probable space group: C 2/M
;
_chemical_formula_sum "Si O2"
_cell_formula_units_Z 64
_cell_length_a 14.377580
_cell_length_b 26.344874
_cell_length_c 9.175393
_cell_angle_alpha 90.000000
_cell_angle_beta 107.204473
_cell_angle_gamma 90.000000
_cell_volume 3319.907914
_symmetry_space_group_name_H-M "C 2/M"
_symmetry_group_IT_number 12
_symmetry_cell_setting 'monoclinic'
loop_
_space_group_symop_operation_xyz
x,y,z
-x,y,-z
-x,-y,-z
x,-y,z
1/2+x,1/2+y,z
1/2-x,1/2+y,-z
1/2-x,1/2-y,-z
1/2+x,1/2-y,z
loop_
_atom_site_type_symbol
_atom_site_label
_atom_site_fract_x
_atom_site_fract_y
_atom_site_fract_z
Si Si1 0.028705 0.671852 0.847369
Si Si2 0.029645 0.941018 0.355253
Si Si3 0.244899 0.641789 0.856164
Si Si4 0.951916 0.769288 0.320833
Si Si5 0.062789 0.137054 0.886632
Si Si6 0.249509 0.940591 0.371741
Si Si7 0.587170 0.124326 0.437859
Si Si8 0.706904 0.217084 0.610761
O O1 0.141452 0.656820 0.877879
O O2 0.003067 0.724860 0.757340
O O3 0.956584 0.629777 0.744441
O O4 0.000000 0.677178 0.000000
O O5 0.142944 0.929065 0.384609
O O6 0.000000 0.919727 0.500000
O O7 0.964036 0.916523 0.198126
O O8 0.006373 0.000000 0.333147
O O9 0.237210 0.586371 0.778716
O O10 0.278786 0.682216 0.744034
O O11 0.323331 0.639966 0.021229
O O12 0.965364 0.821522 0.244843
O O13 0.838537 0.757497 0.297815
O O14 0.000000 0.773736 0.500000
O O15 0.000000 0.146237 0.000000
O O16 0.326947 0.917338 0.522651
O O17 0.268844 0.000000 0.360077
O O18 0.500000 0.105271 0.500000
O O19 0.624245 0.178737 0.514133
O O20 0.750000 0.250000 0.500000
#
# Coordination Sequence:
#
# PCOD8105868 Si02
#       8
#     8   8   8   8   8   8   8   8
#     4  11  22  40  63  86 127 170 200 253 318 364
#     4  10  23  44  66  91 123 163 206 257 319 375
#     4  10  23  41  56  93 128 155 215 257 302 376
#     4  11  22  39  57  85 122 164 212 247 298 362
#     4  12  25  37  60  92 126 162 204 257 305 370
#     4  10  21  40  70  94 119 160 212 262 312 378
#     4  11  19  41  63  92 126 161 210 259 306 372
#     4  10  21  35  62  83 119 168 209 252 297 358
#
# _framework density 19.277643999999999
#
# number of rings (size 3 to 8) (size 9 to 14) (size 15 to 20)
#    0.000    1.375    6.250    0.750    1.750    8.000 
#    0.000    0.000    0.000    1.500    0.000    0.000 
#    0.000    0.000    0.000    0.000    0.000    0.000 
#
# Total GULP energy -396676.175533 kJ/mol
# GULP energy per Si atom -12396.130485 kJ/mol
# Density = 1.923377 g / cm^3
# Si number density = 19.277644 Si / 1000 Ang^3
#
#
#
# Elastic Constant Matrix: (Units=GPa)
#
#
# Indices 1 2 3 4 5 6 
#
# 1 93.3351 50.1068 64.2243 0.0000 2.1389 0.0000
# 2 50.1068 100.6188 62.3175 0.0000 -1.3859 0.0000
# 3 64.2243 62.3175 155.3975 0.0000 1.5316 0.0000
# 4 0.0000 0.0000 0.0000 25.0856 0.0000 1.2768
# 5 2.1389 -1.3859 1.5316 0.0000 42.7539 0.0000
# 6 0.0000 0.0000 0.0000 1.2768 0.0000 24.4022
#
#
#
# Elastic Compliance Matrix: (Units=1/GPa)
#
#
# Indices 1 2 3 4 5 6 
#
# 1 0.016994 -0.005495 -0.004812 0.000000 -0.000856 0.000000
# 2 -0.005495 0.015016 -0.003759 0.000000 0.000896 0.000000
# 3 -0.004812 -0.003759 0.009934 0.000000 -0.000237 0.000000
# 4 0.000000 0.000000 0.000000 0.039970 0.000000 -0.002091
# 5 -0.000856 0.000896 -0.000237 0.000000 0.023470 0.000000
# 6 0.000000 0.000000 0.000000 -0.002091 0.000000 0.041089
#
#
# Mechanical properties :
#
#
# Convention : Reuss Voigt Hill
#
# Bulk Modulus (GPa) = 72.40112 78.07205 75.23659
# Shear Modulus (GPa) = 27.90041 29.96187 28.93114
#
# Velocity S-wave (km/s) = 3.80846 3.94665 3.87817
# Velocity P-wave (km/s) = 7.54836 7.83292 7.69196
#
# Compressibility (1/GPa) = 0.01381194
#
# Stress axis : x y z
#
# Youngs Moduli (GPa) = 58.84262 66.59779 100.66739
#
# Poissons Ratio (x) = 0.36593 0.48439
# Poissons Ratio (y) = 0.32332 0.37845
# Poissons Ratio (z) = 0.28314 0.25037
#
# Static dielectric constant tensor:
#      x y z
#    x 3.618260 0.000000 0.032280 
#    y 0.000000 3.496450 0.000000 
#    z 0.032280 0.000000 3.629640 
# 
# 
# High freq. dielectric constant tensor:
#      x y z
#    x 1.751190 0.000000 0.005380 
#    y 0.000000 1.742740 0.000000 
#    z 0.005380 0.000000 1.752000 
# 
# From -- ./inp_files/67029.got.cif
#   From: 2010.06.25/outbox.cif.g09.slc.cpg/sg12_34_cif.got.tgz:67029.got - 2010.06.28 00:19:55.
