data_PCOD8105150
_publ_section_title
;
Structure prediction by ZEFSAII (Michael W. Deem and Ramdas Pophale) SiO2 
 PCOD8105150
Probable space group: C 2/M
;
_chemical_formula_sum "Si O2"
_cell_formula_units_Z 56
_cell_length_a 19.432033
_cell_length_b 27.888090
_cell_length_c 9.152969
_cell_angle_alpha 90.000000
_cell_angle_beta 33.844090
_cell_angle_gamma 90.000000
_cell_volume 2762.507340
_symmetry_space_group_name_H-M "C 2/M"
_symmetry_group_IT_number 12
_symmetry_cell_setting 'monoclinic'
loop_
_space_group_symop_operation_xyz
x,y,z
-x,y,-z
-x,-y,-z
x,-y,z
1/2+x,1/2+y,z
1/2-x,1/2+y,-z
1/2-x,1/2-y,-z
1/2+x,1/2-y,z
loop_
_atom_site_type_symbol
_atom_site_label
_atom_site_fract_x
_atom_site_fract_y
_atom_site_fract_z
Si Si1 0.832698 0.347255 0.629690
Si Si2 0.581313 0.601559 0.495682
Si Si3 0.687748 0.843217 0.997367
Si Si4 0.133768 0.000000 0.344751
Si Si5 0.480510 0.761620 0.696306
Si Si6 0.052321 0.168819 0.066527
Si Si7 0.007792 0.590058 0.159042
Si Si8 0.911961 0.500000 0.796773
O O1 0.839132 0.361761 0.789855
O O2 0.919427 0.302087 0.443044
O O3 0.875742 0.393060 0.458171
O O4 0.698733 0.332437 0.812207
O O5 0.500000 0.590827 0.500000
O O6 0.641780 0.549323 0.427495
O O7 0.498332 0.619808 0.774235
O O8 0.673248 0.644881 0.291612
O O9 0.656514 0.786230 0.047268
O O10 0.604145 0.867993 0.022483
O O11 0.000000 0.000000 0.500000
O O12 0.262830 0.000000 0.020651
O O13 0.500000 0.741347 0.500000
O O14 0.496316 0.716731 0.772124
O O15 0.000000 0.171107 0.000000
O O16 0.055960 0.544384 0.158744
O O17 0.000000 0.580337 0.000000
O O18 0.000000 0.500000 0.500000
#
# Coordination Sequence:
#
# PCOD8105150 Si02
#       8
#     8   8   8   4   8   8   8   4
#     4  10  23  43  63  92 127 169 227 268 328 403
#     4  11  22  42  68  95 129 171 223 272 328 399
#     4  10  20  41  68  89 124 167 220 266 324 394
#     4  10  24  41  71 105 129 169 226 280 336 387
#     4   9  22  40  63  92 122 171 218 275 327 391
#     4  12  27  40  61  96 134 176 221 274 338 405
#     4  11  24  40  64  94 130 168 209 279 345 394
#     4  12  23  41  70  99 130 173 232 281 333 405
#
# _framework density 20.271439000000001
#
# number of rings (size 3 to 8) (size 9 to 14) (size 15 to 20)
#    0.000    1.429    2.857    2.786    4.000    4.000 
#    0.000    0.357    0.000    0.000    0.000    0.000 
#    0.000    0.000    0.000    0.000    0.000    0.000 
#
# Total GULP energy -346991.747732 kJ/mol
# GULP energy per Si atom -12392.562419 kJ/mol
# Density = 2.022530 g / cm^3
# Si number density = 20.271439 Si / 1000 Ang^3
#
#
#
# Elastic Constant Matrix: (Units=GPa)
#
#
# Indices 1 2 3 4 5 6 
#
# 1 114.8156 38.0372 49.5997 0.0000 11.5759 0.0000
# 2 38.0372 100.7773 44.2478 0.0000 5.5873 0.0000
# 3 49.5997 44.2478 99.4836 0.0001 -10.9950 0.0000
# 4 0.0000 0.0000 0.0001 8.1188 0.0000 -7.9379
# 5 11.5759 5.5873 -10.9950 0.0000 35.8234 0.0000
# 6 0.0000 0.0000 0.0000 -7.9379 0.0000 25.8201
#
#
#
# Elastic Compliance Matrix: (Units=1/GPa)
#
#
# Indices 1 2 3 4 5 6 
#
# 1 0.012472 -0.001731 -0.006070 0.000000 -0.005623 0.000000
# 2 -0.001731 0.013073 -0.005295 0.000000 -0.003105 0.000000
# 3 -0.006070 -0.005295 0.016294 0.000000 0.007788 0.000000
# 4 0.000000 0.000000 0.000000 0.176105 0.000000 0.054140
# 5 -0.005623 -0.003105 0.007788 0.000000 0.032607 0.000000
# 6 0.000000 0.000000 0.000000 0.054140 0.000000 0.055374
#
#
# Mechanical properties :
#
#
# Convention : Reuss Voigt Hill
#
# Bulk Modulus (GPa) = 63.90502 64.31620 64.11061
# Shear Modulus (GPa) = 14.82224 26.16523 20.49374
#
# Velocity S-wave (km/s) = 2.70698 3.59659 3.18302
# Velocity P-wave (km/s) = 6.43144 7.00312 6.72336
#
# Compressibility (1/GPa) = 0.01564822
#
# Stress axis : x y z
#
# Youngs Moduli (GPa) = 80.17897 76.49360 61.37210
#
# Poissons Ratio (x) = 0.13238 0.37253
# Poissons Ratio (y) = 0.13875 0.32496
# Poissons Ratio (z) = 0.48669 0.40503
#
# Static dielectric constant tensor:
#      x y z
#    x 3.549830 0.000000 -0.141950 
#    y 0.000000 4.215280 0.000000 
#    z -0.141950 0.000000 3.845530 
# 
# 
# High freq. dielectric constant tensor:
#      x y z
#    x 1.774550 0.000000 -0.017260 
#    y 0.000000 1.802680 0.000000 
#    z -0.017260 0.000000 1.795810 
# 
# From -- ./inp_files/80055.got.cif
#   From: 2010.06.25/outbox.cif.g09.slc.cpg/sg12_41_cif.got.tgz:80055.got - 2010.06.28 00:19:55.
