data_PCOD8105781
_publ_section_title
;
Structure prediction by ZEFSAII (Michael W. Deem and Ramdas Pophale) SiO2 
 PCOD8105781
Probable space group: C 2/M
;
_chemical_formula_sum "Si O2"
_cell_formula_units_Z 44
_cell_length_a 10.851417
_cell_length_b 21.709346
_cell_length_c 14.542266
_cell_angle_alpha 90.000000
_cell_angle_beta 135.270901
_cell_angle_gamma 90.000000
_cell_volume 2410.944130
_symmetry_space_group_name_H-M "C 2/M"
_symmetry_group_IT_number 12
_symmetry_cell_setting 'monoclinic'
loop_
_space_group_symop_operation_xyz
x,y,z
-x,y,-z
-x,-y,-z
x,-y,z
1/2+x,1/2+y,z
1/2-x,1/2+y,-z
1/2-x,1/2-y,-z
1/2+x,1/2-y,z
loop_
_atom_site_type_symbol
_atom_site_label
_atom_site_fract_x
_atom_site_fract_y
_atom_site_fract_z
Si Si1 0.847598 0.930887 0.993492
Si Si2 0.595358 0.373647 0.263252
Si Si3 0.393586 0.868689 0.270416
Si Si4 0.500000 0.655204 0.500000
Si Si5 0.053516 0.763293 0.363351
Si Si6 0.256181 0.428979 0.477145
O O1 0.918485 0.899486 0.123797
O O2 0.783047 0.000000 0.981530
O O3 0.685638 0.891649 0.868244
O O4 0.000000 0.932831 0.000000
O O5 0.756351 0.375564 0.279232
O O6 0.560642 0.303302 0.274369
O O7 0.638410 0.415954 0.373589
O O8 0.449729 0.798424 0.286784
O O9 0.554773 0.911516 0.384691
O O10 0.548995 0.698758 0.612035
O O11 0.666299 0.612236 0.564676
O O12 0.250000 0.750000 0.500000
O O13 0.274531 0.500000 0.460017
#
# Coordination Sequence:
#
# PCOD8105781 Si02
#       6
#     8   8   8   4   8   8
#     4   9  19  36  54  78 114 145 176 227 287 333
#     4  10  21  35  57  83 110 148 180 233 281 328
#     4  11  21  34  57  85 110 146 184 233 282 326
#     4  10  21  36  54  78 113 152 174 236 278 324
#     4  11  20  35  57  82 113 144 188 230 277 325
#     4  11  22  35  56  84 110 147 190 228 275 334
#
# _framework density 18.250111
#
# number of rings (size 3 to 8) (size 9 to 14) (size 15 to 20)
#    0.000    1.636    3.636    3.000    0.000    3.636 
#    0.000    0.000    0.000    3.273    0.000   11.455 
#    0.000    0.000    0.000    0.000    0.000    0.000 
#
# Total GULP energy -272844.228776 kJ/mol
# GULP energy per Si atom -12402.010399 kJ/mol
# Density = 1.820857 g / cm^3
# Si number density = 18.250111 Si / 1000 Ang^3
#
#
#
# Elastic Constant Matrix: (Units=GPa)
#
#
# Indices 1 2 3 4 5 6 
#
# 1 69.2215 37.4630 34.4832 0.0000 -5.7100 0.0000
# 2 37.4630 164.7709 71.8773 0.0000 1.0686 0.0000
# 3 34.4832 71.8773 129.0224 0.0000 -10.1010 0.0000
# 4 0.0000 0.0000 0.0000 34.1331 0.0000 -3.7816
# 5 -5.7100 1.0686 -10.1010 0.0000 14.8842 0.0000
# 6 0.0000 0.0000 0.0000 -3.7816 0.0000 23.1411
#
#
#
# Elastic Compliance Matrix: (Units=1/GPa)
#
#
# Indices 1 2 3 4 5 6 
#
# 1 0.017802 -0.002883 -0.002747 0.000000 0.005172 0.000000
# 2 -0.002883 0.008694 -0.004445 0.000000 -0.004746 0.000000
# 3 -0.002747 -0.004445 0.011515 0.000000 0.007080 0.000000
# 4 0.000000 0.000000 0.000000 0.029837 0.000000 0.004876
# 5 0.005172 -0.004746 0.007080 0.000000 0.074315 0.000000
# 6 0.000000 0.000000 0.000000 0.004876 0.000000 0.044010
#
#
# Mechanical properties :
#
#
# Convention : Reuss Voigt Hill
#
# Bulk Modulus (GPa) = 55.98358 72.29575 64.13967
# Shear Modulus (GPa) = 23.55435 29.04444 26.29939
#
# Velocity S-wave (km/s) = 3.59645 3.99365 3.80024
# Velocity P-wave (km/s) = 6.92736 7.80804 7.38084
#
# Compressibility (1/GPa) = 0.01786238
#
# Stress axis : x y z
#
# Youngs Moduli (GPa) = 56.17492 115.02116 86.84312
#
# Poissons Ratio (x) = 0.33157 0.23855
# Poissons Ratio (y) = 0.16194 0.38598
# Poissons Ratio (z) = 0.15431 0.51121
#
# Static dielectric constant tensor:
#      x y z
#    x 3.325770 0.000000 -0.024470 
#    y 0.000000 3.650600 0.000000 
#    z -0.024470 0.000000 3.408430 
# 
# 
# High freq. dielectric constant tensor:
#      x y z
#    x 1.693850 0.000000 -0.001700 
#    y 0.000000 1.726210 0.000000 
#    z -0.001700 0.000000 1.695410 
# 
# From -- ./inp_files/207552.got.cif
#   From: 2010.06.25/outbox.cif.g09.slc.cpg/sg12_104_cif.got.tgz:207552.got - 2010.06.28 00:19:55.
