data_PCOD8105270
_publ_section_title
;
Structure prediction by ZEFSAII (Michael W. Deem and Ramdas Pophale) SiO2 
 PCOD8105270
Probable space group: C 2/M
;
_chemical_formula_sum "Si O2"
_cell_formula_units_Z 64
_cell_length_a 7.554551
_cell_length_b 18.539532
_cell_length_c 28.908892
_cell_angle_alpha 90.000000
_cell_angle_beta 121.509896
_cell_angle_gamma 90.000000
_cell_volume 3451.903786
_symmetry_space_group_name_H-M "C 2/M"
_symmetry_group_IT_number 12
_symmetry_cell_setting 'monoclinic'
loop_
_space_group_symop_operation_xyz
x,y,z
-x,y,-z
-x,-y,-z
x,-y,z
1/2+x,1/2+y,z
1/2-x,1/2+y,-z
1/2-x,1/2-y,-z
1/2+x,1/2-y,z
loop_
_atom_site_type_symbol
_atom_site_label
_atom_site_fract_x
_atom_site_fract_y
_atom_site_fract_z
Si Si1 0.585108 0.918723 0.897444
Si Si2 0.297224 0.085604 0.500000
Si Si3 0.364251 0.415106 0.780219
Si Si4 0.243375 0.584894 0.219781
Si Si5 0.995330 0.918723 0.102556
Si Si6 0.836292 0.914167 0.418146
Si Si7 0.406807 0.086246 0.703404
Si Si8 0.292841 0.333359 1.000000
O O1 0.408438 0.883515 0.840516
O O2 0.603741 0.870357 0.946192
O O3 0.796343 0.919564 0.898172
O O4 0.525021 0.000000 0.904436
O O5 0.500000 0.117735 0.500000
O O6 0.285776 0.111722 0.552110
O O7 0.077334 0.111724 0.447890
O O8 0.312800 0.000000 0.499999
O O9 0.339763 0.500000 0.784747
O O10 0.519926 0.396004 0.759963
O O11 0.453626 0.383515 0.840516
O O12 0.141511 0.383223 0.735520
O O13 0.200778 0.500000 0.215254
O O14 0.199431 0.616777 0.264480
O O15 0.907278 0.000000 0.095564
O O16 0.818973 0.870357 0.053808
O O17 0.714806 0.882036 0.357403
O O18 0.835960 0.000000 0.417979
O O19 0.401603 0.000000 0.700802
O O20 0.500000 0.347077 0.000000
O O21 0.250000 0.250000 0.000000
#
# Coordination Sequence:
#
# PCOD8105270 Si02
#       8
#     8   8   8   8   8   8   8   8
#     4   9  16  30  49  65  83 111 147 182 221 274
#     4   8  13  21  30  41  61  92 135 177 208 248
#     4   9  16  25  39  59  79 101 131 169 217 268
#     4   9  16  25  39  59  79 101 131 169 217 268
#     4   9  16  30  49  65  83 111 147 182 221 274
#     4   8  14  21  30  44  63  94 130 169 219 256
#     4   9  15  24  35  51  78 101 127 175 223 263
#     4  10  21  33  47  67  91 116 141 179 229 272
#
# _framework density 18.540493999999999
#
# number of rings (size 3 to 8) (size 9 to 14) (size 15 to 20)
#    0.000    3.125    1.250    1.125    0.000    3.500 
#    0.000    5.000    0.000    3.750    0.000    0.000 
#    0.000    0.000    0.000    0.000    0.000    0.000 
#
# Total GULP energy -396531.564914 kJ/mol
# GULP energy per Si atom -12391.611404 kJ/mol
# Density = 1.849830 g / cm^3
# Si number density = 18.540494 Si / 1000 Ang^3
#
#
#
# Elastic Constant Matrix: (Units=GPa)
#
#
# Indices 1 2 3 4 5 6 
#
# 1 126.4966 10.1943 80.0519 0.0000 -2.1576 0.0000
# 2 10.1943 32.0843 27.4264 0.0000 1.4809 0.0000
# 3 80.0519 27.4264 195.7765 0.0000 8.1110 0.0000
# 4 0.0000 0.0000 0.0000 2.0062 0.0000 -0.5089
# 5 -2.1576 1.4809 8.1110 0.0000 11.5538 0.0000
# 6 0.0000 0.0000 0.0000 -0.5089 0.0000 7.9276
#
#
#
# Elastic Compliance Matrix: (Units=1/GPa)
#
#
# Indices 1 2 3 4 5 6 
#
# 1 0.010981 0.000331 -0.004758 0.000000 0.005348 0.000000
# 2 0.000331 0.035431 -0.005061 0.000000 -0.000927 0.000000
# 3 -0.004758 -0.005061 0.008005 0.000000 -0.005860 0.000000
# 4 0.000000 0.000000 0.000000 0.506701 0.000001 0.032528
# 5 0.005348 -0.000927 -0.005860 0.000001 0.091783 0.000000
# 6 0.000000 0.000000 0.000000 0.032528 0.000000 0.128230
#
#
# Mechanical properties :
#
#
# Convention : Reuss Voigt Hill
#
# Bulk Modulus (GPa) = 28.21456 65.52252 46.86854
# Shear Modulus (GPa) = 6.15824 20.07650 13.11737
#
# Velocity S-wave (km/s) = 1.82448 3.29423 2.66277
# Velocity P-wave (km/s) = 4.43724 7.06302 5.89811
#
# Compressibility (1/GPa) = 0.03544269
#
# Stress axis : x y z
#
# Youngs Moduli (GPa) = 91.06677 28.22362 124.91995
#
# Poissons Ratio (x) = -0.00935 0.59438
# Poissons Ratio (y) = -0.03018 0.63218
# Poissons Ratio (z) = 0.43330 0.14283
#
# Static dielectric constant tensor:
#      x y z
#    x 3.510510 0.000000 0.023030 
#    y 0.000000 2.622150 0.000000 
#    z 0.023030 0.000000 3.778480 
# 
# 
# High freq. dielectric constant tensor:
#      x y z
#    x 1.726530 0.000000 0.000070 
#    y 0.000000 1.628570 0.000000 
#    z 0.000070 0.000000 1.727400 
# 
# From -- ./inp_files/356815.got.cif
#   From: 2010.06.25/outbox.cif.g09.slc.cpg/sg12_179_cif.got.tgz:356815.got - 2010.06.28 00:19:55.
