data_PCOD8105124
_publ_section_title
;
Structure prediction by ZEFSAII (Michael W. Deem and Ramdas Pophale) SiO2 
 PCOD8105124
Probable space group: C 2/M
;
_chemical_formula_sum "Si O2"
_cell_formula_units_Z 56
_cell_length_a 18.494580
_cell_length_b 8.774919
_cell_length_c 27.131163
_cell_angle_alpha 90.000000
_cell_angle_beta 141.321522
_cell_angle_gamma 90.000000
_cell_volume 2751.698814
_symmetry_space_group_name_H-M "C 2/M"
_symmetry_group_IT_number 12
_symmetry_cell_setting 'monoclinic'
loop_
_space_group_symop_operation_xyz
x,y,z
-x,y,-z
-x,-y,-z
x,-y,z
1/2+x,1/2+y,z
1/2-x,1/2+y,-z
1/2-x,1/2-y,-z
1/2+x,1/2-y,z
loop_
_atom_site_type_symbol
_atom_site_label
_atom_site_fract_x
_atom_site_fract_y
_atom_site_fract_z
Si Si1 0.422894 0.178023 0.797698
Si Si2 0.019440 0.320963 0.364222
Si Si3 0.274501 0.323542 0.232542
Si Si4 0.639993 0.676957 0.965811
Si Si5 0.406397 0.819112 0.488917
Si Si6 0.865958 0.668577 0.938481
Si Si7 0.145553 0.819559 0.338560
O O1 0.300336 0.211466 0.758533
O O2 0.523815 0.246552 0.884463
O O3 0.424608 0.250661 0.744484
O O4 0.446673 0.000000 0.805472
O O5 0.039399 0.500000 0.368028
O O6 0.066341 0.260814 0.441624
O O7 0.088352 0.233486 0.358721
O O8 0.884104 0.285626 0.290291
O O9 0.312872 0.500000 0.251582
O O10 0.198873 0.279251 0.145097
O O11 0.634269 0.500000 0.951064
O O12 0.750000 0.750000 0.000000
O O13 0.656829 0.704769 0.032706
O O14 0.500000 0.750644 0.500000
O O15 0.278279 0.762338 0.406420
O O16 0.413376 0.000000 0.491424
O O17 0.822335 0.500000 0.932155
O O18 0.000000 0.658646 0.000000
O O19 0.137792 0.000000 0.331631
#
# Coordination Sequence:
#
# PCOD8105124 Si02
#       7
#     8   8   8   8   8   8   8
#     4  11  23  43  65  90 123 161 206 255 310 370
#     4  11  23  39  62  92 127 165 206 253 303 363
#     4  10  22  40  64  90 122 161 204 255 312 369
#     4  12  26  42  63  91 125 164 208 257 309 366
#     4   9  19  38  64  92 123 161 204 252 306 364
#     4  10  20  41  66  89 121 163 205 255 314 365
#     4  11  23  40  63  91 126 165 205 253 309 365
#
# _framework density 20.351064000000001
#
# number of rings (size 3 to 8) (size 9 to 14) (size 15 to 20)
#    0.000    1.429    1.429    3.857    2.000    3.143 
#    0.000    2.143    0.000    5.143    0.000    0.000 
#    0.000    0.000    0.000    0.000    0.000    0.000 
#
# Total GULP energy -347300.435775 kJ/mol
# GULP energy per Si atom -12403.586992 kJ/mol
# Density = 2.030474 g / cm^3
# Si number density = 20.351064 Si / 1000 Ang^3
#
#
#
# Elastic Constant Matrix: (Units=GPa)
#
#
# Indices 1 2 3 4 5 6 
#
# 1 117.2967 44.9558 24.9392 0.0000 -12.8815 0.0000
# 2 44.9558 92.1387 33.6271 0.0000 -0.5639 0.0001
# 3 24.9392 33.6271 82.2318 0.0000 -15.4323 0.0000
# 4 0.0000 0.0000 0.0000 103.0187 0.0000 15.2272
# 5 -12.8815 -0.5639 -15.4323 0.0000 40.6479 0.0000
# 6 0.0000 0.0001 0.0000 15.2272 0.0000 31.7564
#
#
#
# Elastic Compliance Matrix: (Units=1/GPa)
#
#
# Indices 1 2 3 4 5 6 
#
# 1 0.010962 -0.005092 -0.000650 0.000000 0.003156 0.000000
# 2 -0.005092 0.015266 -0.005342 0.000000 -0.003430 0.000000
# 3 -0.000650 -0.005342 0.015602 0.000000 0.005643 0.000000
# 4 0.000000 0.000000 0.000000 0.010447 0.000000 -0.005010
# 5 0.003156 -0.003430 0.005643 0.000000 0.027697 0.000000
# 6 0.000000 0.000000 0.000000 -0.005010 0.000000 0.033892
#
#
# Mechanical properties :
#
#
# Convention : Reuss Voigt Hill
#
# Bulk Modulus (GPa) = 50.86097 55.41236 53.13667
# Shear Modulus (GPa) = 35.06611 47.62760 41.34685
#
# Velocity S-wave (km/s) = 4.15548 4.84291 4.51231
# Velocity P-wave (km/s) = 6.93326 7.65239 7.30168
#
# Compressibility (1/GPa) = 0.01966144
#
# Stress axis : x y z
#
# Youngs Moduli (GPa) = 91.22620 65.50334 64.09621
#
# Poissons Ratio (x) = 0.33354 0.04165
# Poissons Ratio (y) = 0.46452 0.34242
# Poissons Ratio (z) = 0.05928 0.34994
#
# Static dielectric constant tensor:
#      x y z
#    x 3.857090 0.000000 -0.087840 
#    y 0.000000 3.732120 0.000000 
#    z -0.087840 0.000000 3.859000 
# 
# 
# High freq. dielectric constant tensor:
#      x y z
#    x 1.807870 0.000000 -0.003450 
#    y 0.000000 1.784120 0.000000 
#    z -0.003450 0.000000 1.808470 
# 
# From -- ./inp_files/363108.got.cif
#   From: 2010.06.25/outbox.cif.g09.slc.cpg/sg12_182_cif.got.tgz:363108.got - 2010.06.28 00:19:55.
