data_PCOD8105762
_publ_section_title
;
Structure prediction by ZEFSAII (Michael W. Deem and Ramdas Pophale) SiO2 
 PCOD8105762
Probable space group: C 2/M
;
_chemical_formula_sum "Si O2"
_cell_formula_units_Z 56
_cell_length_a 28.900907
_cell_length_b 11.517517
_cell_length_c 9.805158
_cell_angle_alpha 90.000000
_cell_angle_beta 62.694279
_cell_angle_gamma 90.000000
_cell_volume 2900.128739
_symmetry_space_group_name_H-M "C 2/M"
_symmetry_group_IT_number 12
_symmetry_cell_setting 'monoclinic'
loop_
_space_group_symop_operation_xyz
x,y,z
-x,y,-z
-x,-y,-z
x,-y,z
1/2+x,1/2+y,z
1/2-x,1/2+y,-z
1/2-x,1/2-y,-z
1/2+x,1/2-y,z
loop_
_atom_site_type_symbol
_atom_site_label
_atom_site_fract_x
_atom_site_fract_y
_atom_site_fract_z
Si Si1 0.907777 0.629604 0.327693
Si Si2 0.629222 0.282174 0.864389
Si Si3 0.472846 0.371469 0.905737
Si Si4 0.168125 0.366686 0.342612
Si Si5 0.735782 0.364405 0.610974
Si Si6 0.129017 0.369614 0.115657
Si Si7 0.011392 0.686926 0.324757
O O1 0.888716 0.500000 0.314398
O O2 0.903529 0.708158 0.200385
O O3 0.869141 0.688177 0.491240
O O4 0.965787 0.617826 0.309580
O O5 0.676100 0.353601 0.734910
O O6 0.589305 0.371861 0.987552
O O7 0.649563 0.197837 0.955781
O O8 0.495019 0.500000 0.862692
O O9 0.488058 0.314347 0.741768
O O10 0.500000 0.310022 0.000000
O O11 0.150883 0.500000 0.352126
O O12 0.228199 0.352524 0.303933
O O13 0.156271 0.309472 0.211390
O O14 0.743463 0.500000 0.540842
O O15 0.750000 0.250000 0.500000
O O16 0.149196 0.500000 0.069238
O O17 0.066481 0.372664 0.218384
O O18 0.000000 0.693195 0.500000
#
# Coordination Sequence:
#
# PCOD8105762 Si02
#       7
#     8   8   8   8   8   8   8
#     4  11  20  33  56  86 119 151 188 237 290 348
#     4  11  22  37  58  85 115 151 194 242 290 348
#     4  10  21  38  55  75 108 149 192 236 290 347
#     4   9  19  36  57  84 117 153 190 237 297 350
#     4  11  23  40  65  91 119 155 201 251 299 353
#     4  10  21  35  56  87 122 156 190 236 295 357
#     4  11  21  34  56  85 115 150 193 236 288 351
#
# _framework density 19.309486
#
# number of rings (size 3 to 8) (size 9 to 14) (size 15 to 20)
#    0.000    1.571    4.286    1.286    0.000    2.000 
#    0.000    2.143    0.000    4.286    0.000    0.000 
#    0.000    0.000    0.000    0.000    0.000    0.000 
#
# Total GULP energy -346931.523011 kJ/mol
# GULP energy per Si atom -12390.411536 kJ/mol
# Density = 1.926554 g / cm^3
# Si number density = 19.309486 Si / 1000 Ang^3
#
#
#
# Elastic Constant Matrix: (Units=GPa)
#
#
# Indices 1 2 3 4 5 6 
#
# 1 94.4719 18.2317 14.5857 0.0000 9.3196 0.0000
# 2 18.2317 84.1573 31.9140 0.0000 9.7872 0.0000
# 3 14.5857 31.9140 72.9375 0.0000 12.9333 0.0000
# 4 0.0000 0.0000 0.0000 14.9179 0.0000 3.0935
# 5 9.3196 9.7872 12.9333 0.0000 40.1811 0.0000
# 6 0.0000 0.0000 0.0000 3.0935 0.0000 19.3535
#
#
#
# Elastic Compliance Matrix: (Units=1/GPa)
#
#
# Indices 1 2 3 4 5 6 
#
# 1 0.011288 -0.001799 -0.001149 0.000000 -0.001810 0.000000
# 2 -0.001799 0.014625 -0.005814 0.000000 -0.001274 0.000000
# 3 -0.001149 -0.005814 0.017165 0.000000 -0.003842 0.000000
# 4 0.000000 0.000000 0.000000 0.069331 0.000000 -0.011082
# 5 -0.001810 -0.001274 -0.003842 0.000000 0.026854 0.000000
# 6 0.000000 0.000000 0.000000 -0.011082 0.000000 0.053442
#
#
# Mechanical properties :
#
#
# Convention : Reuss Voigt Hill
#
# Bulk Modulus (GPa) = 39.13163 42.33661 40.73412
# Shear Modulus (GPa) = 22.85735 27.34620 25.10177
#
# Velocity S-wave (km/s) = 3.44428 3.76733 3.60942
# Velocity P-wave (km/s) = 6.01057 6.39505 6.20578
#
# Compressibility (1/GPa) = 0.02555477
#
# Stress axis : x y z
#
# Youngs Moduli (GPa) = 88.58679 68.37596 58.25725
#
# Poissons Ratio (x) = 0.12302 0.06695
# Poissons Ratio (y) = 0.15938 0.33868
# Poissons Ratio (z) = 0.10180 0.39751
#
# Static dielectric constant tensor:
#      x y z
#    x 3.598750 0.000000 0.152680 
#    y 0.000000 3.393770 0.000000 
#    z 0.152680 0.000000 3.518670 
# 
# 
# High freq. dielectric constant tensor:
#      x y z
#    x 1.760070 0.000000 0.004720 
#    y 0.000000 1.730750 0.000000 
#    z 0.004720 0.000000 1.743910 
# 
# From -- ./inp_files/110067.got.cif
#   From: 2010.06.25/outbox.cif.g09.slc.cpg/sg12_56_cif.got.tgz:110067.got - 2010.06.28 00:19:55.
