data_PCOD8105316
_publ_section_title
;
Structure prediction by ZEFSAII (Michael W. Deem and Ramdas Pophale) SiO2 
 PCOD8105316
Probable space group: C 2/M
;
_chemical_formula_sum "Si O2"
_cell_formula_units_Z 56
_cell_length_a 19.577581
_cell_length_b 19.424369
_cell_length_c 9.357421
_cell_angle_alpha 90.000000
_cell_angle_beta 50.565398
_cell_angle_gamma 90.000000
_cell_volume 2748.377152
_symmetry_space_group_name_H-M "C 2/M"
_symmetry_group_IT_number 12
_symmetry_cell_setting 'monoclinic'
loop_
_space_group_symop_operation_xyz
x,y,z
-x,y,-z
-x,-y,-z
x,-y,z
1/2+x,1/2+y,z
1/2-x,1/2+y,-z
1/2-x,1/2-y,-z
1/2+x,1/2-y,z
loop_
_atom_site_type_symbol
_atom_site_label
_atom_site_fract_x
_atom_site_fract_y
_atom_site_fract_z
Si Si1 0.205555 0.646548 0.539311
Si Si2 0.884701 0.783923 0.387821
Si Si3 0.645344 0.719070 0.258014
Si Si4 0.905380 0.649914 0.062438
Si Si5 0.307592 0.856098 0.926707
Si Si6 0.208112 0.077046 0.822833
Si Si7 0.926158 0.196835 0.952168
O O1 0.129991 0.701743 0.595581
O O2 0.300455 0.679661 0.435884
O O3 0.168278 0.615082 0.736597
O O4 0.220090 0.589310 0.398451
O O5 0.901563 0.803123 0.531807
O O6 0.966596 0.807765 0.175705
O O7 0.662456 0.801455 0.234209
O O8 0.739417 0.680925 0.125479
O O9 0.585158 0.700234 0.203632
O O10 0.891583 0.733496 0.074755
O O11 0.888605 0.620216 0.923330
O O12 0.000000 0.628622 0.000000
O O13 0.260612 0.917847 0.904024
O O14 0.126547 0.130507 0.920713
O O15 0.169732 0.000000 0.861079
#
# Coordination Sequence:
#
# PCOD8105316 Si02
#       7
#     8   8   8   8   8   8   8
#     4  11  22  33  58  87 122 159 200 247 315 351
#     4  11  18  32  57  92 129 150 189 264 313 353
#     4   9  16  30  55  90 119 149 193 255 308 355
#     4  11  20  36  61  99 122 142 190 275 325 351
#     4   9  18  35  58  85 118 155 206 243 301 354
#     4  11  24  43  61  82 124 174 210 233 280 382
#     4  10  21  33  58  94 124 154 194 248 315 354
#
# _framework density 20.37566
#
# number of rings (size 3 to 8) (size 9 to 14) (size 15 to 20)
#    0.000    1.714    4.286    3.000    0.000    0.000 
#    0.000    2.857    0.000    9.429    0.000    0.000 
#    0.000    0.000    0.000    0.000    0.000    0.000 
#
# Total GULP energy -347017.379185 kJ/mol
# GULP energy per Si atom -12393.477828 kJ/mol
# Density = 2.032928 g / cm^3
# Si number density = 20.375660 Si / 1000 Ang^3
#
#
#
# Elastic Constant Matrix: (Units=GPa)
#
#
# Indices 1 2 3 4 5 6 
#
# 1 94.8452 19.2638 27.2089 0.0000 -5.1529 0.0000
# 2 19.2638 56.3126 33.0703 0.0000 -6.8792 0.0000
# 3 27.2089 33.0703 127.0379 0.0000 -7.5562 0.0000
# 4 0.0000 0.0000 0.0000 14.9859 0.0000 -1.3026
# 5 -5.1529 -6.8792 -7.5562 0.0000 31.9771 0.0000
# 6 0.0000 0.0000 0.0000 -1.3026 0.0000 13.6681
#
#
#
# Elastic Compliance Matrix: (Units=1/GPa)
#
#
# Indices 1 2 3 4 5 6 
#
# 1 0.011663 -0.002890 -0.001695 0.000000 0.000857 0.000000
# 2 -0.002890 0.022021 -0.004929 0.000000 0.003107 0.000000
# 3 -0.001695 -0.004929 0.009573 0.000000 0.000929 0.000000
# 4 0.000000 0.000000 0.000000 0.067287 0.000000 0.006412
# 5 0.000857 0.003107 0.000929 0.000000 0.032298 0.000000
# 6 0.000000 0.000000 0.000000 0.006412 0.000000 0.073774
#
#
# Mechanical properties :
#
#
# Convention : Reuss Voigt Hill
#
# Bulk Modulus (GPa) = 41.27075 48.58688 44.92881
# Shear Modulus (GPa) = 20.51541 25.36973 22.94257
#
# Velocity S-wave (km/s) = 3.17655 3.53243 3.35920
# Velocity P-wave (km/s) = 5.80972 6.36669 6.09457
#
# Compressibility (1/GPa) = 0.02423023
#
# Stress axis : x y z
#
# Youngs Moduli (GPa) = 85.73975 45.41215 104.46163
#
# Poissons Ratio (x) = 0.13123 0.17704
# Poissons Ratio (y) = 0.24777 0.51485
# Poissons Ratio (z) = 0.14531 0.22382
#
# Static dielectric constant tensor:
#      x y z
#    x 3.902680 0.000000 0.157700 
#    y 0.000000 3.009560 0.000000 
#    z 0.157700 0.000000 3.868180 
# 
# 
# High freq. dielectric constant tensor:
#      x y z
#    x 1.812200 0.000000 0.019430 
#    y 0.000000 1.713310 0.000000 
#    z 0.019430 0.000000 1.813860 
# 
# From -- ./inp_files/89085.got.cif
#   From: 2010.06.25/outbox.cif.g09.slc.cpg/sg12_45_cif.got.tgz:89085.got - 2010.06.28 00:19:55.
