data_PCOD8105600
_publ_section_title
;
Structure prediction by ZEFSAII (Michael W. Deem and Ramdas Pophale) SiO2 
 PCOD8105600
Probable space group: C 2/M
;
_chemical_formula_sum "Si O2"
_cell_formula_units_Z 40
_cell_length_a 20.860400
_cell_length_b 9.878293
_cell_length_c 21.856188
_cell_angle_alpha 90.000000
_cell_angle_beta 28.309782
_cell_angle_gamma 90.000000
_cell_volume 2135.874760
_symmetry_space_group_name_H-M "C 2/M"
_symmetry_group_IT_number 12
_symmetry_cell_setting 'monoclinic'
loop_
_space_group_symop_operation_xyz
x,y,z
-x,y,-z
-x,-y,-z
x,-y,z
1/2+x,1/2+y,z
1/2-x,1/2+y,-z
1/2-x,1/2-y,-z
1/2+x,1/2-y,z
loop_
_atom_site_type_symbol
_atom_site_label
_atom_site_fract_x
_atom_site_fract_y
_atom_site_fract_z
Si Si1 0.150711 0.339600 0.866955
Si Si2 0.858006 0.838874 0.593539
Si Si3 0.935555 0.650844 0.831140
Si Si4 0.275931 0.343848 0.888287
Si Si5 0.758036 0.653794 0.435187
O O1 0.135916 0.500000 0.874966
O O2 0.232479 0.282559 0.739552
O O3 0.239205 0.298531 0.851166
O O4 0.000000 0.275902 0.000000
O O5 0.839098 0.795485 0.538383
O O6 0.000000 0.780605 0.500000
O O7 0.858458 0.000000 0.597844
O O8 0.897572 0.500000 0.840300
O O9 0.902602 0.755109 0.804302
O O10 0.091372 0.659753 0.718413
O O11 0.853792 0.687504 0.960860
O O12 0.320191 0.500000 0.853949
O O13 0.720979 0.500000 0.485900
O O14 0.750000 0.750000 0.500000
#
# Coordination Sequence:
#
# PCOD8105600 Si02
#       5
#     8   8   8   8   8
#     4   9  16  27  47  73  99 126 162 208 257 300
#     4   9  18  31  48  73 102 129 164 213 258 296
#     4   9  18  32  47  71 105 134 161 203 257 302
#     4   9  17  29  51  77  99 128 167 208 249 302
#     4  10  21  35  53  74 103 138 172 210 256 305
#
# _framework density 18.727689999999999
#
# number of rings (size 3 to 8) (size 9 to 14) (size 15 to 20)
#    0.000    2.800    0.000    1.200    2.800    5.600 
#    0.000    0.000    0.000    2.400    0.000    0.000 
#    0.000    0.000    0.000    0.000    0.000    0.000 
#
# Total GULP energy -247931.865494 kJ/mol
# GULP energy per Si atom -12396.593275 kJ/mol
# Density = 1.868506 g / cm^3
# Si number density = 18.727690 Si / 1000 Ang^3
#
#
#
# Elastic Constant Matrix: (Units=GPa)
#
#
# Indices 1 2 3 4 5 6 
#
# 1 149.1977 47.5663 48.5365 -0.0002 2.8829 0.0000
# 2 47.5663 44.9618 14.7023 0.0001 1.3531 0.0000
# 3 48.5365 14.7023 80.7726 -0.0011 -2.2404 0.0001
# 4 -0.0002 0.0001 -0.0011 16.8303 0.0002 -1.1523
# 5 2.8829 1.3531 -2.2404 0.0002 30.2044 0.0000
# 6 0.0000 0.0000 0.0001 -1.1523 0.0000 21.7544
#
#
#
# Elastic Compliance Matrix: (Units=1/GPa)
#
#
# Indices 1 2 3 4 5 6 
#
# 1 0.011858 -0.010819 -0.005185 0.000000 -0.001032 0.000000
# 2 -0.010819 0.033577 0.000377 0.000000 -0.000444 0.000000
# 3 -0.005185 0.000377 0.015473 0.000001 0.001626 0.000000
# 4 0.000000 0.000000 0.000001 0.059633 0.000000 0.003159
# 5 -0.001032 -0.000444 0.001626 0.000000 0.033347 0.000000
# 6 0.000000 0.000000 0.000000 0.003159 0.000000 0.046135
#
#
# Mechanical properties :
#
#
# Convention : Reuss Voigt Hill
#
# Bulk Modulus (GPa) = 33.72219 55.17137 44.44678
# Shear Modulus (GPa) = 20.73305 24.69962 22.71633
#
# Velocity S-wave (km/s) = 3.33089 3.63558 3.48657
# Velocity P-wave (km/s) = 5.73051 6.86637 6.32399
#
# Compressibility (1/GPa) = 0.02965407
#
# Stress axis : x y z
#
# Youngs Moduli (GPa) = 84.32796 29.78258 64.63011
#
# Poissons Ratio (x) = 0.32221 0.33512
# Poissons Ratio (y) = 0.91233 -0.02437
# Poissons Ratio (z) = 0.43725 -0.01123
#
# Static dielectric constant tensor:
#      x y z
#    x 3.547270 0.000000 -0.077570 
#    y 0.000000 3.062440 0.000000 
#    z -0.077570 0.000000 3.585530 
# 
# 
# High freq. dielectric constant tensor:
#      x y z
#    x 1.734380 0.000000 -0.002810 
#    y 0.000000 1.666300 0.000000 
#    z -0.002810 0.000000 1.735950 
# 
# From -- ./inp_files/71210.got.cif
#   From: 2010.06.25/outbox.cif.g09.slc.cpg/sg12_36_cif.got.tgz:71210.got - 2010.06.28 00:19:55.
