data_PCOD8105133
_publ_section_title
;
Structure prediction by ZEFSAII (Michael W. Deem and Ramdas Pophale) SiO2 
 PCOD8105133
Probable space group: C 2/M
;
_chemical_formula_sum "Si O2"
_cell_formula_units_Z 56
_cell_length_a 29.125378
_cell_length_b 14.581303
_cell_length_c 8.379278
_cell_angle_alpha 90.000000
_cell_angle_beta 129.108278
_cell_angle_gamma 90.000000
_cell_volume 2761.284767
_symmetry_space_group_name_H-M "C 2/M"
_symmetry_group_IT_number 12
_symmetry_cell_setting 'monoclinic'
loop_
_space_group_symop_operation_xyz
x,y,z
-x,y,-z
-x,-y,-z
x,-y,z
1/2+x,1/2+y,z
1/2-x,1/2+y,-z
1/2-x,1/2-y,-z
1/2+x,1/2-y,z
loop_
_atom_site_type_symbol
_atom_site_label
_atom_site_fract_x
_atom_site_fract_y
_atom_site_fract_z
Si Si1 0.622714 0.104046 0.494786
Si Si2 0.345747 0.898549 0.078516
Si Si3 0.314516 0.759512 0.564383
Si Si4 0.223994 0.170643 0.830465
Si Si5 0.891025 0.103863 0.289773
Si Si6 0.596197 0.729266 0.968211
Si Si7 0.472266 0.755809 0.610026
O O1 0.657341 0.112704 0.737454
O O2 0.664808 0.137507 0.440114
O O3 0.563183 0.163144 0.381707
O O4 0.604569 0.000000 0.416854
O O5 0.386454 0.821630 0.089886
O O6 0.368782 0.000000 0.080170
O O7 0.278071 0.886495 0.873055
O O8 0.250000 0.750000 0.500000
O O9 0.315824 0.707143 0.400990
O O10 0.364437 0.716992 0.788366
O O11 0.178849 0.106191 0.825591
O O12 0.250000 0.250000 0.000000
O O13 0.894469 0.139170 0.116797
O O14 0.931292 0.166396 0.494078
O O15 0.914403 0.000000 0.352207
O O16 0.526113 0.734530 0.850506
O O17 0.500000 0.787034 0.500000
#
# Coordination Sequence:
#
# PCOD8105133 Si02
#       7
#     8   8   8   8   8   8   8
#     4  11  23  41  67  98 128 168 217 259 314 384
#     4  11  21  37  64  93 125 161 209 262 314 385
#     4  12  23  41  65  88 134 171 199 264 325 384
#     4  12  19  41  65  88 119 164 215 258 325 377
#     4  11  22  41  68  93 121 168 226 269 312 373
#     4  11  23  39  63  95 130 166 205 262 325 375
#     4  10  20  41  66  95 125 168 215 264 315 370
#
# _framework density 20.280415000000001
#
# number of rings (size 3 to 8) (size 9 to 14) (size 15 to 20)
#    0.000    0.857    8.571    0.429    0.000    4.571 
#    0.000    2.143    0.000    0.857    0.000    0.000 
#    0.000    0.000    0.000    0.000    0.000    0.000 
#
# Total GULP energy -347061.409486 kJ/mol
# GULP energy per Si atom -12395.050339 kJ/mol
# Density = 2.023426 g / cm^3
# Si number density = 20.280415 Si / 1000 Ang^3
#
#
#
# Elastic Constant Matrix: (Units=GPa)
#
#
# Indices 1 2 3 4 5 6 
#
# 1 89.4294 59.9690 28.5964 0.0000 13.7638 0.0000
# 2 59.9690 138.8823 41.8116 0.0000 11.6240 0.0000
# 3 28.5964 41.8116 138.2271 0.0000 18.4743 0.0000
# 4 0.0000 0.0000 0.0000 18.5762 0.0000 -2.0152
# 5 13.7638 11.6240 18.4743 0.0000 29.5277 0.0000
# 6 0.0000 0.0000 0.0000 -2.0152 0.0000 18.9620
#
#
#
# Elastic Compliance Matrix: (Units=1/GPa)
#
#
# Indices 1 2 3 4 5 6 
#
# 1 0.016514 -0.006493 -0.000835 0.000000 -0.004619 0.000000
# 2 -0.006493 0.010560 -0.001855 0.000000 0.000030 0.000000
# 3 -0.000835 -0.001855 0.008532 0.000000 -0.004219 0.000000
# 4 0.000000 0.000000 0.000000 0.054460 0.000000 0.005788
# 5 -0.004619 0.000030 -0.004219 0.000000 0.038647 0.000000
# 6 0.000000 0.000000 0.000000 0.005788 0.000000 0.053352
#
#
# Mechanical properties :
#
#
# Convention : Reuss Voigt Hill
#
# Bulk Modulus (GPa) = 58.00338 69.69920 63.85129
# Shear Modulus (GPa) = 24.25096 29.15730 26.70413
#
# Velocity S-wave (km/s) = 3.46176 3.79582 3.63263
# Velocity P-wave (km/s) = 6.68140 7.32485 7.01051
#
# Compressibility (1/GPa) = 0.01724037
#
# Stress axis : x y z
#
# Youngs Moduli (GPa) = 60.55578 94.69914 117.20325
#
# Poissons Ratio (x) = 0.61484 0.09787
# Poissons Ratio (y) = 0.39316 0.21741
# Poissons Ratio (z) = 0.05057 0.17567
#
# Static dielectric constant tensor:
#      x y z
#    x 3.727560 0.000000 0.170790 
#    y 0.000000 3.622550 0.000000 
#    z 0.170790 0.000000 3.862580 
# 
# 
# High freq. dielectric constant tensor:
#      x y z
#    x 1.791520 0.000000 0.018300 
#    y 0.000000 1.775980 0.000000 
#    z 0.018300 0.000000 1.791820 
# 
# From -- ./inp_files/111716.got.cif
#   From: 2010.06.25/outbox.cif.g09.slc.cpg/sg12_56_cif.got.tgz:111716.got - 2010.06.28 00:19:55.
