data_PCOD8105393
_publ_section_title
;
Structure prediction by ZEFSAII (Michael W. Deem and Ramdas Pophale) SiO2 
 PCOD8105393
Probable space group: C 2/M
;
_chemical_formula_sum "Si O2"
_cell_formula_units_Z 56
_cell_length_a 15.575431
_cell_length_b 19.868839
_cell_length_c 9.273380
_cell_angle_alpha 90.000000
_cell_angle_beta 97.442997
_cell_angle_gamma 90.000000
_cell_volume 2845.613101
_symmetry_space_group_name_H-M "C 2/M"
_symmetry_group_IT_number 12
_symmetry_cell_setting 'monoclinic'
loop_
_space_group_symop_operation_xyz
x,y,z
-x,y,-z
-x,-y,-z
x,-y,z
1/2+x,1/2+y,z
1/2-x,1/2+y,-z
1/2-x,1/2-y,-z
1/2+x,1/2-y,z
loop_
_atom_site_type_symbol
_atom_site_label
_atom_site_fract_x
_atom_site_fract_y
_atom_site_fract_z
Si Si1 0.236987 0.079370 0.295852
Si Si2 0.063253 0.072461 0.128374
Si Si3 0.772852 0.921324 0.367882
Si Si4 0.492245 0.250971 0.830007
Si Si5 0.306326 0.196374 0.820970
Si Si6 0.036812 0.881966 0.661642
Si Si7 0.330975 0.189683 0.163274
O O1 0.154539 0.108340 0.185509
O O2 0.226095 0.094787 0.462283
O O3 0.316514 0.121002 0.248895
O O4 0.250695 0.000000 0.273787
O O5 0.015377 0.058204 0.271574
O O6 0.085586 0.000000 0.064065
O O7 0.000000 0.111248 0.000000
O O8 0.706381 0.872721 0.270988
O O9 0.864240 0.902143 0.319177
O O10 0.750585 0.000000 0.334764
O O11 0.395504 0.225545 0.774117
O O12 0.511893 0.321374 0.761286
O O13 0.567027 0.201272 0.789329
O O14 0.500000 0.261137 0.000000
O O15 0.227587 0.249642 0.782859
O O16 0.311717 0.178567 0.990660
O O17 0.000000 0.864325 0.500000
#
# Coordination Sequence:
#
# PCOD8105393 Si02
#       7
#     8   8   8   8   8   8   8
#     4  10  22  39  58  85 123 162 200 253 308 362
#     4  10  21  34  52  80 116 157 196 238 295 364
#     4  11  24  40  58  88 131 168 205 253 306 367
#     4  10  22  41  63  90 125 155 201 260 313 361
#     4  10  22  39  65  92 118 162 205 258 305 368
#     4  12  22  35  57  91 121 161 197 247 307 371
#     4  10  21  40  63  91 119 156 207 257 310 360
#
# _framework density 19.679414000000001
#
# number of rings (size 3 to 8) (size 9 to 14) (size 15 to 20)
#    0.000    1.571    2.857    1.714    2.000    2.857 
#    0.000    0.714    0.000    4.286    0.000    0.000 
#    0.000    0.000    0.000    0.000    0.000    0.000 
#
# Total GULP energy -346918.996409 kJ/mol
# GULP energy per Si atom -12389.964157 kJ/mol
# Density = 1.963462 g / cm^3
# Si number density = 19.679414 Si / 1000 Ang^3
#
#
#
# Elastic Constant Matrix: (Units=GPa)
#
#
# Indices 1 2 3 4 5 6 
#
# 1 115.4215 51.0968 42.2186 0.0000 -8.5718 0.0000
# 2 51.0968 105.4725 43.5577 0.0000 -4.5934 0.0000
# 3 42.2186 43.5577 66.5046 0.0000 -9.6207 0.0000
# 4 0.0000 0.0000 0.0000 29.7848 0.0000 -12.6403
# 5 -8.5718 -4.5934 -9.6207 0.0000 27.3758 0.0000
# 6 0.0000 0.0000 0.0000 -12.6403 0.0000 15.8993
#
#
#
# Elastic Compliance Matrix: (Units=1/GPa)
#
#
# Indices 1 2 3 4 5 6 
#
# 1 0.012325 -0.003787 -0.005139 0.000000 0.001418 0.000000
# 2 -0.003787 0.014179 -0.007069 0.000000 -0.001291 0.000000
# 3 -0.005139 -0.007069 0.023731 0.000000 0.005545 0.000000
# 4 0.000000 0.000000 0.000000 0.050670 0.000000 0.040284
# 5 0.001418 -0.001291 0.005545 0.000000 0.038704 0.000000
# 6 0.000000 0.000000 0.000000 0.040284 0.000000 0.094923
#
#
# Mechanical properties :
#
#
# Convention : Reuss Voigt Hill
#
# Bulk Modulus (GPa) = 54.81008 62.34942 58.57975
# Shear Modulus (GPa) = 18.34155 24.64702 21.49428
#
# Velocity S-wave (km/s) = 3.05621 3.54280 3.30846
# Velocity P-wave (km/s) = 6.35341 6.96323 6.66530
#
# Compressibility (1/GPa) = 0.01824482
#
# Stress axis : x y z
#
# Youngs Moduli (GPa) = 81.13289 70.52643 42.13883
#
# Poissons Ratio (x) = 0.26709 0.21655
# Poissons Ratio (y) = 0.30726 0.29789
# Poissons Ratio (z) = 0.41694 0.49857
#
# Static dielectric constant tensor:
#      x y z
#    x 3.805200 0.000000 -0.092320 
#    y 0.000000 3.533210 0.000000 
#    z -0.092320 0.000000 3.673420 
# 
# 
# High freq. dielectric constant tensor:
#      x y z
#    x 1.760180 0.000000 -0.008040 
#    y 0.000000 1.764050 0.000000 
#    z -0.008040 0.000000 1.770940 
# 
# From -- ./inp_files/64068.got.cif
#   From: 2010.06.25/outbox.cif.g09.slc.cpg/sg12_33_cif.got.tgz:64068.got - 2010.06.28 00:19:55.
