data_PCOD8105453
_publ_section_title
;
Structure prediction by ZEFSAII (Michael W. Deem and Ramdas Pophale) SiO2 
 PCOD8105453
Probable space group: C 2/M
;
_chemical_formula_sum "Si O2"
_cell_formula_units_Z 36
_cell_length_a 15.012649
_cell_length_b 26.311217
_cell_length_c 8.499595
_cell_angle_alpha 90.000000
_cell_angle_beta 149.019641
_cell_angle_gamma 90.000000
_cell_volume 1728.175993
_symmetry_space_group_name_H-M "C 2/M"
_symmetry_group_IT_number 12
_symmetry_cell_setting 'monoclinic'
loop_
_space_group_symop_operation_xyz
x,y,z
-x,y,-z
-x,-y,-z
x,-y,z
1/2+x,1/2+y,z
1/2-x,1/2+y,-z
1/2-x,1/2-y,-z
1/2+x,1/2-y,z
loop_
_atom_site_type_symbol
_atom_site_label
_atom_site_fract_x
_atom_site_fract_y
_atom_site_fract_z
Si Si1 0.806364 0.623966 0.661323
Si Si2 0.997716 0.944312 0.810366
Si Si3 0.199684 0.150881 0.148607
Si Si4 0.000000 0.713258 0.500000
Si Si5 0.883110 0.783081 0.600049
O O1 0.693008 0.574250 0.530358
O O2 0.789073 0.640471 0.452045
O O3 0.736046 0.672160 0.656700
O O4 0.000000 0.610332 0.000000
O O5 0.036457 0.000000 0.793892
O O6 0.140188 0.902206 0.976848
O O7 0.000000 0.948356 0.000000
O O8 0.333180 0.176996 0.230603
O O9 0.035823 0.188354 0.928152
O O10 0.979258 0.748396 0.620002
O O11 0.750000 0.750000 0.500000
#
# Coordination Sequence:
#
# PCOD8105453 Si02
#       5
#     8   8   8   4   8
#     4  10  21  34  58  86 120 157 198 250 294 356
#     4   8  16  35  61  83 113 154 197 250 308 353
#     4  10  22  40  55  89 121 156 205 244 298 363
#     4  12  24  34  61  88 123 164 204 242 298 356
#     4  11  23  38  60  82 123 164 200 243 298 350
#
# _framework density 20.831211
#
# number of rings (size 3 to 8) (size 9 to 14) (size 15 to 20)
#    0.000    2.000    2.222    2.667    3.111    2.222 
#    0.000    0.556    0.000    0.000    0.000   26.444 
#    0.000    0.000    0.000    0.000    0.000    0.000 
#
# Total GULP energy -222986.523959 kJ/mol
# GULP energy per Si atom -12388.140220 kJ/mol
# Density = 2.078380 g / cm^3
# Si number density = 20.831211 Si / 1000 Ang^3
#
#
#
# Elastic Constant Matrix: (Units=GPa)
#
#
# Indices 1 2 3 4 5 6 
#
# 1 82.0457 53.1106 27.2195 0.0000 15.5538 0.0000
# 2 53.1106 195.5194 72.3595 0.0000 22.3018 0.0000
# 3 27.2195 72.3595 145.9743 0.0000 20.7422 0.0000
# 4 0.0000 0.0000 0.0000 19.3694 0.0000 8.1866
# 5 15.5538 22.3018 20.7422 0.0000 23.7863 0.0000
# 6 0.0000 0.0000 0.0000 8.1866 0.0000 19.2115
#
#
#
# Elastic Compliance Matrix: (Units=1/GPa)
#
#
# Indices 1 2 3 4 5 6 
#
# 1 0.015788 -0.003399 -0.000280 0.000000 -0.006893 0.000000
# 2 -0.003399 0.007280 -0.002649 0.000000 -0.002293 0.000000
# 3 -0.000280 -0.002649 0.008945 0.000000 -0.005134 0.000000
# 4 0.000000 0.000000 0.000000 0.062969 0.000000 -0.026833
# 5 -0.006893 -0.002293 -0.005134 0.000000 0.053175 0.000000
# 6 0.000000 0.000000 0.000000 -0.026833 0.000000 0.063486
#
#
# Mechanical properties :
#
#
# Convention : Reuss Voigt Hill
#
# Bulk Modulus (GPa) = 51.65809 80.99095 66.32452
# Shear Modulus (GPa) = 21.66834 30.53011 26.09922
#
# Velocity S-wave (km/s) = 3.22869 3.83246 3.54346
# Velocity P-wave (km/s) = 6.22507 7.65165 6.97493
#
# Compressibility (1/GPa) = 0.01935805
#
# Stress axis : x y z
#
# Youngs Moduli (GPa) = 63.33894 137.36753 111.79083
#
# Poissons Ratio (x) = 0.46690 0.03126
# Poissons Ratio (y) = 0.21528 0.29613
# Poissons Ratio (z) = 0.01771 0.36388
#
# Static dielectric constant tensor:
#      x y z
#    x 4.931610 0.000000 0.050900 
#    y 0.000000 4.605640 0.000000 
#    z 0.050900 0.000000 3.823490 
# 
# 
# High freq. dielectric constant tensor:
#      x y z
#    x 1.776480 0.000000 0.021420 
#    y 0.000000 1.826160 0.000000 
#    z 0.021420 0.000000 1.812890 
# 
# From -- ./inp_files/40172.got.cif
#   From: 2010.06.25/outbox.cif.g09.slc.cpg/sg12_21_cif.got.tgz:40172.got - 2010.06.28 00:19:55.
