data_PCOD8105157
_publ_section_title
;
Structure prediction by ZEFSAII (Michael W. Deem and Ramdas Pophale) SiO2 
 PCOD8105157
Probable space group: C 2/M
;
_chemical_formula_sum "Si O2"
_cell_formula_units_Z 64
_cell_length_a 30.370563
_cell_length_b 8.703011
_cell_length_c 11.879529
_cell_angle_alpha 90.000000
_cell_angle_beta 88.424240
_cell_angle_gamma 90.000000
_cell_volume 3138.754387
_symmetry_space_group_name_H-M "C 2/M"
_symmetry_group_IT_number 12
_symmetry_cell_setting 'monoclinic'
loop_
_space_group_symop_operation_xyz
x,y,z
-x,y,-z
-x,-y,-z
x,-y,z
1/2+x,1/2+y,z
1/2-x,1/2+y,-z
1/2-x,1/2-y,-z
1/2+x,1/2-y,z
loop_
_atom_site_type_symbol
_atom_site_label
_atom_site_fract_x
_atom_site_fract_y
_atom_site_fract_z
Si Si1 0.823431 0.324832 0.258279
Si Si2 0.948941 0.668675 0.021805
Si Si3 0.491687 0.180898 0.372353
Si Si4 0.423201 0.179544 0.775478
Si Si5 0.667947 0.320706 0.272839
Si Si6 0.203233 0.324103 0.489057
Si Si7 0.083408 0.822731 0.765291
Si Si8 0.744869 0.818723 0.124090
O O1 0.817628 0.500000 0.218929
O O2 0.822236 0.310913 0.392442
O O3 0.870831 0.263986 0.220994
O O4 0.784996 0.228708 0.201853
O O5 0.931690 0.500000 0.063541
O O6 0.940753 0.799134 0.114293
O O7 0.926543 0.715138 0.906859
O O8 0.000000 0.654799 0.000000
O O9 0.500000 0.232194 0.500000
O O10 0.532900 0.233803 0.293175
O O11 0.446647 0.258694 0.333522
O O12 0.484528 0.000000 0.362940
O O13 0.382894 0.281616 0.738473
O O14 0.414440 0.000000 0.751489
O O15 0.676676 0.500000 0.256250
O O16 0.677503 0.273121 0.399284
O O17 0.698742 0.233725 0.181307
O O18 0.207698 0.500000 0.448480
O O19 0.250000 0.250000 0.500000
O O20 0.092457 0.000000 0.741302
O O21 0.744440 0.000000 0.112836
O O22 0.750000 0.750000 0.000000
#
# Coordination Sequence:
#
# PCOD8105157 Si02
#       8
#     8   8   8   8   8   8   8   8
#     4  11  25  45  69  96 129 171 219 266 322 384
#     4  10  20  41  69  92 122 165 216 268 318 380
#     4  10  22  43  68  93 126 169 217 266 319 384
#     4  10  22  41  66  95 126 167 220 270 322 379
#     4  12  26  43  65  96 136 174 215 264 323 386
#     4  11  23  42  70  97 127 166 216 271 323 384
#     4  12  26  41  63  96 134 169 211 265 323 385
#     4  12  26  46  70  96 132 171 216 268 325 386
#
# _framework density 20.390255
#
# number of rings (size 3 to 8) (size 9 to 14) (size 15 to 20)
#    0.000    1.000    2.500    4.125    3.500    3.000 
#    0.000    0.000    0.000    0.000    0.000    0.000 
#    0.000    0.000    0.000    0.000    0.000    0.000 
#
# Total GULP energy -396915.053971 kJ/mol
# GULP energy per Si atom -12403.595437 kJ/mol
# Density = 2.034385 g / cm^3
# Si number density = 20.390255 Si / 1000 Ang^3
#
#
#
# Elastic Constant Matrix: (Units=GPa)
#
#
# Indices 1 2 3 4 5 6 
#
# 1 85.0529 29.5057 9.9092 0.0000 10.6735 0.0000
# 2 29.5057 117.3433 34.7777 0.0000 4.3143 0.0000
# 3 9.9092 34.7777 77.6045 0.0000 7.0061 0.0000
# 4 0.0000 0.0000 0.0000 35.4540 0.0000 4.7843
# 5 10.6735 4.3143 7.0061 0.0000 34.4730 0.0000
# 6 0.0000 0.0000 0.0000 4.7843 0.0000 34.5497
#
#
#
# Elastic Compliance Matrix: (Units=1/GPa)
#
#
# Indices 1 2 3 4 5 6 
#
# 1 0.013342 -0.003243 0.000088 0.000000 -0.003743 0.000000
# 2 -0.003243 0.010620 -0.004396 0.000000 0.000569 0.000000
# 3 0.000088 -0.004396 0.015074 0.000000 -0.002541 0.000000
# 4 0.000000 0.000000 0.000000 0.028743 0.000000 -0.003980
# 5 -0.003743 0.000569 -0.002541 0.000000 0.030612 0.000000
# 6 0.000000 0.000000 0.000000 -0.003980 0.000000 0.029495
#
#
# Mechanical properties :
#
#
# Convention : Reuss Voigt Hill
#
# Bulk Modulus (GPa) = 41.78478 47.59844 44.69161
# Shear Modulus (GPa) = 33.11993 34.61586 33.86790
#
# Velocity S-wave (km/s) = 4.03464 4.12475 4.07994
# Velocity P-wave (km/s) = 6.49934 6.78816 6.64532
#
# Compressibility (1/GPa) = 0.02393216
#
# Stress axis : x y z
#
# Youngs Moduli (GPa) = 74.95143 94.16606 66.33869
#
# Poissons Ratio (x) = 0.30540 -0.00582
# Poissons Ratio (y) = 0.24308 0.29164
# Poissons Ratio (z) = -0.00657 0.41398
#
# Static dielectric constant tensor:
#      x y z
#    x 3.693810 0.000000 -0.025090 
#    y 0.000000 3.943640 0.000000 
#    z -0.025090 0.000000 3.662120 
# 
# 
# High freq. dielectric constant tensor:
#      x y z
#    x 1.806870 0.000000 0.003770 
#    y 0.000000 1.796970 0.000000 
#    z 0.003770 0.000000 1.810410 
# 
# From -- ./inp_files/187547.got.cif
#   From: 2010.06.25/outbox.cif.g09.slc.cpg/sg12_94_cif.got.tgz:187547.got - 2010.06.28 00:19:55.
