data_PCOD8105585
_publ_section_title
;
Structure prediction by ZEFSAII (Michael W. Deem and Ramdas Pophale) SiO2 
 PCOD8105585
Probable space group: C 2/M
;
_chemical_formula_sum "Si O2"
_cell_formula_units_Z 64
_cell_length_a 29.586199
_cell_length_b 9.065683
_cell_length_c 22.718575
_cell_angle_alpha 90.000000
_cell_angle_beta 32.343810
_cell_angle_gamma 90.000000
_cell_volume 3260.043224
_symmetry_space_group_name_H-M "C 2/M"
_symmetry_group_IT_number 12
_symmetry_cell_setting 'monoclinic'
loop_
_space_group_symop_operation_xyz
x,y,z
-x,y,-z
-x,-y,-z
x,-y,z
1/2+x,1/2+y,z
1/2-x,1/2+y,-z
1/2-x,1/2-y,-z
1/2+x,1/2-y,z
loop_
_atom_site_type_symbol
_atom_site_label
_atom_site_fract_x
_atom_site_fract_y
_atom_site_fract_z
Si Si1 0.609079 0.838342 0.021607
Si Si2 0.992800 0.174345 0.232449
Si Si3 0.706339 0.673136 0.396275
Si Si4 0.571658 0.831791 0.378057
Si Si5 0.456275 0.838090 0.105321
Si Si6 0.155587 0.829151 0.692359
Si Si7 0.240022 0.826992 0.226559
Si Si8 0.038010 0.330637 0.611968
O O1 0.680576 0.768719 0.899834
O O2 0.637869 0.000000 0.014706
O O3 0.580192 0.728506 0.105604
O O4 0.524901 0.865695 0.078639
O O5 0.905244 0.216520 0.294774
O O6 0.988373 0.249021 0.300059
O O7 0.999276 0.000000 0.231460
O O8 0.693322 0.500000 0.420063
O O9 0.758184 0.734415 0.396466
O O10 0.750588 0.710501 0.284534
O O11 0.616279 0.751756 0.494461
O O12 0.500000 0.765538 0.500000
O O13 0.656800 0.741680 0.290557
O O14 0.541554 0.820314 0.343943
O O15 0.590089 0.000000 0.376415
O O16 0.391399 0.712286 0.195418
O O17 0.412008 0.000000 0.141881
O O18 0.500000 0.773632 0.000000
O O19 0.179145 0.000000 0.664768
O O20 0.232729 0.000000 0.226674
O O21 0.061558 0.500000 0.599670
#
# Coordination Sequence:
#
# PCOD8105585 Si02
#       8
#     8   8   8   8   8   8   8   8
#     4   9  18  34  55  81 113 150 189 231 280 335
#     4  10  22  40  59  82 113 152 198 240 279 330
#     4  11  22  36  57  87 119 151 191 236 284 338
#     4  10  21  39  61  87 118 147 181 228 288 349
#     4   9  16  29  50  74 107 148 189 233 281 333
#     4  10  21  35  52  78 113 151 192 236 282 333
#     4  10  21  36  59  90 120 149 187 234 284 338
#     4  11  23  40  62  85 112 150 190 233 288 344
#
# _framework density 19.631641999999999
#
# number of rings (size 3 to 8) (size 9 to 14) (size 15 to 20)
#    0.000    2.000    1.250    2.250    0.000    6.500 
#    0.000    3.125    0.000    0.000    0.000    0.000 
#    0.000    0.000    0.000    0.000    0.000    0.000 
#
# Total GULP energy -396588.836958 kJ/mol
# GULP energy per Si atom -12393.401155 kJ/mol
# Density = 1.958696 g / cm^3
# Si number density = 19.631642 Si / 1000 Ang^3
#
#
#
# Elastic Constant Matrix: (Units=GPa)
#
#
# Indices 1 2 3 4 5 6 
#
# 1 79.8387 44.5075 30.2083 -0.0073 7.1488 0.0027
# 2 44.5075 72.2022 43.5418 -0.0170 3.4294 0.0060
# 3 30.2083 43.5418 90.7496 -0.0062 5.2693 0.0033
# 4 -0.0073 -0.0170 -0.0062 37.9779 0.0144 -2.8263
# 5 7.1488 3.4294 5.2693 0.0144 32.3286 -0.0065
# 6 0.0027 0.0060 0.0033 -2.8263 -0.0065 29.0398
#
#
#
# Elastic Compliance Matrix: (Units=1/GPa)
#
#
# Indices 1 2 3 4 5 6 
#
# 1 0.019422 -0.011309 -0.000868 0.000000 -0.002954 0.000000
# 2 -0.011309 0.026084 -0.008818 0.000007 0.001171 -0.000002
# 3 -0.000868 -0.008818 0.015622 -0.000001 -0.001419 0.000000
# 4 0.000000 0.000007 -0.000001 0.026523 -0.000012 0.002581
# 5 -0.002954 0.001171 -0.001419 -0.000012 0.031693 0.000006
# 6 0.000000 -0.000002 0.000000 0.002581 0.000006 0.034687
#
#
# Mechanical properties :
#
#
# Convention : Reuss Voigt Hill
#
# Bulk Modulus (GPa) = 52.25368 53.25622 52.75495
# Shear Modulus (GPa) = 24.70360 28.17144 26.43752
#
# Velocity S-wave (km/s) = 3.55118 3.79225 3.67369
# Velocity P-wave (km/s) = 6.59465 6.80893 6.70264
#
# Compressibility (1/GPa) = 0.01913741
#
# Stress axis : x y z
#
# Youngs Moduli (GPa) = 51.48685 38.33828 64.01366
#
# Poissons Ratio (x) = 0.43357 0.05554
# Poissons Ratio (y) = 0.58227 0.56450
# Poissons Ratio (z) = 0.04467 0.33808
#
# Static dielectric constant tensor:
#      x y z
#    x 3.441560 -0.000020 -0.085710 
#    y -0.000020 3.696410 0.000010 
#    z -0.085710 0.000010 3.445860 
# 
# 
# High freq. dielectric constant tensor:
#      x y z
#    x 1.755080 0.000000 0.001650 
#    y 0.000000 1.762880 0.000000 
#    z 0.001650 0.000000 1.762250 
# 
# From -- ./inp_files/250076.got.cif
#   From: 2010.06.25/outbox.cif.g09.slc.cpg/sg12_126_cif.got.tgz:250076.got - 2010.06.28 00:19:55.
