data_PCOD8105639
_publ_section_title
;
Structure prediction by ZEFSAII (Michael W. Deem and Ramdas Pophale) SiO2 
 PCOD8105639
Probable space group: C 2/M
;
_chemical_formula_sum "Si O2"
_cell_formula_units_Z 40
_cell_length_a 31.311854
_cell_length_b 14.201823
_cell_length_c 5.174177
_cell_angle_alpha 90.000000
_cell_angle_beta 64.803763
_cell_angle_gamma 90.000000
_cell_volume 2081.963721
_symmetry_space_group_name_H-M "C 2/M"
_symmetry_group_IT_number 12
_symmetry_cell_setting 'monoclinic'
loop_
_space_group_symop_operation_xyz
x,y,z
-x,y,-z
-x,-y,-z
x,-y,z
1/2+x,1/2+y,z
1/2-x,1/2+y,-z
1/2-x,1/2-y,-z
1/2+x,1/2-y,z
loop_
_atom_site_type_symbol
_atom_site_label
_atom_site_fract_x
_atom_site_fract_y
_atom_site_fract_z
Si Si1 0.645041 0.263043 0.960594
Si Si2 0.281784 0.108490 0.326988
Si Si3 0.586823 0.393981 0.815708
Si Si4 0.051460 0.809968 0.393190
Si Si5 0.778649 0.109247 0.013315
O O1 0.670259 0.167992 0.808186
O O2 0.633406 0.328277 0.738986
O O3 0.675408 0.326050 0.081476
O O4 0.595168 0.236941 0.232392
O O5 0.255853 0.131622 0.659609
O O6 0.296751 0.000000 0.267611
O O7 0.247791 0.138024 0.180492
O O8 0.604189 0.500000 0.719975
O O9 0.555563 0.357807 0.660211
O O10 0.555062 0.389511 0.158560
O O11 0.000000 0.760166 0.500000
O O12 0.793988 0.000000 0.971833
#
# Coordination Sequence:
#
# PCOD8105639 Si02
#       5
#     8   8   8   8   8
#     4  10  23  35  58  79 111 144 182 218 271 310
#     4  10  22  37  56  79 109 143 183 224 265 315
#     4  10  22  35  53  79 109 144 178 214 263 318
#     4  10  23  37  54  80 110 145 178 218 263 320
#     4  10  21  35  53  81 111 143 178 218 264 321
#
# _framework density 19.212630000000001
#
# number of rings (size 3 to 8) (size 9 to 14) (size 15 to 20)
#    1.200    0.800    0.000    3.000    5.600    2.400 
#    0.000    0.000    0.000    0.600    0.000    1.400 
#    0.000    0.000    0.000    0.000    0.000    0.000 
#
# Total GULP energy -247856.192712 kJ/mol
# GULP energy per Si atom -12392.809636 kJ/mol
# Density = 1.916890 g / cm^3
# Si number density = 19.212630 Si / 1000 Ang^3
#
#
#
# Elastic Constant Matrix: (Units=GPa)
#
#
# Indices 1 2 3 4 5 6 
#
# 1 111.8140 49.0781 20.8620 0.0000 -17.0746 0.0000
# 2 49.0781 50.7701 6.9617 0.0000 -10.8543 0.0000
# 3 20.8620 6.9617 45.1817 0.0000 10.1644 0.0000
# 4 0.0000 0.0000 0.0000 11.4727 0.0000 -0.8377
# 5 -17.0746 -10.8543 10.1644 0.0000 42.1474 0.0000
# 6 0.0000 0.0000 0.0000 -0.8377 0.0000 17.3012
#
#
#
# Elastic Compliance Matrix: (Units=1/GPa)
#
#
# Indices 1 2 3 4 5 6 
#
# 1 0.017554 -0.014970 -0.006906 0.000000 0.004922 0.000000
# 2 -0.014970 0.034587 0.000997 0.000000 0.002602 0.000000
# 3 -0.006906 0.000997 0.027216 0.000000 -0.009104 0.000000
# 4 0.000000 0.000000 0.000000 0.087473 0.000000 0.004235
# 5 0.004922 0.002602 -0.009104 0.000000 0.028586 0.000000
# 6 0.000000 0.000000 0.000000 0.004235 0.000000 0.058005
#
#
# Mechanical properties :
#
#
# Convention : Reuss Voigt Hill
#
# Bulk Modulus (GPa) = 26.59537 40.17438 33.38487
# Shear Modulus (GPa) = 16.24899 22.90853 19.57876
#
# Velocity S-wave (km/s) = 2.91133 3.45681 3.19573
# Velocity P-wave (km/s) = 5.01735 6.07359 5.57056
#
# Compressibility (1/GPa) = 0.03760053
#
# Stress axis : x y z
#
# Youngs Moduli (GPa) = 56.96634 28.91237 36.74297
#
# Poissons Ratio (x) = 0.43282 0.25375
# Poissons Ratio (y) = 0.85279 -0.03665
# Poissons Ratio (z) = 0.39341 -0.02884
#
# Static dielectric constant tensor:
#      x y z
#    x 3.541970 0.000000 0.120190 
#    y 0.000000 3.325670 0.000000 
#    z 0.120190 0.000000 3.521300 
# 
# 
# High freq. dielectric constant tensor:
#      x y z
#    x 1.751230 0.000000 0.013010 
#    y 0.000000 1.704310 0.000000 
#    z 0.013010 0.000000 1.757230 
# 
# From -- ./inp_files/31011.got.cif
#   From: 2010.06.25/outbox.cif.g09.slc.cpg/sg12_16_cif.got.tgz:31011.got - 2010.06.28 00:19:55.
