data_PCOD8105017
_publ_section_title
;
Structure prediction by ZEFSAII (Michael W. Deem and Ramdas Pophale) SiO2 
 PCOD8105017
Probable space group: C 2/M
;
_chemical_formula_sum "Si O2"
_cell_formula_units_Z 48
_cell_length_a 28.968046
_cell_length_b 8.941971
_cell_length_c 14.732248
_cell_angle_alpha 90.000000
_cell_angle_beta 39.982478
_cell_angle_gamma 90.000000
_cell_volume 2452.057472
_symmetry_space_group_name_H-M "C 2/M"
_symmetry_group_IT_number 12
_symmetry_cell_setting 'monoclinic'
loop_
_space_group_symop_operation_xyz
x,y,z
-x,y,-z
-x,-y,-z
x,-y,z
1/2+x,1/2+y,z
1/2-x,1/2+y,-z
1/2-x,1/2-y,-z
1/2+x,1/2-y,z
loop_
_atom_site_type_symbol
_atom_site_label
_atom_site_fract_x
_atom_site_fract_y
_atom_site_fract_z
Si Si1 0.575664 0.172179 0.347061
Si Si2 0.680968 0.176065 0.847506
Si Si3 0.420071 0.328192 0.140885
Si Si4 0.068739 0.169754 0.668303
Si Si5 0.092848 0.826048 0.133361
Si Si6 0.330651 0.828521 0.620296
O O1 0.500000 0.232417 0.500000
O O2 0.598499 0.269342 0.227138
O O3 0.637628 0.193635 0.327486
O O4 0.566951 0.000000 0.330508
O O5 0.636102 0.228868 0.828493
O O6 0.762780 0.223204 0.709097
O O7 0.676122 0.000000 0.861921
O O8 0.652647 0.245048 0.983535
O O9 0.413190 0.500000 0.118533
O O10 0.402228 0.311222 0.273714
O O11 0.500000 0.269452 0.000000
O O12 0.109297 0.285057 0.543213
O O13 0.984544 0.209074 0.793193
O O14 0.080914 0.000000 0.615503
O O15 0.110755 0.000000 0.105352
O O16 0.308583 0.000000 0.636920
#
# Coordination Sequence:
#
# PCOD8105017 Si02
#       6
#     8   8   8   8   8   8
#     4  10  21  39  63  94 125 159 206 257 307 362
#     4  12  26  42  62  91 128 163 207 259 308 365
#     4  10  20  40  66  92 124 162 205 253 306 367
#     4  10  21  38  64  94 124 159 204 253 302 367
#     4  11  22  39  65  94 124 163 207 250 307 370
#     4  11  24  42  64  89 127 167 203 253 313 368
#
# _framework density 19.575396999999999
#
# number of rings (size 3 to 8) (size 9 to 14) (size 15 to 20)
#    0.000    1.333    3.333    2.500    0.000    4.667 
#    0.000    0.000    0.000    0.000    0.000    0.000 
#    0.000    0.000    0.000    0.000    0.000    0.000 
#
# Total GULP energy -297773.097989 kJ/mol
# GULP energy per Si atom -12407.212416 kJ/mol
# Density = 1.953084 g / cm^3
# Si number density = 19.575397 Si / 1000 Ang^3
#
#
#
# Elastic Constant Matrix: (Units=GPa)
#
#
# Indices 1 2 3 4 5 6 
#
# 1 76.3267 44.8310 10.6825 0.0000 3.5764 0.0000
# 2 44.8310 109.4360 36.8549 -0.0002 2.5065 -0.0001
# 3 10.6825 36.8549 45.5591 -0.0001 4.1140 0.0000
# 4 0.0000 -0.0002 -0.0001 36.0661 0.0000 1.6980
# 5 3.5764 2.5065 4.1140 0.0000 33.4973 0.0000
# 6 0.0000 -0.0001 0.0000 1.6980 0.0000 24.8836
#
#
#
# Elastic Compliance Matrix: (Units=1/GPa)
#
#
# Indices 1 2 3 4 5 6 
#
# 1 0.017512 -0.007976 0.002488 0.000000 -0.001578 0.000000
# 2 -0.007976 0.016195 -0.011324 0.000000 0.001030 0.000000
# 3 0.002488 -0.011324 0.030816 0.000000 -0.003203 0.000000
# 4 0.000000 0.000000 0.000000 0.027816 0.000000 -0.001898
# 5 -0.001578 0.001030 -0.003203 0.000000 0.030338 0.000000
# 6 0.000000 0.000000 0.000000 -0.001898 0.000000 0.040317
#
#
# Mechanical properties :
#
#
# Convention : Reuss Voigt Hill
#
# Bulk Modulus (GPa) = 32.36230 46.22875 39.29552
# Shear Modulus (GPa) = 24.16443 28.15296 26.15870
#
# Velocity S-wave (km/s) = 3.51726 3.79645 3.65952
# Velocity P-wave (km/s) = 5.75003 6.54862 6.16227
#
# Compressibility (1/GPa) = 0.03090015
#
# Stress axis : x y z
#
# Youngs Moduli (GPa) = 57.10422 61.74754 32.45104
#
# Poissons Ratio (x) = 0.49248 -0.08075
# Poissons Ratio (y) = 0.45544 0.36747
# Poissons Ratio (z) = -0.14209 0.69922
#
# Static dielectric constant tensor:
#      x y z
#    x 3.591220 0.000000 0.015390 
#    y 0.000000 3.553850 0.000000 
#    z 0.015390 0.000000 3.490810 
# 
# 
# High freq. dielectric constant tensor:
#      x y z
#    x 1.770290 0.000000 0.005590 
#    y 0.000000 1.763140 0.000000 
#    z 0.005590 0.000000 1.764890 
# 
# From -- ./inp_files/244604.got.cif
#   From: 2010.06.25/outbox.cif.g09.slc.cpg/sg12_123_cif.got.tgz:244604.got - 2010.06.28 00:19:55.
