data_PCOD8105510
_publ_section_title
;
Structure prediction by ZEFSAII (Michael W. Deem and Ramdas Pophale) SiO2 
 PCOD8105510
Probable space group: C 2/M
;
_chemical_formula_sum "Si O2"
_cell_formula_units_Z 56
_cell_length_a 18.209957
_cell_length_b 9.464267
_cell_length_c 25.482612
_cell_angle_alpha 90.000000
_cell_angle_beta 134.762554
_cell_angle_gamma 90.000000
_cell_volume 3118.295150
_symmetry_space_group_name_H-M "C 2/M"
_symmetry_group_IT_number 12
_symmetry_cell_setting 'monoclinic'
loop_
_space_group_symop_operation_xyz
x,y,z
-x,y,-z
-x,-y,-z
x,-y,z
1/2+x,1/2+y,z
1/2-x,1/2+y,-z
1/2-x,1/2-y,-z
1/2+x,1/2-y,z
loop_
_atom_site_type_symbol
_atom_site_label
_atom_site_fract_x
_atom_site_fract_y
_atom_site_fract_z
Si Si1 0.167963 0.658596 0.580091
Si Si2 0.003122 0.658592 0.416266
Si Si3 0.725188 0.336770 0.142245
Si Si4 0.058371 0.836647 0.145716
Si Si5 0.173846 0.165097 0.998285
Si Si6 0.867892 0.159249 0.281692
Si Si7 0.803558 0.340741 0.714668
O O1 0.212394 0.500000 0.596057
O O2 0.110891 0.707113 0.497632
O O3 0.261286 0.765180 0.640637
O O4 0.086113 0.659457 0.585583
O O5 0.014253 0.500000 0.399119
O O6 0.973229 0.765157 0.354352
O O7 0.758321 0.500000 0.162860
O O8 0.625766 0.306099 0.128037
O O9 0.822732 0.243131 0.209194
O O10 0.695032 0.291840 0.068714
O O11 0.096941 0.743262 0.214019
O O12 0.942394 0.791093 0.074330
O O13 0.066905 0.000000 0.166516
O O14 0.192134 0.000000 0.998537
O O15 0.250000 0.250000 0.000000
O O16 0.784477 0.160387 0.285807
O O17 0.895105 0.000000 0.278202
O O18 0.836491 0.500000 0.716886
#
# Coordination Sequence:
#
# PCOD8105510 Si02
#       7
#     8   8   8   8   8   8   8
#     4   8  13  21  33  50  76 113 152 184 217 261
#     4   8  13  21  33  50  76 113 152 184 217 261
#     4   9  17  31  50  68  88 118 156 191 222 265
#     4   9  17  31  50  68  88 118 156 191 222 265
#     4  10  21  35  51  71  93 118 148 186 232 276
#     4   9  16  24  36  58  86 114 146 185 228 268
#     4   9  16  24  36  58  86 114 146 185 228 268
#
# _framework density 17.958531000000001
#
# number of rings (size 3 to 8) (size 9 to 14) (size 15 to 20)
#    0.000    3.143    0.000    2.143    0.000    6.857 
#    0.000    2.857    0.000    4.286    0.000    0.000 
#    0.000    1.143    0.000    3.714    0.000    7.429 
#
# Total GULP energy -347110.352775 kJ/mol
# GULP energy per Si atom -12396.798313 kJ/mol
# Density = 1.791766 g / cm^3
# Si number density = 17.958531 Si / 1000 Ang^3
#
#
#
# Elastic Constant Matrix: (Units=GPa)
#
#
# Indices 1 2 3 4 5 6 
#
# 1 33.3706 30.6647 39.9203 0.0000 2.4825 0.0000
# 2 30.6647 124.1626 107.5030 0.0000 8.5771 0.0000
# 3 39.9203 107.5030 194.6587 0.0000 16.7643 0.0000
# 4 0.0000 0.0000 0.0000 24.4757 0.0000 1.2133
# 5 2.4825 8.5771 16.7643 0.0000 1.4127 0.0000
# 6 0.0000 0.0000 0.0000 1.2133 0.0000 16.1239
#
#
#
# Elastic Compliance Matrix: (Units=1/GPa)
#
#
# Indices 1 2 3 4 5 6 
#
# 1 0.022929 -0.008506 0.044688 0.000000 -0.518953 0.000000
# 2 -0.008506 0.015697 0.000190 0.000000 -0.082608 0.000000
# 3 0.044688 0.000190 -0.124200 0.000000 1.394163 0.000000
# 4 0.000000 0.000000 0.000000 0.041010 0.000000 -0.003086
# 5 -0.518953 -0.082608 1.394163 0.000000-14.422797 0.000000
# 6 0.000000 0.000000 0.000000 -0.003086 0.000000 0.062252
#
#
# Mechanical properties :
#
#
# Convention : Reuss Voigt Hill
#
# Bulk Modulus (GPa) = -77.94614 78.70756 0.38071
# Shear Modulus (GPa) = -0.34525 20.00939 9.83207
#
# Velocity S-wave (km/s) = -0.43894 3.34158 2.34238
# Velocity P-wave (km/s) = 6.61472 7.66882 2.74374
#
# Compressibility (1/GPa) = -0.01282937
#
# Stress axis : x y z
#
# Youngs Moduli (GPa) = 43.61289 63.70753 -8.05153
#
# Poissons Ratio (x) = 0.54189 0.35981
# Poissons Ratio (y) = 0.37096 0.00153
# Poissons Ratio (z) = -1.94899 -0.01210
#
# Static dielectric constant tensor:
#      x y z
#    x 2.664380 0.000000 0.083440 
#    y 0.000000 3.460390 0.000000 
#    z 0.083440 0.000000 3.630390 
# 
# 
# High freq. dielectric constant tensor:
#      x y z
#    x 1.622660 0.000000 0.007780 
#    y 0.000000 1.695860 0.000000 
#    z 0.007780 0.000000 1.713770 
# 
# From -- ./inp_files/301400.got.cif
#   From: 2010.06.25/outbox.cif.g09.slc.cpg/sg12_151_cif.got.tgz:301400.got - 2010.06.28 00:19:55.
