data_PCOD8105804
_publ_section_title
;
Structure prediction by ZEFSAII (Michael W. Deem and Ramdas Pophale) SiO2 
 PCOD8105804
Probable space group: C 2/M
;
_chemical_formula_sum "Si O2"
_cell_formula_units_Z 48
_cell_length_a 25.942661
_cell_length_b 13.532160
_cell_length_c 11.765109
_cell_angle_alpha 90.000000
_cell_angle_beta 146.004132
_cell_angle_gamma 90.000000
_cell_volume 2309.366245
_symmetry_space_group_name_H-M "C 2/M"
_symmetry_group_IT_number 12
_symmetry_cell_setting 'monoclinic'
loop_
_space_group_symop_operation_xyz
x,y,z
-x,y,-z
-x,-y,-z
x,-y,z
1/2+x,1/2+y,z
1/2-x,1/2+y,-z
1/2-x,1/2-y,-z
1/2+x,1/2-y,z
loop_
_atom_site_type_symbol
_atom_site_label
_atom_site_fract_x
_atom_site_fract_y
_atom_site_fract_z
Si Si1 0.979586 0.760811 0.264605
Si Si2 0.815244 0.881088 0.078458
Si Si3 0.239506 0.825686 0.580770
Si Si4 0.937887 0.388721 0.991095
Si Si5 0.174955 0.252021 0.700535
Si Si6 0.953141 0.891848 0.806498
O O1 0.898285 0.810931 0.187159
O O2 0.947036 0.672175 0.124230
O O3 0.064944 0.725194 0.499334
O O4 0.019257 0.846888 0.261075
O O5 0.803016 0.848057 0.187208
O O6 0.832341 0.000000 0.100503
O O7 0.723601 0.849763 0.842051
O O8 0.250000 0.750000 0.500000
O O9 0.215522 0.764244 0.649857
O O10 0.157267 0.897094 0.390559
O O11 0.331481 0.889204 0.760655
O O12 0.969497 0.500000 0.076098
O O13 0.000000 0.346931 0.000000
O O14 0.996646 0.000000 0.885428
O O15 0.000000 0.835009 0.000000
#
# Coordination Sequence:
#
# PCOD8105804 Si02
#       6
#     8   8   8   8   8   8
#     4  11  21  41  65  92 129 168 216 270 326 380
#     4  11  24  44  69  97 131 173 221 273 327 392
#     4  11  21  40  65  88 127 169 205 263 322 382
#     4  11  23  39  61  92 129 174 217 257 319 395
#     4  10  24  42  64  97 129 168 215 268 331 387
#     4  10  21  35  57  92 126 161 208 261 322 382
#
# _framework density 20.784922999999999
#
# number of rings (size 3 to 8) (size 9 to 14) (size 15 to 20)
#    0.000    1.333    1.667    5.000    0.000    5.333 
#    0.000    0.833    0.000    3.000    0.000    0.000 
#    0.000    0.000    0.000    0.000    0.000    0.000 
#
# Total GULP energy -297463.090143 kJ/mol
# GULP energy per Si atom -12394.295423 kJ/mol
# Density = 2.073762 g / cm^3
# Si number density = 20.784923 Si / 1000 Ang^3
#
#
#
# Elastic Constant Matrix: (Units=GPa)
#
#
# Indices 1 2 3 4 5 6 
#
# 1 99.7468 38.9502 39.4816 0.0000 -5.8384 0.0000
# 2 38.9502 111.1102 32.1384 0.0000 -6.0551 0.0000
# 3 39.4816 32.1384 156.9262 0.0000 6.0786 0.0000
# 4 0.0000 0.0000 0.0000 22.7956 0.0000 3.0297
# 5 -5.8384 -6.0551 6.0786 0.0000 35.6774 0.0000
# 6 0.0000 0.0000 0.0000 3.0297 0.0000 24.3432
#
#
#
# Elastic Compliance Matrix: (Units=1/GPa)
#
#
# Indices 1 2 3 4 5 6 
#
# 1 0.012512 -0.003564 -0.002490 0.000000 0.001867 0.000000
# 2 -0.003564 0.010722 -0.001356 0.000000 0.001467 0.000000
# 3 -0.002490 -0.001356 0.007350 0.000000 -0.001890 0.000000
# 4 0.000000 0.000000 0.000000 0.044606 0.000000 -0.005551
# 5 0.001867 0.001467 -0.001890 0.000000 0.028906 0.000000
# 6 0.000000 0.000000 0.000000 -0.005551 0.000000 0.041770
#
#
# Mechanical properties :
#
#
# Convention : Reuss Voigt Hill
#
# Bulk Modulus (GPa) = 63.44018 65.43595 64.43807
# Shear Modulus (GPa) = 30.13130 33.71077 31.92104
#
# Velocity S-wave (km/s) = 3.81159 4.03163 3.92315
# Velocity P-wave (km/s) = 7.06820 7.29540 7.18270
#
# Compressibility (1/GPa) = 0.01576288
#
# Stress axis : x y z
#
# Youngs Moduli (GPa) = 79.92238 93.26921 136.05667
#
# Poissons Ratio (x) = 0.33242 0.33883
# Poissons Ratio (y) = 0.28485 0.18448
# Poissons Ratio (z) = 0.19904 0.12647
#
# Static dielectric constant tensor:
#      x y z
#    x 3.763140 0.000000 -0.051730 
#    y 0.000000 3.539180 0.000000 
#    z -0.051730 0.000000 4.050010 
# 
# 
# High freq. dielectric constant tensor:
#      x y z
#    x 1.819610 0.000000 -0.000230 
#    y 0.000000 1.798830 0.000000 
#    z -0.000230 0.000000 1.832790 
# 
# From -- ./inp_files/183866.got.cif
#   From: 2010.06.25/outbox.cif.g09.slc.cpg/sg12_92_cif.got.tgz:183866.got - 2010.06.28 00:19:55.
