data_PCOD8105640
_publ_section_title
;
Structure prediction by ZEFSAII (Michael W. Deem and Ramdas Pophale) SiO2 
 PCOD8105640
Probable space group: C 2/M
;
_chemical_formula_sum "Si O2"
_cell_formula_units_Z 40
_cell_length_a 26.784836
_cell_length_b 9.077595
_cell_length_c 9.501183
_cell_angle_alpha 90.000000
_cell_angle_beta 70.056621
_cell_angle_gamma 90.000000
_cell_volume 2171.597146
_symmetry_space_group_name_H-M "C 2/M"
_symmetry_group_IT_number 12
_symmetry_cell_setting 'monoclinic'
loop_
_space_group_symop_operation_xyz
x,y,z
-x,y,-z
-x,-y,-z
x,-y,z
1/2+x,1/2+y,z
1/2-x,1/2+y,-z
1/2-x,1/2-y,-z
1/2+x,1/2-y,z
loop_
_atom_site_type_symbol
_atom_site_label
_atom_site_fract_x
_atom_site_fract_y
_atom_site_fract_z
Si Si1 0.548436 0.326891 0.051190
Si Si2 0.457882 0.168486 0.655569
Si Si3 0.337175 0.167744 0.749589
Si Si4 0.253087 0.326130 0.647027
Si Si5 0.155772 0.327305 0.936382
O O1 0.557094 0.500000 0.043603
O O2 0.534390 0.273671 0.220072
O O3 0.500000 0.278015 0.000000
O O4 0.602212 0.254029 0.940681
O O5 0.500000 0.221040 0.500000
O O6 0.398871 0.183784 0.649119
O O7 0.468206 0.000000 0.692567
O O8 0.305468 0.275453 0.678173
O O9 0.317642 0.000000 0.745893
O O10 0.328077 0.217098 0.920122
O O11 0.255373 0.500000 0.623484
O O12 0.250000 0.250000 0.500000
O O13 0.202077 0.278087 0.786854
O O14 0.144056 0.500000 0.941384
#
# Coordination Sequence:
#
# PCOD8105640 Si02
#       5
#     8   8   8   8   8
#     4  10  21  35  53  81 112 139 173 219 267 312
#     4   9  19  36  57  80 107 142 181 217 257 311
#     4   9  18  35  57  80 105 135 177 222 261 309
#     4  11  23  37  54  79 109 140 175 217 266 315
#     4   9  20  38  58  78 102 139 183 218 256 315
#
# _framework density 18.419623000000001
#
# number of rings (size 3 to 8) (size 9 to 14) (size 15 to 20)
#    0.000    2.400    0.000    3.000    0.000    8.400 
#    0.000    6.000    0.000    0.000    0.000    0.000 
#    0.000    0.000    0.000    0.000    0.000    0.000 
#
# Total GULP energy -248058.376270 kJ/mol
# GULP energy per Si atom -12402.918813 kJ/mol
# Density = 1.837770 g / cm^3
# Si number density = 18.419623 Si / 1000 Ang^3
#
#
#
# Elastic Constant Matrix: (Units=GPa)
#
#
# Indices 1 2 3 4 5 6 
#
# 1 131.5494 55.2242 78.5019 0.0000 3.1797 0.0000
# 2 55.2242 56.3312 37.9825 0.0000 5.3948 0.0000
# 3 78.5019 37.9825 119.6287 0.0000 -14.4148 0.0000
# 4 0.0000 0.0000 0.0000 28.3217 0.0000 6.7933
# 5 3.1797 5.3948 -14.4148 0.0000 33.1939 0.0000
# 6 0.0000 0.0000 0.0000 6.7933 0.0000 31.8368
#
#
#
# Elastic Compliance Matrix: (Units=1/GPa)
#
#
# Indices 1 2 3 4 5 6 
#
# 1 0.017200 -0.011000 -0.008206 0.000000 -0.003424 0.000000
# 2 -0.011000 0.031360 -0.003404 0.000000 -0.005521 0.000000
# 3 -0.008206 -0.003404 0.015814 0.000000 0.008207 0.000000
# 4 0.000000 0.000000 0.000000 0.037213 0.000000 -0.007940
# 5 -0.003424 -0.005521 0.008207 0.000000 0.034915 0.000000
# 6 0.000000 0.000000 0.000000 -0.007940 0.000000 0.033104
#
#
# Mechanical properties :
#
#
# Convention : Reuss Voigt Hill
#
# Bulk Modulus (GPa) = 52.21199 72.32516 62.26858
# Shear Modulus (GPa) = 22.60282 27.72388 25.16335
#
# Velocity S-wave (km/s) = 3.50681 3.88381 3.70011
# Velocity P-wave (km/s) = 6.69360 7.71119 7.22035
#
# Compressibility (1/GPa) = 0.01915269
#
# Stress axis : x y z
#
# Youngs Moduli (GPa) = 58.14095 31.88773 63.23550
#
# Poissons Ratio (x) = 0.35078 0.51894
# Poissons Ratio (y) = 0.63957 0.21523
# Poissons Ratio (z) = 0.47713 0.10853
#
# Static dielectric constant tensor:
#      x y z
#    x 3.444100 0.000000 -0.140180 
#    y 0.000000 3.343070 0.000000 
#    z -0.140180 0.000000 3.462420 
# 
# 
# High freq. dielectric constant tensor:
#      x y z
#    x 1.721170 0.000000 -0.007220 
#    y 0.000000 1.714850 0.000000 
#    z -0.007220 0.000000 1.712410 
# 
# From -- ./inp_files/92787.got.cif
#   From: 2010.06.25/outbox.cif.g09.slc.cpg/sg12_47_cif.got.tgz:92787.got - 2010.06.28 00:19:55.
