data_PCOD8105288
_publ_section_title
;
Structure prediction by ZEFSAII (Michael W. Deem and Ramdas Pophale) SiO2 
 PCOD8105288
Probable space group: C 2/M
;
_chemical_formula_sum "Si O2"
_cell_formula_units_Z 56
_cell_length_a 13.485860
_cell_length_b 31.185408
_cell_length_c 7.971877
_cell_angle_alpha 90.000000
_cell_angle_beta 70.401424
_cell_angle_gamma 90.000000
_cell_volume 3158.434679
_symmetry_space_group_name_H-M "C 2/M"
_symmetry_group_IT_number 12
_symmetry_cell_setting 'monoclinic'
loop_
_space_group_symop_operation_xyz
x,y,z
-x,y,-z
-x,-y,-z
x,-y,z
1/2+x,1/2+y,z
1/2-x,1/2+y,-z
1/2-x,1/2-y,-z
1/2+x,1/2-y,z
loop_
_atom_site_type_symbol
_atom_site_label
_atom_site_fract_x
_atom_site_fract_y
_atom_site_fract_z
Si Si1 0.084624 0.763760 0.571433
Si Si2 0.880187 0.604711 0.761479
Si Si3 0.214655 0.310749 0.056774
Si Si4 0.922005 0.232180 0.907467
Si Si5 0.375766 0.896089 0.387333
Si Si6 0.624895 0.952102 0.925473
Si Si7 0.281826 0.809956 0.335814
O O1 0.160582 0.796933 0.433303
O O2 0.146537 0.728943 0.643741
O O3 0.000000 0.739606 0.500000
O O4 0.004313 0.791099 0.735270
O O5 0.818340 0.649230 0.812840
O O6 0.862190 0.585192 0.584487
O O7 0.002940 0.614680 0.720670
O O8 0.836492 0.572260 0.928078
O O9 0.144549 0.269649 0.149399
O O10 0.337339 0.301400 0.030245
O O11 0.197689 0.319506 0.870090
O O12 0.000000 0.253044 0.000000
O O13 0.335093 0.929289 0.268695
O O14 0.308157 0.852793 0.421441
O O15 0.672800 0.000000 0.900357
O O16 0.500000 0.954447 0.000000
#
# Coordination Sequence:
#
# PCOD8105288 Si02
#       7
#     8   8   8   8   8   8   8
#     4  11  23  35  47  69  99 138 180 226 261 297
#     4  10  21  33  51  77 107 137 173 213 255 310
#     4  11  22  35  51  72 100 141 183 217 263 311
#     4  11  23  35  48  70 100 140 179 225 264 300
#     4  10  21  33  51  77 105 140 171 212 255 310
#     4   9  18  34  54  76 104 137 170 208 259 314
#     4  11  22  34  51  70  99 139 182 219 260 307
#
# _framework density 17.730301999999998
#
# number of rings (size 3 to 8) (size 9 to 14) (size 15 to 20)
#    0.000    1.571    4.286    0.857    6.000    0.571 
#    0.000    2.857    0.000    0.000    0.000    0.000 
#    0.000    5.714    0.000    0.000    0.000    0.000 
#
# Total GULP energy -346961.262875 kJ/mol
# GULP energy per Si atom -12391.473674 kJ/mol
# Density = 1.768995 g / cm^3
# Si number density = 17.730302 Si / 1000 Ang^3
#
#
#
# Elastic Constant Matrix: (Units=GPa)
#
#
# Indices 1 2 3 4 5 6 
#
# 1 81.5364 23.7896 31.4285 0.0000 -3.0728 0.0000
# 2 23.7896 91.5975 39.4596 0.0000 -0.6492 0.0000
# 3 31.4285 39.4596 114.0750 0.0000 2.5882 0.0000
# 4 0.0000 0.0000 0.0000 20.2020 0.0000 1.4617
# 5 -3.0728 -0.6492 2.5882 0.0000 25.5280 0.0000
# 6 0.0000 0.0000 0.0000 1.4617 0.0000 14.9606
#
#
#
# Elastic Compliance Matrix: (Units=1/GPa)
#
#
# Indices 1 2 3 4 5 6 
#
# 1 0.014235 -0.002320 -0.003164 0.000000 0.001975 0.000000
# 2 -0.002320 0.013223 -0.003945 0.000000 0.000457 0.000000
# 3 -0.003164 -0.003945 0.011039 0.000000 -0.001600 0.000000
# 4 0.000000 0.000000 0.000000 0.049852 0.000000 -0.004871
# 5 0.001975 0.000457 -0.001600 0.000000 0.039584 0.000000
# 6 0.000000 0.000000 0.000000 -0.004871 0.000000 0.067318
#
#
# Mechanical properties :
#
#
# Convention : Reuss Voigt Hill
#
# Bulk Modulus (GPa) = 50.92094 52.95161 51.93627
# Shear Modulus (GPa) = 22.65965 24.97354 23.81659
#
# Velocity S-wave (km/s) = 3.57882 3.75710 3.66904
# Velocity P-wave (km/s) = 6.77195 6.98219 6.87787
#
# Compressibility (1/GPa) = 0.01963829
#
# Stress axis : x y z
#
# Youngs Moduli (GPa) = 70.24693 75.62804 90.58912
#
# Poissons Ratio (x) = 0.17546 0.28665
# Poissons Ratio (y) = 0.16298 0.35737
# Poissons Ratio (z) = 0.22228 0.29835
#
# Static dielectric constant tensor:
#      x y z
#    x 3.270710 0.000000 0.083560 
#    y 0.000000 3.066420 0.000000 
#    z 0.083560 0.000000 3.676490 
# 
# 
# High freq. dielectric constant tensor:
#      x y z
#    x 1.667740 0.000000 0.013730 
#    y 0.000000 1.638120 0.000000 
#    z 0.013730 0.000000 1.710050 
# 
# From -- ./inp_files/54157.got.cif
#   From: 2010.06.25/outbox.cif.g09.slc.cpg/sg12_28_cif.got.tgz:54157.got - 2010.06.28 00:19:55.
