data_PCOD8105985
_publ_section_title
;
Structure prediction by ZEFSAII (Michael W. Deem and Ramdas Pophale) SiO2 
 PCOD8105985
Probable space group: C 2/M
;
_chemical_formula_sum "Si O2"
_cell_formula_units_Z 56
_cell_length_a 29.386026
_cell_length_b 9.256511
_cell_length_c 20.407585
_cell_angle_alpha 90.000000
_cell_angle_beta 32.094415
_cell_angle_gamma 90.000000
_cell_volume 2949.393308
_symmetry_space_group_name_H-M "C 2/M"
_symmetry_group_IT_number 12
_symmetry_cell_setting 'monoclinic'
loop_
_space_group_symop_operation_xyz
x,y,z
-x,y,-z
-x,-y,-z
x,-y,z
1/2+x,1/2+y,z
1/2-x,1/2+y,-z
1/2-x,1/2-y,-z
1/2+x,1/2-y,z
loop_
_atom_site_type_symbol
_atom_site_label
_atom_site_fract_x
_atom_site_fract_y
_atom_site_fract_z
Si Si1 0.356025 0.336858 0.455244
Si Si2 0.238523 0.666631 0.802440
Si Si3 0.711418 0.331302 0.705144
Si Si4 0.418215 0.328019 0.638594
Si Si5 0.548505 0.334286 0.257581
Si Si6 0.072427 0.166879 0.769888
Si Si7 0.414816 0.833328 0.914881
O O1 0.320838 0.500000 0.505671
O O2 0.290923 0.227165 0.567151
O O3 0.446115 0.321045 0.382178
O O4 0.366807 0.295077 0.365875
O O5 0.244084 0.500000 0.773983
O O6 0.202451 0.756707 0.785992
O O7 0.331913 0.726104 0.708665
O O8 0.176559 0.686917 0.939662
O O9 0.725893 0.500000 0.697614
O O10 0.623371 0.299785 0.774061
O O11 0.500000 0.264398 0.500000
O O12 0.422450 0.500000 0.634078
O O13 0.418979 0.272828 0.712582
O O14 0.576401 0.500000 0.212582
O O15 0.591436 0.240581 0.148250
O O16 0.987134 0.262336 0.872669
O O17 0.044113 0.000000 0.799235
O O18 0.438641 0.000000 0.876262
#
# Coordination Sequence:
#
# PCOD8105985 Si02
#       7
#     8   8   8   8   8   8   8
#     4   9  17  32  54  79 107 137 171 214 263 317
#     4  10  22  38  54  76 107 141 179 219 259 312
#     4  11  22  34  52  79 107 138 177 222 269 310
#     4   9  17  33  58  82 104 137 178 212 250 311
#     4   9  18  34  58  82 105 140 180 215 255 308
#     4   9  20  37  55  76 104 140 180 217 258 317
#     4  10  21  36  54  78 107 138 175 221 268 309
#
# _framework density 18.986957
#
# number of rings (size 3 to 8) (size 9 to 14) (size 15 to 20)
#    0.000    2.429    0.000    3.000    0.000    8.000 
#    0.000    3.571    0.000    1.714    0.000    0.000 
#    0.000    0.000    0.000    0.000    0.000    0.000 
#
# Total GULP energy -347268.818742 kJ/mol
# GULP energy per Si atom -12402.457812 kJ/mol
# Density = 1.894374 g / cm^3
# Si number density = 18.986957 Si / 1000 Ang^3
#
#
#
# Elastic Constant Matrix: (Units=GPa)
#
#
# Indices 1 2 3 4 5 6 
#
# 1 138.5560 50.8630 47.3196 0.0086 13.2763 -0.0065
# 2 50.8630 80.1428 47.7718 0.0209 5.4630 -0.0145
# 3 47.3196 47.7718 96.0289 0.0261 2.3154 -0.0210
# 4 0.0086 0.0209 0.0261 28.4261 -0.0168 5.5041
# 5 13.2763 5.4630 2.3154 -0.0168 16.1639 0.0109
# 6 -0.0065 -0.0145 -0.0210 5.5041 0.0109 24.9524
#
#
#
# Elastic Compliance Matrix: (Units=1/GPa)
#
#
# Indices 1 2 3 4 5 6 
#
# 1 0.010460 -0.004560 -0.002725 -0.000001 -0.006660 0.000001
# 2 -0.004560 0.020096 -0.007703 -0.000009 -0.001943 0.000007
# 3 -0.002725 -0.007703 0.015526 -0.000008 0.002618 0.000008
# 4 -0.000001 -0.000009 -0.000008 0.036749 0.000049 -0.008106
# 5 -0.006660 -0.001943 0.002618 0.000049 0.067618 -0.000041
# 6 0.000001 0.000007 0.000008 -0.008106 -0.000041 0.041864
#
#
# Mechanical properties :
#
#
# Convention : Reuss Voigt Hill
#
# Bulk Modulus (GPa) = 62.09518 67.40406 64.74962
# Shear Modulus (GPa) = 21.96271 25.16004 23.56138
#
# Velocity S-wave (km/s) = 3.40476 3.64417 3.52650
# Velocity P-wave (km/s) = 6.94490 7.29958 7.12445
#
# Compressibility (1/GPa) = 0.01610431
#
# Stress axis : x y z
#
# Youngs Moduli (GPa) = 95.60068 49.76085 64.41002
#
# Poissons Ratio (x) = 0.22692 0.17553
# Poissons Ratio (y) = 0.43595 0.49617
# Poissons Ratio (z) = 0.26054 0.38333
#
# Static dielectric constant tensor:
#      x y z
#    x 3.700470 0.000000 0.009790 
#    y 0.000000 3.342360 0.000010 
#    z 0.009790 0.000010 3.336450 
# 
# 
# High freq. dielectric constant tensor:
#      x y z
#    x 1.748100 0.000000 0.003690 
#    y 0.000000 1.719990 0.000000 
#    z 0.003690 0.000000 1.733360 
# 
# From -- ./inp_files/329509.got.cif
#   From: 2010.06.25/outbox.cif.g09.slc.cpg/sg12_165_cif.got.tgz:329509.got - 2010.06.28 00:19:55.
