data_PCOD8105399
_publ_section_title
;
Structure prediction by ZEFSAII (Michael W. Deem and Ramdas Pophale) SiO2 
 PCOD8105399
Probable space group: C 2/M
;
_chemical_formula_sum "Si O2"
_cell_formula_units_Z 64
_cell_length_a 28.136299
_cell_length_b 9.190724
_cell_length_c 14.341524
_cell_angle_alpha 90.000000
_cell_angle_beta 106.661924
_cell_angle_gamma 90.000000
_cell_volume 3552.904338
_symmetry_space_group_name_H-M "C 2/M"
_symmetry_group_IT_number 12
_symmetry_cell_setting 'monoclinic'
loop_
_space_group_symop_operation_xyz
x,y,z
-x,y,-z
-x,-y,-z
x,-y,z
1/2+x,1/2+y,z
1/2-x,1/2+y,-z
1/2-x,1/2-y,-z
1/2+x,1/2-y,z
loop_
_atom_site_type_symbol
_atom_site_label
_atom_site_fract_x
_atom_site_fract_y
_atom_site_fract_z
Si Si1 0.292534 0.169253 0.408789
Si Si2 0.846008 0.334411 0.946632
Si Si3 0.754430 0.167561 0.905859
Si Si4 0.504050 0.669645 0.108351
Si Si5 0.399135 0.329452 0.138446
Si Si6 0.806985 0.329460 0.628925
Si Si7 0.901947 0.664521 0.793462
Si Si8 0.652947 0.165709 0.739805
O O1 0.241846 0.253726 0.357173
O O2 0.312402 0.206831 0.522637
O O3 0.336477 0.212475 0.361465
O O4 0.279513 0.000000 0.390118
O O5 0.831488 0.500000 0.964432
O O6 0.799028 0.249357 0.876451
O O7 0.889457 0.330182 0.895843
O O8 0.861974 0.254592 0.049781
O O9 0.705035 0.184883 0.819958
O O10 0.768533 0.000000 0.929929
O O11 0.750000 0.250000 0.000000
O O12 0.515633 0.500000 0.110201
O O13 0.455004 0.705266 0.139437
O O14 0.548362 0.742939 0.191542
O O15 0.500000 0.730618 0.000000
O O16 0.387818 0.500000 0.127509
O O17 0.388687 0.269449 0.237065
O O18 0.801278 0.500000 0.645889
O O19 0.856661 0.269957 0.707084
O O20 0.912708 0.500000 0.767038
O O21 0.633659 0.000000 0.734940
#
# Coordination Sequence:
#
# PCOD8105399 Si02
#       8
#     8   8   8   8   8   8   8   8
#     4   9  18  34  56  80 108 141 174 211 258 309
#     4  11  21  32  47  71 103 136 171 207 251 308
#     4  11  21  31  45  68 100 136 174 209 249 299
#     4  10  21  37  54  75 102 134 176 222 266 314
#     4  11  22  35  52  72  98 135 174 213 259 307
#     4   9  18  34  55  82 111 136 171 216 259 309
#     4  10  21  34  53  79 105 136 171 215 265 311
#     4  10  21  35  51  73 102 138 176 213 254 307
#
# _framework density 18.013431000000001
#
# number of rings (size 3 to 8) (size 9 to 14) (size 15 to 20)
#    0.000    1.875    2.500    1.875    0.000    3.250 
#    0.000    0.000    0.000    0.750    0.000    5.250 
#    0.000    0.000    0.000    0.000    0.000    0.000 
#
# Total GULP energy -396795.078620 kJ/mol
# GULP energy per Si atom -12399.846207 kJ/mol
# Density = 1.797243 g / cm^3
# Si number density = 18.013431 Si / 1000 Ang^3
#
#
#
# Elastic Constant Matrix: (Units=GPa)
#
#
# Indices 1 2 3 4 5 6 
#
# 1 111.6829 56.8526 42.0420 0.0000 -4.8505 0.0000
# 2 56.8526 82.7045 27.8814 0.0000 -2.8291 0.0000
# 3 42.0420 27.8814 70.1597 0.0000 -4.0769 0.0000
# 4 0.0000 0.0000 0.0000 21.1349 0.0000 0.9705
# 5 -4.8505 -2.8291 -4.0769 0.0000 29.4248 0.0000
# 6 0.0000 0.0000 0.0000 0.9705 0.0000 35.1686
#
#
#
# Elastic Compliance Matrix: (Units=1/GPa)
#
#
# Indices 1 2 3 4 5 6 
#
# 1 0.015653 -0.008758 -0.005845 0.000000 0.000928 0.000000
# 2 -0.008758 0.018871 -0.002248 0.000000 0.000059 0.000000
# 3 -0.005845 -0.002248 0.018732 0.000000 0.001416 0.000000
# 4 0.000000 0.000000 0.000000 0.047375 0.000000 -0.001307
# 5 0.000928 0.000059 0.001416 0.000000 0.034340 0.000000
# 6 0.000000 0.000000 0.000000 -0.001307 0.000000 0.028471
#
#
# Mechanical properties :
#
#
# Convention : Reuss Voigt Hill
#
# Bulk Modulus (GPa) = 51.14220 57.56656 54.35438
# Shear Modulus (GPa) = 24.55054 26.33041 25.44048
#
# Velocity S-wave (km/s) = 3.69576 3.82738 3.76214
# Velocity P-wave (km/s) = 6.83112 7.18044 7.00796
#
# Compressibility (1/GPa) = 0.01955332
#
# Stress axis : x y z
#
# Youngs Moduli (GPa) = 63.88630 52.99047 53.38558
#
# Poissons Ratio (x) = 0.46407 0.31206
# Poissons Ratio (y) = 0.55949 0.12002
# Poissons Ratio (z) = 0.37344 0.11913
#
# Static dielectric constant tensor:
#      x y z
#    x 3.479420 0.000000 -0.149800 
#    y 0.000000 3.451700 0.000000 
#    z -0.149800 0.000000 3.414610 
# 
# 
# High freq. dielectric constant tensor:
#      x y z
#    x 1.693290 0.000000 -0.011270 
#    y 0.000000 1.699240 0.000000 
#    z -0.011270 0.000000 1.678640 
# 
# From -- ./inp_files/244130.got.cif
#   From: 2010.06.25/outbox.cif.g09.slc.cpg/sg12_123_cif.got.tgz:244130.got - 2010.06.28 00:19:55.
