data_PCOD8105371
_publ_section_title
;
Structure prediction by ZEFSAII (Michael W. Deem and Ramdas Pophale) SiO2 
 PCOD8105371
Probable space group: C 2/M
;
_chemical_formula_sum "Si O2"
_cell_formula_units_Z 56
_cell_length_a 18.528729
_cell_length_b 17.455338
_cell_length_c 9.371950
_cell_angle_alpha 90.000000
_cell_angle_beta 65.262927
_cell_angle_gamma 90.000000
_cell_volume 2752.981775
_symmetry_space_group_name_H-M "C 2/M"
_symmetry_group_IT_number 12
_symmetry_cell_setting 'monoclinic'
loop_
_space_group_symop_operation_xyz
x,y,z
-x,y,-z
-x,-y,-z
x,-y,z
1/2+x,1/2+y,z
1/2-x,1/2+y,-z
1/2-x,1/2-y,-z
1/2+x,1/2-y,z
loop_
_atom_site_type_symbol
_atom_site_label
_atom_site_fract_x
_atom_site_fract_y
_atom_site_fract_z
Si Si1 0.425067 0.127791 0.639582
Si Si2 0.772805 0.829635 0.904799
Si Si3 0.911295 0.799711 0.571362
Si Si4 0.812890 0.412642 0.266792
Si Si5 0.793324 0.830370 0.441032
Si Si6 0.253415 0.585352 0.203087
Si Si7 0.488402 0.911113 0.168097
O O1 0.500000 0.084269 0.500000
O O2 0.413138 0.208503 0.573884
O O3 0.342194 0.083492 0.699004
O O4 0.452646 0.137634 0.780934
O O5 0.855787 0.827444 0.748758
O O6 0.703467 0.855226 0.852083
O O7 0.750000 0.750000 0.000000
O O8 0.779519 0.892917 0.022028
O O9 0.879495 0.824129 0.441909
O O10 0.000000 0.834913 0.500000
O O11 0.809227 0.500000 0.213157
O O12 0.750298 0.400108 0.443683
O O13 0.896109 0.396058 0.277221
O O14 0.750000 0.750000 0.500000
O O15 0.796107 0.853335 0.272610
O O16 0.284863 0.500000 0.208310
O O17 0.512623 0.000000 0.162900
O O18 0.500000 0.880650 0.000000
#
# Coordination Sequence:
#
# PCOD8105371 Si02
#       7
#     8   8   8   8   8   8   8
#     4  11  21  36  56  90 130 166 200 237 296 374
#     4  11  21  41  63  90 125 162 206 257 300 357
#     4  10  23  42  64  87 120 163 208 247 309 368
#     4  10  21  37  59  83 120 171 207 239 296 367
#     4  11  21  40  60  87 124 157 204 256 298 362
#     4  12  23  37  64  96 124 161 205 261 316 358
#     4  10  21  34  50  82 128 164 192 232 289 365
#
# _framework density 20.341581000000001
#
# number of rings (size 3 to 8) (size 9 to 14) (size 15 to 20)
#    0.000    1.286    2.857    3.857    2.000    3.429 
#    0.000    0.714    0.000   16.286    0.000    0.000 
#    0.000    0.000    0.000    0.000    0.000    0.000 
#
# Total GULP energy -347082.883310 kJ/mol
# GULP energy per Si atom -12395.817261 kJ/mol
# Density = 2.029528 g / cm^3
# Si number density = 20.341581 Si / 1000 Ang^3
#
#
#
# Elastic Constant Matrix: (Units=GPa)
#
#
# Indices 1 2 3 4 5 6 
#
# 1 125.5340 27.4188 33.7379 0.0000 6.2526 0.0000
# 2 27.4188 77.2080 9.7092 0.0000 3.4962 0.0000
# 3 33.7379 9.7092 87.3701 0.0000 5.1917 0.0000
# 4 0.0000 0.0000 0.0000 26.9016 0.0000 5.8540
# 5 6.2526 3.4962 5.1917 0.0000 38.0225 0.0000
# 6 0.0000 0.0000 0.0000 5.8540 0.0000 24.9673
#
#
#
# Elastic Compliance Matrix: (Units=1/GPa)
#
#
# Indices 1 2 3 4 5 6 
#
# 1 0.009537 -0.002933 -0.003307 0.000000 -0.000847 0.000000
# 2 -0.002933 0.014077 -0.000387 0.000000 -0.000759 0.000000
# 3 -0.003307 -0.000387 0.012835 0.000000 -0.001173 0.000000
# 4 0.000000 0.000000 0.000000 0.039171 0.000000 -0.009184
# 5 -0.000847 -0.000759 -0.001173 0.000000 0.026670 0.000000
# 6 0.000000 0.000000 0.000000 -0.009184 0.000000 0.042206
#
#
# Mechanical properties :
#
#
# Convention : Reuss Voigt Hill
#
# Bulk Modulus (GPa) = 43.10925 47.98265 45.54595
# Shear Modulus (GPa) = 30.21513 32.59470 31.40491
#
# Velocity S-wave (km/s) = 3.85825 4.00730 3.93348
# Velocity P-wave (km/s) = 6.40990 6.71200 6.56269
#
# Compressibility (1/GPa) = 0.02319688
#
# Stress axis : x y z
#
# Youngs Moduli (GPa) = 104.85017 71.04003 77.91142
#
# Poissons Ratio (x) = 0.20835 0.25762
# Poissons Ratio (y) = 0.30751 0.03012
# Poissons Ratio (z) = 0.34670 0.02747
#
# Static dielectric constant tensor:
#      x y z
#    x 4.054130 0.000000 0.078140 
#    y 0.000000 3.498670 0.000000 
#    z 0.078140 0.000000 3.985600 
# 
# 
# High freq. dielectric constant tensor:
#      x y z
#    x 1.791870 0.000000 0.017560 
#    y 0.000000 1.776460 0.000000 
#    z 0.017560 0.000000 1.800020 
# 
# From -- ./inp_files/75881.got.cif
#   From: 2010.06.25/outbox.cif.g09.slc.cpg/sg12_38_cif.got.tgz:75881.got - 2010.06.28 00:19:55.
