data_PCOD8105951
_publ_section_title
;
Structure prediction by ZEFSAII (Michael W. Deem and Ramdas Pophale) SiO2 
 PCOD8105951
Probable space group: C 2/M
;
_chemical_formula_sum "Si O2"
_cell_formula_units_Z 56
_cell_length_a 20.619716
_cell_length_b 8.871952
_cell_length_c 30.164483
_cell_angle_alpha 90.000000
_cell_angle_beta 146.301814
_cell_angle_gamma 90.000000
_cell_volume 3061.599370
_symmetry_space_group_name_H-M "C 2/M"
_symmetry_group_IT_number 12
_symmetry_cell_setting 'monoclinic'
loop_
_space_group_symop_operation_xyz
x,y,z
-x,y,-z
-x,-y,-z
x,-y,z
1/2+x,1/2+y,z
1/2-x,1/2+y,-z
1/2-x,1/2-y,-z
1/2+x,1/2-y,z
loop_
_atom_site_type_symbol
_atom_site_label
_atom_site_fract_x
_atom_site_fract_y
_atom_site_fract_z
Si Si1 0.675432 0.678717 0.236034
Si Si2 0.310711 0.678254 0.655392
Si Si3 0.693824 0.174595 0.905646
Si Si4 0.423819 0.322466 0.079473
Si Si5 0.916712 0.678135 0.334823
Si Si6 0.429507 0.678550 0.503222
Si Si7 0.529144 0.174680 0.734471
O O1 0.678238 0.500000 0.237953
O O2 0.679525 0.738578 0.288780
O O3 0.555309 0.737995 0.144359
O O4 0.786834 0.739358 0.272384
O O5 0.295318 0.500000 0.644767
O O6 0.199639 0.754474 0.569593
O O7 0.424825 0.723870 0.693034
O O8 0.613638 0.264933 0.893808
O O9 0.647784 0.205359 0.829984
O O10 0.683627 0.000000 0.912734
O O11 0.830096 0.227076 0.988374
O O12 0.429792 0.500000 0.086753
O O13 0.926865 0.500000 0.348725
O O14 0.943169 0.723070 0.299614
O O15 0.008624 0.762518 0.417655
O O16 0.500000 0.735231 0.500000
O O17 0.422197 0.500000 0.500390
O O18 0.492437 0.000000 0.716944
#
# Coordination Sequence:
#
# PCOD8105951 Si02
#       7
#     8   8   8   8   8   8   8
#     4   9  17  31  53  80 103 134 181 221 254 306
#     4  11  21  35  59  82 105 140 180 221 262 315
#     4   9  17  29  48  76 109 139 171 216 267 310
#     4   9  16  29  50  77 105 136 178 221 258 305
#     4  10  21  38  57  76 107 146 180 216 264 324
#     4  11  23  38  57  83 110 134 171 225 274 315
#     4  10  21  36  53  79 113 145 176 218 270 316
#
# _framework density 18.291093
#
# number of rings (size 3 to 8) (size 9 to 14) (size 15 to 20)
#    0.000    2.143    2.857    0.857    0.000    1.714 
#    0.000    1.429    0.000    4.286    0.000    0.000 
#    0.000    6.857    0.000    0.000    0.000    0.000 
#
# Total GULP energy -347132.926296 kJ/mol
# GULP energy per Si atom -12397.604511 kJ/mol
# Density = 1.824946 g / cm^3
# Si number density = 18.291093 Si / 1000 Ang^3
#
#
#
# Elastic Constant Matrix: (Units=GPa)
#
#
# Indices 1 2 3 4 5 6 
#
# 1 113.4978 24.4123 66.9450 -0.0001 1.6580 0.0003
# 2 24.4123 32.4675 30.3950 -0.0001 -1.0357 0.0005
# 3 66.9450 30.3950 157.6813 0.0000 9.4309 -0.0001
# 4 -0.0001 -0.0001 0.0000 19.4072 0.0000 -0.1027
# 5 1.6580 -1.0357 9.4309 0.0000 33.5998 -0.0001
# 6 0.0003 0.0005 -0.0001 -0.1027 -0.0001 23.1630
#
#
#
# Elastic Compliance Matrix: (Units=1/GPa)
#
#
# Indices 1 2 3 4 5 6 
#
# 1 0.012490 -0.005356 -0.004296 0.000000 0.000424 0.000000
# 2 -0.005356 0.040231 -0.005666 0.000000 0.003095 -0.000001
# 3 -0.004296 -0.005666 0.009414 0.000000 -0.002605 0.000000
# 4 0.000000 0.000000 0.000000 0.051529 0.000000 0.000229
# 5 0.000424 0.003095 -0.002605 0.000000 0.030568 0.000000
# 6 0.000000 -0.000001 0.000000 0.000229 0.000000 0.043173
#
#
# Mechanical properties :
#
#
# Convention : Reuss Voigt Hill
#
# Bulk Modulus (GPa) = 31.74765 60.79460 46.27113
# Shear Modulus (GPa) = 21.87801 27.36029 24.61915
#
# Velocity S-wave (km/s) = 3.46222 3.87179 3.67272
# Velocity P-wave (km/s) = 5.77730 7.30048 6.58310
#
# Compressibility (1/GPa) = 0.03149839
#
# Stress axis : x y z
#
# Youngs Moduli (GPa) = 80.06094 24.85674 106.22819
#
# Poissons Ratio (x) = 0.13314 0.45633
# Poissons Ratio (y) = 0.42884 0.60188
# Poissons Ratio (z) = 0.34393 0.14084
#
# Static dielectric constant tensor:
#      x y z
#    x 3.388770 0.000000 0.245350 
#    y 0.000000 3.195170 0.000000 
#    z 0.245350 0.000000 3.841870 
# 
# 
# High freq. dielectric constant tensor:
#      x y z
#    x 1.689850 0.000000 0.011440 
#    y 0.000000 1.692000 0.000000 
#    z 0.011440 0.000000 1.729660 
# 
# From -- ./inp_files/342590.got.cif
#   From: 2010.06.25/outbox.cif.g09.slc.cpg/sg12_172_cif.got.tgz:342590.got - 2010.06.28 00:19:55.
