data_PCOD8105913
_publ_section_title
;
Structure prediction by ZEFSAII (Michael W. Deem and Ramdas Pophale) SiO2 
 PCOD8105913
Probable space group: C 2/M
;
_chemical_formula_sum "Si O2"
_cell_formula_units_Z 56
_cell_length_a 19.882479
_cell_length_b 31.155109
_cell_length_c 5.260904
_cell_angle_alpha 90.000000
_cell_angle_beta 73.316154
_cell_angle_gamma 90.000000
_cell_volume 3121.633648
_symmetry_space_group_name_H-M "C 2/M"
_symmetry_group_IT_number 12
_symmetry_cell_setting 'monoclinic'
loop_
_space_group_symop_operation_xyz
x,y,z
-x,y,-z
-x,-y,-z
x,-y,z
1/2+x,1/2+y,z
1/2-x,1/2+y,-z
1/2-x,1/2-y,-z
1/2+x,1/2-y,z
loop_
_atom_site_type_symbol
_atom_site_label
_atom_site_fract_x
_atom_site_fract_y
_atom_site_fract_z
Si Si1 0.263064 0.135821 0.544479
Si Si2 0.827639 0.450890 0.498300
Si Si3 0.083641 0.548236 0.082261
Si Si4 0.405119 0.828662 0.465332
Si Si5 0.638812 0.760057 0.095034
Si Si6 0.000000 0.283938 0.000000
Si Si7 0.500000 0.898407 0.500000
Si Si8 0.230476 0.183141 0.106031
O O1 0.263557 0.083817 0.567620
O O2 0.339037 0.154618 0.376152
O O3 0.214189 0.151838 0.363879
O O4 0.241862 0.155554 0.839341
O O5 0.799977 0.500000 0.483550
O O6 0.867056 0.447753 0.722372
O O7 0.876715 0.435107 0.211541
O O8 0.060499 0.500000 0.058411
O O9 0.010289 0.572589 0.232849
O O10 0.382871 0.786266 0.635885
O O11 0.428531 0.870548 0.595480
O O12 0.476318 0.816640 0.242369
O O13 0.661228 0.712069 0.143775
O O14 0.569322 0.756070 0.993015
O O15 0.703901 0.785400 0.895476
#
# Coordination Sequence:
#
# PCOD8105913 Si02
#       8
#     8   8   8   8   8   4   4   8
#     4  11  21  38  55  75  98 135 177 218 258 312
#     4  10  21  36  53  73  99 130 170 217 267 308
#     4  10  22  35  49  69  99 136 173 223 270 304
#     4  11  23  31  50  75 100 139 180 223 262 299
#     4  10  22  36  49  76 102 134 176 222 266 304
#     4  12  20  34  52  72 105 136 177 216 266 298
#     4  12  21  34  46  72  98 138 182 226 257 304
#     4  10  23  36  58  73 101 134 178 217 262 314
#
# _framework density 17.939325
#
# number of rings (size 3 to 8) (size 9 to 14) (size 15 to 20)
#    0.000    1.429    4.286    1.071    6.000    2.286 
#    0.000    2.143    0.000    0.000    0.000    0.000 
#    0.000    0.000    0.000    3.857    0.000    0.000 
#
# Total GULP energy -346869.305033 kJ/mol
# GULP energy per Si atom -12388.189465 kJ/mol
# Density = 1.789849 g / cm^3
# Si number density = 17.939325 Si / 1000 Ang^3
#
#
#
# Elastic Constant Matrix: (Units=GPa)
#
#
# Indices 1 2 3 4 5 6 
#
# 1 60.2658 33.1705 13.4953 0.0000 5.1798 0.0000
# 2 33.1705 115.4635 28.2163 0.0000 -1.5799 0.0000
# 3 13.4953 28.2163 61.4243 0.0000 12.6189 0.0000
# 4 0.0000 0.0000 0.0000 26.9021 0.0000 -7.3114
# 5 5.1798 -1.5799 12.6189 0.0000 22.5407 0.0000
# 6 0.0000 0.0000 0.0000 -7.3114 0.0000 13.2329
#
#
#
# Elastic Compliance Matrix: (Units=1/GPa)
#
#
# Indices 1 2 3 4 5 6 
#
# 1 0.020313 -0.005672 -0.000923 0.000000 -0.004549 0.000000
# 2 -0.005672 0.011607 -0.005108 0.000000 0.004977 0.000000
# 3 -0.000923 -0.005108 0.021310 0.000000 -0.012076 0.000000
# 4 0.000000 0.000000 0.000000 0.043740 0.000000 0.024167
# 5 -0.004549 0.004977 -0.012076 0.000000 0.052519 0.000000
# 6 0.000000 0.000000 0.000000 0.024167 0.000000 0.088922
#
#
# Mechanical properties :
#
#
# Convention : Reuss Voigt Hill
#
# Bulk Modulus (GPa) = 33.53002 42.99087 38.26044
# Shear Modulus (GPa) = 18.39876 23.35323 20.87600
#
# Velocity S-wave (km/s) = 3.20599 3.61195 3.41501
# Velocity P-wave (km/s) = 5.69525 6.43518 6.07649
#
# Compressibility (1/GPa) = 0.02982402
#
# Stress axis : x y z
#
# Youngs Moduli (GPa) = 49.23007 86.15786 46.92597
#
# Poissons Ratio (x) = 0.48871 0.04330
# Poissons Ratio (y) = 0.27925 0.23969
# Poissons Ratio (z) = 0.04542 0.44008
#
# Static dielectric constant tensor:
#      x y z
#    x 3.085550 0.000000 0.170510 
#    y 0.000000 3.510890 0.000000 
#    z 0.170510 0.000000 3.359770 
# 
# 
# High freq. dielectric constant tensor:
#      x y z
#    x 1.644460 0.000000 0.027800 
#    y 0.000000 1.693840 0.000000 
#    z 0.027800 0.000000 1.700340 
# 
# From -- ./inp_files/22661.got.cif
#   From: 2010.06.25/outbox.cif.g09.slc.cpg/sg12_12_cif.got.tgz:22661.got - 2010.06.28 00:19:55.
