data_PCOD8105090
_publ_section_title
;
Structure prediction by ZEFSAII (Michael W. Deem and Ramdas Pophale) SiO2 
 PCOD8105090
Probable space group: C 2/M
;
_chemical_formula_sum "Si O2"
_cell_formula_units_Z 44
_cell_length_a 12.227925
_cell_length_b 27.079085
_cell_length_c 8.237534
_cell_angle_alpha 90.000000
_cell_angle_beta 129.259947
_cell_angle_gamma 90.000000
_cell_volume 2111.949737
_symmetry_space_group_name_H-M "C 2/M"
_symmetry_group_IT_number 12
_symmetry_cell_setting 'monoclinic'
loop_
_space_group_symop_operation_xyz
x,y,z
-x,y,-z
-x,-y,-z
x,-y,z
1/2+x,1/2+y,z
1/2-x,1/2+y,-z
1/2-x,1/2-y,-z
1/2+x,1/2-y,z
loop_
_atom_site_type_symbol
_atom_site_label
_atom_site_fract_x
_atom_site_fract_y
_atom_site_fract_z
Si Si1 0.530620 0.894839 0.200731
Si Si2 0.675803 0.166316 0.784637
Si Si3 0.971292 0.817030 0.162340
Si Si4 0.000000 0.248657 0.500000
Si Si5 0.548036 0.000000 0.776822
Si Si6 0.191481 0.897913 0.364226
Si Si7 0.753969 0.500000 0.313302
O O1 0.462516 0.857446 0.265768
O O2 0.458418 0.949142 0.128341
O O3 0.699575 0.897681 0.383168
O O4 0.500000 0.869921 0.000000
O O5 0.636960 0.217339 0.658621
O O6 0.729436 0.126723 0.709613
O O7 0.803141 0.177189 0.030683
O O8 0.028770 0.781603 0.359785
O O9 0.046088 0.869828 0.265290
O O10 0.000000 0.799167 0.000000
O O11 0.409942 0.000000 0.535541
O O12 0.702399 0.000000 0.834950
O O13 0.158919 0.953762 0.279018
#
# Coordination Sequence:
#
# PCOD8105090 Si02
#       7
#     8   8   8   4   4   8   4
#     4  11  21  34  62  94 129 159 208 256 310 369
#     4  11  22  43  61  92 121 163 211 257 313 377
#     4  10  26  43  64  91 127 161 213 261 316 377
#     4  12  24  44  70  84 126 170 216 262 318 364
#     4   9  17  32  57  93 123 166 199 252 305 368
#     4  10  20  41  62  92 123 164 204 258 307 374
#     4   9  16  32  68  85 124 166 203 245 311 371
#
# _framework density 20.833829000000001
#
# number of rings (size 3 to 8) (size 9 to 14) (size 15 to 20)
#    0.000    1.636    3.636    0.818    2.545    3.636 
#    0.000    5.000    0.000    0.545    0.000    0.000 
#    0.000    0.000    0.000    0.000    0.000    0.000 
#
# Total GULP energy -272617.090045 kJ/mol
# GULP energy per Si atom -12391.685911 kJ/mol
# Density = 2.078641 g / cm^3
# Si number density = 20.833829 Si / 1000 Ang^3
#
#
#
# Elastic Constant Matrix: (Units=GPa)
#
#
# Indices 1 2 3 4 5 6 
#
# 1 42.1221 40.2643 34.5579 0.0000 8.2314 0.0000
# 2 40.2643 146.3680 53.9070 0.0000 2.6371 0.0000
# 3 34.5579 53.9070 108.8699 0.0000 6.5044 0.0000
# 4 0.0000 0.0000 0.0000 26.5868 0.0000 6.1674
# 5 8.2314 2.6371 6.5044 0.0000 37.3580 0.0000
# 6 0.0000 0.0000 0.0000 6.1674 0.0000 17.1033
#
#
#
# Elastic Compliance Matrix: (Units=1/GPa)
#
#
# Indices 1 2 3 4 5 6 
#
# 1 0.039052 -0.007588 -0.008243 0.000000 -0.006634 0.000000
# 2 -0.007588 0.009831 -0.002544 0.000000 0.001421 0.000000
# 3 -0.008243 -0.002544 0.013078 0.000000 -0.000281 0.000000
# 4 0.000000 0.000000 0.000000 0.041046 0.000000 -0.014801
# 5 -0.006634 0.001421 -0.000281 0.000000 0.028178 0.000000
# 6 0.000000 0.000000 0.000000 -0.014801 0.000000 0.063805
#
#
# Mechanical properties :
#
#
# Convention : Reuss Voigt Hill
#
# Bulk Modulus (GPa) = 39.66304 61.64650 50.65477
# Shear Modulus (GPa) = 20.82080 27.45165 24.13622
#
# Velocity S-wave (km/s) = 3.16472 3.63388 3.40738
# Velocity P-wave (km/s) = 5.69500 6.87464 6.31244
#
# Compressibility (1/GPa) = 0.02521239
#
# Stress axis : x y z
#
# Youngs Moduli (GPa) = 25.60663 101.72171 76.46262
#
# Poissons Ratio (x) = 0.77182 0.63027
# Poissons Ratio (y) = 0.19429 0.19453
# Poissons Ratio (z) = 0.21107 0.25879
#
# Static dielectric constant tensor:
#      x y z
#    x 3.553260 0.000000 0.149630 
#    y 0.000000 3.969590 0.000000 
#    z 0.149630 0.000000 4.010420 
# 
# 
# High freq. dielectric constant tensor:
#      x y z
#    x 1.785300 0.000000 0.002020 
#    y 0.000000 1.819960 0.000000 
#    z 0.002020 0.000000 1.817810 
# 
# From -- ./inp_files/53451.got.cif
#   From: 2010.06.25/outbox.cif.g09.slc.cpg/sg12_27_cif.got.tgz:53451.got - 2010.06.28 00:19:55.
