data_PCOD8105259
_publ_section_title
;
Structure prediction by ZEFSAII (Michael W. Deem and Ramdas Pophale) SiO2 
 PCOD8105259
Probable space group: C 2/M
;
_chemical_formula_sum "Si O2"
_cell_formula_units_Z 48
_cell_length_a 10.868258
_cell_length_b 23.140439
_cell_length_c 16.277046
_cell_angle_alpha 90.000000
_cell_angle_beta 143.920686
_cell_angle_gamma 90.000000
_cell_volume 2410.749432
_symmetry_space_group_name_H-M "C 2/M"
_symmetry_group_IT_number 12
_symmetry_cell_setting 'monoclinic'
loop_
_space_group_symop_operation_xyz
x,y,z
-x,y,-z
-x,-y,-z
x,-y,z
1/2+x,1/2+y,z
1/2-x,1/2+y,-z
1/2-x,1/2-y,-z
1/2+x,1/2-y,z
loop_
_atom_site_type_symbol
_atom_site_label
_atom_site_fract_x
_atom_site_fract_y
_atom_site_fract_z
Si Si1 0.755937 0.756276 0.734463
Si Si2 0.834039 0.567178 0.339096
Si Si3 0.356551 0.811074 0.042497
Si Si4 0.474408 0.349721 0.749103
Si Si5 0.933443 0.652731 0.256939
Si Si6 0.589405 0.332655 0.468755
O O1 0.855187 0.789881 0.709240
O O2 0.727362 0.802282 0.790664
O O3 0.532640 0.728639 0.592669
O O4 0.904168 0.705002 0.850709
O O5 0.793307 0.500000 0.304051
O O6 0.617739 0.596998 0.248753
O O7 0.920899 0.592480 0.299850
O O8 0.000000 0.580430 0.500000
O O9 0.358316 0.853457 0.122816
O O10 0.250000 0.750000 0.000000
O O11 0.222834 0.844714 0.901446
O O12 0.447703 0.363767 0.638241
O O13 0.166736 0.678722 0.384808
O O14 0.500000 0.369045 0.500000
#
# Coordination Sequence:
#
# PCOD8105259 Si02
#       6
#     8   8   8   8   8   8
#     4  10  21  32  56  79 123 161 193 229 291 351
#     4  10  21  41  69  90 111 148 197 267 321 342
#     4  10  21  37  51  84 125 166 186 228 286 361
#     4  10  23  37  56  85 118 151 201 242 294 357
#     4  11  22  37  56  87 122 151 210 243 287 354
#     4  12  23  33  53  85 120 159 199 241 286 355
#
# _framework density 19.910820000000001
#
# number of rings (size 3 to 8) (size 9 to 14) (size 15 to 20)
#    0.000    1.500    3.333    2.500    2.333    9.333 
#    0.000    1.667    0.000    2.000    0.000    1.167 
#    0.000    0.000    0.000    0.000    0.000    0.000 
#
# Total GULP energy -297418.111533 kJ/mol
# GULP energy per Si atom -12392.421314 kJ/mol
# Density = 1.986550 g / cm^3
# Si number density = 19.910820 Si / 1000 Ang^3
#
#
#
# Elastic Constant Matrix: (Units=GPa)
#
#
# Indices 1 2 3 4 5 6 
#
# 1 102.8535 30.2539 41.3857 0.0000 -3.6745 0.0001
# 2 30.2539 83.1335 31.8369 -0.0001 7.8788 0.0000
# 3 41.3857 31.8369 103.1080 -0.0006 -9.8683 0.0001
# 4 0.0000 -0.0001 -0.0006 21.3500 -0.0002 -1.1963
# 5 -3.6745 7.8788 -9.8683 -0.0002 24.5737 0.0001
# 6 0.0001 0.0000 0.0001 -1.1963 0.0001 16.6624
#
#
#
# Elastic Compliance Matrix: (Units=1/GPa)
#
#
# Indices 1 2 3 4 5 6 
#
# 1 0.012220 -0.003105 -0.003823 0.000000 0.001288 0.000000
# 2 -0.003105 0.015441 -0.004201 0.000000 -0.007102 0.000000
# 3 -0.003823 -0.004201 0.013108 0.000000 0.006039 0.000000
# 4 0.000000 0.000000 0.000000 0.047028 0.000000 0.003377
# 5 0.001288 -0.007102 0.006039 0.000000 0.045589 0.000000
# 6 0.000000 0.000000 0.000000 0.003377 0.000000 0.060258
#
#
# Mechanical properties :
#
#
# Convention : Reuss Voigt Hill
#
# Bulk Modulus (GPa) = 54.02229 55.11645 54.56937
# Shear Modulus (GPa) = 22.51522 24.89179 23.70351
#
# Velocity S-wave (km/s) = 3.36639 3.53960 3.45408
# Velocity P-wave (km/s) = 6.50393 6.66684 6.58589
#
# Compressibility (1/GPa) = 0.01851088
#
# Stress axis : x y z
#
# Youngs Moduli (GPa) = 81.83175 64.76355 76.28813
#
# Poissons Ratio (x) = 0.20110 0.29164
# Poissons Ratio (y) = 0.25410 0.32049
# Poissons Ratio (z) = 0.31284 0.27208
#
# Static dielectric constant tensor:
#      x y z
#    x 4.052880 0.000000 0.119330 
#    y 0.000000 3.134600 0.000000 
#    z 0.119330 0.000000 4.061660 
# 
# 
# High freq. dielectric constant tensor:
#      x y z
#    x 1.790410 0.000000 -0.000040 
#    y 0.000000 1.705430 0.000000 
#    z -0.000040 0.000000 1.793350 
# 
# From -- ./inp_files/265711.got.cif
#   From: 2010.06.25/outbox.cif.g09.slc.cpg/sg12_133_cif.got.tgz:265711.got - 2010.06.28 00:19:55.
