data_PCOD8105102
_publ_section_title
;
Structure prediction by ZEFSAII (Michael W. Deem and Ramdas Pophale) SiO2 
 PCOD8105102
Probable space group: C 2/M
;
_chemical_formula_sum "Si O2"
_cell_formula_units_Z 64
_cell_length_a 11.834987
_cell_length_b 19.740614
_cell_length_c 28.030709
_cell_angle_alpha 90.000000
_cell_angle_beta 29.258476
_cell_angle_gamma 90.000000
_cell_volume 3200.733894
_symmetry_space_group_name_H-M "C 2/M"
_symmetry_group_IT_number 12
_symmetry_cell_setting 'monoclinic'
loop_
_space_group_symop_operation_xyz
x,y,z
-x,y,-z
-x,-y,-z
x,-y,z
1/2+x,1/2+y,z
1/2-x,1/2+y,-z
1/2-x,1/2-y,-z
1/2+x,1/2-y,z
loop_
_atom_site_type_symbol
_atom_site_label
_atom_site_fract_x
_atom_site_fract_y
_atom_site_fract_z
Si Si1 0.435140 0.922160 0.430123
Si Si2 0.642112 0.146843 0.740326
Si Si3 0.632679 0.646975 0.679220
Si Si4 0.342799 0.922650 0.171230
Si Si5 0.760787 0.421952 0.392522
Si Si6 0.653150 0.731922 0.151820
Si Si7 0.401725 0.804331 0.970064
Si Si8 0.366811 0.691683 0.424499
O O1 0.655353 0.896430 0.378499
O O2 0.439261 0.912359 0.371095
O O3 0.209157 0.882486 0.530256
O O4 0.396427 0.000000 0.457737
O O5 0.645906 0.084393 0.775649
O O6 0.631588 0.120983 0.690171
O O7 0.416264 0.191708 0.836953
O O8 0.860092 0.196309 0.668931
O O9 0.413509 0.598225 0.751386
O O10 0.576522 0.698828 0.742080
O O11 0.697412 0.692390 0.608495
O O12 0.547593 0.877036 0.072700
O O13 0.390010 0.000000 0.139249
O O14 0.500000 0.395961 0.500000
O O15 0.745789 0.500000 0.382583
O O16 0.854142 0.735125 0.117100
O O17 0.763804 0.684235 0.070156
O O18 0.250000 0.750000 0.000000
O O19 0.250000 0.750000 0.500000
#
# Coordination Sequence:
#
# PCOD8105102 Si02
#       8
#     8   8   8   8   8   8   8   8
#     4  11  23  40  61  85 124 173 212 261 311 358
#     4  11  21  36  61  89 120 165 210 260 301 364
#     4  10  23  39  59  93 124 162 210 259 306 365
#     4  10  21  39  65  95 124 157 201 256 314 380
#     4  10  21  37  56  84 121 167 214 256 305 360
#     4  10  22  37  63  91 118 157 200 250 310 372
#     4  10  20  41  64  90 121 155 195 244 316 382
#     4  11  24  38  58  88 127 168 212 260 306 361
#
# _framework density 19.995414
#
# number of rings (size 3 to 8) (size 9 to 14) (size 15 to 20)
#    0.000    1.625    2.500    1.875    1.750    4.000 
#    0.000    5.625    0.000    2.250    0.000    0.000 
#    0.000    0.000    0.000    0.000    0.000    0.000 
#
# Total GULP energy -396548.487978 kJ/mol
# GULP energy per Si atom -12392.140249 kJ/mol
# Density = 1.994990 g / cm^3
# Si number density = 19.995414 Si / 1000 Ang^3
#
#
#
# Elastic Constant Matrix: (Units=GPa)
#
#
# Indices 1 2 3 4 5 6 
#
# 1 100.2545 52.0897 37.3457 -0.0228 6.4850 -0.0127
# 2 52.0897 112.5059 54.1398 0.0243 -1.0740 0.0118
# 3 37.3457 54.1398 87.0479 0.0728 13.1973 0.0138
# 4 -0.0228 0.0243 0.0728 37.1164 -0.0108 1.4726
# 5 6.4850 -1.0740 13.1973 -0.0108 28.5717 0.0261
# 6 -0.0127 0.0118 0.0138 1.4726 0.0261 28.8798
#
#
#
# Elastic Compliance Matrix: (Units=1/GPa)
#
#
# Indices 1 2 3 4 5 6 
#
# 1 0.013705 -0.005285 -0.002249 0.000015 -0.002271 0.000011
# 2 -0.005285 0.015267 -0.008061 0.000005 0.005497 -0.000010
# 3 -0.002249 -0.008061 0.018748 -0.000035 -0.008452 0.000003
# 4 0.000015 0.000005 -0.000035 0.026997 0.000025 -0.001377
# 5 -0.002271 0.005497 -0.008452 0.000025 0.039626 -0.000036
# 6 0.000011 -0.000010 0.000003 -0.001377 -0.000036 0.034697
#
#
# Mechanical properties :
#
#
# Convention : Reuss Voigt Hill
#
# Bulk Modulus (GPa) = 60.49553 65.21762 62.85657
# Shear Modulus (GPa) = 26.91940 29.32911 28.12426
#
# Velocity S-wave (km/s) = 3.67315 3.83403 3.75445
# Velocity P-wave (km/s) = 6.95052 7.23096 7.09213
#
# Compressibility (1/GPa) = 0.01653015
#
# Stress axis : x y z
#
# Youngs Moduli (GPa) = 72.96569 65.50000 53.33918
#
# Poissons Ratio (x) = 0.34617 0.11993
# Poissons Ratio (y) = 0.38563 0.42999
# Poissons Ratio (z) = 0.16406 0.52803
#
# Static dielectric constant tensor:
#      x y z
#    x 4.271130 0.000370 0.379710 
#    y 0.000370 3.468190 -0.000160 
#    z 0.379710 -0.000160 3.834950 
# 
# 
# High freq. dielectric constant tensor:
#      x y z
#    x 1.795940 0.000010 0.005390 
#    y 0.000010 1.767050 0.000020 
#    z 0.005390 0.000020 1.771980 
# 
# From -- ./inp_files/374454.got.cif
#   From: 2010.06.25/outbox.cif.g09.slc.cpg/sg12_188_cif.got.tgz:374454.got - 2010.06.28 00:19:55.
