data_PCOD8105634
_publ_section_title
;
Structure prediction by ZEFSAII (Michael W. Deem and Ramdas Pophale) SiO2 
 PCOD8105634
Probable space group: C 2/M
;
_chemical_formula_sum "Si O2"
_cell_formula_units_Z 56
_cell_length_a 29.795155
_cell_length_b 8.638778
_cell_length_c 16.634270
_cell_angle_alpha 90.000000
_cell_angle_beta 46.037948
_cell_angle_gamma 90.000000
_cell_volume 3081.863411
_symmetry_space_group_name_H-M "C 2/M"
_symmetry_group_IT_number 12
_symmetry_cell_setting 'monoclinic'
loop_
_space_group_symop_operation_xyz
x,y,z
-x,y,-z
-x,-y,-z
x,-y,z
1/2+x,1/2+y,z
1/2-x,1/2+y,-z
1/2-x,1/2-y,-z
1/2+x,1/2-y,z
loop_
_atom_site_type_symbol
_atom_site_label
_atom_site_fract_x
_atom_site_fract_y
_atom_site_fract_z
Si Si1 0.530697 0.319437 0.348560
Si Si2 0.911332 0.680796 0.574613
Si Si3 0.489180 0.178223 0.790083
Si Si4 0.693624 0.320273 0.391906
Si Si5 0.939692 0.679708 0.025475
Si Si6 0.122897 0.819876 0.640858
Si Si7 0.675682 0.679511 0.746889
O O1 0.540335 0.500000 0.350815
O O2 0.459979 0.273687 0.458555
O O3 0.579642 0.228111 0.343641
O O4 0.542536 0.277935 0.241080
O O5 0.924001 0.500000 0.548634
O O6 0.842141 0.724103 0.632377
O O7 0.450234 0.211518 0.918580
O O8 0.560831 0.219911 0.714740
O O9 0.485900 0.000000 0.769145
O O10 0.684139 0.500000 0.385602
O O11 0.667371 0.274330 0.511895
O O12 0.765952 0.279442 0.296869
O O13 0.926011 0.500000 0.060655
O O14 0.881719 0.782816 0.123818
O O15 0.000000 0.735229 0.000000
O O16 0.159539 0.774648 0.675778
O O17 0.104182 0.000000 0.662670
O O18 0.692660 0.500000 0.732800
#
# Coordination Sequence:
#
# PCOD8105634 Si02
#       7
#     8   8   8   8   8   8   8
#     4  11  21  35  55  82 115 147 182 225 282 335
#     4  11  21  35  56  83 113 145 186 228 274 331
#     4  11  21  34  57  83 112 147 187 233 279 328
#     4  11  22  37  56  80 114 154 188 227 281 336
#     4  10  21  38  57  80 109 148 191 234 281 327
#     4  10  21  35  53  80 114 150 186 227 278 333
#     4  11  23  37  55  81 112 151 194 234 276 328
#
# _framework density 18.170824
#
# number of rings (size 3 to 8) (size 9 to 14) (size 15 to 20)
#    0.000    1.286    2.857    5.143    0.000    2.571 
#    0.000    0.000    0.000    0.857    0.000    0.000 
#    0.000    0.000    0.000    0.000    0.000    0.000 
#
# Total GULP energy -347381.906487 kJ/mol
# GULP energy per Si atom -12406.496660 kJ/mol
# Density = 1.812947 g / cm^3
# Si number density = 18.170824 Si / 1000 Ang^3
#
#
#
# Elastic Constant Matrix: (Units=GPa)
#
#
# Indices 1 2 3 4 5 6 
#
# 1 117.5232 32.7406 42.7792 -0.0001 3.5282 0.0001
# 2 32.7406 72.7067 27.6066 0.0006 5.6639 0.0002
# 3 42.7792 27.6066 65.7822 -0.0005 -10.4332 0.0001
# 4 -0.0001 0.0006 -0.0005 26.3871 -0.0002 -1.1055
# 5 3.5282 5.6639 -10.4332 -0.0002 20.6046 0.0000
# 6 0.0001 0.0002 0.0001 -1.1055 0.0000 33.0598
#
#
#
# Elastic Compliance Matrix: (Units=1/GPa)
#
#
# Indices 1 2 3 4 5 6 
#
# 1 0.012116 -0.002024 -0.007906 0.000000 -0.005521 0.000000
# 2 -0.002024 0.018260 -0.007707 -0.000001 -0.008575 0.000000
# 3 -0.007906 -0.007707 0.026235 0.000001 0.016756 0.000000
# 4 0.000000 -0.000001 0.000001 0.037950 0.000001 0.001269
# 5 -0.005521 -0.008575 0.016756 0.000001 0.060320 0.000000
# 6 0.000000 0.000000 0.000000 0.001269 0.000000 0.030291
#
#
# Mechanical properties :
#
#
# Convention : Reuss Voigt Hill
#
# Bulk Modulus (GPa) = 46.86548 51.36275 49.11412
# Shear Modulus (GPa) = 21.97257 26.20270 24.08764
#
# Velocity S-wave (km/s) = 3.48116 3.80151 3.64486
# Velocity P-wave (km/s) = 6.48117 6.89903 6.69336
#
# Compressibility (1/GPa) = 0.02133767
#
# Stress axis : x y z
#
# Youngs Moduli (GPa) = 82.53321 54.76579 38.11775
#
# Poissons Ratio (x) = 0.11086 0.30134
# Poissons Ratio (y) = 0.16707 0.29375
# Poissons Ratio (z) = 0.65247 0.42205
#
# Static dielectric constant tensor:
#      x y z
#    x 3.466770 0.000000 0.184350 
#    y 0.000000 3.383930 0.000000 
#    z 0.184350 0.000000 3.187880 
# 
# 
# High freq. dielectric constant tensor:
#      x y z
#    x 1.709050 0.000000 0.010100 
#    y 0.000000 1.715410 0.000000 
#    z 0.010100 0.000000 1.680250 
# 
# From -- ./inp_files/295070.got.cif
#   From: 2010.06.25/outbox.cif.g09.slc.cpg/sg12_148_cif.got.tgz:295070.got - 2010.06.28 00:19:55.
