data_PCOD8105772
_publ_section_title
;
Structure prediction by ZEFSAII (Michael W. Deem and Ramdas Pophale) SiO2 
 PCOD8105772
Probable space group: C 2/M
;
_chemical_formula_sum "Si O2"
_cell_formula_units_Z 64
_cell_length_a 25.860318
_cell_length_b 13.870970
_cell_length_c 9.330679
_cell_angle_alpha 90.000000
_cell_angle_beta 109.486412
_cell_angle_gamma 90.000000
_cell_volume 3155.273084
_symmetry_space_group_name_H-M "C 2/M"
_symmetry_group_IT_number 12
_symmetry_cell_setting 'monoclinic'
loop_
_space_group_symop_operation_xyz
x,y,z
-x,y,-z
-x,-y,-z
x,-y,z
1/2+x,1/2+y,z
1/2-x,1/2+y,-z
1/2-x,1/2-y,-z
1/2+x,1/2-y,z
loop_
_atom_site_type_symbol
_atom_site_label
_atom_site_fract_x
_atom_site_fract_y
_atom_site_fract_z
Si Si1 0.938681 0.114315 0.395391
Si Si2 0.118813 0.196318 0.919918
Si Si3 0.879057 0.803374 0.592550
Si Si4 0.557087 0.385931 0.113691
Si Si5 0.335823 0.896734 0.648665
Si Si6 0.234177 0.152977 0.405761
Si Si7 0.663291 0.890946 0.018297
Si Si8 0.730248 0.388604 0.075545
O O1 0.927980 0.152177 0.225315
O O2 0.891807 0.171573 0.440150
O O3 0.000000 0.141906 0.500000
O O4 0.929276 0.000000 0.395974
O O5 0.117956 0.313601 0.921953
O O6 0.106797 0.153835 0.065172
O O7 0.180330 0.160439 0.942603
O O8 0.934198 0.839323 0.722761
O O9 0.870102 0.688569 0.604525
O O10 0.828392 0.868442 0.604570
O O11 0.557507 0.500000 0.126213
O O12 0.500000 0.346991 0.000000
O O13 0.278896 0.919750 0.512051
O O14 0.368031 0.000000 0.671128
O O15 0.323731 0.869741 0.802888
O O16 0.250000 0.250000 0.500000
O O17 0.239832 0.160676 0.239259
O O18 0.717926 0.874026 0.978080
O O19 0.640954 0.000000 0.974837
O O20 0.716960 0.500000 0.091158
#
# Coordination Sequence:
#
# PCOD8105772 Si02
#       8
#     8   8   8   8   8   8   8   8
#     4  11  26  44  62  88 120 154 198 252 308 362
#     4  12  22  39  63  87 120 158 199 244 300 359
#     4  11  22  39  61  88 119 160 197 245 299 355
#     4  11  22  38  62  87 112 147 195 250 307 360
#     4  10  21  39  61  91 126 161 200 241 292 352
#     4  10  21  35  56  90 124 160 199 240 291 350
#     4  10  23  40  61  91 126 162 199 243 291 351
#     4  11  22  36  59  92 126 160 200 244 292 355
#
# _framework density 20.283505000000002
#
# number of rings (size 3 to 8) (size 9 to 14) (size 15 to 20)
#    0.000    1.250    2.500    3.750    5.250    3.500 
#    0.000    0.000    0.000    4.500    0.000    0.000 
#    0.000    0.000    0.000    0.000    0.000    0.000 
#
# Total GULP energy -396643.486129 kJ/mol
# GULP energy per Si atom -12395.108942 kJ/mol
# Density = 2.023734 g / cm^3
# Si number density = 20.283505 Si / 1000 Ang^3
#
#
#
# Elastic Constant Matrix: (Units=GPa)
#
#
# Indices 1 2 3 4 5 6 
#
# 1 50.5587 28.2485 29.1115 0.0000 3.8809 0.0000
# 2 28.2485 119.1405 38.8036 0.0000 12.3836 0.0000
# 3 29.1115 38.8036 84.5332 0.0000 7.1458 0.0000
# 4 0.0000 0.0000 0.0000 28.5217 0.0000 -1.3512
# 5 3.8809 12.3836 7.1458 0.0000 34.7623 0.0000
# 6 0.0000 0.0000 0.0000 -1.3512 0.0000 24.4330
#
#
#
# Elastic Compliance Matrix: (Units=1/GPa)
#
#
# Indices 1 2 3 4 5 6 
#
# 1 0.026078 -0.003825 -0.007219 0.000000 -0.000065 0.000000
# 2 -0.003825 0.010672 -0.003355 0.000000 -0.002685 0.000000
# 3 -0.007219 -0.003355 0.015964 0.000000 -0.001281 0.000000
# 4 0.000000 0.000000 0.000000 0.035153 0.000000 0.001944
# 5 -0.000065 -0.002685 -0.001281 0.000000 0.029994 0.000000
# 6 0.000000 0.000000 0.000000 0.001944 0.000000 0.041036
#
#
# Mechanical properties :
#
#
# Convention : Reuss Voigt Hill
#
# Bulk Modulus (GPa) = 41.81314 49.61773 45.71544
# Shear Modulus (GPa) = 25.55363 28.08134 26.81749
#
# Velocity S-wave (km/s) = 3.55325 3.72485 3.64006
# Velocity P-wave (km/s) = 6.12317 6.55855 6.34459
#
# Compressibility (1/GPa) = 0.02391592
#
# Stress axis : x y z
#
# Youngs Moduli (GPa) = 38.34641 93.70266 62.64085
#
# Poissons Ratio (x) = 0.35842 0.45223
# Poissons Ratio (y) = 0.14668 0.21013
# Poissons Ratio (z) = 0.27684 0.31433
#
# Static dielectric constant tensor:
#      x y z
#    x 3.689050 0.000000 0.192550 
#    y 0.000000 4.036280 0.000000 
#    z 0.192550 0.000000 3.917390 
# 
# 
# High freq. dielectric constant tensor:
#      x y z
#    x 1.771230 0.000000 -0.005820 
#    y 0.000000 1.798910 0.000000 
#    z -0.005820 0.000000 1.802300 
# 
# From -- ./inp_files/104684.got.cif
#   From: 2010.06.25/outbox.cif.g09.slc.cpg/sg12_53_cif.got.tgz:104684.got - 2010.06.28 00:19:55.
