data_PCOD8105711
_publ_section_title
;
Structure prediction by ZEFSAII (Michael W. Deem and Ramdas Pophale) SiO2 
 PCOD8105711
Probable space group: C 2/M
;
_chemical_formula_sum "Si O2"
_cell_formula_units_Z 48
_cell_length_a 12.518513
_cell_length_b 22.823268
_cell_length_c 8.973557
_cell_angle_alpha 90.000000
_cell_angle_beta 71.038790
_cell_angle_gamma 90.000000
_cell_volume 2424.746799
_symmetry_space_group_name_H-M "C 2/M"
_symmetry_group_IT_number 12
_symmetry_cell_setting 'monoclinic'
loop_
_space_group_symop_operation_xyz
x,y,z
-x,y,-z
-x,-y,-z
x,-y,z
1/2+x,1/2+y,z
1/2-x,1/2+y,-z
1/2-x,1/2-y,-z
1/2+x,1/2-y,z
loop_
_atom_site_type_symbol
_atom_site_label
_atom_site_fract_x
_atom_site_fract_y
_atom_site_fract_z
Si Si1 0.884111 0.931856 0.465218
Si Si2 0.982354 0.562837 0.682466
Si Si3 0.019867 0.268212 0.817997
Si Si4 0.328199 0.837797 0.738802
Si Si5 0.676966 0.854183 0.606196
Si Si6 0.080672 0.857641 0.834002
O O1 0.797299 0.885680 0.581583
O O2 0.900713 0.911190 0.287669
O O3 0.000000 0.926981 0.500000
O O4 0.840941 0.000000 0.484602
O O5 0.973673 0.500000 0.765901
O O6 0.867717 0.597405 0.769373
O O7 0.000000 0.555187 0.500000
O O8 0.087692 0.597539 0.700121
O O9 0.142032 0.297124 0.719054
O O10 0.024753 0.198949 0.780769
O O11 0.912511 0.290411 0.771602
O O12 0.000000 0.280769 0.000000
O O13 0.335960 0.832521 0.556984
O O14 0.198813 0.833574 0.851037
O O15 0.000000 0.882040 0.000000
#
# Coordination Sequence:
#
# PCOD8105711 Si02
#       6
#     8   8   8   8   8   8
#     4  10  22  38  57  83 112 145 186 226 267 321
#     4   8  13  25  49  75  96 124 166 220 268 303
#     4  10  21  35  55  83 112 142 179 228 280 325
#     4   9  19  34  52  78 107 137 185 228 266 328
#     4   9  18  34  56  79 108 140 178 227 274 325
#     4  10  23  38  55  79 110 150 186 221 271 327
#
# _framework density 19.795881000000001
#
# number of rings (size 3 to 8) (size 9 to 14) (size 15 to 20)
#    0.000    2.667    0.000    2.000    0.000   13.667 
#    0.000    0.000    0.000   14.500    0.000    0.000 
#    0.000    0.000    0.000    0.000    0.000    0.000 
#
# Total GULP energy -297356.750525 kJ/mol
# GULP energy per Si atom -12389.864605 kJ/mol
# Density = 1.975082 g / cm^3
# Si number density = 19.795881 Si / 1000 Ang^3
#
#
#
# Elastic Constant Matrix: (Units=GPa)
#
#
# Indices 1 2 3 4 5 6 
#
# 1 101.9075 15.3135 28.4438 0.0000 -9.3694 0.0000
# 2 15.3135 60.3399 22.9455 0.0000 2.5370 0.0000
# 3 28.4438 22.9455 65.2402 0.0000 -16.8510 0.0000
# 4 0.0000 0.0000 0.0000 22.3861 0.0000 -0.3648
# 5 -9.3694 2.5370 -16.8510 0.0000 26.6857 0.0000
# 6 0.0000 0.0000 0.0000 -0.3648 0.0000 23.9095
#
#
#
# Elastic Compliance Matrix: (Units=1/GPa)
#
#
# Indices 1 2 3 4 5 6 
#
# 1 0.011290 -0.001398 -0.004030 0.000000 0.001552 0.000000
# 2 -0.001398 0.020555 -0.008665 0.000000 -0.007917 0.000000
# 3 -0.004030 -0.008665 0.023873 0.000000 0.014484 0.000000
# 4 0.000000 0.000000 0.000000 0.044682 0.000000 0.000682
# 5 0.001552 -0.007917 0.014484 0.000000 0.047917 0.000000
# 6 0.000000 0.000000 0.000000 0.000682 0.000000 0.041835
#
#
# Mechanical properties :
#
#
# Convention : Reuss Voigt Hill
#
# Bulk Modulus (GPa) = 36.31871 40.09924 38.20898
# Shear Modulus (GPa) = 21.97648 25.31525 23.64586
#
# Velocity S-wave (km/s) = 3.33551 3.57993 3.45988
# Velocity P-wave (km/s) = 5.76373 6.11459 5.94175
#
# Compressibility (1/GPa) = 0.02753402
#
# Stress axis : x y z
#
# Youngs Moduli (GPa) = 88.57071 48.64899 41.88756
#
# Poissons Ratio (x) = 0.06802 0.16879
# Poissons Ratio (y) = 0.12385 0.36294
# Poissons Ratio (z) = 0.35691 0.42153
#
# Static dielectric constant tensor:
#      x y z
#    x 3.784050 0.000000 -0.283300 
#    y 0.000000 3.948150 0.000000 
#    z -0.283300 0.000000 3.336850 
# 
# 
# High freq. dielectric constant tensor:
#      x y z
#    x 1.772110 0.000000 -0.018910 
#    y 0.000000 1.778940 0.000000 
#    z -0.018910 0.000000 1.740190 
# 
# From -- ./inp_files/51329.got.cif
#   From: 2010.06.25/outbox.cif.g09.slc.cpg/sg12_26_cif.got.tgz:51329.got - 2010.06.28 00:19:55.
