data_PCOD8105986
_publ_section_title
;
Structure prediction by ZEFSAII (Michael W. Deem and Ramdas Pophale) SiO2 
 PCOD8105986
Probable space group: C 2/M
;
_chemical_formula_sum "Si O2"
_cell_formula_units_Z 56
_cell_length_a 10.003825
_cell_length_b 9.593758
_cell_length_c 33.199409
_cell_angle_alpha 90.000000
_cell_angle_beta 111.700448
_cell_angle_gamma 90.000000
_cell_volume 2960.475909
_symmetry_space_group_name_H-M "C 2/M"
_symmetry_group_IT_number 12
_symmetry_cell_setting 'monoclinic'
loop_
_space_group_symop_operation_xyz
x,y,z
-x,y,-z
-x,-y,-z
x,-y,z
1/2+x,1/2+y,z
1/2-x,1/2+y,-z
1/2-x,1/2-y,-z
1/2+x,1/2-y,z
loop_
_atom_site_type_symbol
_atom_site_label
_atom_site_fract_x
_atom_site_fract_y
_atom_site_fract_z
Si Si1 0.927879 0.160914 0.834556
Si Si2 0.004019 0.661660 0.308100
Si Si3 0.166874 0.661165 0.023149
Si Si4 0.681163 0.161424 0.406730
Si Si5 0.757323 0.661698 0.878523
Si Si6 0.324503 0.661299 0.735395
Si Si7 0.040537 0.662388 0.549386
O O1 0.866171 0.252229 0.863491
O O2 0.845316 0.198987 0.784399
O O3 0.095318 0.195662 0.847188
O O4 0.906191 0.000000 0.843882
O O5 0.023563 0.500000 0.299441
O O6 0.081923 0.701929 0.358101
O O7 0.066216 0.749049 0.278425
O O8 0.837201 0.699278 0.295371
O O9 0.201724 0.500000 0.019093
O O10 0.220199 0.707588 0.073012
O O11 0.250000 0.750000 0.000000
O O12 0.000000 0.693778 0.000000
O O13 0.823685 0.252366 0.419938
O O14 0.595423 0.197350 0.437853
O O15 0.725772 0.000000 0.410642
O O16 0.795305 0.500000 0.876911
O O17 0.359881 0.500000 0.731275
O O18 0.081234 0.500000 0.556145
O O19 0.000000 0.709421 0.500000
#
# Coordination Sequence:
#
# PCOD8105986 Si02
#       7
#     8   8   8   8   8   8   8
#     4  10  21  36  55  80 107 138 177 218 264 317
#     4  10  21  36  54  78 107 139 176 217 262 313
#     4  10  21  36  54  78 107 140 179 221 267 319
#     4  10  21  36  54  79 109 139 176 220 262 311
#     4  10  21  36  54  79 109 139 177 223 266 316
#     4  10  21  37  56  79 108 140 176 219 264 314
#     4  10  21  37  57  81 109 142 179 219 265 315
#
# _framework density 18.915877999999999
#
# number of rings (size 3 to 8) (size 9 to 14) (size 15 to 20)
#    0.000    2.000    0.000    3.000    0.000    5.143 
#    0.000    0.000    0.000    0.000    0.000    0.000 
#    0.000    0.000    0.000    0.000    0.000    0.000 
#
# Total GULP energy -347371.151472 kJ/mol
# GULP energy per Si atom -12406.112553 kJ/mol
# Density = 1.887282 g / cm^3
# Si number density = 18.915878 Si / 1000 Ang^3
#
#
#
# Elastic Constant Matrix: (Units=GPa)
#
#
# Indices 1 2 3 4 5 6 
#
# 1 52.3668 34.7227 16.5209 0.0000 -9.3971 0.0000
# 2 34.7227 52.9241 28.8914 0.0000 -9.8443 0.0000
# 3 16.5209 28.8914 79.9286 0.0000 3.0701 0.0000
# 4 0.0000 0.0000 0.0000 26.5620 0.0000 -8.2856
# 5 -9.3971 -9.8443 3.0701 0.0000 38.7454 0.0000
# 6 0.0000 0.0000 0.0000 -8.2856 0.0000 28.0211
#
#
#
# Elastic Compliance Matrix: (Units=1/GPa)
#
#
# Indices 1 2 3 4 5 6 
#
# 1 0.034127 -0.022454 0.000966 0.000000 0.002496 0.000000
# 2 -0.022454 0.040171 -0.010093 0.000000 0.005560 0.000000
# 3 0.000966 -0.010093 0.016098 0.000000 -0.003605 0.000000
# 4 0.000000 0.000000 0.000000 0.041473 0.000000 0.012263
# 5 0.002496 0.005560 -0.003605 0.000000 0.028113 0.000000
# 6 0.000000 0.000000 0.000000 0.012263 0.000000 0.039314
#
#
# Mechanical properties :
#
#
# Convention : Reuss Voigt Hill
#
# Bulk Modulus (GPa) = 36.71647 38.38771 37.55209
# Shear Modulus (GPa) = 18.41385 25.67133 22.04259
#
# Velocity S-wave (km/s) = 3.12342 3.68792 3.41735
# Velocity P-wave (km/s) = 5.69738 6.20261 5.95536
#
# Compressibility (1/GPa) = 0.02723573
#
# Stress axis : x y z
#
# Youngs Moduli (GPa) = 29.30191 24.89383 62.11927
#
# Poissons Ratio (x) = 0.55897 -0.06004
# Poissons Ratio (y) = 0.65794 0.62695
# Poissons Ratio (z) = -0.02832 0.25125
#
# Static dielectric constant tensor:
#      x y z
#    x 3.360190 0.000000 0.091630 
#    y 0.000000 3.401770 0.000000 
#    z 0.091630 0.000000 3.644350 
# 
# 
# High freq. dielectric constant tensor:
#      x y z
#    x 1.740690 0.000000 0.004250 
#    y 0.000000 1.729900 0.000000 
#    z 0.004250 0.000000 1.753480 
# 
# From -- ./inp_files/373627.got.cif
#   From: 2010.06.25/outbox.cif.g09.slc.cpg/sg12_187_cif.got.tgz:373627.got - 2010.06.28 00:19:55.
