data_PCOD8105110
_publ_section_title
;
Structure prediction by ZEFSAII (Michael W. Deem and Ramdas Pophale) SiO2 
 PCOD8105110
Probable space group: C 2/M
;
_chemical_formula_sum "Si O2"
_cell_formula_units_Z 56
_cell_length_a 19.984237
_cell_length_b 8.834411
_cell_length_c 16.230988
_cell_angle_alpha 90.000000
_cell_angle_beta 91.920417
_cell_angle_gamma 90.000000
_cell_volume 2863.954624
_symmetry_space_group_name_H-M "C 2/M"
_symmetry_group_IT_number 12
_symmetry_cell_setting 'monoclinic'
loop_
_space_group_symop_operation_xyz
x,y,z
-x,y,-z
-x,-y,-z
x,-y,z
1/2+x,1/2+y,z
1/2-x,1/2+y,-z
1/2-x,1/2-y,-z
1/2+x,1/2-y,z
loop_
_atom_site_type_symbol
_atom_site_label
_atom_site_fract_x
_atom_site_fract_y
_atom_site_fract_z
Si Si1 0.178154 0.820812 0.979957
Si Si2 0.695638 0.822548 0.439152
Si Si3 0.880795 0.178016 0.855157
Si Si4 0.731733 0.674376 0.273185
Si Si5 0.554598 0.322903 0.435364
Si Si6 0.632492 0.825504 0.811305
Si Si7 0.498923 0.678772 0.747281
O O1 0.145545 0.768910 0.894015
O O2 0.187265 0.000000 0.980493
O O3 0.250000 0.750000 0.000000
O O4 0.127077 0.768836 0.050609
O O5 0.750000 0.750000 0.500000
O O6 0.714338 0.782674 0.347077
O O7 0.622330 0.763941 0.459666
O O8 0.697196 0.000000 0.452268
O O9 0.814029 0.228519 0.804528
O O10 0.947277 0.242960 0.814099
O O11 0.887225 0.000000 0.850445
O O12 0.716577 0.500000 0.296920
O O13 0.808196 0.697425 0.251156
O O14 0.500000 0.271616 0.500000
O O15 0.569633 0.500000 0.442383
O O16 0.529705 0.279350 0.343329
O O17 0.567473 0.766616 0.762350
O O18 0.625006 0.000000 0.836203
O O19 0.511714 0.500000 0.755904
#
# Coordination Sequence:
#
# PCOD8105110 Si02
#       7
#     8   8   8   8   8   8   8
#     4  11  21  37  61  91 122 158 207 253 306 364
#     4  12  26  42  64  95 127 162 207 255 308 364
#     4   9  18  37  64  86 115 161 203 244 301 365
#     4  10  20  41  65  87 120 163 205 249 306 365
#     4  10  22  42  67  94 125 163 205 252 308 371
#     4  11  24  40  60  90 127 162 201 253 309 360
#     4  10  21  40  63  87 121 162 204 247 300 367
#
# _framework density 19.553381999999999
#
# number of rings (size 3 to 8) (size 9 to 14) (size 15 to 20)
#    0.000    1.571    2.857    2.143    2.000    2.571 
#    0.000    4.286    0.000    0.000    0.000    0.000 
#    0.000    0.000    0.000    0.000    0.000    0.000 
#
# Total GULP energy -347267.230776 kJ/mol
# GULP energy per Si atom -12402.401099 kJ/mol
# Density = 1.950888 g / cm^3
# Si number density = 19.553382 Si / 1000 Ang^3
#
#
#
# Elastic Constant Matrix: (Units=GPa)
#
#
# Indices 1 2 3 4 5 6 
#
# 1 146.7749 56.5485 49.3472 0.0000 -4.4516 0.0000
# 2 56.5485 84.0989 44.2674 0.0000 -2.4419 0.0000
# 3 49.3472 44.2674 99.8362 0.0000 -14.6812 0.0000
# 4 0.0000 0.0000 0.0000 28.8008 0.0000 3.4484
# 5 -4.4516 -2.4419 -14.6812 0.0000 34.8024 0.0000
# 6 0.0000 0.0000 0.0000 3.4484 0.0000 36.5298
#
#
#
# Elastic Compliance Matrix: (Units=1/GPa)
#
#
# Indices 1 2 3 4 5 6 
#
# 1 0.009640 -0.005172 -0.002499 0.000000 -0.000184 0.000000
# 2 -0.005172 0.018409 -0.005878 0.000000 -0.001850 0.000000
# 3 -0.002499 -0.005878 0.014659 0.000000 0.005452 0.000000
# 4 0.000000 0.000000 0.000000 0.035118 0.000000 -0.003315
# 5 -0.000184 -0.001850 0.005452 0.000000 0.030880 0.000000
# 6 0.000000 0.000000 0.000000 -0.003315 0.000000 0.027688
#
#
# Mechanical properties :
#
#
# Convention : Reuss Voigt Hill
#
# Bulk Modulus (GPa) = 64.05775 70.11512 67.08644
# Shear Modulus (GPa) = 29.63900 32.06308 30.85104
#
# Velocity S-wave (km/s) = 3.89755 4.05380 3.97644
# Velocity P-wave (km/s) = 7.28602 7.60574 7.44759
#
# Compressibility (1/GPa) = 0.01561091
#
# Stress axis : x y z
#
# Youngs Moduli (GPa) = 103.72970 54.32142 68.21532
#
# Poissons Ratio (x) = 0.28097 0.17045
# Poissons Ratio (y) = 0.53653 0.40096
# Poissons Ratio (z) = 0.25919 0.31930
#
# Static dielectric constant tensor:
#      x y z
#    x 3.605430 0.000000 -0.295000 
#    y 0.000000 3.691150 0.000000 
#    z -0.295000 0.000000 3.637860 
# 
# 
# High freq. dielectric constant tensor:
#      x y z
#    x 1.773770 0.000000 -0.006390 
#    y 0.000000 1.745960 0.000000 
#    z -0.006390 0.000000 1.773210 
# 
# From -- ./inp_files/230855.got.cif
#   From: 2010.06.25/outbox.cif.g09.slc.cpg/sg12_116_cif.got.tgz:230855.got - 2010.06.28 00:19:55.
