data_PCOD8105473
_publ_section_title
;
Structure prediction by ZEFSAII (Michael W. Deem and Ramdas Pophale) SiO2 
 PCOD8105473
Probable space group: C 2/M
;
_chemical_formula_sum "Si O2"
_cell_formula_units_Z 56
_cell_length_a 29.149060
_cell_length_b 9.222409
_cell_length_c 13.630283
_cell_angle_alpha 90.000000
_cell_angle_beta 74.807557
_cell_angle_gamma 90.000000
_cell_volume 3536.096442
_symmetry_space_group_name_H-M "C 2/M"
_symmetry_group_IT_number 12
_symmetry_cell_setting 'monoclinic'
loop_
_space_group_symop_operation_xyz
x,y,z
-x,y,-z
-x,-y,-z
x,-y,z
1/2+x,1/2+y,z
1/2-x,1/2+y,-z
1/2-x,1/2-y,-z
1/2+x,1/2-y,z
loop_
_atom_site_type_symbol
_atom_site_label
_atom_site_fract_x
_atom_site_fract_y
_atom_site_fract_z
Si Si1 0.293908 0.329494 0.093429
Si Si2 0.799250 0.169992 0.864823
Si Si3 0.538012 0.671584 0.755861
Si Si4 0.390032 0.671393 0.128481
Si Si5 0.900276 0.837090 0.746891
Si Si6 0.487657 0.831591 0.618960
Si Si7 0.449614 0.661897 0.920730
O O1 0.286244 0.500000 0.108597
O O2 0.245801 0.252184 0.156038
O O3 0.336509 0.271664 0.140596
O O4 0.306166 0.285303 0.974777
O O5 0.845308 0.214521 0.773743
O O6 0.790002 0.000000 0.862063
O O7 0.530818 0.500000 0.740917
O O8 0.590049 0.706298 0.773113
O O9 0.529219 0.753557 0.658578
O O10 0.498787 0.732690 0.855286
O O11 0.389139 0.500000 0.109922
O O12 0.426065 0.741890 0.027655
O O13 0.935098 0.731599 0.667985
O O14 0.911499 0.837323 0.855490
O O15 0.906194 0.000000 0.700907
O O16 0.500000 0.803666 0.500000
O O17 0.487223 0.000000 0.646506
O O18 0.462799 0.500000 0.946043
#
# Coordination Sequence:
#
# PCOD8105473 Si02
#       7
#     8   8   8   8   8   8   8
#     4   9  16  25  40  61  90 125 155 181 208 246
#     4   9  16  27  41  62  90 119 153 186 214 245
#     4   9  17  27  45  67  85 112 149 184 214 251
#     4   9  14  23  40  64  90 118 152 181 207 246
#     4   9  16  28  48  68  86 114 151 187 216 249
#     4  10  21  35  48  64  88 114 139 176 229 280
#     4   8  12  21  38  62  87 112 144 178 208 242
#
# _framework density 15.836672
#
# number of rings (size 3 to 8) (size 9 to 14) (size 15 to 20)
#    0.000    3.000    1.429    1.714    0.000    3.429 
#    0.000    0.714    0.000    6.857    0.000    1.000 
#    0.000    0.000    0.000    0.000    0.000    0.000 
#
# Total GULP energy -346917.288039 kJ/mol
# GULP energy per Si atom -12389.903144 kJ/mol
# Density = 1.580063 g / cm^3
# Si number density = 15.836672 Si / 1000 Ang^3
#
#
#
# Elastic Constant Matrix: (Units=GPa)
#
#
# Indices 1 2 3 4 5 6 
#
# 1 136.2749 43.0984 49.7070 0.0000 9.8924 0.0000
# 2 43.0984 48.1774 36.8532 0.0000 1.3590 0.0000
# 3 49.7070 36.8532 64.7042 0.0000 1.9356 0.0000
# 4 0.0000 0.0000 0.0000 16.4790 0.0000 -3.0228
# 5 9.8924 1.3590 1.9356 0.0000 14.6616 0.0000
# 6 0.0000 0.0000 0.0000 -3.0228 0.0000 22.0477
#
#
#
# Elastic Compliance Matrix: (Units=1/GPa)
#
#
# Indices 1 2 3 4 5 6 
#
# 1 0.011714 -0.006309 -0.005207 0.000000 -0.006631 0.000000
# 2 -0.006309 0.040186 -0.018130 0.000000 0.002925 0.000000
# 3 -0.005207 -0.018130 0.029743 0.000000 0.001267 0.000000
# 4 0.000000 0.000000 0.000000 0.062249 0.000000 0.008535
# 5 -0.006631 0.002925 0.001267 0.000000 0.072241 0.000000
# 6 0.000000 0.000000 0.000000 0.008535 0.000000 0.046526
#
#
# Mechanical properties :
#
#
# Convention : Reuss Voigt Hill
#
# Bulk Modulus (GPa) = 44.73841 56.49707 50.61774
# Shear Modulus (GPa) = 15.17904 18.60420 16.89162
#
# Velocity S-wave (km/s) = 3.09928 3.43119 3.26945
# Velocity P-wave (km/s) = 6.41238 7.17284 6.80324
#
# Compressibility (1/GPa) = 0.02235216
#
# Stress axis : x y z
#
# Youngs Moduli (GPa) = 85.36695 24.88432 33.62090
#
# Poissons Ratio (x) = 0.15699 0.17508
# Poissons Ratio (y) = 0.53856 0.60953
# Poissons Ratio (z) = 0.44454 0.45114
#
# Static dielectric constant tensor:
#      x y z
#    x 3.217710 0.000000 0.024150 
#    y 0.000000 2.735680 0.000000 
#    z 0.024150 0.000000 2.693700 
# 
# 
# High freq. dielectric constant tensor:
#      x y z
#    x 1.616120 0.000000 0.001630 
#    y 0.000000 1.574960 0.000000 
#    z 0.001630 0.000000 1.565110 
# 
# From -- ./inp_files/247821.got.cif
#   From: 2010.06.25/outbox.cif.g09.slc.cpg/sg12_124_cif.got.tgz:247821.got - 2010.06.28 00:19:55.
