data_PCOD8105687
_publ_section_title
;
Structure prediction by ZEFSAII (Michael W. Deem and Ramdas Pophale) SiO2 
 PCOD8105687
Probable space group: C 2/M
;
_chemical_formula_sum "Si O2"
_cell_formula_units_Z 48
_cell_length_a 29.904902
_cell_length_b 13.167323
_cell_length_c 13.694580
_cell_angle_alpha 90.000000
_cell_angle_beta 154.612586
_cell_angle_gamma 90.000000
_cell_volume 2311.954276
_symmetry_space_group_name_H-M "C 2/M"
_symmetry_group_IT_number 12
_symmetry_cell_setting 'monoclinic'
loop_
_space_group_symop_operation_xyz
x,y,z
-x,y,-z
-x,-y,-z
x,-y,z
1/2+x,1/2+y,z
1/2-x,1/2+y,-z
1/2-x,1/2-y,-z
1/2+x,1/2-y,z
loop_
_atom_site_type_symbol
_atom_site_label
_atom_site_fract_x
_atom_site_fract_y
_atom_site_fract_z
Si Si1 0.577389 0.612828 0.234659
Si Si2 0.901027 0.616305 0.019463
Si Si3 0.737268 0.251690 0.125544
Si Si4 0.616485 0.201066 0.418493
Si Si5 0.687330 0.887186 0.357785
Si Si6 0.624026 0.620387 0.742083
O O1 0.543158 0.500000 0.201115
O O2 0.574358 0.682788 0.326159
O O3 0.689683 0.609311 0.407000
O O4 0.500000 0.656169 0.000000
O O5 0.866376 0.500000 0.961871
O O6 0.025513 0.625416 0.271593
O O7 0.851538 0.676404 0.011550
O O8 0.860929 0.660072 0.836619
O O9 0.791697 0.310077 0.322457
O O10 0.825774 0.184952 0.246701
O O11 0.681352 0.338530 0.952001
O O12 0.657111 0.180722 0.389639
O O13 0.640968 0.000000 0.282527
O O14 0.500000 0.641656 0.500000
O O15 0.646272 0.500000 0.774492
#
# Coordination Sequence:
#
# PCOD8105687 Si02
#       6
#     8   8   8   8   8   8
#     4  10  21  35  54  83 123 172 220 256 296 347
#     4  11  23  40  61  91 128 170 211 246 299 363
#     4  11  24  41  68  96 123 158 201 258 320 372
#     4  12  23  36  62  90 127 164 215 256 298 352
#     4  10  21  38  57  84 128 177 213 249 296 349
#     4  10  23  47  71  93 121 155 199 256 323 390
#
# _framework density 20.761655999999999
#
# number of rings (size 3 to 8) (size 9 to 14) (size 15 to 20)
#    0.000    1.333    1.667    4.000    2.333    3.333 
#    0.000    0.833    0.000    5.500    0.000    0.000 
#    0.000    0.000    0.000    0.000    0.000    0.000 
#
# Total GULP energy -297633.274480 kJ/mol
# GULP energy per Si atom -12401.386437 kJ/mol
# Density = 2.071440 g / cm^3
# Si number density = 20.761656 Si / 1000 Ang^3
#
#
#
# Elastic Constant Matrix: (Units=GPa)
#
#
# Indices 1 2 3 4 5 6 
#
# 1 71.6379 20.8332 18.1406 0.0000 -1.1693 0.0000
# 2 20.8332 77.2534 23.5148 0.0000 -2.3166 0.0000
# 3 18.1406 23.5148 102.9053 0.0000 1.9742 0.0000
# 4 0.0000 0.0000 0.0000 32.1954 0.0000 1.4467
# 5 -1.1693 -2.3166 1.9742 0.0000 27.5210 0.0000
# 6 0.0000 0.0000 0.0000 1.4467 0.0000 26.8911
#
#
#
# Elastic Compliance Matrix: (Units=1/GPa)
#
#
# Indices 1 2 3 4 5 6 
#
# 1 0.015495 -0.003578 -0.001923 0.000000 0.000495 0.000000
# 2 -0.003578 0.014793 -0.002774 0.000000 0.001292 0.000000
# 3 -0.001923 -0.002774 0.010711 0.000000 -0.001084 0.000000
# 4 0.000000 0.000000 0.000000 0.031136 0.000000 -0.001675
# 5 0.000495 0.001292 -0.001084 0.000000 0.036543 0.000000
# 6 0.000000 0.000000 0.000000 -0.001675 0.000000 0.037277
#
#
# Mechanical properties :
#
#
# Convention : Reuss Voigt Hill
#
# Bulk Modulus (GPa) = 40.90451 41.86374 41.38412
# Shear Modulus (GPa) = 29.29876 29.94204 29.62040
#
# Velocity S-wave (km/s) = 3.76066 3.80172 3.78125
# Velocity P-wave (km/s) = 6.21301 6.28320 6.24820
#
# Compressibility (1/GPa) = 0.02444718
#
# Stress axis : x y z
#
# Youngs Moduli (GPa) = 64.53775 67.60150 93.35803
#
# Poissons Ratio (x) = 0.24190 0.17956
# Poissons Ratio (y) = 0.23093 0.25900
# Poissons Ratio (z) = 0.12413 0.18754
#
# Static dielectric constant tensor:
#      x y z
#    x 3.621860 0.000000 0.026810 
#    y 0.000000 4.065990 0.000000 
#    z 0.026810 0.000000 3.797680 
# 
# 
# High freq. dielectric constant tensor:
#      x y z
#    x 1.798870 0.000000 0.007270 
#    y 0.000000 1.821280 0.000000 
#    z 0.007270 0.000000 1.822780 
# 
# From -- ./inp_files/183887.got.cif
#   From: 2010.06.25/outbox.cif.g09.slc.cpg/sg12_92_cif.got.tgz:183887.got - 2010.06.28 00:19:55.
