data_PCOD8105240
_publ_section_title
;
Structure prediction by ZEFSAII (Michael W. Deem and Ramdas Pophale) SiO2 
 PCOD8105240
Probable space group: C 2/M
;
_chemical_formula_sum "Si O2"
_cell_formula_units_Z 48
_cell_length_a 25.184620
_cell_length_b 18.374448
_cell_length_c 5.343651
_cell_angle_alpha 90.000000
_cell_angle_beta 74.637649
_cell_angle_gamma 90.000000
_cell_volume 2384.439494
_symmetry_space_group_name_H-M "C 2/M"
_symmetry_group_IT_number 12
_symmetry_cell_setting 'monoclinic'
loop_
_space_group_symop_operation_xyz
x,y,z
-x,y,-z
-x,-y,-z
x,-y,z
1/2+x,1/2+y,z
1/2-x,1/2+y,-z
1/2-x,1/2-y,-z
1/2+x,1/2-y,z
loop_
_atom_site_type_symbol
_atom_site_label
_atom_site_fract_x
_atom_site_fract_y
_atom_site_fract_z
Si Si1 0.715835 0.580505 0.377790
Si Si2 0.635179 0.315592 0.179233
Si Si3 0.158254 0.417780 0.811399
Si Si4 0.465306 0.583035 0.793570
Si Si5 0.231308 0.194364 0.733557
Si Si6 0.151998 0.333526 0.295736
O O1 0.690444 0.500000 0.424495
O O2 0.674896 0.628957 0.269070
O O3 0.777508 0.579687 0.193933
O O4 0.718954 0.612964 0.651005
O O5 0.583618 0.358976 0.136395
O O6 0.618102 0.243568 0.360372
O O7 0.673069 0.279208 0.915775
O O8 0.135608 0.500000 0.807082
O O9 0.146283 0.375147 0.567270
O O10 0.128851 0.380733 0.090148
O O11 0.500000 0.597590 0.500000
O O12 0.442939 0.500000 0.820759
O O13 0.500000 0.597348 0.000000
O O14 0.250000 0.250000 0.500000
O O15 0.283865 0.187414 0.850440
#
# Coordination Sequence:
#
# PCOD8105240 Si02
#       6
#     8   8   8   8   8   8
#     4  10  21  32  49  77 112 157 206 242 282 354
#     4  12  22  36  61  83 114 155 212 254 315 370
#     4  10  21  36  51  77 122 160 189 226 278 349
#     4  10  25  46  64  85 119 161 212 277 327 352
#     4  11  21  35  52  83 122 157 196 254 303 367
#     4  11  21  34  56  83 116 156 198 237 294 360
#
# _framework density 20.130516
#
# number of rings (size 3 to 8) (size 9 to 14) (size 15 to 20)
#    0.000    1.333    3.333    3.500    2.333    2.000 
#    0.000    0.000    0.000    0.000    0.000    0.000 
#    0.000   13.333    0.000    0.000    0.000    0.000 
#
# Total GULP energy -297363.184702 kJ/mol
# GULP energy per Si atom -12390.132696 kJ/mol
# Density = 2.008470 g / cm^3
# Si number density = 20.130516 Si / 1000 Ang^3
#
#
#
# Elastic Constant Matrix: (Units=GPa)
#
#
# Indices 1 2 3 4 5 6 
#
# 1 74.8433 59.7304 42.6988 0.0000 13.7117 0.0000
# 2 59.7304 183.2176 59.5637 0.0000 20.1146 0.0000
# 3 42.6988 59.5637 103.6663 0.0000 20.3386 0.0000
# 4 0.0000 0.0000 0.0000 49.6035 0.0000 26.4293
# 5 13.7117 20.1146 20.3386 0.0000 18.2427 0.0000
# 6 0.0000 0.0000 0.0000 26.4293 0.0000 47.5515
#
#
#
# Elastic Compliance Matrix: (Units=1/GPa)
#
#
# Indices 1 2 3 4 5 6 
#
# 1 0.020777 -0.004623 -0.004912 0.000000 -0.005043 0.000000
# 2 -0.004623 0.007973 -0.002091 0.000000 -0.002985 0.000000
# 3 -0.004912 -0.002091 0.014969 0.000000 -0.010690 0.000000
# 4 0.000000 0.000000 0.000000 0.028642 0.000000 -0.015919
# 5 -0.005043 -0.002985 -0.010690 0.000000 0.073816 0.000000
# 6 0.000000 0.000000 0.000000 -0.015919 0.000000 0.029878
#
#
# Mechanical properties :
#
#
# Convention : Reuss Voigt Hill
#
# Bulk Modulus (GPa) = 48.86270 76.19033 62.52652
# Shear Modulus (GPa) = 24.25674 36.39516 30.32595
#
# Velocity S-wave (km/s) = 3.47504 4.25662 3.88553
# Velocity P-wave (km/s) = 6.35821 7.87964 7.15946
#
# Compressibility (1/GPa) = 0.02046551
#
# Stress axis : x y z
#
# Youngs Moduli (GPa) = 48.13018 125.42984 66.80692
#
# Poissons Ratio (x) = 0.57985 0.32817
# Poissons Ratio (y) = 0.22250 0.13970
# Poissons Ratio (z) = 0.23643 0.26229
#
# Static dielectric constant tensor:
#      x y z
#    x 3.269900 0.000000 0.170820 
#    y 0.000000 4.277460 0.000000 
#    z 0.170820 0.000000 3.756240 
# 
# 
# High freq. dielectric constant tensor:
#      x y z
#    x 1.724430 0.000000 0.037460 
#    y 0.000000 1.813310 0.000000 
#    z 0.037460 0.000000 1.779940 
# 
# From -- ./inp_files/24969.got.cif
#   From: 2010.06.25/outbox.cif.g09.slc.cpg/sg12_13_cif.got.tgz:24969.got - 2010.06.28 00:19:55.
