data_PCOD8105688
_publ_section_title
;
Structure prediction by ZEFSAII (Michael W. Deem and Ramdas Pophale) SiO2 
 PCOD8105688
Probable space group: C 2/M
;
_chemical_formula_sum "Si O2"
_cell_formula_units_Z 64
_cell_length_a 25.110324
_cell_length_b 9.153042
_cell_length_c 14.271734
_cell_angle_alpha 90.000000
_cell_angle_beta 86.547084
_cell_angle_gamma 90.000000
_cell_volume 3274.201418
_symmetry_space_group_name_H-M "C 2/M"
_symmetry_group_IT_number 12
_symmetry_cell_setting 'monoclinic'
loop_
_space_group_symop_operation_xyz
x,y,z
-x,y,-z
-x,-y,-z
x,-y,z
1/2+x,1/2+y,z
1/2-x,1/2+y,-z
1/2-x,1/2-y,-z
1/2+x,1/2-y,z
loop_
_atom_site_type_symbol
_atom_site_label
_atom_site_fract_x
_atom_site_fract_y
_atom_site_fract_z
Si Si1 0.485542 0.667406 0.642790
Si Si2 0.441348 0.329875 0.987039
Si Si3 0.409046 0.666975 0.476935
Si Si4 0.933526 0.338163 0.806130
Si Si5 0.184175 0.338780 0.156814
Si Si6 0.656834 0.172446 0.950588
Si Si7 0.200157 0.674809 0.558409
Si Si8 0.275100 0.828498 0.232988
O O1 0.481688 0.500000 0.678699
O O2 0.440518 0.693592 0.569640
O O3 0.546373 0.700636 0.606407
O O4 0.473567 0.786135 0.722440
O O5 0.434146 0.500000 0.005711
O O6 0.431282 0.288987 0.881884
O O7 0.500000 0.272491 0.000000
O O8 0.400752 0.245085 0.058792
O O9 0.389142 0.500000 0.471699
O O10 0.356977 0.769746 0.474474
O O11 0.952178 0.500000 0.839066
O O12 0.871949 0.349283 0.782809
O O13 0.210384 0.500000 0.149779
O O14 0.216828 0.235073 0.222076
O O15 0.181065 0.278227 0.049177
O O16 0.690197 0.229606 0.858408
O O17 0.649108 0.000000 0.951802
O O18 0.203810 0.500000 0.544457
O O19 0.250000 0.750000 0.500000
O O20 0.202477 0.719722 0.668179
O O21 0.270571 0.000000 0.229199
#
# Coordination Sequence:
#
# PCOD8105688 Si02
#       8
#     8   8   8   8   8   8   8   8
#     4   9  19  37  62  88 115 148 188 238 295 349
#     4  10  21  36  54  80 112 147 187 227 274 335
#     4   9  20  40  62  85 114 149 190 240 296 349
#     4  10  21  35  54  84 116 147 188 232 281 338
#     4   9  19  34  54  83 115 145 184 232 280 335
#     4   9  19  37  57  81 113 144 182 233 284 338
#     4  11  25  42  59  84 117 156 200 244 293 351
#     4  10  22  38  57  81 109 148 191 231 285 343
#
# _framework density 19.546749999999999
#
# number of rings (size 3 to 8) (size 9 to 14) (size 15 to 20)
#    0.000    2.375    0.000    3.000    1.750    7.000 
#    0.000    3.750    0.000    0.000    0.000    0.000 
#    0.000    0.000    0.000    0.000    0.000    0.000 
#
# Total GULP energy -396533.988290 kJ/mol
# GULP energy per Si atom -12391.687134 kJ/mol
# Density = 1.950226 g / cm^3
# Si number density = 19.546750 Si / 1000 Ang^3
#
#
#
# Elastic Constant Matrix: (Units=GPa)
#
#
# Indices 1 2 3 4 5 6 
#
# 1 117.6362 44.7671 30.2527 0.0000 -0.7757 0.0000
# 2 44.7671 39.8652 24.1863 0.0000 -3.4773 0.0000
# 3 30.2527 24.1863 56.5987 0.0000 -14.4466 0.0000
# 4 0.0000 0.0000 0.0000 43.7417 0.0000 -1.8920
# 5 -0.7757 -3.4773 -14.4466 0.0000 27.7683 0.0000
# 6 0.0000 0.0000 0.0000 -1.8920 0.0000 39.7590
#
#
#
# Elastic Compliance Matrix: (Units=1/GPa)
#
#
# Indices 1 2 3 4 5 6 
#
# 1 0.015048 -0.015993 -0.001860 0.000000 -0.002550 0.000000
# 2 -0.015993 0.051210 -0.013621 0.000000 -0.001121 0.000000
# 3 -0.001860 -0.013621 0.027715 0.000000 0.012661 0.000000
# 4 0.000000 0.000000 0.000000 0.022909 0.000000 0.001090
# 5 -0.002550 -0.001121 0.012661 0.000000 0.042388 0.000000
# 6 0.000000 0.000000 0.000000 0.001090 0.000000 0.025203
#
#
# Mechanical properties :
#
#
# Convention : Reuss Voigt Hill
#
# Bulk Modulus (GPa) = 32.23209 45.83472 39.03341
# Shear Modulus (GPa) = 19.39760 29.91338 24.65549
#
# Velocity S-wave (km/s) = 3.15361 3.91621 3.55542
# Velocity P-wave (km/s) = 5.45764 6.62938 6.07184
#
# Compressibility (1/GPa) = 0.03102498
#
# Stress axis : x y z
#
# Youngs Moduli (GPa) = 66.45189 19.52747 36.08124
#
# Poissons Ratio (x) = 0.31229 0.06713
# Poissons Ratio (y) = 1.06274 0.49147
# Poissons Ratio (z) = 0.12363 0.26599
#
# Static dielectric constant tensor:
#      x y z
#    x 3.924510 0.000000 -0.284480 
#    y 0.000000 3.506660 0.000000 
#    z -0.284480 0.000000 3.680470 
# 
# 
# High freq. dielectric constant tensor:
#      x y z
#    x 1.765380 0.000000 -0.010760 
#    y 0.000000 1.761360 0.000000 
#    z -0.010760 0.000000 1.751600 
# 
# From -- ./inp_files/238716.got.cif
#   From: 2010.06.25/outbox.cif.g09.slc.cpg/sg12_120_cif.got.tgz:238716.got - 2010.06.28 00:19:55.
