data_PCOD8105554
_publ_section_title
;
Structure prediction by ZEFSAII (Michael W. Deem and Ramdas Pophale) SiO2 
 PCOD8105554
Probable space group: C 2/M
;
_chemical_formula_sum "Si O2"
_cell_formula_units_Z 64
_cell_length_a 20.569892
_cell_length_b 8.871110
_cell_length_c 20.039524
_cell_angle_alpha 90.000000
_cell_angle_beta 78.127173
_cell_angle_gamma 90.000000
_cell_volume 3578.537302
_symmetry_space_group_name_H-M "C 2/M"
_symmetry_group_IT_number 12
_symmetry_cell_setting 'monoclinic'
loop_
_space_group_symop_operation_xyz
x,y,z
-x,y,-z
-x,-y,-z
x,-y,z
1/2+x,1/2+y,z
1/2-x,1/2+y,-z
1/2-x,1/2-y,-z
1/2+x,1/2-y,z
loop_
_atom_site_type_symbol
_atom_site_label
_atom_site_fract_x
_atom_site_fract_y
_atom_site_fract_z
Si Si1 0.087081 0.677728 0.642006
Si Si2 0.271948 0.824851 0.152051
Si Si3 0.182228 0.323959 0.993538
Si Si4 0.285452 0.824717 0.298959
Si Si5 0.051801 0.678825 0.274352
Si Si6 0.073862 0.821511 0.503345
Si Si7 0.363998 0.821720 0.861941
Si Si8 0.849729 0.678294 0.631341
O O1 0.082357 0.500000 0.628892
O O2 0.149553 0.720394 0.673947
O O3 0.093984 0.764341 0.571592
O O4 0.021785 0.738595 0.694366
O O5 0.328491 0.784807 0.082954
O O6 0.301263 0.786039 0.218278
O O7 0.205250 0.732433 0.154210
O O8 0.252964 0.000000 0.150660
O O9 0.190815 0.500000 0.001012
O O10 0.250000 0.250000 0.000000
O O11 0.127675 0.271003 0.061112
O O12 0.225337 0.725282 0.338294
O O13 0.267405 0.000000 0.311794
O O14 0.051526 0.500000 0.274839
O O15 0.075738 0.741253 0.196673
O O16 0.102876 0.738473 0.319545
O O17 0.127342 0.753224 0.441924
O O18 0.000000 0.764601 0.500000
O O19 0.078383 0.000000 0.499909
O O20 0.363840 0.000000 0.855474
O O21 0.853835 0.500000 0.622751
#
# Coordination Sequence:
#
# PCOD8105554 Si02
#       8
#     8   8   8   8   8   8   8   8
#     4  10  21  38  56  74 100 137 174 206 248 306
#     4   9  16  27  43  68 100 133 163 199 251 300
#     4   8  14  23  39  64  97 129 160 201 247 292
#     4  10  21  35  52  75 106 138 170 210 253 299
#     4   9  17  30  51  76  98 127 170 211 246 289
#     4  11  23  38  57  81 106 129 160 209 260 302
#     4   9  15  26  45  71  97 126 167 211 247 287
#     4  11  21  35  58  80 101 133 170 208 250 302
#
# _framework density 17.884401
#
# number of rings (size 3 to 8) (size 9 to 14) (size 15 to 20)
#    0.000    2.375    2.500    0.750    0.000    1.500 
#    0.000    0.625    0.000    0.750    0.000    5.250 
#    0.000    0.000    0.000   20.625    0.000   15.250 
#
# Total GULP energy -396499.748596 kJ/mol
# GULP energy per Si atom -12390.617144 kJ/mol
# Density = 1.784370 g / cm^3
# Si number density = 17.884401 Si / 1000 Ang^3
#
#
#
# Elastic Constant Matrix: (Units=GPa)
#
#
# Indices 1 2 3 4 5 6 
#
# 1 99.5854 21.3879 70.1976 0.0000 -7.6538 0.0000
# 2 21.3879 28.2092 31.8182 0.0000 -2.4339 0.0000
# 3 70.1976 31.8182 186.0143 0.0000 -24.4835 0.0000
# 4 0.0000 0.0000 0.0000 17.4107 0.0000 0.1852
# 5 -7.6538 -2.4339 -24.4835 0.0000 28.5850 0.0000
# 6 0.0000 0.0000 0.0000 0.1852 0.0000 19.3349
#
#
#
# Elastic Compliance Matrix: (Units=1/GPa)
#
#
# Indices 1 2 3 4 5 6 
#
# 1 0.014451 -0.005916 -0.004507 0.000000 -0.000494 0.000000
# 2 -0.005916 0.046581 -0.006111 0.000000 -0.002852 0.000000
# 3 -0.004507 -0.006111 0.008898 0.000000 0.005894 0.000000
# 4 0.000000 0.000000 0.000000 0.057442 0.000000 -0.000550
# 5 -0.000494 -0.002852 0.005894 0.000000 0.039657 0.000000
# 6 0.000000 0.000000 0.000000 -0.000550 0.000000 0.051725
#
#
# Mechanical properties :
#
#
# Convention : Reuss Voigt Hill
#
# Bulk Modulus (GPa) = 27.12720 62.29068 44.70894
# Shear Modulus (GPa) = 18.93170 25.75980 22.34575
#
# Velocity S-wave (km/s) = 3.25708 3.79931 3.53860
# Velocity P-wave (km/s) = 5.41717 7.35878 6.46132
#
# Compressibility (1/GPa) = 0.03686337
#
# Stress axis : x y z
#
# Youngs Moduli (GPa) = 69.19992 21.46789 112.38968
#
# Poissons Ratio (x) = 0.12700 0.50649
# Poissons Ratio (y) = 0.40939 0.68677
# Poissons Ratio (z) = 0.31185 0.13118
#
# Static dielectric constant tensor:
#      x y z
#    x 3.142450 0.000000 -0.303530 
#    y 0.000000 3.053580 0.000000 
#    z -0.303530 0.000000 4.029180 
# 
# 
# High freq. dielectric constant tensor:
#      x y z
#    x 1.656090 0.000000 -0.019840 
#    y 0.000000 1.677250 0.000000 
#    z -0.019840 0.000000 1.718870 
# 
# From -- ./inp_files/281282.got.cif
#   From: 2010.06.25/outbox.cif.g09.slc.cpg/sg12_141_cif.got.tgz:281282.got - 2010.06.28 00:19:55.
