data_PCOD8105685
_publ_section_title
;
Structure prediction by ZEFSAII (Michael W. Deem and Ramdas Pophale) SiO2 
 PCOD8105685
Probable space group: C 2/M
;
_chemical_formula_sum "Si O2"
_cell_formula_units_Z 40
_cell_length_a 15.542514
_cell_length_b 8.877667
_cell_length_c 30.835891
_cell_angle_alpha 90.000000
_cell_angle_beta 151.794757
_cell_angle_gamma 90.000000
_cell_volume 2010.940400
_symmetry_space_group_name_H-M "C 2/M"
_symmetry_group_IT_number 12
_symmetry_cell_setting 'monoclinic'
loop_
_space_group_symop_operation_xyz
x,y,z
-x,y,-z
-x,-y,-z
x,-y,z
1/2+x,1/2+y,z
1/2-x,1/2+y,-z
1/2-x,1/2-y,-z
1/2+x,1/2-y,z
loop_
_atom_site_type_symbol
_atom_site_label
_atom_site_fract_x
_atom_site_fract_y
_atom_site_fract_z
Si Si1 0.683101 0.827375 0.108153
Si Si2 0.512618 0.827245 0.206090
Si Si3 0.204740 0.820483 0.209262
Si Si4 0.609635 0.666362 0.592359
Si Si5 0.061102 0.669775 0.410702
O O1 0.842995 0.762782 0.149388
O O2 0.650830 0.734229 0.137766
O O3 0.727849 0.000000 0.139712
O O4 0.500000 0.813016 0.000000
O O5 0.578717 0.757883 0.189626
O O6 0.671484 0.819069 0.313539
O O7 0.455255 0.000000 0.172197
O O8 0.419086 0.774649 0.310677
O O9 0.179789 0.000000 0.202325
O O10 0.500000 0.683256 0.500000
O O11 0.565623 0.500000 0.593029
O O12 0.545520 0.806342 0.592173
O O13 0.112387 0.500000 0.424863
O O14 0.250000 0.750000 0.500000
#
# Coordination Sequence:
#
# PCOD8105685 Si02
#       5
#     8   8   8   8   8
#     4  11  25  43  64  91 121 157 203 254 309 365
#     4  10  21  39  63  90 123 161 200 249 305 359
#     4  10  22  41  63  88 122 161 203 251 301 359
#     4   9  19  35  55  82 117 154 193 238 290 349
#     4  10  21  35  54  83 117 155 197 239 289 348
#
# _framework density 19.891190999999999
#
# number of rings (size 3 to 8) (size 9 to 14) (size 15 to 20)
#    0.000    2.000    0.000    2.400    2.800    6.000 
#    0.000    0.000    0.000    0.000    0.000    0.000 
#    0.000    0.000    0.000    0.000    0.000    0.000 
#
# Total GULP energy -247818.745754 kJ/mol
# GULP energy per Si atom -12390.937288 kJ/mol
# Density = 1.984592 g / cm^3
# Si number density = 19.891191 Si / 1000 Ang^3
#
#
#
# Elastic Constant Matrix: (Units=GPa)
#
#
# Indices 1 2 3 4 5 6 
#
# 1 91.3316 35.7227 51.7513 0.0000 2.0342 0.0000
# 2 35.7227 78.3135 50.8163 0.0002 -0.7014 0.0000
# 3 51.7513 50.8163 106.7627 0.0004 2.5850 0.0000
# 4 0.0000 0.0002 0.0004 25.7443 0.0001 4.9567
# 5 2.0342 -0.7014 2.5850 0.0001 32.4067 0.0000
# 6 0.0000 0.0000 0.0000 4.9567 0.0000 35.2884
#
#
#
# Elastic Compliance Matrix: (Units=1/GPa)
#
#
# Indices 1 2 3 4 5 6 
#
# 1 0.015642 -0.003225 -0.006033 0.000000 -0.000570 0.000000
# 2 -0.003225 0.019180 -0.007595 0.000000 0.001223 0.000000
# 3 -0.006033 -0.007595 0.015932 0.000000 -0.001057 0.000000
# 4 0.000000 0.000000 0.000000 0.039923 0.000000 -0.005608
# 5 -0.000570 0.001223 -0.001057 0.000000 0.031004 0.000000
# 6 0.000000 0.000000 0.000000 -0.005608 0.000000 0.029126
#
#
# Mechanical properties :
#
#
# Convention : Reuss Voigt Hill
#
# Bulk Modulus (GPa) = 58.66499 61.44315 60.05407
# Shear Modulus (GPa) = 26.28862 27.89571 27.09217
#
# Velocity S-wave (km/s) = 3.63935 3.74895 3.69456
# Velocity P-wave (km/s) = 6.87145 7.04955 6.96107
#
# Compressibility (1/GPa) = 0.01704594
#
# Stress axis : x y z
#
# Youngs Moduli (GPa) = 63.93073 52.13801 62.76759
#
# Poissons Ratio (x) = 0.16816 0.37869
# Poissons Ratio (y) = 0.20620 0.47674
# Poissons Ratio (z) = 0.38570 0.39600
#
# Static dielectric constant tensor:
#      x y z
#    x 3.532350 0.000000 0.996340 
#    y 0.000000 3.869970 0.000000 
#    z 0.996340 0.000000 9.016640 
# 
# 
# High freq. dielectric constant tensor:
#      x y z
#    x 1.761730 0.000000 0.002610 
#    y 0.000000 1.787700 0.000000 
#    z 0.002610 0.000000 1.789540 
# 
# From -- ./inp_files/211159.got.cif
#   From: 2010.06.25/outbox.cif.g09.slc.cpg/sg12_106_cif.got.tgz:211159.got - 2010.06.28 00:19:55.
