data_PCOD8105508
_publ_section_title
;
Structure prediction by ZEFSAII (Michael W. Deem and Ramdas Pophale) SiO2 
 PCOD8105508
Probable space group: C 2/M
;
_chemical_formula_sum "Si O2"
_cell_formula_units_Z 64
_cell_length_a 9.237079
_cell_length_b 28.725885
_cell_length_c 13.087206
_cell_angle_alpha 90.000000
_cell_angle_beta 101.769973
_cell_angle_gamma 90.000000
_cell_volume 3399.588568
_symmetry_space_group_name_H-M "C 2/M"
_symmetry_group_IT_number 12
_symmetry_cell_setting 'monoclinic'
loop_
_space_group_symop_operation_xyz
x,y,z
-x,y,-z
-x,-y,-z
x,-y,z
1/2+x,1/2+y,z
1/2-x,1/2+y,-z
1/2-x,1/2-y,-z
1/2+x,1/2-y,z
loop_
_atom_site_type_symbol
_atom_site_label
_atom_site_fract_x
_atom_site_fract_y
_atom_site_fract_z
Si Si1 0.166358 0.297716 0.390751
Si Si2 0.355405 0.448190 0.916778
Si Si3 0.651753 0.055569 0.062557
Si Si4 0.323814 0.946199 0.707098
Si Si5 0.891941 0.876064 0.389004
Si Si6 0.406629 0.946268 0.391232
Si Si7 0.821911 0.704269 0.366532
Si Si8 0.344604 0.615729 0.719309
O O1 0.258817 0.339438 0.353715
O O2 0.188689 0.305222 0.514464
O O3 0.239942 0.253544 0.345343
O O4 0.989617 0.295807 0.346614
O O5 0.301233 0.500000 0.867703
O O6 0.365986 0.409959 0.830073
O O7 0.500000 0.457984 0.000000
O O8 0.256223 0.425389 0.989700
O O9 0.689403 0.075051 0.180636
O O10 0.653519 0.000000 0.069296
O O11 0.500000 0.075695 0.000000
O O12 0.197893 0.924394 0.615744
O O13 0.492308 0.937552 0.694137
O O14 0.286381 0.000000 0.698794
O O15 0.000000 0.866052 0.500000
O O16 0.993624 0.877178 0.303627
O O17 0.500000 0.927308 0.500000
O O18 0.256328 0.917267 0.366030
O O19 0.364642 0.000000 0.400514
O O20 0.734820 0.665969 0.286874
#
# Coordination Sequence:
#
# PCOD8105508 Si02
#       8
#     8   8   8   8   8   8   8   8
#     4  10  21  38  57  83 114 146 182 230 277 341
#     4  10  21  37  55  79 113 152 197 249 295 334
#     4   9  17  32  54  76  98 133 185 243 292 329
#     4  10  21  36  53  76 110 151 195 242 286 336
#     4  12  23  35  51  79 115 151 190 226 272 338
#     4  10  21  35  50  74 113 158 196 232 282 344
#     4  10  21  36  61  83 111 144 183 231 285 336
#     4  12  22  33  56  83 110 151 192 235 288 346
#
# _framework density 18.825809
#
# number of rings (size 3 to 8) (size 9 to 14) (size 15 to 20)
#    0.000    1.625    1.250    4.125    3.500    4.250 
#    0.000    0.000    0.000    0.000    0.000    8.750 
#    0.000    0.000    0.000    0.250    0.000    0.000 
#
# Total GULP energy -396460.075696 kJ/mol
# GULP energy per Si atom -12389.377366 kJ/mol
# Density = 1.878296 g / cm^3
# Si number density = 18.825809 Si / 1000 Ang^3
#
#
#
# Elastic Constant Matrix: (Units=GPa)
#
#
# Indices 1 2 3 4 5 6 
#
# 1 126.5983 52.2095 23.3641 0.0000 -16.1002 0.0000
# 2 52.2095 93.9440 42.2144 0.0000 -5.1004 0.0000
# 3 23.3641 42.2144 78.6177 0.0000 -12.4954 0.0000
# 4 0.0000 0.0000 0.0000 21.4176 0.0000 -0.8268
# 5 -16.1002 -5.1004 -12.4954 0.0000 29.7242 0.0000
# 6 0.0000 0.0000 0.0000 -0.8268 0.0000 29.4539
#
#
#
# Elastic Compliance Matrix: (Units=1/GPa)
#
#
# Indices 1 2 3 4 5 6 
#
# 1 0.010963 -0.006219 0.000917 0.000000 0.005257 0.000000
# 2 -0.006219 0.017577 -0.008193 0.000000 -0.003797 0.000000
# 3 0.000917 -0.008193 0.017898 0.000000 0.006615 0.000000
# 4 0.000000 0.000000 0.000000 0.046741 0.000000 0.001312
# 5 0.005257 -0.003797 0.006615 0.000000 0.038619 0.000000
# 6 0.000000 0.000000 0.000000 0.001312 0.000000 0.033988
#
#
# Mechanical properties :
#
#
# Convention : Reuss Voigt Hill
#
# Bulk Modulus (GPa) = 51.42288 59.41508 55.41898
# Shear Modulus (GPa) = 25.09295 28.21063 26.65179
#
# Velocity S-wave (km/s) = 3.65485 3.87526 3.76667
# Velocity P-wave (km/s) = 6.72198 7.18696 6.95836
#
# Compressibility (1/GPa) = 0.01944660
#
# Stress axis : x y z
#
# Youngs Moduli (GPa) = 91.21431 56.89400 55.87244
#
# Poissons Ratio (x) = 0.35385 -0.05123
# Poissons Ratio (y) = 0.56730 0.45776
# Poissons Ratio (z) = -0.08364 0.46613
#
# Static dielectric constant tensor:
#      x y z
#    x 3.673110 0.000000 -0.140470 
#    y 0.000000 3.352650 0.000000 
#    z -0.140470 0.000000 3.354240 
# 
# 
# High freq. dielectric constant tensor:
#      x y z
#    x 1.753620 0.000000 -0.010380 
#    y 0.000000 1.710690 0.000000 
#    z -0.010380 0.000000 1.705320 
# 
# From -- ./inp_files/125749.got.cif
#   From: 2010.06.25/outbox.cif.g09.slc.cpg/sg12_63_cif.got.tgz:125749.got - 2010.06.28 00:19:55.
