data_PCOD8105304
_publ_section_title
;
Structure prediction by ZEFSAII (Michael W. Deem and Ramdas Pophale) SiO2 
 PCOD8105304
Probable space group: C 2/M
;
_chemical_formula_sum "Si O2"
_cell_formula_units_Z 56
_cell_length_a 14.224142
_cell_length_b 23.212670
_cell_length_c 24.478769
_cell_angle_alpha 90.000000
_cell_angle_beta 156.675600
_cell_angle_gamma 90.000000
_cell_volume 3200.120974
_symmetry_space_group_name_H-M "C 2/M"
_symmetry_group_IT_number 12
_symmetry_cell_setting 'monoclinic'
loop_
_space_group_symop_operation_xyz
x,y,z
-x,y,-z
-x,-y,-z
x,-y,z
1/2+x,1/2+y,z
1/2-x,1/2+y,-z
1/2-x,1/2-y,-z
1/2+x,1/2-y,z
loop_
_atom_site_type_symbol
_atom_site_label
_atom_site_fract_x
_atom_site_fract_y
_atom_site_fract_z
Si Si1 0.730658 0.217301 0.864385
Si Si2 0.614138 0.825486 0.409952
Si Si3 0.958840 0.434973 0.567444
Si Si4 0.481297 0.738174 0.425162
Si Si5 0.383214 0.434658 0.714078
Si Si6 0.690851 0.152962 0.059522
Si Si7 0.451757 0.204632 0.122520
O O1 0.592651 0.202940 0.736004
O O2 0.712982 0.285483 0.867586
O O3 0.612139 0.181120 0.851055
O O4 0.000000 0.197529 0.000000
O O5 0.572709 0.893256 0.397327
O O6 0.603099 0.794446 0.463281
O O7 0.868255 0.816949 0.515894
O O8 0.971025 0.500000 0.596593
O O9 0.736077 0.427782 0.408516
O O10 0.198262 0.419241 0.663014
O O11 0.500000 0.744251 0.500000
O O12 0.210947 0.733017 0.261445
O O13 0.474977 0.500000 0.770389
O O14 0.596742 0.390931 0.833178
O O15 0.500000 0.127629 0.000000
O O16 0.560324 0.156374 0.930847
O O17 0.250000 0.250000 0.000000
#
# Coordination Sequence:
#
# PCOD8105304 Si02
#       7
#     8   8   8   8   8   8   8
#     4  10  21  36  51  85 115 148 186 219 281 345
#     4  11  23  33  60  81 111 150 185 229 275 335
#     4   9  21  37  56  80 108 144 187 233 278 323
#     4  11  23  36  52  89 116 141 187 230 278 334
#     4   9  20  37  56  81 108 143 189 232 278 325
#     4  10  21  33  55  79 116 147 182 222 277 339
#     4  10  21  36  52  75 120 152 174 221 282 331
#
# _framework density 17.499338000000002
#
# number of rings (size 3 to 8) (size 9 to 14) (size 15 to 20)
#    0.000    2.000    1.429    3.429   14.000    0.286 
#    0.000    0.000    0.000    1.714    0.000    0.000 
#    0.000    0.000    0.000    0.000    0.000    0.000 
#
# Total GULP energy -347148.019049 kJ/mol
# GULP energy per Si atom -12398.143537 kJ/mol
# Density = 1.745951 g / cm^3
# Si number density = 17.499338 Si / 1000 Ang^3
#
#
#
# Elastic Constant Matrix: (Units=GPa)
#
#
# Indices 1 2 3 4 5 6 
#
# 1 114.7884 40.0919 35.5557 0.0014 1.3906 -0.0002
# 2 40.0919 66.1193 31.2714 0.0070 -5.8604 -0.0035
# 3 35.5557 31.2714 109.9585 -0.0561 6.4137 -0.0096
# 4 0.0014 0.0070 -0.0561 16.7756 -0.0001 5.9673
# 5 1.3906 -5.8604 6.4137 -0.0001 24.5028 0.0063
# 6 -0.0002 -0.0035 -0.0096 5.9673 0.0063 20.3180
#
#
#
# Elastic Compliance Matrix: (Units=1/GPa)
#
#
# Indices 1 2 3 4 5 6 
#
# 1 0.011481 -0.006238 -0.001842 -0.000005 -0.001661 0.000000
# 2 -0.006238 0.021644 -0.004530 -0.000026 0.006717 0.000007
# 3 -0.001842 -0.004530 0.011206 0.000042 -0.003912 -0.000007
# 4 -0.000005 -0.000026 0.000042 0.066565 -0.000012 -0.019550
# 5 -0.001661 0.006717 -0.003912 -0.000012 0.043536 -0.000011
# 6 0.000000 0.000007 -0.000007 -0.019550 -0.000011 0.054959
#
#
# Mechanical properties :
#
#
# Convention : Reuss Voigt Hill
#
# Bulk Modulus (GPa) = 52.32169 56.07824 54.19997
# Shear Modulus (GPa) = 20.74845 24.58244 22.66545
#
# Velocity S-wave (km/s) = 3.44709 3.75208 3.60282
# Velocity P-wave (km/s) = 6.76812 7.13347 6.95319
#
# Compressibility (1/GPa) = 0.01911253
#
# Stress axis : x y z
#
# Youngs Moduli (GPa) = 87.10138 46.20121 89.23469
#
# Poissons Ratio (x) = 0.28819 0.16433
# Poissons Ratio (y) = 0.54332 0.40426
# Poissons Ratio (z) = 0.16040 0.20930
#
# Static dielectric constant tensor:
#      x y z
#    x 3.746770 -0.000010 0.019560 
#    y -0.000010 2.999340 -0.000080 
#    z 0.019560 -0.000080 3.271530 
# 
# 
# High freq. dielectric constant tensor:
#      x y z
#    x 1.687710 0.000000 0.007110 
#    y 0.000000 1.636020 -0.000010 
#    z 0.007110 -0.000010 1.683270 
# 
# From -- ./inp_files/362220.got.cif
#   From: 2010.06.25/outbox.cif.g09.slc.cpg/sg12_182_cif.got.tgz:362220.got - 2010.06.28 00:19:55.
