data_PCOD8105212
_publ_section_title
;
Structure prediction by ZEFSAII (Michael W. Deem and Ramdas Pophale) SiO2 
 PCOD8105212
Probable space group: C 2/M
;
_chemical_formula_sum "Si O2"
_cell_formula_units_Z 44
_cell_length_a 17.967282
_cell_length_b 14.549143
_cell_length_c 9.253352
_cell_angle_alpha 90.000000
_cell_angle_beta 75.226905
_cell_angle_gamma 90.000000
_cell_volume 2338.944189
_symmetry_space_group_name_H-M "C 2/M"
_symmetry_group_IT_number 12
_symmetry_cell_setting 'monoclinic'
loop_
_space_group_symop_operation_xyz
x,y,z
-x,y,-z
-x,-y,-z
x,-y,z
1/2+x,1/2+y,z
1/2-x,1/2+y,-z
1/2-x,1/2-y,-z
1/2+x,1/2-y,z
loop_
_atom_site_type_symbol
_atom_site_label
_atom_site_fract_x
_atom_site_fract_y
_atom_site_fract_z
Si Si1 0.858431 0.000000 0.080787
Si Si2 0.164904 0.000000 0.430690
Si Si3 0.539139 0.500000 0.245385
Si Si4 0.418772 0.835979 0.355179
Si Si5 0.399652 0.372204 0.309824
Si Si6 0.662588 0.000000 0.763610
Si Si7 0.814281 0.500000 0.915119
Si Si8 0.583102 0.897944 0.333169
O O1 0.866378 0.090849 0.174749
O O2 0.777158 0.000000 0.040537
O O3 0.925697 0.000000 0.930959
O O4 0.104713 0.000000 0.331150
O O5 0.153549 0.090839 0.533442
O O6 0.249378 0.000000 0.325436
O O7 0.486452 0.409433 0.290768
O O8 0.395852 0.736769 0.307532
O O9 0.378604 0.909477 0.273298
O O10 0.511111 0.845084 0.298811
O O11 0.389374 0.846292 0.535228
O O12 0.654185 0.000000 0.939441
O O13 0.847047 0.408305 0.816731
O O14 0.554828 0.000000 0.393201
#
# Coordination Sequence:
#
# PCOD8105212 Si02
#       8
#     4   4   4   8   8   4   4   8
#     4  10  21  46  60  86 121 163 193 238 307 352
#     4  10  23  38  62  90 115 157 199 254 291 342
#     4  10  20  44  62  86 119 154 203 242 300 346
#     4  11  21  39  64  92 117 151 206 242 296 348
#     4  10  23  38  66  89 113 157 201 252 287 353
#     4  12  22  41  58  90 125 157 195 246 295 359
#     4  10  22  41  60  82 123 167 191 242 299 353
#     4   9  20  39  61  85 118 164 188 245 291 348
#
# _framework density 18.811907999999999
#
# number of rings (size 3 to 8) (size 9 to 14) (size 15 to 20)
#    0.545    1.455    2.727    2.727   10.182    2.182 
#    6.545    0.909    0.000    0.000    0.000    0.000 
#    0.000    0.000    0.000    0.000    0.000    0.000 
#
# Total GULP energy -272730.991035 kJ/mol
# GULP energy per Si atom -12396.863229 kJ/mol
# Density = 1.876909 g / cm^3
# Si number density = 18.811908 Si / 1000 Ang^3
#
#
#
# Elastic Constant Matrix: (Units=GPa)
#
#
# Indices 1 2 3 4 5 6 
#
# 1 52.3144 33.5208 36.8758 0.0000 9.2767 0.0000
# 2 33.5208 141.9919 38.4392 0.0000 5.4082 0.0000
# 3 36.8758 38.4392 119.0022 0.0000 -0.4332 0.0000
# 4 0.0000 0.0000 0.0000 1.9963 0.0000 -9.7527
# 5 9.2767 5.4082 -0.4332 0.0000 36.6234 0.0000
# 6 0.0000 0.0000 0.0000 -9.7527 0.0000 23.2747
#
#
#
# Elastic Compliance Matrix: (Units=1/GPa)
#
#
# Indices 1 2 3 4 5 6 
#
# 1 0.028325 -0.004441 -0.007367 0.000000 -0.006606 0.000000
# 2 -0.004441 0.008464 -0.001358 0.000000 -0.000141 0.000000
# 3 -0.007367 -0.001358 0.011133 0.000000 0.002198 0.000000
# 4 0.000000 0.000000 0.000000 -0.478386 0.000000 -0.200455
# 5 -0.006606 -0.000141 0.002198 0.000000 0.029025 0.000000
# 6 0.000000 0.000000 0.000000 -0.200455 0.000000 -0.041031
#
#
# Mechanical properties :
#
#
# Convention : Reuss Voigt Hill
#
# Bulk Modulus (GPa) = 46.31849 58.99778 52.65814
# Shear Modulus (GPa) = -12.22671 26.01040 6.89184
#
# Velocity S-wave (km/s) = -2.55217 3.72244 1.91612
# Velocity P-wave (km/s) = 3.99882 7.06438 5.74004
#
# Compressibility (1/GPa) = 0.02158965
#
# Stress axis : x y z
#
# Youngs Moduli (GPa) = 35.30465 118.14510 89.82500
#
# Poissons Ratio (x) = 0.52467 0.66172
# Poissons Ratio (y) = 0.15679 0.12202
# Poissons Ratio (z) = 0.26008 0.16049
#
# Static dielectric constant tensor:
#      x y z
#    x 3.392110 0.000000 -0.025930 
#    y 0.000000 3.210100 0.000000 
#    z -0.025930 0.000000 3.501820 
# 
# 
# High freq. dielectric constant tensor:
#      x y z
#    x 1.732710 0.000000 0.002810 
#    y 0.000000 1.708700 0.000000 
#    z 0.002810 0.000000 1.738590 
# 
# From -- ./inp_files/73188.got.cif
#   From: 2010.06.25/outbox.cif.g09.slc.cpg/sg12_37_cif.got.tgz:73188.got - 2010.06.28 00:19:55.
