data_PCOD8105590
_publ_section_title
;
Structure prediction by ZEFSAII (Michael W. Deem and Ramdas Pophale) SiO2 
 PCOD8105590
Probable space group: C 2/M
;
_chemical_formula_sum "Si O2"
_cell_formula_units_Z 64
_cell_length_a 29.594655
_cell_length_b 9.280698
_cell_length_c 14.748731
_cell_angle_alpha 90.000000
_cell_angle_beta 59.622208
_cell_angle_gamma 90.000000
_cell_volume 3494.727202
_symmetry_space_group_name_H-M "C 2/M"
_symmetry_group_IT_number 12
_symmetry_cell_setting 'monoclinic'
loop_
_space_group_symop_operation_xyz
x,y,z
-x,y,-z
-x,-y,-z
x,-y,z
1/2+x,1/2+y,z
1/2-x,1/2+y,-z
1/2-x,1/2-y,-z
1/2+x,1/2-y,z
loop_
_atom_site_type_symbol
_atom_site_label
_atom_site_fract_x
_atom_site_fract_y
_atom_site_fract_z
Si Si1 0.605461 0.667237 0.730507
Si Si2 0.175661 0.831564 0.826616
Si Si3 0.717280 0.665208 0.276633
Si Si4 0.628651 0.333932 0.503460
Si Si5 0.002668 0.670436 0.891549
Si Si6 0.938423 0.664195 0.562103
Si Si7 0.126701 0.834867 0.235072
Si Si8 0.901173 0.168006 0.938167
O O1 0.589069 0.500000 0.758171
O O2 0.649422 0.711213 0.758250
O O3 0.631569 0.698883 0.606946
O O4 0.554843 0.765316 0.794894
O O5 0.231588 0.760140 0.778428
O O6 0.184823 0.000000 0.826335
O O7 0.137911 0.775998 0.944712
O O8 0.734883 0.500000 0.261290
O O9 0.683862 0.705538 0.400318
O O10 0.683266 0.699541 0.221216
O O11 0.615150 0.500000 0.497661
O O12 0.582474 0.240640 0.507021
O O13 0.002024 0.500000 0.876817
O O14 0.954015 0.740153 0.888618
O O15 0.000000 0.711431 0.000000
O O16 0.919367 0.500000 0.580155
O O17 0.917455 0.737315 0.674600
O O18 0.000000 0.677734 0.500000
O O19 0.128044 0.803152 0.127005
O O20 0.111641 0.000000 0.270537
O O21 0.915382 0.000000 0.937076
#
# Coordination Sequence:
#
# PCOD8105590 Si02
#       8
#     8   8   8   8   8   8   8   8
#     4  10  21  38  59  83 112 149 191 230 272 329
#     4  10  21  36  57  84 112 144 189 233 275 329
#     4   9  19  37  57  79 111 145 185 234 281 328
#     4   9  20  38  58  80 108 147 190 228 272 332
#     4  11  23  37  55  82 117 150 183 229 284 332
#     4  10  21  35  52  79 114 145 178 230 285 329
#     4   9  20  38  58  80 108 147 190 228 272 332
#     4  10  21  38  59  83 112 149 191 230 272 329
#
# _framework density 18.313302
#
# number of rings (size 3 to 8) (size 9 to 14) (size 15 to 20)
#    0.000    2.250    1.250    1.500    1.750    6.500 
#    0.000    0.000    0.000    0.000    0.000    0.000 
#    0.000    0.000    0.000    0.000    0.000    0.000 
#
# Total GULP energy -396893.017667 kJ/mol
# GULP energy per Si atom -12402.906802 kJ/mol
# Density = 1.827162 g / cm^3
# Si number density = 18.313302 Si / 1000 Ang^3
#
#
#
# Elastic Constant Matrix: (Units=GPa)
#
#
# Indices 1 2 3 4 5 6 
#
# 1 116.1552 54.0223 50.1868 0.0000 3.0979 0.0000
# 2 54.0223 71.5478 32.9179 0.0000 -3.3759 0.0000
# 3 50.1868 32.9179 62.2690 0.0000 21.7256 0.0000
# 4 0.0000 0.0000 0.0000 3.9419 0.0000 -19.8416
# 5 3.0979 -3.3759 21.7256 0.0000 33.2674 0.0000
# 6 0.0000 0.0000 0.0000 -19.8416 0.0000 22.8265
#
#
#
# Elastic Compliance Matrix: (Units=1/GPa)
#
#
# Indices 1 2 3 4 5 6 
#
# 1 0.016788 -0.007060 -0.011660 0.000000 0.005335 0.000000
# 2 -0.007060 0.024923 -0.011134 0.000000 0.010458 0.000000
# 3 -0.011660 -0.011134 0.040612 0.000000 -0.026566 0.000000
# 4 0.000000 0.000000 0.000000 -0.075159 0.000000 -0.065331
# 5 0.005335 0.010458 -0.026566 0.000000 0.047973 0.000000
# 6 0.000000 0.000000 0.000000 -0.065331 0.000000 -0.012979
#
#
# Mechanical properties :
#
#
# Convention : Reuss Voigt Hill
#
# Bulk Modulus (GPa) = 44.21807 58.24734 51.23271
# Shear Modulus (GPa) = 45.70207 19.53016 32.61612
#
# Velocity S-wave (km/s) = 5.00098 3.26919 4.22478
# Velocity P-wave (km/s) = 7.58579 6.79156 7.19963
#
# Compressibility (1/GPa) = 0.02261519
#
# Stress axis : x y z
#
# Youngs Moduli (GPa) = 59.56577 40.12328 24.62329
#
# Poissons Ratio (x) = 0.28325 0.28711
# Poissons Ratio (y) = 0.42051 0.27416
# Poissons Ratio (z) = 0.69454 0.44675
#
# Static dielectric constant tensor:
#      x y z
#    x 3.350860 0.000000 0.214040 
#    y 0.000000 3.384330 0.000000 
#    z 0.214040 0.000000 3.588860 
# 
# 
# High freq. dielectric constant tensor:
#      x y z
#    x 1.710730 0.000000 0.006990 
#    y 0.000000 1.708370 0.000000 
#    z 0.006990 0.000000 1.715290 
# 
# From -- ./inp_files/249075.got.cif
#   From: 2010.06.25/outbox.cif.g09.slc.cpg/sg12_125_cif.got.tgz:249075.got - 2010.06.28 00:19:55.
