data_PCOD8105023
_publ_section_title
;
Structure prediction by ZEFSAII (Michael W. Deem and Ramdas Pophale) SiO2 
 PCOD8105023
Probable space group: C 2/M
;
_chemical_formula_sum "Si O2"
_cell_formula_units_Z 48
_cell_length_a 29.330105
_cell_length_b 8.834440
_cell_length_c 14.862513
_cell_angle_alpha 90.000000
_cell_angle_beta 139.612340
_cell_angle_gamma 90.000000
_cell_volume 2495.343399
_symmetry_space_group_name_H-M "C 2/M"
_symmetry_group_IT_number 12
_symmetry_cell_setting 'monoclinic'
loop_
_space_group_symop_operation_xyz
x,y,z
-x,y,-z
-x,-y,-z
x,-y,z
1/2+x,1/2+y,z
1/2-x,1/2+y,-z
1/2-x,1/2-y,-z
1/2+x,1/2-y,z
loop_
_atom_site_type_symbol
_atom_site_label
_atom_site_fract_x
_atom_site_fract_y
_atom_site_fract_z
Si Si1 0.078630 0.178322 0.393867
Si Si2 0.674402 0.822813 0.890603
Si Si3 0.826418 0.321291 0.613599
Si Si4 0.421186 0.674308 0.901394
Si Si5 0.423386 0.823121 0.420665
Si Si6 0.421790 0.673641 0.110818
O O1 0.133333 0.263651 0.413456
O O2 0.094916 0.224039 0.520263
O O3 0.000443 0.231783 0.249077
O O4 0.087867 0.000000 0.394263
O O5 0.631936 0.774753 0.738180
O O6 0.633690 0.771740 0.918163
O O7 0.683816 0.000000 0.909790
O O8 0.750000 0.750000 0.000000
O O9 0.819377 0.500000 0.598376
O O10 0.750000 0.250000 0.500000
O O11 0.867016 0.275713 0.765097
O O12 0.413720 0.500000 0.858973
O O13 0.500000 0.731121 0.000000
O O14 0.403458 0.694495 0.979063
O O15 0.500000 0.779332 0.500000
O O16 0.419086 0.000000 0.438829
O O17 0.414541 0.500000 0.130055
#
# Coordination Sequence:
#
# PCOD8105023 Si02
#       6
#     8   8   8   8   8   8
#     4  11  22  39  65  95 124 161 207 255 308 370
#     4  11  24  41  62  88 126 163 202 254 309 364
#     4  12  26  43  64  92 128 166 208 259 313 370
#     4  10  20  40  66  93 127 165 204 252 308 369
#     4  10  21  39  62  91 124 162 205 254 307 362
#     4  10  21  38  64  93 124 161 203 249 305 365
#
# _framework density 19.23583
#
# number of rings (size 3 to 8) (size 9 to 14) (size 15 to 20)
#    0.000    1.333    3.333    2.500    0.000    4.667 
#    0.000    1.667    0.000    0.000    0.000    0.000 
#    0.000    0.000    0.000    0.000    0.000    0.000 
#
# Total GULP energy -297754.539123 kJ/mol
# GULP energy per Si atom -12406.439130 kJ/mol
# Density = 1.919205 g / cm^3
# Si number density = 19.235830 Si / 1000 Ang^3
#
#
#
# Elastic Constant Matrix: (Units=GPa)
#
#
# Indices 1 2 3 4 5 6 
#
# 1 135.5046 62.3275 83.1919 0.0000 7.3002 0.0000
# 2 62.3275 95.5212 66.8578 0.0000 5.8817 0.0000
# 3 83.1919 66.8578 147.7008 0.0000 13.3908 0.0000
# 4 0.0000 0.0000 0.0000 34.8919 0.0000 -1.4999
# 5 7.3002 5.8817 13.3908 0.0000 38.1849 0.0000
# 6 0.0000 0.0000 0.0000 -1.4999 0.0000 38.5118
#
#
#
# Elastic Compliance Matrix: (Units=1/GPa)
#
#
# Indices 1 2 3 4 5 6 
#
# 1 0.012607 -0.004766 -0.004949 0.000000 0.000059 0.000000
# 2 -0.004766 0.017126 -0.005072 0.000000 0.000052 0.000000
# 3 -0.004949 -0.005072 0.012082 0.000000 -0.002509 0.000000
# 4 0.000000 0.000000 0.000000 0.028708 0.000000 0.001118
# 5 0.000059 0.000052 -0.002509 0.000000 0.027049 0.000000
# 6 0.000000 0.000000 0.000000 0.001118 0.000000 0.026010
#
#
# Mechanical properties :
#
#
# Convention : Reuss Voigt Hill
#
# Bulk Modulus (GPa) = 81.70088 89.27566 85.48827
# Shear Modulus (GPa) = 31.79941 33.40768 32.60355
#
# Velocity S-wave (km/s) = 4.07029 4.17195 4.12143
# Velocity P-wave (km/s) = 8.04084 8.34977 8.19676
#
# Compressibility (1/GPa) = 0.01223977
#
# Stress axis : x y z
#
# Youngs Moduli (GPa) = 79.31996 58.39166 82.77097
#
# Poissons Ratio (x) = 0.27829 0.40963
# Poissons Ratio (y) = 0.37803 0.41985
# Poissons Ratio (z) = 0.39256 0.29619
#
# Static dielectric constant tensor:
#      x y z
#    x 3.527220 0.000000 0.032280 
#    y 0.000000 3.506390 0.000000 
#    z 0.032280 0.000000 3.652300 
# 
# 
# High freq. dielectric constant tensor:
#      x y z
#    x 1.759740 0.000000 -0.005130 
#    y 0.000000 1.749080 0.000000 
#    z -0.005130 0.000000 1.756310 
# 
# From -- ./inp_files/230376.got.cif
#   From: 2010.06.25/outbox.cif.g09.slc.cpg/sg12_116_cif.got.tgz:230376.got - 2010.06.28 00:19:55.
