data_PCOD8105701
_publ_section_title
;
Structure prediction by ZEFSAII (Michael W. Deem and Ramdas Pophale) SiO2 
 PCOD8105701
Probable space group: C 2/M
;
_chemical_formula_sum "Si O2"
_cell_formula_units_Z 64
_cell_length_a 11.619516
_cell_length_b 22.679449
_cell_length_c 13.136629
_cell_angle_alpha 90.000000
_cell_angle_beta 65.838801
_cell_angle_gamma 90.000000
_cell_volume 3158.555869
_symmetry_space_group_name_H-M "C 2/M"
_symmetry_group_IT_number 12
_symmetry_cell_setting 'monoclinic'
loop_
_space_group_symop_operation_xyz
x,y,z
-x,y,-z
-x,-y,-z
x,-y,z
1/2+x,1/2+y,z
1/2-x,1/2+y,-z
1/2-x,1/2-y,-z
1/2+x,1/2-y,z
loop_
_atom_site_type_symbol
_atom_site_label
_atom_site_fract_x
_atom_site_fract_y
_atom_site_fract_z
Si Si1 0.359457 0.154414 0.763712
Si Si2 0.816355 0.743976 0.194152
Si Si3 0.363512 0.432319 0.502998
Si Si4 0.373078 0.064184 0.109197
Si Si5 0.711665 0.833299 0.978623
Si Si6 0.863576 0.366544 0.309415
Si Si7 0.844474 0.068701 0.268704
Si Si8 0.989667 0.843224 0.889184
O O1 0.316191 0.220697 0.750488
O O2 0.505016 0.144625 0.676520
O O3 0.272023 0.104244 0.742611
O O4 0.353329 0.154347 0.889949
O O5 0.852566 0.716801 0.069241
O O6 0.813255 0.694107 0.280318
O O7 0.920837 0.791663 0.181918
O O8 0.500000 0.412042 0.500000
O O9 0.340520 0.500000 0.544529
O O10 0.250314 0.391324 0.582845
O O11 0.351388 0.425363 0.387045
O O12 0.275686 0.105916 0.087721
O O13 0.401631 0.085475 0.212069
O O14 0.311154 0.000000 0.136368
O O15 0.500000 0.065003 0.000000
O O16 0.854719 0.813014 0.929785
O O17 0.976824 0.097400 0.185118
O O18 0.834087 0.000000 0.240056
O O19 0.000000 0.864357 0.000000
#
# Coordination Sequence:
#
# PCOD8105701 Si02
#       8
#     8   8   8   8   8   8   8   8
#     4  11  22  39  60  96 131 165 209 256 314 381
#     4  10  23  36  62  92 129 171 212 252 303 375
#     4  10  24  48  72  92 119 161 216 269 319 380
#     4  10  21  35  54  89 128 157 200 257 314 377
#     4  11  21  35  57  87 128 174 204 247 306 373
#     4  11  23  40  66  92 121 167 213 264 317 373
#     4  10  24  43  64  92 127 165 211 266 317 380
#     4  11  22  38  59  93 130 170 206 251 308 383
#
# _framework density 20.262425
#
# number of rings (size 3 to 8) (size 9 to 14) (size 15 to 20)
#    0.000    1.500    3.750    1.500    5.250    2.750 
#    0.000    3.750    0.000    0.000    0.000    0.000 
#    0.000    0.000    0.000    0.000    0.000    0.000 
#
# Total GULP energy -396459.473273 kJ/mol
# GULP energy per Si atom -12389.358540 kJ/mol
# Density = 2.021631 g / cm^3
# Si number density = 20.262425 Si / 1000 Ang^3
#
#
#
# Elastic Constant Matrix: (Units=GPa)
#
#
# Indices 1 2 3 4 5 6 
#
# 1 55.3532 2.5628 4.4844 0.0000 -10.7967 0.0000
# 2 2.5628 111.9503 29.0795 0.0000 0.2960 0.0000
# 3 4.4844 29.0795 64.6035 0.0000 -6.2633 0.0000
# 4 0.0000 0.0000 0.0000 19.5365 0.0000 7.9516
# 5 -10.7967 0.2960 -6.2633 0.0000 33.1237 0.0000
# 6 0.0000 0.0000 0.0000 7.9516 0.0000 13.8825
#
#
#
# Elastic Compliance Matrix: (Units=1/GPa)
#
#
# Indices 1 2 3 4 5 6 
#
# 1 0.019336 -0.000302 -0.000606 0.000000 0.006191 0.000000
# 2 -0.000302 0.010151 -0.004652 0.000000 -0.001069 0.000000
# 3 -0.000606 -0.004652 0.017928 0.000000 0.003234 0.000000
# 4 0.000000 0.000000 0.000000 0.066747 0.000000 -0.038231
# 5 0.006191 -0.001069 0.003234 0.000000 0.032829 0.000000
# 6 0.000000 0.000000 0.000000 -0.038231 0.000000 0.093931
#
#
# Mechanical properties :
#
#
# Convention : Reuss Voigt Hill
#
# Bulk Modulus (GPa) = 27.55091 33.79559 30.67325
# Shear Modulus (GPa) = 18.92941 26.36056 22.64499
#
# Velocity S-wave (km/s) = 3.05981 3.61079 3.34666
# Velocity P-wave (km/s) = 5.10977 5.83943 5.48674
#
# Compressibility (1/GPa) = 0.03629644
#
# Stress axis : x y z
#
# Youngs Moduli (GPa) = 51.71594 98.51680 55.77714
#
# Poissons Ratio (x) = 0.02971 0.03382
# Poissons Ratio (y) = 0.01559 0.25946
# Poissons Ratio (z) = 0.03136 0.45827
#
# Static dielectric constant tensor:
#      x y z
#    x 3.734610 0.000000 -0.007840 
#    y 0.000000 4.162040 0.000000 
#    z -0.007840 0.000000 3.501650 
# 
# 
# High freq. dielectric constant tensor:
#      x y z
#    x 1.796930 0.000000 0.004390 
#    y 0.000000 1.806390 0.000000 
#    z 0.004390 0.000000 1.768760 
# 
# From -- ./inp_files/135925.got.cif
#   From: 2010.06.25/outbox.cif.g09.slc.cpg/sg12_68_cif.got.tgz:135925.got - 2010.06.28 00:19:55.
