data_PCOD8105251
_publ_section_title
;
Structure prediction by ZEFSAII (Michael W. Deem and Ramdas Pophale) SiO2 
 PCOD8105251
Probable space group: C 2/M
;
_chemical_formula_sum "Si O2"
_cell_formula_units_Z 44
_cell_length_a 5.743448
_cell_length_b 34.413474
_cell_length_c 13.167177
_cell_angle_alpha 90.000000
_cell_angle_beta 120.123370
_cell_angle_gamma 90.000000
_cell_volume 2251.040325
_symmetry_space_group_name_H-M "C 2/M"
_symmetry_group_IT_number 12
_symmetry_cell_setting 'monoclinic'
loop_
_space_group_symop_operation_xyz
x,y,z
-x,y,-z
-x,-y,-z
x,-y,z
1/2+x,1/2+y,z
1/2-x,1/2+y,-z
1/2-x,1/2-y,-z
1/2+x,1/2-y,z
loop_
_atom_site_type_symbol
_atom_site_label
_atom_site_fract_x
_atom_site_fract_y
_atom_site_fract_z
Si Si1 0.515252 0.104983 0.211962
Si Si2 0.830803 0.955956 0.159277
Si Si3 0.679108 0.924430 0.626204
Si Si4 0.993904 0.149639 0.619345
Si Si5 0.393289 0.264345 0.632764
Si Si6 0.500000 0.411936 0.000000
O O1 0.603784 0.071137 0.155784
O O2 0.510455 0.086516 0.322103
O O3 0.714583 0.141692 0.263998
O O4 0.221370 0.116477 0.102311
O O5 0.093927 0.954264 0.288344
O O6 0.884745 0.940763 0.058888
O O7 0.726344 0.000000 0.131922
O O8 0.500000 0.944939 0.500000
O O9 0.798424 0.884973 0.606262
O O10 0.000000 0.154015 0.500000
O O11 0.881378 0.189256 0.641900
O O12 0.250000 0.250000 0.500000
O O13 0.713559 0.251577 0.690342
#
# Coordination Sequence:
#
# PCOD8105251 Si02
#       6
#     8   8   8   8   8   4
#     4  10  22  36  56  84 110 152 191 239 294 347
#     4  10  22  38  57  82 111 144 188 248 300 347
#     4  10  21  34  55  80 114 155 194 227 288 359
#     4  11  20  33  57  80 120 152 190 236 293 349
#     4  10  21  32  51  87 123 159 197 244 293 356
#     4  10  21  40  60  82 108 138 204 240 294 352
#
# _framework density 19.546517999999999
#
# number of rings (size 3 to 8) (size 9 to 14) (size 15 to 20)
#    0.000    1.818    3.636    0.818    5.091    4.727 
#    0.000    0.909    0.000    0.000    0.000    1.273 
#    0.000    0.000    0.000    0.000    0.000    0.000 
#
# Total GULP energy -272611.298485 kJ/mol
# GULP energy per Si atom -12391.422658 kJ/mol
# Density = 1.950203 g / cm^3
# Si number density = 19.546518 Si / 1000 Ang^3
#
#
#
# Elastic Constant Matrix: (Units=GPa)
#
#
# Indices 1 2 3 4 5 6 
#
# 1 96.4926 5.6941 18.6266 0.0000 -10.3040 0.0000
# 2 5.6941 66.0497 7.6845 0.0000 5.3198 0.0000
# 3 18.6266 7.6845 118.1017 0.0000 11.6963 0.0000
# 4 0.0000 0.0000 0.0000 12.5171 0.0000 -1.8274
# 5 -10.3040 5.3198 11.6963 0.0000 33.0626 0.0000
# 6 0.0000 0.0000 0.0000 -1.8274 0.0000 21.7312
#
#
#
# Elastic Compliance Matrix: (Units=1/GPa)
#
#
# Indices 1 2 3 4 5 6 
#
# 1 0.011321 -0.001085 -0.002157 0.000000 0.004466 0.000000
# 2 -0.001085 0.015513 -0.000578 0.000000 -0.002630 0.000000
# 3 -0.002157 -0.000578 0.009226 0.000000 -0.003843 0.000000
# 4 0.000000 0.000000 0.000000 0.080884 0.000000 0.006802
# 5 0.004466 -0.002630 -0.003843 0.000000 0.033420 0.000000
# 6 0.000000 0.000000 0.000000 0.006802 0.000000 0.046589
#
#
# Mechanical properties :
#
#
# Convention : Reuss Voigt Hill
#
# Bulk Modulus (GPa) = 35.18682 38.29493 36.74087
# Shear Modulus (GPa) = 23.35743 30.03807 26.69775
#
# Velocity S-wave (km/s) = 3.46058 3.92439 3.69976
# Velocity P-wave (km/s) = 5.83165 6.33788 6.09002
#
# Compressibility (1/GPa) = 0.02841974
#
# Stress axis : x y z
#
# Youngs Moduli (GPa) = 88.33310 64.46347 108.39293
#
# Poissons Ratio (x) = 0.06992 0.23382
# Poissons Ratio (y) = 0.09581 0.06264
# Poissons Ratio (z) = 0.19055 0.03725
#
# Static dielectric constant tensor:
#      x y z
#    x 4.355090 0.000000 -0.231970 
#    y 0.000000 3.325190 0.000000 
#    z -0.231970 0.000000 4.366640 
# 
# 
# High freq. dielectric constant tensor:
#      x y z
#    x 1.783400 0.000000 0.006430 
#    y 0.000000 1.729980 0.000000 
#    z 0.006430 0.000000 1.747090 
# 
# From -- ./inp_files/192473.got.cif
#   From: 2010.06.25/outbox.cif.g09.slc.cpg/sg12_97_cif.got.tgz:192473.got - 2010.06.28 00:19:55.
