data_PCOD8105484
_publ_section_title
;
Structure prediction by ZEFSAII (Michael W. Deem and Ramdas Pophale) SiO2 
 PCOD8105484
Probable space group: C 2/M
;
_chemical_formula_sum "Si O2"
_cell_formula_units_Z 64
_cell_length_a 28.322980
_cell_length_b 9.650344
_cell_length_c 25.969278
_cell_angle_alpha 90.000000
_cell_angle_beta 28.734712
_cell_angle_gamma 90.000000
_cell_volume 3412.441866
_symmetry_space_group_name_H-M "C 2/M"
_symmetry_group_IT_number 12
_symmetry_cell_setting 'monoclinic'
loop_
_space_group_symop_operation_xyz
x,y,z
-x,y,-z
-x,-y,-z
x,-y,z
1/2+x,1/2+y,z
1/2-x,1/2+y,-z
1/2-x,1/2-y,-z
1/2+x,1/2-y,z
loop_
_atom_site_type_symbol
_atom_site_label
_atom_site_fract_x
_atom_site_fract_y
_atom_site_fract_z
Si Si1 0.779145 0.835325 0.217614
Si Si2 0.566476 0.165481 0.389795
Si Si3 0.323154 0.345197 0.990125
Si Si4 0.254450 0.164173 0.548663
Si Si5 0.108492 0.660801 0.159190
Si Si6 0.366963 0.335785 0.238810
Si Si7 0.468417 0.162774 0.380151
Si Si8 0.073693 0.842347 0.005254
O O1 0.676887 0.775854 0.292889
O O2 0.790173 0.794192 0.267138
O O3 0.778485 0.000000 0.211423
O O4 0.874312 0.775748 0.095025
O O5 0.500000 0.219567 0.500000
O O6 0.517747 0.227145 0.384279
O O7 0.568056 0.000000 0.387073
O O8 0.344839 0.500000 0.949305
O O9 0.395819 0.243488 0.890060
O O10 0.342985 0.331959 0.031249
O O11 0.210163 0.306016 0.090671
O O12 0.250000 0.250000 0.500000
O O13 0.169867 0.215519 0.669602
O O14 0.354343 0.199056 0.483799
O O15 0.247519 0.000000 0.542607
O O16 0.094875 0.500000 0.159338
O O17 0.023050 0.720131 0.277265
O O18 0.375067 0.500000 0.235344
O O19 0.473042 0.269948 0.121591
O O20 0.486253 0.000000 0.365744
O O21 0.045060 0.000000 0.019763
#
# Coordination Sequence:
#
# PCOD8105484 Si02
#       8
#     8   8   8   8   8   8   8   8
#     4   9  15  24  40  64  94 124 153 187 236 291
#     4   9  15  23  39  62  89 121 153 188 233 284
#     4   9  17  28  43  65  91 119 153 190 227 269
#     4  10  21  35  50  69  95 127 162 199 238 280
#     4   9  17  29  44  62  88 121 154 190 229 270
#     4   9  17  28  42  63  93 124 154 192 236 282
#     4   9  17  29  44  63  90 121 154 190 233 280
#     4   9  16  25  40  62  90 122 152 186 234 285
#
# _framework density 18.754897
#
# number of rings (size 3 to 8) (size 9 to 14) (size 15 to 20)
#    0.000    2.875    0.000    1.875    1.750    7.500 
#    0.000    0.000    0.000    0.000    0.000    0.875 
#    0.000   13.000    0.000    0.000    0.000    0.000 
#
# Total GULP energy -396539.149262 kJ/mol
# GULP energy per Si atom -12391.848414 kJ/mol
# Density = 1.871221 g / cm^3
# Si number density = 18.754897 Si / 1000 Ang^3
#
#
#
# Elastic Constant Matrix: (Units=GPa)
#
#
# Indices 1 2 3 4 5 6 
#
# 1 89.4581 15.1566 47.3953 -0.0017 9.9509 0.0005
# 2 15.1566 18.8480 19.5731 -0.0061 5.4514 0.0054
# 3 47.3953 19.5731 146.5172 0.0006 15.8659 0.0018
# 4 -0.0017 -0.0061 0.0006 10.9419 0.0012 2.3689
# 5 9.9509 5.4514 15.8659 0.0012 33.6429 -0.0011
# 6 0.0005 0.0054 0.0018 2.3689 -0.0011 12.4892
#
#
#
# Elastic Compliance Matrix: (Units=1/GPa)
#
#
# Indices 1 2 3 4 5 6 
#
# 1 0.014484 -0.007588 -0.003521 -0.000002 -0.001394 0.000003
# 2 -0.007588 0.066926 -0.005854 0.000045 -0.005840 -0.000037
# 3 -0.003521 -0.005854 0.008990 -0.000004 -0.002250 0.000002
# 4 -0.000002 0.000045 -0.000004 0.095306 -0.000009 -0.018077
# 5 -0.001394 -0.005840 -0.002250 -0.000009 0.032143 0.000007
# 6 0.000003 -0.000037 0.000002 -0.018077 0.000007 0.083498
#
#
# Mechanical properties :
#
#
# Convention : Reuss Voigt Hill
#
# Bulk Modulus (GPa) = 17.70700 46.56369 32.13535
# Shear Modulus (GPa) = 14.12042 22.92801 18.52422
#
# Velocity S-wave (km/s) = 2.74687 3.50023 3.14618
# Velocity P-wave (km/s) = 4.41838 6.42004 5.51085
#
# Compressibility (1/GPa) = 0.05647484
#
# Stress axis : x y z
#
# Youngs Moduli (GPa) = 69.03950 14.94193 111.23958
#
# Poissons Ratio (x) = 0.11338 0.39165
# Poissons Ratio (y) = 0.52388 0.65115
# Poissons Ratio (z) = 0.24307 0.08746
#
# Static dielectric constant tensor:
#      x y z
#    x 3.534810 0.000000 0.042780 
#    y 0.000000 2.749010 0.000010 
#    z 0.042780 0.000010 3.805860 
# 
# 
# High freq. dielectric constant tensor:
#      x y z
#    x 1.739130 0.000000 0.002360 
#    y 0.000000 1.632310 0.000000 
#    z 0.002360 0.000000 1.748290 
# 
# From -- ./inp_files/351743.got.cif
#   From: 2010.06.25/outbox.cif.g09.slc.cpg/sg12_176_cif.got.tgz:351743.got - 2010.06.28 00:19:55.
