data_PCOD8105430
_publ_section_title
;
Structure prediction by ZEFSAII (Michael W. Deem and Ramdas Pophale) SiO2 
 PCOD8105430
Probable space group: C 2/M
;
_chemical_formula_sum "Si O2"
_cell_formula_units_Z 56
_cell_length_a 9.041437
_cell_length_b 30.246082
_cell_length_c 20.766572
_cell_angle_alpha 90.000000
_cell_angle_beta 147.449542
_cell_angle_gamma 90.000000
_cell_volume 3055.537998
_symmetry_space_group_name_H-M "C 2/M"
_symmetry_group_IT_number 12
_symmetry_cell_setting 'monoclinic'
loop_
_space_group_symop_operation_xyz
x,y,z
-x,y,-z
-x,-y,-z
x,-y,z
1/2+x,1/2+y,z
1/2-x,1/2+y,-z
1/2-x,1/2-y,-z
1/2+x,1/2-y,z
loop_
_atom_site_type_symbol
_atom_site_label
_atom_site_fract_x
_atom_site_fract_y
_atom_site_fract_z
Si Si1 0.658989 0.671422 0.769322
Si Si2 0.695061 0.795768 0.512619
Si Si3 0.556917 0.909305 0.877694
Si Si4 0.533143 0.500000 0.854692
Si Si5 0.879100 0.500000 0.862583
Si Si6 0.855377 0.914913 0.852348
Si Si7 0.452789 0.261921 0.909973
Si Si8 0.745612 0.334711 0.264293
O O1 0.473152 0.680489 0.638162
O O2 0.779654 0.717220 0.840425
O O3 0.484129 0.655349 0.766086
O O4 0.878090 0.634670 0.826642
O O5 0.500000 0.784839 0.500000
O O6 0.750000 0.750000 0.500000
O O7 0.539066 0.825849 0.403965
O O8 0.375990 0.953711 0.822369
O O9 0.674314 0.915851 0.849756
O O10 0.822618 0.903541 0.020340
O O11 0.601310 0.500000 0.803660
O O12 0.343857 0.459944 0.808292
O O13 0.832092 0.500000 0.995558
O O14 0.704595 0.879575 0.753878
O O15 0.328341 0.297808 0.815921
O O16 0.500000 0.280392 0.000000
O O17 0.750000 0.250000 0.000000
#
# Coordination Sequence:
#
# PCOD8105430 Si02
#       8
#     8   8   8   4   4   8   8   8
#     4  11  23  39  56  80 111 152 192 234 281 338
#     4  10  22  40  59  78 105 149 199 240 279 328
#     4  10  21  34  56  84 118 148 187 228 282 339
#     4   9  17  33  55  82 117 150 185 221 279 341
#     4   9  17  33  55  82 115 152 181 223 278 344
#     4  10  21  34  55  85 116 149 185 231 280 336
#     4  12  24  35  54  81 114 147 183 229 286 340
#     4  11  23  38  57  80 112 149 193 235 280 337
#
# _framework density 18.327379000000001
#
# number of rings (size 3 to 8) (size 9 to 14) (size 15 to 20)
#    0.000    1.571    2.857    2.143    4.000    4.000 
#    0.000    0.000    0.000    0.857    0.000    6.000 
#    0.000    0.000    0.000    0.000    0.000    0.000 
#
# Total GULP energy -346929.005042 kJ/mol
# GULP energy per Si atom -12390.321609 kJ/mol
# Density = 1.828566 g / cm^3
# Si number density = 18.327379 Si / 1000 Ang^3
#
#
#
# Elastic Constant Matrix: (Units=GPa)
#
#
# Indices 1 2 3 4 5 6 
#
# 1 91.4881 50.4060 40.2790 -0.0003 -7.8519 -0.0001
# 2 50.4060 132.2830 42.5101 -0.0002 -7.6988 0.0000
# 3 40.2790 42.5101 93.5993 0.0022 -14.2218 0.0000
# 4 -0.0003 -0.0002 0.0022 -7.1981 -0.0003 -6.3914
# 5 -7.8519 -7.6988 -14.2218 -0.0003 24.8542 -0.0002
# 6 -0.0001 0.0000 0.0000 -6.3914 -0.0002 37.7438
#
#
#
# Elastic Compliance Matrix: (Units=1/GPa)
#
#
# Indices 1 2 3 4 5 6 
#
# 1 0.015398 -0.004366 -0.004501 -0.000002 0.000937 0.000000
# 2 -0.004366 0.010095 -0.002673 -0.000001 0.000218 0.000000
# 3 -0.004501 -0.002673 0.014778 0.000004 0.006206 0.000001
# 4 -0.000002 -0.000001 0.000004 -0.120767 0.000000 -0.020450
# 5 0.000937 0.000218 0.006206 0.000000 0.044149 0.000000
# 6 0.000000 0.000000 0.000001 -0.020450 0.000000 0.023031
#
#
# Mechanical properties :
#
#
# Convention : Reuss Voigt Hill
#
# Bulk Modulus (GPa) = 58.17149 64.86229 61.51689
# Shear Modulus (GPa) = 322.69314 23.35833 173.02573
#
# Velocity S-wave (km/s) = 13.28359 3.57389 9.72694
# Velocity P-wave (km/s) = 16.34261 7.24555 12.64079
#
# Compressibility (1/GPa) = 0.01719055
#
# Stress axis : x y z
#
# Youngs Moduli (GPa) = 64.94315 99.05934 67.67031
#
# Poissons Ratio (x) = 0.43254 0.30458
# Poissons Ratio (y) = 0.28357 0.18086
# Poissons Ratio (z) = 0.29230 0.26475
#
# Static dielectric constant tensor:
#      x y z
#    x 3.558370 0.000000 -0.045360 
#    y 0.000000 3.436860 0.000000 
#    z -0.045360 0.000000 3.365290 
# 
# 
# High freq. dielectric constant tensor:
#      x y z
#    x 1.729530 0.000000 -0.002390 
#    y 0.000000 1.716180 0.000000 
#    z -0.002390 0.000000 1.685480 
# 
# From -- ./inp_files/200864.got.cif
#   From: 2010.06.25/outbox.cif.g09.slc.cpg/sg12_101_cif.got.tgz:200864.got - 2010.06.28 00:19:55.
