data_PCOD8105043
_publ_section_title
;
Structure prediction by ZEFSAII (Michael W. Deem and Ramdas Pophale) SiO2 
 PCOD8105043
Probable space group: C 2/M
;
_chemical_formula_sum "Si O2"
_cell_formula_units_Z 40
_cell_length_a 15.216187
_cell_length_b 27.293552
_cell_length_c 9.820005
_cell_angle_alpha 90.000000
_cell_angle_beta 154.024638
_cell_angle_gamma 90.000000
_cell_volume 1786.226207
_symmetry_space_group_name_H-M "C 2/M"
_symmetry_group_IT_number 12
_symmetry_cell_setting 'monoclinic'
loop_
_space_group_symop_operation_xyz
x,y,z
-x,y,-z
-x,-y,-z
x,-y,z
1/2+x,1/2+y,z
1/2-x,1/2+y,-z
1/2-x,1/2-y,-z
1/2+x,1/2-y,z
loop_
_atom_site_type_symbol
_atom_site_label
_atom_site_fract_x
_atom_site_fract_y
_atom_site_fract_z
Si Si1 0.943285 0.946344 0.575736
Si Si2 0.795588 0.820426 0.670147
Si Si3 0.844684 0.299959 0.083090
Si Si4 0.781425 0.388111 0.198989
Si Si5 0.272944 0.149804 0.713221
O O1 0.000000 0.953132 0.500000
O O2 0.761018 0.908177 0.320299
O O3 0.879498 0.000000 0.544922
O O4 0.125524 0.926267 0.920475
O O5 0.585525 0.791379 0.394808
O O6 0.780948 0.871563 0.734759
O O7 0.849911 0.831079 0.588064
O O8 0.000000 0.790998 0.000000
O O9 0.802596 0.338823 0.141004
O O10 0.750000 0.250000 0.000000
O O11 0.724955 0.319710 0.783183
O O12 0.000000 0.414276 0.500000
O O13 0.500000 0.158902 0.000000
#
# Coordination Sequence:
#
# PCOD8105043 Si02
#       5
#     8   8   8   8   8
#     4  11  22  39  67  99 132 179 224 268 336 407
#     4  10  20  40  67  95 130 168 217 285 339 378
#     4  10  22  43  66  92 126 181 229 267 334 405
#     4  10  21  41  63  91 133 170 217 279 327 393
#     4  10  21  41  69  93 133 173 217 286 331 386
#
# _framework density 22.39358
#
# number of rings (size 3 to 8) (size 9 to 14) (size 15 to 20)
#    0.000    1.800    4.000    0.000    0.000    0.800 
#   10.800    8.000    0.000    0.000    0.000    0.000 
#    0.000    0.000    0.000    0.000    0.000    0.000 
#
# Total GULP energy -247828.991638 kJ/mol
# GULP energy per Si atom -12391.449582 kJ/mol
# Density = 2.234261 g / cm^3
# Si number density = 22.393580 Si / 1000 Ang^3
#
#
#
# Elastic Constant Matrix: (Units=GPa)
#
#
# Indices 1 2 3 4 5 6 
#
# 1 76.2166 36.2312 39.3319 -0.0001 -17.5292 0.0000
# 2 36.2312 134.7027 48.8079 0.0001 -6.5775 0.0000
# 3 39.3319 48.8079 123.9633 0.0001 -19.4290 -0.0001
# 4 -0.0001 0.0001 0.0001 31.6903 0.0000 11.1428
# 5 -17.5292 -6.5775 -19.4290 0.0000 38.7454 -0.0001
# 6 0.0000 0.0000 -0.0001 11.1428 -0.0001 23.1890
#
#
#
# Elastic Compliance Matrix: (Units=1/GPa)
#
#
# Indices 1 2 3 4 5 6 
#
# 1 0.017772 -0.003246 -0.003459 0.000000 0.005755 0.000000
# 2 -0.003246 0.009254 -0.002819 0.000000 -0.001311 0.000000
# 3 -0.003459 -0.002819 0.010803 0.000000 0.003374 0.000000
# 4 0.000000 0.000000 0.000000 0.037971 0.000000 -0.018246
# 5 0.005755 -0.001311 0.003374 0.000000 0.029882 0.000000
# 6 0.000000 0.000000 0.000000 -0.018246 0.000000 0.051891
#
#
# Mechanical properties :
#
#
# Convention : Reuss Voigt Hill
#
# Bulk Modulus (GPa) = 53.24408 64.84716 59.04562
# Shear Modulus (GPa) = 27.33993 32.75906 30.04949
#
# Velocity S-wave (km/s) = 3.49790 3.82891 3.66714
# Velocity P-wave (km/s) = 6.33576 6.96909 6.65996
#
# Compressibility (1/GPa) = 0.01878143
#
# Stress axis : x y z
#
# Youngs Moduli (GPa) = 56.26814 108.05751 92.56523
#
# Poissons Ratio (x) = 0.35074 0.32017
# Poissons Ratio (y) = 0.18264 0.26097
# Poissons Ratio (z) = 0.19462 0.30465
#
# Static dielectric constant tensor:
#      x y z
#    x 4.893490 0.000000 -1.116520 
#    y 0.000000 4.133340 0.000000 
#    z -1.116520 0.000000 6.244740 
# 
# 
# High freq. dielectric constant tensor:
#      x y z
#    x 1.891740 0.000000 -0.007640 
#    y 0.000000 1.845020 0.000000 
#    z -0.007640 0.000000 1.907360 
# 
# From -- ./inp_files/68741.got.cif
#   From: 2010.06.25/outbox.cif.g09.slc.cpg/sg12_35_cif.got.tgz:68741.got - 2010.06.28 00:19:55.
