data_PCOD8105865
_publ_section_title
;
Structure prediction by ZEFSAII (Michael W. Deem and Ramdas Pophale) SiO2 
 PCOD8105865
Probable space group: C 2/M
;
_chemical_formula_sum "Si O2"
_cell_formula_units_Z 56
_cell_length_a 11.107944
_cell_length_b 21.757506
_cell_length_c 11.589496
_cell_angle_alpha 90.000000
_cell_angle_beta 77.800696
_cell_angle_gamma 90.000000
_cell_volume 2737.712766
_symmetry_space_group_name_H-M "C 2/M"
_symmetry_group_IT_number 12
_symmetry_cell_setting 'monoclinic'
loop_
_space_group_symop_operation_xyz
x,y,z
-x,y,-z
-x,-y,-z
x,-y,z
1/2+x,1/2+y,z
1/2-x,1/2+y,-z
1/2-x,1/2-y,-z
1/2+x,1/2-y,z
loop_
_atom_site_type_symbol
_atom_site_label
_atom_site_fract_x
_atom_site_fract_y
_atom_site_fract_z
Si Si1 0.230495 0.375086 0.534739
Si Si2 0.367371 0.767917 0.565324
Si Si3 0.069200 0.303501 0.869190
Si Si4 0.771858 0.068792 0.287878
Si Si5 0.955435 0.840020 0.136298
Si Si6 0.177386 0.835254 0.259795
Si Si7 0.029888 0.376548 0.321303
O O1 0.230368 0.297631 0.513522
O O2 0.290098 0.413537 0.419280
O O3 0.316190 0.381634 0.631577
O O4 0.097312 0.401585 0.600140
O O5 0.500000 0.738214 0.500000
O O6 0.321742 0.733644 0.688146
O O7 0.397670 0.838042 0.596658
O O8 0.084925 0.230672 0.849268
O O9 0.202044 0.336566 0.845958
O O10 0.990419 0.331703 0.782067
O O11 0.000000 0.319822 0.000000
O O12 0.842723 0.116353 0.191757
O O13 0.627557 0.069046 0.276816
O O14 0.822930 0.000000 0.259639
O O15 0.062196 0.853214 0.206662
O O16 0.000000 0.857867 0.000000
#
# Coordination Sequence:
#
# PCOD8105865 Si02
#       7
#     8   8   8   8   8   8   8
#     4   9  20  34  58  91 118 152 198 248 308 354
#     4   9  16  28  52  82 124 158 184 230 293 375
#     4  10  21  35  61  91 126 160 195 249 307 364
#     4  11  24  42  64  85 120 166 210 251 291 362
#     4  11  26  39  59  89 123 169 209 246 298 362
#     4  11  21  35  55  87 127 159 191 247 306 361
#     4   9  18  36  58  93 123 153 197 245 305 361
#
# _framework density 20.455031000000002
#
# number of rings (size 3 to 8) (size 9 to 14) (size 15 to 20)
#    0.000    2.000    1.429    3.429    4.000    2.571 
#    0.000    1.429    0.000    1.286    0.000    0.000 
#    0.000    0.000    0.000    0.000    0.000    0.000 
#
# Total GULP energy -346953.468336 kJ/mol
# GULP energy per Si atom -12391.195298 kJ/mol
# Density = 2.040847 g / cm^3
# Si number density = 20.455031 Si / 1000 Ang^3
#
#
#
# Elastic Constant Matrix: (Units=GPa)
#
#
# Indices 1 2 3 4 5 6 
#
# 1 41.3843 1.4808 25.2834 0.0000 -2.2387 0.0000
# 2 1.4808 55.4764 26.7646 0.0000 -5.3740 0.0000
# 3 25.2834 26.7646 116.6458 0.0000 -9.0038 0.0000
# 4 0.0000 0.0000 0.0000 15.7100 0.0000 -1.8079
# 5 -2.2387 -5.3740 -9.0038 0.0000 27.9848 0.0000
# 6 0.0000 0.0000 0.0000 -1.8079 0.0000 11.0563
#
#
#
# Elastic Compliance Matrix: (Units=1/GPa)
#
#
# Indices 1 2 3 4 5 6 
#
# 1 0.028158 0.002506 -0.006632 0.000000 0.000600 0.000000
# 2 0.002506 0.020659 -0.005088 0.000000 0.002531 0.000000
# 3 -0.006632 -0.005088 0.011343 0.000000 0.002142 0.000000
# 4 0.000000 0.000000 0.000000 0.064875 0.000000 0.010608
# 5 0.000600 0.002531 0.002142 0.000000 0.036957 0.000000
# 6 0.000000 0.000000 0.000000 0.010608 0.000000 0.092181
#
#
# Mechanical properties :
#
#
# Convention : Reuss Voigt Hill
#
# Bulk Modulus (GPa) = 23.96224 35.61823 29.79023
# Shear Modulus (GPa) = 17.45131 21.61541 19.53336
#
# Velocity S-wave (km/s) = 2.92405 3.25426 3.09357
# Velocity P-wave (km/s) = 4.81042 5.61881 5.23026
#
# Compressibility (1/GPa) = 0.04173233
#
# Stress axis : x y z
#
# Youngs Moduli (GPa) = 35.51341 48.40583 88.15777
#
# Poissons Ratio (x) = -0.12132 0.58468
# Poissons Ratio (y) = -0.08900 0.44855
# Poissons Ratio (z) = 0.23553 0.24629
#
# Static dielectric constant tensor:
#      x y z
#    x 4.082730 0.000000 0.018840 
#    y 0.000000 3.239910 0.000000 
#    z 0.018840 0.000000 3.804990 
# 
# 
# High freq. dielectric constant tensor:
#      x y z
#    x 1.811780 0.000000 0.001670 
#    y 0.000000 1.750070 0.000000 
#    z 0.001670 0.000000 1.807460 
# 
# From -- ./inp_files/133845.got.cif
#   From: 2010.06.25/outbox.cif.g09.slc.cpg/sg12_67_cif.got.tgz:133845.got - 2010.06.28 00:19:55.
