data_PCOD8105149
_publ_section_title
;
Structure prediction by ZEFSAII (Michael W. Deem and Ramdas Pophale) SiO2 
 PCOD8105149
Probable space group: C 2/M
;
_chemical_formula_sum "Si O2"
_cell_formula_units_Z 44
_cell_length_a 8.401185
_cell_length_b 24.377036
_cell_length_c 11.604602
_cell_angle_alpha 90.000000
_cell_angle_beta 61.634691
_cell_angle_gamma 90.000000
_cell_volume 2091.235655
_symmetry_space_group_name_H-M "C 2/M"
_symmetry_group_IT_number 12
_symmetry_cell_setting 'monoclinic'
loop_
_space_group_symop_operation_xyz
x,y,z
-x,y,-z
-x,-y,-z
x,-y,z
1/2+x,1/2+y,z
1/2-x,1/2+y,-z
1/2-x,1/2-y,-z
1/2+x,1/2-y,z
loop_
_atom_site_type_symbol
_atom_site_label
_atom_site_fract_x
_atom_site_fract_y
_atom_site_fract_z
Si Si1 0.786624 0.000000 0.067344
Si Si2 0.032426 0.693055 0.180623
Si Si3 0.988414 0.500000 0.642876
Si Si4 0.343636 0.309051 0.782003
Si Si5 0.386309 0.114412 0.420290
Si Si6 0.500000 0.652112 0.500000
Si Si7 0.172259 0.885656 0.019367
O O1 0.707640 0.000000 0.225919
O O2 0.725812 0.945024 0.017314
O O3 0.000000 0.000000 0.000000
O O4 0.077245 0.756277 0.183852
O O5 0.873065 0.692935 0.142457
O O6 0.968950 0.664156 0.319772
O O7 0.204441 0.662556 0.071572
O O8 0.000000 0.500000 0.500000
O O9 0.084990 0.555678 0.652365
O O10 0.419814 0.309642 0.626824
O O11 0.394061 0.365692 0.831553
O O12 0.500000 0.115464 0.500000
O O13 0.166648 0.118494 0.501998
O O14 0.000000 0.892456 0.000000
#
# Coordination Sequence:
#
# PCOD8105149 Si02
#       7
#     4   8   4   8   8   4   8
#     4  10  22  40  67 102 132 173 228 276 335 403
#     4  11  23  41  64  94 130 172 219 273 335 395
#     4  10  20  41  68 102 134 177 223 280 339 408
#     4  11  25  41  64  95 132 171 219 276 330 402
#     4  10  23  39  69  94 137 174 217 275 334 403
#     4  10  26  43  62 102 132 171 230 270 340 408
#     4  11  23  41  67  94 130 170 221 272 331 401
#
# _framework density 21.040192000000001
#
# number of rings (size 3 to 8) (size 9 to 14) (size 15 to 20)
#    0.000    1.455    1.818    2.182    6.364    3.273 
#    0.000    5.455    0.000    0.000    0.000    0.000 
#    0.000    0.000    0.000    0.000    0.000    0.000 
#
# Total GULP energy -272601.116638 kJ/mol
# GULP energy per Si atom -12390.959847 kJ/mol
# Density = 2.099230 g / cm^3
# Si number density = 21.040192 Si / 1000 Ang^3
#
#
#
# Elastic Constant Matrix: (Units=GPa)
#
#
# Indices 1 2 3 4 5 6 
#
# 1 112.2709 32.7787 13.0164 0.0000 -1.5029 0.0000
# 2 32.7787 152.8958 46.2763 0.0000 9.5387 0.0000
# 3 13.0164 46.2763 99.9872 0.0000 -5.4294 0.0000
# 4 0.0000 0.0000 0.0000 45.9756 0.0000 -1.4348
# 5 -1.5029 9.5387 -5.4294 0.0000 33.7722 0.0000
# 6 0.0000 0.0000 0.0000 -1.4348 0.0000 21.3287
#
#
#
# Elastic Compliance Matrix: (Units=1/GPa)
#
#
# Indices 1 2 3 4 5 6 
#
# 1 0.009541 -0.002029 -0.000251 0.000000 0.000957 0.000000
# 2 -0.002029 0.008297 -0.003741 0.000000 -0.003035 0.000000
# 3 -0.000251 -0.003741 0.011926 0.000000 0.002963 0.000000
# 4 0.000000 0.000000 0.000000 0.021796 0.000000 0.001466
# 5 0.000957 -0.003035 0.002963 0.000000 0.030986 0.000000
# 6 0.000000 0.000000 0.000000 0.001466 0.000000 0.046984
#
#
# Mechanical properties :
#
#
# Convention : Reuss Voigt Hill
#
# Bulk Modulus (GPa) = 56.42481 61.03296 58.72888
# Shear Modulus (GPa) = 33.90283 38.42081 36.16182
#
# Velocity S-wave (km/s) = 4.01850 4.27789 4.15022
# Velocity P-wave (km/s) = 6.95751 7.31240 7.13716
#
# Compressibility (1/GPa) = 0.01772270
#
# Stress axis : x y z
#
# Youngs Moduli (GPa) = 104.80616 120.52577 83.84991
#
# Poissons Ratio (x) = 0.24459 0.02104
# Poissons Ratio (y) = 0.21269 0.31365
# Poissons Ratio (z) = 0.02630 0.45084
#
# Static dielectric constant tensor:
#      x y z
#    x 3.888830 0.000000 -0.057600 
#    y 0.000000 4.646540 0.000000 
#    z -0.057600 0.000000 3.966170 
# 
# 
# High freq. dielectric constant tensor:
#      x y z
#    x 1.816290 0.000000 -0.011000 
#    y 0.000000 1.838020 0.000000 
#    z -0.011000 0.000000 1.831510 
# 
# From -- ./inp_files/122395.got.cif
#   From: 2010.06.25/outbox.cif.g09.slc.cpg/sg12_62_cif.got.tgz:122395.got - 2010.06.28 00:19:55.
