data_PCOD8105666
_publ_section_title
;
Structure prediction by ZEFSAII (Michael W. Deem and Ramdas Pophale) SiO2 
 PCOD8105666
Probable space group: C 2/M
;
_chemical_formula_sum "Si O2"
_cell_formula_units_Z 64
_cell_length_a 15.580061
_cell_length_b 8.859821
_cell_length_c 30.882971
_cell_angle_alpha 90.000000
_cell_angle_beta 128.975985
_cell_angle_gamma 90.000000
_cell_volume 3314.080946
_symmetry_space_group_name_H-M "C 2/M"
_symmetry_group_IT_number 12
_symmetry_cell_setting 'monoclinic'
loop_
_space_group_symop_operation_xyz
x,y,z
-x,y,-z
-x,-y,-z
x,-y,z
1/2+x,1/2+y,z
1/2-x,1/2+y,-z
1/2-x,1/2-y,-z
1/2+x,1/2-y,z
loop_
_atom_site_type_symbol
_atom_site_label
_atom_site_fract_x
_atom_site_fract_y
_atom_site_fract_z
Si Si1 0.251491 0.826647 0.321693
Si Si2 0.621805 0.166580 0.555891
Si Si3 0.836603 0.321549 0.868962
Si Si4 0.284834 0.829998 0.554270
Si Si5 0.669509 0.321367 0.740980
Si Si6 0.433354 0.180426 0.676700
Si Si7 0.758217 0.322022 0.936167
Si Si8 0.582533 0.177990 0.936245
O O1 0.361091 0.819083 0.386994
O O2 0.281391 0.732546 0.288883
O O3 0.143993 0.757442 0.311482
O O4 0.225153 0.000000 0.300978
O O5 0.500000 0.183411 0.500000
O O6 0.684986 0.306930 0.555549
O O7 0.667430 0.000000 0.556195
O O8 0.845526 0.500000 0.876162
O O9 0.757831 0.273157 0.804995
O O10 0.789257 0.256128 0.898967
O O11 0.958774 0.255931 0.899129
O O12 0.250000 0.750000 0.500000
O O13 0.392690 0.773406 0.615015
O O14 0.301792 0.000000 0.546165
O O15 0.649451 0.500000 0.733028
O O16 0.557211 0.239521 0.719475
O O17 0.428033 0.000000 0.681285
O O18 0.742078 0.500000 0.929814
O O19 0.642521 0.249865 0.913856
O O20 0.855236 0.274981 0.999953
O O21 0.582541 0.000000 0.929826
#
# Coordination Sequence:
#
# PCOD8105666 Si02
#       8
#     8   8   8   8   8   8   8   8
#     4  10  21  39  60  82 111 145 185 231 281 337
#     4   9  19  35  55  79 106 136 170 215 272 329
#     4   9  19  35  54  79 109 145 188 228 270 326
#     4  10  21  35  54  80 108 137 172 217 270 330
#     4  11  23  38  58  83 113 151 193 235 282 335
#     4  10  22  41  60  80 110 147 188 232 279 333
#     4   9  17  32  55  81 110 145 184 226 273 325
#     4   9  17  32  55  81 110 145 183 225 276 327
#
# _framework density 19.311537000000001
#
# number of rings (size 3 to 8) (size 9 to 14) (size 15 to 20)
#    0.000    2.375    0.000    1.875    1.750    4.750 
#    0.000    5.625    0.000    3.000    0.000    0.000 
#    0.000    0.000    0.000    0.000    0.000    0.000 
#
# Total GULP energy -396604.575569 kJ/mol
# GULP energy per Si atom -12393.892987 kJ/mol
# Density = 1.926758 g / cm^3
# Si number density = 19.311537 Si / 1000 Ang^3
#
#
#
# Elastic Constant Matrix: (Units=GPa)
#
#
# Indices 1 2 3 4 5 6 
#
# 1 138.3520 29.7377 83.8560 0.0000 3.5546 0.0000
# 2 29.7377 42.6160 34.6492 0.0000 3.3562 0.0000
# 3 83.8560 34.6492 133.4869 0.0000 3.0126 0.0000
# 4 0.0000 0.0000 0.0000 19.4522 0.0000 -1.4297
# 5 3.5546 3.3562 3.0126 0.0000 26.8381 0.0000
# 6 0.0000 0.0000 0.0000 -1.4297 0.0000 35.7053
#
#
#
# Elastic Compliance Matrix: (Units=1/GPa)
#
#
# Indices 1 2 3 4 5 6 
#
# 1 0.011941 -0.002795 -0.006765 0.000000 -0.000473 0.000000
# 2 -0.002795 0.030617 -0.006129 0.000000 -0.002771 0.000000
# 3 -0.006765 -0.006129 0.013329 0.000000 0.000166 0.000000
# 4 0.000000 0.000000 0.000000 0.051560 0.000000 0.002064
# 5 -0.000473 -0.002771 0.000166 0.000000 0.037651 0.000000
# 6 0.000000 0.000000 0.000000 0.002064 0.000000 0.028090
#
#
# Mechanical properties :
#
#
# Convention : Reuss Voigt Hill
#
# Bulk Modulus (GPa) = 40.80232 67.88227 54.34230
# Shear Modulus (GPa) = 23.50337 27.47992 25.49165
#
# Velocity S-wave (km/s) = 3.49243 3.77633 3.63715
# Velocity P-wave (km/s) = 6.11859 7.36490 6.77048
#
# Compressibility (1/GPa) = 0.02450841
#
# Stress axis : x y z
#
# Youngs Moduli (GPa) = 83.74253 32.66149 75.02712
#
# Poissons Ratio (x) = 0.09129 0.50759
# Poissons Ratio (y) = 0.23405 0.45984
# Poissons Ratio (z) = 0.56655 0.20018
#
# Static dielectric constant tensor:
#      x y z
#    x 3.554690 0.000000 -0.363480 
#    y 0.000000 3.472580 0.000000 
#    z -0.363480 0.000000 6.225650 
# 
# 
# High freq. dielectric constant tensor:
#      x y z
#    x 1.750950 0.000000 -0.000930 
#    y 0.000000 1.741210 0.000000 
#    z -0.000930 0.000000 1.757800 
# 
# From -- ./inp_files/375548.got.cif
#   From: 2010.06.25/outbox.cif.g09.slc.cpg/sg12_188_cif.got.tgz:375548.got - 2010.06.28 00:19:55.
