data_PCOD8105504
_publ_section_title
;
Structure prediction by ZEFSAII (Michael W. Deem and Ramdas Pophale) SiO2 
 PCOD8105504
Probable space group: C 2/M
;
_chemical_formula_sum "Si O2"
_cell_formula_units_Z 56
_cell_length_a 15.647688
_cell_length_b 9.322102
_cell_length_c 30.717540
_cell_angle_alpha 90.000000
_cell_angle_beta 140.377502
_cell_angle_gamma 90.000000
_cell_volume 2857.491326
_symmetry_space_group_name_H-M "C 2/M"
_symmetry_group_IT_number 12
_symmetry_cell_setting 'monoclinic'
loop_
_space_group_symop_operation_xyz
x,y,z
-x,y,-z
-x,-y,-z
x,-y,z
1/2+x,1/2+y,z
1/2-x,1/2+y,-z
1/2-x,1/2-y,-z
1/2+x,1/2-y,z
loop_
_atom_site_type_symbol
_atom_site_label
_atom_site_fract_x
_atom_site_fract_y
_atom_site_fract_z
Si Si1 0.864065 0.844591 0.184243
Si Si2 0.898327 0.333209 0.421164
Si Si3 0.252019 0.834343 0.067170
Si Si4 0.604445 0.670723 0.331781
Si Si5 0.805710 0.654817 0.798984
Si Si6 0.559150 0.668595 0.648611
Si Si7 0.447881 0.665623 0.082166
O O1 0.766664 0.738461 0.119676
O O2 0.800005 0.873201 0.205182
O O3 0.011134 0.780047 0.253717
O O4 0.875869 0.000000 0.164533
O O5 0.885383 0.500000 0.403825
O O6 0.753796 0.271550 0.380452
O O7 0.961273 0.251909 0.404481
O O8 0.000000 0.307197 0.500000
O O9 0.359987 0.761840 0.078885
O O10 0.286910 0.000000 0.085882
O O11 0.103716 0.813124 0.987983
O O12 0.602557 0.500000 0.332981
O O13 0.545362 0.726752 0.355243
O O14 0.879547 0.500000 0.819487
O O15 0.715004 0.700384 0.722393
O O16 0.902027 0.781877 0.852203
O O17 0.536235 0.500000 0.631867
O O18 0.436683 0.500000 0.091148
#
# Coordination Sequence:
#
# PCOD8105504 Si02
#       7
#     8   8   8   8   8   8   8
#     4   9  18  34  55  76 100 138 181 217 268 331
#     4  10  21  36  56  85 116 146 183 225 272 327
#     4  10  21  35  50  73 105 137 176 226 268 311
#     4   8  17  36  57  78 111 150 182 220 276 334
#     4   9  19  35  54  77 104 134 175 226 272 319
#     4   9  19  37  58  80 110 147 185 226 273 326
#     4  10  21  35  51  72 102 141 178 216 271 328
#
# _framework density 19.59761
#
# number of rings (size 3 to 8) (size 9 to 14) (size 15 to 20)
#    0.000    2.714    0.000    2.571    2.000    4.286 
#    0.000    5.714    0.000    0.000    0.000    0.000 
#    0.000    0.000    0.000    0.000    0.000    0.000 
#
# Total GULP energy -346906.463377 kJ/mol
# GULP energy per Si atom -12389.516549 kJ/mol
# Density = 1.955300 g / cm^3
# Si number density = 19.597610 Si / 1000 Ang^3
#
#
#
# Elastic Constant Matrix: (Units=GPa)
#
#
# Indices 1 2 3 4 5 6 
#
# 1 45.5772 11.9186 12.9129 0.0000 -7.4214 0.0000
# 2 11.9186 75.4624 38.2593 0.0000 -9.1038 0.0000
# 3 12.9129 38.2593 79.0073 0.0000 -7.5955 0.0000
# 4 0.0000 0.0000 0.0000 7.5833 0.0000 6.6719
# 5 -7.4214 -9.1038 -7.5955 0.0000 26.8429 0.0000
# 6 0.0000 0.0000 0.0000 6.6719 0.0000 20.5776
#
#
#
# Elastic Compliance Matrix: (Units=1/GPa)
#
#
# Indices 1 2 3 4 5 6 
#
# 1 0.024004 -0.001885 -0.002502 0.000000 0.005289 0.000000
# 2 -0.001885 0.018067 -0.008123 0.000000 0.003308 0.000000
# 3 -0.002502 -0.008123 0.017134 0.000000 0.001402 0.000000
# 4 0.000000 0.000000 0.000000 0.184498 0.000000 -0.059820
# 5 0.005289 0.003308 0.001402 0.000000 0.040235 0.000000
# 6 0.000000 0.000000 0.000000 -0.059820 0.000000 0.067992
#
#
# Mechanical properties :
#
#
# Convention : Reuss Voigt Hill
#
# Bulk Modulus (GPa) = 29.25189 36.24762 32.74975
# Shear Modulus (GPa) = 12.87522 20.13117 16.50319
#
# Velocity S-wave (km/s) = 2.56594 3.20851 2.90505
# Velocity P-wave (km/s) = 4.87210 5.67998 5.29148
#
# Compressibility (1/GPa) = 0.03418583
#
# Stress axis : x y z
#
# Youngs Moduli (GPa) = 41.66014 55.35091 58.36282
#
# Poissons Ratio (x) = 0.10431 0.14603
# Poissons Ratio (y) = 0.07851 0.47407
# Poissons Ratio (z) = 0.10424 0.44960
#
# Static dielectric constant tensor:
#      x y z
#    x 3.434860 0.000000 0.080970 
#    y 0.000000 3.090500 0.000000 
#    z 0.080970 0.000000 3.870690 
# 
# 
# High freq. dielectric constant tensor:
#      x y z
#    x 1.749350 0.000000 -0.001240 
#    y 0.000000 1.745490 0.000000 
#    z -0.001240 0.000000 1.770130 
# 
# From -- ./inp_files/375139.got.cif
#   From: 2010.06.25/outbox.cif.g09.slc.cpg/sg12_188_cif.got.tgz:375139.got - 2010.06.28 00:19:55.
