data_PCOD8105917
_publ_section_title
;
Structure prediction by ZEFSAII (Michael W. Deem and Ramdas Pophale) SiO2 
 PCOD8105917
Probable space group: C 2/M
;
_chemical_formula_sum "Si O2"
_cell_formula_units_Z 48
_cell_length_a 27.924348
_cell_length_b 8.847191
_cell_length_c 29.720915
_cell_angle_alpha 90.000000
_cell_angle_beta 159.976736
_cell_angle_gamma 90.000000
_cell_volume 2514.122787
_symmetry_space_group_name_H-M "C 2/M"
_symmetry_group_IT_number 12
_symmetry_cell_setting 'monoclinic'
loop_
_space_group_symop_operation_xyz
x,y,z
-x,y,-z
-x,-y,-z
x,-y,z
1/2+x,1/2+y,z
1/2-x,1/2+y,-z
1/2-x,1/2-y,-z
1/2+x,1/2-y,z
loop_
_atom_site_type_symbol
_atom_site_label
_atom_site_fract_x
_atom_site_fract_y
_atom_site_fract_z
Si Si1 0.112524 0.321097 0.899509
Si Si2 0.317140 0.680310 0.250001
Si Si3 0.629985 0.679900 0.521454
Si Si4 0.412919 0.820100 0.021452
Si Si5 0.209345 0.680179 0.249996
Si Si6 0.313501 0.821097 0.600487
O O1 0.129370 0.500000 0.914551
O O2 0.096405 0.258667 0.936004
O O3 0.975398 0.272633 0.749998
O O4 0.250000 0.250000 0.000000
O O5 0.315357 0.500000 0.250007
O O6 0.472462 0.741272 0.377060
O O7 0.263123 0.745147 0.249995
O O8 0.218352 0.741265 0.122946
O O9 0.633271 0.500000 0.524336
O O10 0.690081 0.740649 0.621711
O O11 0.724392 0.741335 0.563993
O O12 0.553336 0.759343 0.121707
O O13 0.415403 0.000000 0.024337
O O14 0.210445 0.500000 0.249988
O O15 0.250000 0.750000 0.500000
O O16 0.300262 0.000000 0.585444
#
# Coordination Sequence:
#
# PCOD8105917 Si02
#       6
#     8   8   8   8   8   8
#     4  10  21  36  53  74 102 135 171 211 255 300
#     4   9  16  22  37  64  91 125 163 191 232 299
#     4   9  16  27  41  62  94 128 159 197 244 292
#     4   9  16  27  41  62  94 128 159 197 244 292
#     4   9  14  24  39  58  91 129 159 191 238 295
#     4  10  21  36  53  74 102 135 171 211 255 300
#
# _framework density 19.092146
#
# number of rings (size 3 to 8) (size 9 to 14) (size 15 to 20)
#    0.000    2.667    1.667    1.000    2.333    4.667 
#    0.000    0.000    0.000    0.000    0.000    0.000 
#    0.000    8.000    0.000    0.000    0.000    0.000 
#
# Total GULP energy -297541.584403 kJ/mol
# GULP energy per Si atom -12397.566017 kJ/mol
# Density = 1.904869 g / cm^3
# Si number density = 19.092146 Si / 1000 Ang^3
#
#
#
# Elastic Constant Matrix: (Units=GPa)
#
#
# Indices 1 2 3 4 5 6 
#
# 1 148.4132 18.6191 92.4055 -0.0004 3.2048 -0.0001
# 2 18.6191 7.6013 19.5332 -0.0008 0.0779 -0.0009
# 3 92.4055 19.5332 205.6448 -0.0020 1.7159 -0.0013
# 4 -0.0004 -0.0008 -0.0020 15.2324 -0.0009 -0.1747
# 5 3.2048 0.0779 1.7159 -0.0009 46.5170 -0.0004
# 6 -0.0001 -0.0009 -0.0013 -0.1747 -0.0004 17.2511
#
#
#
# Elastic Compliance Matrix: (Units=1/GPa)
#
#
# Indices 1 2 3 4 5 6 
#
# 1 0.011125 -0.019064 -0.003183 -0.000001 -0.000617 -0.000001
# 2 -0.019064 0.206712 -0.011080 0.000009 0.001376 0.000010
# 3 -0.003183 -0.011080 0.007346 0.000000 -0.000033 0.000000
# 4 -0.000001 0.000009 0.000000 0.065657 0.000001 0.000665
# 5 -0.000617 0.001376 -0.000033 0.000001 0.021539 0.000001
# 6 -0.000001 0.000010 0.000000 0.000665 0.000001 0.057974
#
#
# Mechanical properties :
#
#
# Convention : Reuss Voigt Hill
#
# Bulk Modulus (GPa) = 6.30799 69.19719 37.75259
# Shear Modulus (GPa) = 10.20721 31.20685 20.70703
#
# Velocity S-wave (km/s) = 2.31471 4.04733 3.29687
# Velocity P-wave (km/s) = 3.23342 7.62651 5.85742
#
# Compressibility (1/GPa) = 0.15852917
#
# Stress axis : x y z
#
# Youngs Moduli (GPa) = 89.89017 4.83764 136.13543
#
# Poissons Ratio (x) = 0.09223 0.43330
# Poissons Ratio (y) = 1.71369 1.50833
# Poissons Ratio (z) = 0.28611 0.05360
#
# Static dielectric constant tensor:
#      x y z
#    x 3.749850 0.000000 0.004800 
#    y 0.000000 2.693210 0.000000 
#    z 0.004800 0.000000 3.805320 
# 
# 
# High freq. dielectric constant tensor:
#      x y z
#    x 1.757080 0.000000 0.000640 
#    y 0.000000 1.654640 0.000000 
#    z 0.000640 0.000000 1.764570 
# 
# From -- ./inp_files/102003.got.cif
#   From: 2010.06.25/outbox.cif.g09.slc.cpg/sg12_52_cif.got.tgz:102003.got - 2010.06.28 00:19:55.
