data_PCOD8105588
_publ_section_title
;
Structure prediction by ZEFSAII (Michael W. Deem and Ramdas Pophale) SiO2 
 PCOD8105588
Probable space group: C 2/M
;
_chemical_formula_sum "Si O2"
_cell_formula_units_Z 64
_cell_length_a 19.205390
_cell_length_b 9.000236
_cell_length_c 19.735546
_cell_angle_alpha 90.000000
_cell_angle_beta 97.145347
_cell_angle_gamma 90.000000
_cell_volume 3384.855958
_symmetry_space_group_name_H-M "C 2/M"
_symmetry_group_IT_number 12
_symmetry_cell_setting 'monoclinic'
loop_
_space_group_symop_operation_xyz
x,y,z
-x,y,-z
-x,-y,-z
x,-y,z
1/2+x,1/2+y,z
1/2-x,1/2+y,-z
1/2-x,1/2-y,-z
1/2+x,1/2-y,z
loop_
_atom_site_type_symbol
_atom_site_label
_atom_site_fract_x
_atom_site_fract_y
_atom_site_fract_z
Si Si1 0.104012 0.326895 0.193227
Si Si2 0.071541 0.669504 0.532964
Si Si3 0.305077 0.169638 0.553712
Si Si4 0.946340 0.323341 0.197419
Si Si5 0.187778 0.671185 0.072441
Si Si6 0.367903 0.823253 0.320740
Si Si7 0.670694 0.175208 0.918355
Si Si8 0.290837 0.323724 0.692374
O O1 0.109585 0.500000 0.214267
O O2 0.124693 0.301727 0.117355
O O3 0.157156 0.232393 0.244019
O O4 0.025279 0.264985 0.194803
O O5 0.054663 0.500000 0.551001
O O6 0.121468 0.677796 0.474957
O O7 0.104119 0.744827 0.604584
O O8 0.000000 0.750152 0.500000
O O9 0.250000 0.250000 0.500000
O O10 0.314833 0.254216 0.624801
O O11 0.281592 0.000000 0.563430
O O12 0.946668 0.500000 0.196056
O O13 0.917132 0.264356 0.265930
O O14 0.895440 0.262150 0.131962
O O15 0.209906 0.500000 0.072391
O O16 0.257058 0.760323 0.103113
O O17 0.160834 0.724128 0.995353
O O18 0.288011 0.769733 0.299530
O O19 0.368093 0.000000 0.323417
O O20 0.675220 0.000000 0.910192
O O21 0.295335 0.500000 0.686967
#
# Coordination Sequence:
#
# PCOD8105588 Si02
#       8
#     8   8   8   8   8   8   8   8
#     4  10  21  35  52  79 107 137 174 220 272 314
#     4   9  18  31  51  78 104 134 173 216 258 302
#     4  11  21  36  58  83 108 138 176 221 268 316
#     4   9  18  31  51  77 105 136 178 222 261 313
#     4   9  18  32  52  79 111 138 172 220 267 314
#     4   9  17  31  50  74 101 133 176 219 254 303
#     4   9  17  32  54  79 105 142 181 214 257 314
#     4  11  22  37  56  78 106 140 178 221 263 315
#
# _framework density 18.907747000000001
#
# number of rings (size 3 to 8) (size 9 to 14) (size 15 to 20)
#    0.000    2.375    1.250    1.500    1.750    2.000 
#    0.000    3.125    0.000    4.500    0.000    4.375 
#    0.000    0.000    0.000    0.000    0.000    0.000 
#
# Total GULP energy -396753.608947 kJ/mol
# GULP energy per Si atom -12398.550280 kJ/mol
# Density = 1.886471 g / cm^3
# Si number density = 18.907747 Si / 1000 Ang^3
#
#
#
# Elastic Constant Matrix: (Units=GPa)
#
#
# Indices 1 2 3 4 5 6 
#
# 1 159.4439 29.2801 74.7246 0.0000 4.8972 0.0000
# 2 29.2801 41.6269 26.0191 0.0000 -0.4828 0.0000
# 3 74.7246 26.0191 122.1261 0.0000 -3.5454 0.0000
# 4 0.0000 0.0000 0.0000 24.8716 0.0000 2.7522
# 5 4.8972 -0.4828 -3.5454 0.0000 32.3644 0.0000
# 6 0.0000 0.0000 0.0000 2.7522 0.0000 22.0331
#
#
#
# Elastic Compliance Matrix: (Units=1/GPa)
#
#
# Indices 1 2 3 4 5 6 
#
# 1 0.009322 -0.003436 -0.005030 0.000000 -0.002013 0.000000
# 2 -0.003436 0.028982 -0.004057 0.000000 0.000508 0.000000
# 3 -0.005030 -0.004057 0.012190 0.000000 0.002036 0.000000
# 4 0.000000 0.000000 0.000000 0.040770 0.000000 -0.005093
# 5 -0.002013 0.000508 0.002036 0.000000 0.031433 0.000000
# 6 0.000000 0.000000 0.000000 -0.005093 0.000000 0.046022
#
#
# Mechanical properties :
#
#
# Convention : Reuss Voigt Hill
#
# Bulk Modulus (GPa) = 39.29895 64.80494 52.05194
# Shear Modulus (GPa) = 24.72199 28.73203 26.72701
#
# Velocity S-wave (km/s) = 3.61987 3.90242 3.76380
# Velocity P-wave (km/s) = 6.18878 7.39283 6.81743
#
# Compressibility (1/GPa) = 0.02544598
#
# Stress axis : x y z
#
# Youngs Moduli (GPa) = 107.27204 34.50420 82.03734
#
# Poissons Ratio (x) = 0.11857 0.41266
# Poissons Ratio (y) = 0.36862 0.33285
# Poissons Ratio (z) = 0.53960 0.14000
#
# Static dielectric constant tensor:
#      x y z
#    x 9.795200 0.000000 -1.988850 
#    y 0.000000 3.147970 0.000000 
#    z -1.988850 0.000000 4.196410 
# 
# 
# High freq. dielectric constant tensor:
#      x y z
#    x 1.740740 0.000000 -0.000360 
#    y 0.000000 1.691510 0.000000 
#    z -0.000360 0.000000 1.749500 
# 
# From -- ./inp_files/314143.got.cif
#   From: 2010.06.25/outbox.cif.g09.slc.cpg/sg12_158_cif.got.tgz:314143.got - 2010.06.28 00:19:55.
