data_PCOD8105058
_publ_section_title
;
Structure prediction by ZEFSAII (Michael W. Deem and Ramdas Pophale) SiO2 
 PCOD8105058
Probable space group: C 2/M
;
_chemical_formula_sum "Si O2"
_cell_formula_units_Z 64
_cell_length_a 15.122068
_cell_length_b 18.044324
_cell_length_c 15.636100
_cell_angle_alpha 90.000000
_cell_angle_beta 133.414303
_cell_angle_gamma 90.000000
_cell_volume 3099.259549
_symmetry_space_group_name_H-M "C 2/M"
_symmetry_group_IT_number 12
_symmetry_cell_setting 'monoclinic'
loop_
_space_group_symop_operation_xyz
x,y,z
-x,y,-z
-x,-y,-z
x,-y,z
1/2+x,1/2+y,z
1/2-x,1/2+y,-z
1/2-x,1/2-y,-z
1/2+x,1/2-y,z
loop_
_atom_site_type_symbol
_atom_site_label
_atom_site_fract_x
_atom_site_fract_y
_atom_site_fract_z
Si Si1 0.668191 0.830406 0.754005
Si Si2 0.193731 0.586346 0.318574
Si Si3 0.470822 0.412161 0.240791
Si Si4 0.402718 0.674225 0.362747
Si Si5 0.080294 0.416815 0.416258
Si Si6 0.719039 0.583406 0.315325
Si Si7 0.956997 0.417536 0.067107
Si Si8 0.257782 0.663291 0.000444
O O1 0.653725 0.742879 0.727469
O O2 0.533443 0.862885 0.656392
O O3 0.768882 0.861307 0.755689
O O4 0.723535 0.856359 0.880900
O O5 0.218214 0.500000 0.313980
O O6 0.298849 0.633700 0.346770
O O7 0.181280 0.602362 0.411097
O O8 0.065228 0.614050 0.196370
O O9 0.442688 0.500000 0.222969
O O10 0.457496 0.381570 0.328434
O O11 0.607974 0.394118 0.302836
O O12 0.386284 0.370835 0.114925
O O13 0.500000 0.698835 0.500000
O O14 0.030554 0.500000 0.367983
O O15 0.151644 0.410245 0.551843
O O16 0.698867 0.500000 0.268092
O O17 0.921396 0.500000 0.073759
O O18 0.839661 0.366969 0.997015
O O19 0.000000 0.417334 0.000000
O O20 0.250000 0.750000 0.000000
#
# Coordination Sequence:
#
# PCOD8105058 Si02
#       8
#     8   8   8   8   8   8   8   8
#     4  12  25  42  65  95 133 176 222 264 322 385
#     4  10  21  38  63  93 121 160 214 270 328 382
#     4  11  25  46  69  96 132 175 220 267 326 395
#     4  12  25  41  64  98 137 176 215 266 332 396
#     4  10  20  40  68  97 129 166 218 278 322 372
#     4  10  23  42  66  97 131 171 220 268 317 380
#     4  10  21  39  66  94 119 157 214 272 322 377
#     4  12  25  45  64  92 133 172 212 265 324 387
#
# _framework density 20.650092999999998
#
# number of rings (size 3 to 8) (size 9 to 14) (size 15 to 20)
#    0.000    1.125    2.500    3.750    0.000    8.000 
#    0.000    3.750    0.000    0.000    0.000    0.000 
#    0.000    0.000    0.000    0.000    0.000    0.000 
#
# Total GULP energy -396803.260294 kJ/mol
# GULP energy per Si atom -12400.101884 kJ/mol
# Density = 2.060309 g / cm^3
# Si number density = 20.650093 Si / 1000 Ang^3
#
#
#
# Elastic Constant Matrix: (Units=GPa)
#
#
# Indices 1 2 3 4 5 6 
#
# 1 102.7130 40.3014 11.6099 0.0000 -1.4120 0.0000
# 2 40.3014 85.0666 19.8932 0.0000 2.8315 0.0000
# 3 11.6099 19.8932 82.2388 0.0000 -3.6148 0.0000
# 4 0.0000 0.0000 0.0000 33.1236 0.0000 -6.5590
# 5 -1.4120 2.8315 -3.6148 0.0000 29.5882 0.0000
# 6 0.0000 0.0000 0.0000 -6.5590 0.0000 22.5897
#
#
#
# Elastic Compliance Matrix: (Units=1/GPa)
#
#
# Indices 1 2 3 4 5 6 
#
# 1 0.012002 -0.005657 -0.000278 0.000000 0.001080 0.000000
# 2 -0.005657 0.015199 -0.002970 0.000000 -0.002087 0.000000
# 3 -0.000278 -0.002970 0.012999 0.000000 0.001859 0.000000
# 4 0.000000 0.000000 0.000000 0.032032 0.000000 0.009301
# 5 0.001080 -0.002087 0.001859 0.000000 0.034276 0.000000
# 6 0.000000 0.000000 0.000000 0.009301 0.000000 0.046968
#
#
# Mechanical properties :
#
#
# Convention : Reuss Voigt Hill
#
# Bulk Modulus (GPa) = 44.66269 45.95862 45.31065
# Shear Modulus (GPa) = 27.97206 30.27454 29.12330
#
# Velocity S-wave (km/s) = 3.68445 3.83309 3.75950
# Velocity P-wave (km/s) = 6.30678 6.47258 6.39022
#
# Compressibility (1/GPa) = 0.02239006
#
# Stress axis : x y z
#
# Youngs Moduli (GPa) = 83.32115 65.79177 76.92819
#
# Poissons Ratio (x) = 0.37217 0.02142
# Poissons Ratio (y) = 0.47133 0.22846
# Poissons Ratio (z) = 0.02320 0.19539
#
# Static dielectric constant tensor:
#      x y z
#    x 3.651600 0.000000 -0.039940 
#    y 0.000000 3.763460 0.000000 
#    z -0.039940 0.000000 3.942570 
# 
# 
# High freq. dielectric constant tensor:
#      x y z
#    x 1.818940 0.000000 -0.006940 
#    y 0.000000 1.805120 0.000000 
#    z -0.006940 0.000000 1.815800 
# 
# From -- ./inp_files/216813.got.cif
#   From: 2010.06.25/outbox.cif.g09.slc.cpg/sg12_109_cif.got.tgz:216813.got - 2010.06.28 00:19:55.
