data_PCOD8105179
_publ_section_title
;
Structure prediction by ZEFSAII (Michael W. Deem and Ramdas Pophale) SiO2 
 PCOD8105179
Probable space group: C 2/M
;
_chemical_formula_sum "Si O2"
_cell_formula_units_Z 36
_cell_length_a 8.369282
_cell_length_b 15.012863
_cell_length_c 14.303401
_cell_angle_alpha 90.000000
_cell_angle_beta 64.606189
_cell_angle_gamma 90.000000
_cell_volume 1623.537364
_symmetry_space_group_name_H-M "C 2/M"
_symmetry_group_IT_number 12
_symmetry_cell_setting 'monoclinic'
loop_
_space_group_symop_operation_xyz
x,y,z
-x,y,-z
-x,-y,-z
x,-y,z
1/2+x,1/2+y,z
1/2-x,1/2+y,-z
1/2-x,1/2-y,-z
1/2+x,1/2-y,z
loop_
_atom_site_type_symbol
_atom_site_label
_atom_site_fract_x
_atom_site_fract_y
_atom_site_fract_z
Si Si1 0.010203 0.000000 0.246869
Si Si2 0.294804 0.324434 0.561026
Si Si3 0.141801 0.687015 0.099168
Si Si4 0.256529 0.675819 0.785812
Si Si5 0.322189 0.500000 0.485848
Si Si6 0.822664 0.000000 0.099491
O O1 0.137600 0.085860 0.217126
O O2 0.871819 0.000000 0.365236
O O3 0.876031 0.000000 0.194118
O O4 0.500000 0.340984 0.500000
O O5 0.250000 0.250000 0.500000
O O6 0.236417 0.305234 0.680896
O O7 0.203379 0.415003 0.545706
O O8 0.140205 0.739947 0.197703
O O9 0.219745 0.588837 0.094599
O O10 0.938665 0.672519 0.118410
O O11 0.250000 0.750000 0.000000
O O12 0.500000 0.500000 0.500000
O O13 0.000000 0.000000 0.000000
#
# Coordination Sequence:
#
# PCOD8105179 Si02
#       6
#     4   8   8   8   4   4
#     4  12  23  43  74 100 138 187 231 285 354 404
#     4  11  22  40  65  97 135 177 230 275 340 406
#     4  12  27  46  69 103 140 176 234 288 347 416
#     4  12  23  42  70  99 136 186 225 283 347 410
#     4  10  20  42  64  96 139 180 222 280 339 405
#     4  12  27  47  70 100 136 178 233 290 350 413
#
# _framework density 22.173805000000002
#
# number of rings (size 3 to 8) (size 9 to 14) (size 15 to 20)
#    0.000    0.444    4.444    6.667    3.111    0.000 
#    0.000    3.889    0.000    0.000    0.000    0.000 
#    0.000    0.000    0.000    0.000    0.000    0.000 
#
# Total GULP energy -223081.806891 kJ/mol
# GULP energy per Si atom -12393.433716 kJ/mol
# Density = 2.212334 g / cm^3
# Si number density = 22.173805 Si / 1000 Ang^3
#
#
#
# Elastic Constant Matrix: (Units=GPa)
#
#
# Indices 1 2 3 4 5 6 
#
# 1 61.7376 31.2225 2.7688 0.0000 4.8360 0.0000
# 2 31.2225 208.0405 31.9831 0.0000 20.4157 0.0000
# 3 2.7688 31.9831 107.2361 0.0000 13.3876 0.0000
# 4 0.0000 0.0000 0.0000 38.0587 0.0000 -2.1902
# 5 4.8360 20.4157 13.3876 0.0000 32.5074 0.0000
# 6 0.0000 0.0000 0.0000 -2.1902 0.0000 29.0331
#
#
#
# Elastic Compliance Matrix: (Units=1/GPa)
#
#
# Indices 1 2 3 4 5 6 
#
# 1 0.017581 -0.002595 0.000467 0.000000 -0.001178 0.000000
# 2 -0.002595 0.005653 -0.001290 0.000000 -0.002633 0.000000
# 3 0.000467 -0.001290 0.010126 0.000000 -0.003429 0.000000
# 4 0.000000 0.000000 0.000000 0.026390 0.000000 0.001991
# 5 -0.001178 -0.002633 -0.003429 0.000000 0.034003 0.000000
# 6 0.000000 0.000000 0.000000 0.001991 0.000000 0.034594
#
#
# Mechanical properties :
#
#
# Convention : Reuss Voigt Hill
#
# Bulk Modulus (GPa) = 37.70148 56.55148 47.12648
# Shear Modulus (GPa) = 34.71637 40.65583 37.68610
#
# Velocity S-wave (km/s) = 3.96112 4.28659 4.12707
# Velocity P-wave (km/s) = 6.16119 7.07523 6.63397
#
# Compressibility (1/GPa) = 0.02652416
#
# Stress axis : x y z
#
# Youngs Moduli (GPa) = 56.87907 176.90033 98.75456
#
# Poissons Ratio (x) = 0.45901 -0.04612
# Poissons Ratio (y) = 0.14759 0.12742
# Poissons Ratio (z) = -0.02656 0.22825
#
# Static dielectric constant tensor:
#      x y z
#    x 3.819510 0.000000 0.087340 
#    y 0.000000 1.533640 0.000000 
#    z 0.087340 0.000000 4.451000 
# 
# 
# High freq. dielectric constant tensor:
#      x y z
#    x 1.861830 0.000000 0.009370 
#    y 0.000000 1.901360 0.000000 
#    z 0.009370 0.000000 1.886890 
# 
# From -- ./inp_files/194000.got.cif
#   From: 2010.06.25/outbox.cif.g09.slc.cpg/sg12_97_cif.got.tgz:194000.got - 2010.06.28 00:19:55.
