data_PCOD8105700
_publ_section_title
;
Structure prediction by ZEFSAII (Michael W. Deem and Ramdas Pophale) SiO2 
 PCOD8105700
Probable space group: C 2/M
;
_chemical_formula_sum "Si O2"
_cell_formula_units_Z 56
_cell_length_a 13.725486
_cell_length_b 18.870578
_cell_length_c 20.636114
_cell_angle_alpha 90.000000
_cell_angle_beta 31.832939
_cell_angle_gamma 90.000000
_cell_volume 2819.145305
_symmetry_space_group_name_H-M "C 2/M"
_symmetry_group_IT_number 12
_symmetry_cell_setting 'monoclinic'
loop_
_space_group_symop_operation_xyz
x,y,z
-x,y,-z
-x,-y,-z
x,-y,z
1/2+x,1/2+y,z
1/2-x,1/2+y,-z
1/2-x,1/2-y,-z
1/2+x,1/2-y,z
loop_
_atom_site_type_symbol
_atom_site_label
_atom_site_fract_x
_atom_site_fract_y
_atom_site_fract_z
Si Si1 0.824532 0.328355 0.465087
Si Si2 0.581554 0.786057 0.854741
Si Si3 0.715178 0.144410 0.289840
Si Si4 0.208045 0.812186 0.136986
Si Si5 0.006997 0.327924 0.761182
Si Si6 0.102157 0.915780 0.689173
Si Si7 0.703939 0.580199 0.884928
O O1 0.750000 0.250000 0.500000
O O2 0.676837 0.381578 0.580325
O O3 0.008222 0.323996 0.406309
O O4 0.863457 0.356654 0.369979
O O5 0.634095 0.704620 0.812058
O O6 0.709314 0.819345 0.837683
O O7 0.611418 0.829717 0.771063
O O8 0.366415 0.792964 0.995833
O O9 0.758098 0.106118 0.332752
O O10 0.718321 0.085357 0.231767
O O11 0.051967 0.751988 0.223437
O O12 0.104199 0.886009 0.179576
O O13 0.824503 0.376207 0.868229
O O14 0.092448 0.000000 0.687999
O O15 0.700358 0.500000 0.911424
O O16 0.500000 0.613653 0.000000
#
# Coordination Sequence:
#
# PCOD8105700 Si02
#       7
#     8   8   8   8   8   8   8
#     4  11  21  40  62  89 127 165 214 262 312 380
#     4  11  21  38  67  98 124 164 215 268 321 384
#     4  11  21  37  64  93 127 162 211 263 324 384
#     4  11  22  40  64  94 131 167 214 266 316 386
#     4  11  21  36  63  89 122 159 210 258 318 376
#     4  12  26  42  62  93 133 177 217 268 330 382
#     4  10  21  35  54  88 129 159 196 250 316 388
#
# _framework density 19.864176
#
# number of rings (size 3 to 8) (size 9 to 14) (size 15 to 20)
#    0.000    1.000    5.714    2.143    2.000    3.429 
#    0.000    2.857    0.000    0.857    0.000    0.000 
#    0.000    0.000    0.000    0.000    0.000    0.000 
#
# Total GULP energy -347188.463658 kJ/mol
# GULP energy per Si atom -12399.587988 kJ/mol
# Density = 1.981896 g / cm^3
# Si number density = 19.864176 Si / 1000 Ang^3
#
#
#
# Elastic Constant Matrix: (Units=GPa)
#
#
# Indices 1 2 3 4 5 6 
#
# 1 98.2399 27.8692 14.9742 -0.0002 11.5700 0.0049
# 2 27.8692 115.4530 35.7733 0.0077 -10.5386 0.0066
# 3 14.9742 35.7733 78.0943 0.0191 -5.4624 0.0171
# 4 -0.0002 0.0077 0.0191 26.1342 0.0032 -1.3199
# 5 11.5700 -10.5386 -5.4624 0.0032 30.5713 -0.0065
# 6 0.0049 0.0066 0.0171 -1.3199 -0.0065 26.2827
#
#
#
# Elastic Compliance Matrix: (Units=1/GPa)
#
#
# Indices 1 2 3 4 5 6 
#
# 1 0.011909 -0.002994 -0.001316 0.000003 -0.005774 -0.000002
# 2 -0.002994 0.011070 -0.004203 -0.000001 0.004198 0.000002
# 3 -0.001316 -0.004203 0.015105 -0.000010 0.001748 -0.000009
# 4 0.000003 -0.000001 -0.000010 0.038361 -0.000007 0.001926
# 5 -0.005774 0.004198 0.001748 -0.000007 0.036655 0.000008
# 6 -0.000002 0.000002 -0.000009 0.001926 0.000008 0.038145
#
#
# Mechanical properties :
#
#
# Convention : Reuss Voigt Hill
#
# Bulk Modulus (GPa) = 47.48835 49.89116 48.68976
# Shear Modulus (GPa) = 28.52403 30.80899 29.66651
#
# Velocity S-wave (km/s) = 3.79351 3.94252 3.86873
# Velocity P-wave (km/s) = 6.56856 6.77461 6.67238
#
# Compressibility (1/GPa) = 0.02105779
#
# Stress axis : x y z
#
# Youngs Moduli (GPa) = 83.96874 90.33560 66.20336
#
# Poissons Ratio (x) = 0.27048 0.08712
# Poissons Ratio (y) = 0.25141 0.27826
# Poissons Ratio (z) = 0.11049 0.37969
#
# Static dielectric constant tensor:
#      x y z
#    x 3.738420 -0.000020 0.007340 
#    y -0.000020 3.339640 0.000050 
#    z 0.007340 0.000050 3.811710 
# 
# 
# High freq. dielectric constant tensor:
#      x y z
#    x 1.776280 0.000000 0.003900 
#    y 0.000000 1.747020 0.000000 
#    z 0.003900 0.000000 1.781460 
# 
# From -- ./inp_files/311695.got.cif
#   From: 2010.06.25/outbox.cif.g09.slc.cpg/sg12_156_cif.got.tgz:311695.got - 2010.06.28 00:19:55.
