data_PCOD8105618
_publ_section_title
;
Structure prediction by ZEFSAII (Michael W. Deem and Ramdas Pophale) SiO2 
 PCOD8105618
Probable space group: C 2/M
;
_chemical_formula_sum "Si O2"
_cell_formula_units_Z 56
_cell_length_a 8.723360
_cell_length_b 18.871304
_cell_length_c 22.131100
_cell_angle_alpha 90.000000
_cell_angle_beta 53.754147
_cell_angle_gamma 90.000000
_cell_volume 2938.233417
_symmetry_space_group_name_H-M "C 2/M"
_symmetry_group_IT_number 12
_symmetry_cell_setting 'monoclinic'
loop_
_space_group_symop_operation_xyz
x,y,z
-x,y,-z
-x,-y,-z
x,-y,z
1/2+x,1/2+y,z
1/2-x,1/2+y,-z
1/2-x,1/2-y,-z
1/2+x,1/2-y,z
loop_
_atom_site_type_symbol
_atom_site_label
_atom_site_fract_x
_atom_site_fract_y
_atom_site_fract_z
Si Si1 0.687234 0.825309 0.921680
Si Si2 0.967688 0.418393 0.641053
Si Si3 0.047726 0.825309 0.921680
Si Si4 0.230699 0.583334 0.796198
Si Si5 0.109153 0.918393 0.641053
Si Si6 0.318586 0.172306 0.500000
Si Si7 0.619292 0.916666 0.203802
O O1 0.652306 0.750000 0.898463
O O2 0.745485 0.881398 0.857809
O O3 0.853271 0.817469 0.931153
O O4 0.500000 0.852412 0.000000
O O5 0.033582 0.500000 0.621268
O O6 0.765273 0.407720 0.656485
O O7 0.949710 0.392780 0.714059
O O8 0.129213 0.370261 0.572862
O O9 0.181089 0.881398 0.857808
O O10 0.000000 0.852412 0.000000
O O11 0.236986 0.500000 0.805446
O O12 0.408114 0.607220 0.714059
O O13 0.038432 0.607470 0.807712
O O14 0.152201 0.870261 0.572862
O O15 0.102614 0.000000 0.621268
O O16 0.500000 0.177309 0.500000
O O17 0.250000 0.250000 0.500000
O O18 0.653324 0.000000 0.194554
#
# Coordination Sequence:
#
# PCOD8105618 Si02
#       7
#     8   8   8   8   8   8   8
#     4  11  22  38  59  82 111 146 184 225 272 326
#     4   9  18  35  57  78 103 140 184 225 268 320
#     4  11  22  38  59  82 111 146 184 225 272 326
#     4  10  21  37  57  83 113 144 182 227 273 323
#     4   9  18  35  57  78 103 140 184 225 268 320
#     4  10  21  35  53  79 109 140 176 222 272 324
#     4  10  21  37  57  83 113 144 182 227 273 323
#
# _framework density 19.059072
#
# number of rings (size 3 to 8) (size 9 to 14) (size 15 to 20)
#    0.000    2.000    0.000    4.714    0.000    6.286 
#    0.000    2.857    0.000    4.286    0.000    0.000 
#    0.000    0.000    0.000    0.000    0.000    0.000 
#
# Total GULP energy -347322.443481 kJ/mol
# GULP energy per Si atom -12404.372981 kJ/mol
# Density = 1.901569 g / cm^3
# Si number density = 19.059072 Si / 1000 Ang^3
#
#
#
# Elastic Constant Matrix: (Units=GPa)
#
#
# Indices 1 2 3 4 5 6 
#
# 1 110.7101 38.0195 56.9525 -0.0001 -0.0011 0.0003
# 2 38.0195 79.1905 74.1345 0.0000 -0.0015 0.0000
# 3 56.9525 74.1345 149.2408 -0.0001 -0.0013 0.0002
# 4 -0.0001 0.0000 -0.0001 18.0031 0.0000 0.0006
# 5 -0.0011 -0.0015 -0.0013 0.0000 33.9489 -0.0002
# 6 0.0003 0.0000 0.0002 0.0006 -0.0002 32.2067
#
#
#
# Elastic Compliance Matrix: (Units=1/GPa)
#
#
# Indices 1 2 3 4 5 6 
#
# 1 0.011528 -0.002647 -0.003084 0.000000 0.000000 0.000000
# 2 -0.002647 0.024213 -0.011017 0.000000 0.000001 0.000000
# 3 -0.003084 -0.011017 0.013350 0.000000 0.000000 0.000000
# 4 0.000000 0.000000 0.000000 0.055546 0.000000 -0.000001
# 5 0.000000 0.000001 0.000000 0.000000 0.029456 0.000000
# 6 0.000000 0.000000 0.000000 -0.000001 0.000000 0.031049
#
#
# Mechanical properties :
#
#
# Convention : Reuss Voigt Hill
#
# Bulk Modulus (GPa) = 64.12925 75.26158 69.69541
# Shear Modulus (GPa) = 24.52924 28.16741 26.34832
#
# Velocity S-wave (km/s) = 3.59139 3.84852 3.72217
# Velocity P-wave (km/s) = 7.13569 7.70211 7.42430
#
# Compressibility (1/GPa) = 0.01559351
#
# Stress axis : x y z
#
# Youngs Moduli (GPa) = 86.74214 41.30091 74.90467
#
# Poissons Ratio (x) = 0.10934 0.23103
# Poissons Ratio (y) = 0.22964 0.82524
# Poissons Ratio (z) = 0.26754 0.45502
#
# Static dielectric constant tensor:
#      x y z
#    x 3.514190 0.000000 0.000000 
#    y 0.000000 3.474690 0.000000 
#    z 0.000000 0.000000 3.605580 
# 
# 
# High freq. dielectric constant tensor:
#      x y z
#    x 1.745820 0.000000 0.000000 
#    y 0.000000 1.734630 0.000000 
#    z 0.000000 0.000000 1.753130 
# 
# From -- ./inp_files/301631.got.cif
#   From: 2010.06.25/outbox.cif.g09.slc.cpg/sg12_151_cif.got.tgz:301631.got - 2010.06.28 00:19:55.
