data_PCOD8105557
_publ_section_title
;
Structure prediction by ZEFSAII (Michael W. Deem and Ramdas Pophale) SiO2 
 PCOD8105557
Probable space group: C 2/M
;
_chemical_formula_sum "Si O2"
_cell_formula_units_Z 64
_cell_length_a 14.684720
_cell_length_b 8.597664
_cell_length_c 26.098496
_cell_angle_alpha 90.000000
_cell_angle_beta 88.736180
_cell_angle_gamma 90.000000
_cell_volume 3294.245477
_symmetry_space_group_name_H-M "C 2/M"
_symmetry_group_IT_number 12
_symmetry_cell_setting 'monoclinic'
loop_
_space_group_symop_operation_xyz
x,y,z
-x,y,-z
-x,-y,-z
x,-y,z
1/2+x,1/2+y,z
1/2-x,1/2+y,-z
1/2-x,1/2-y,-z
1/2+x,1/2-y,z
loop_
_atom_site_type_symbol
_atom_site_label
_atom_site_fract_x
_atom_site_fract_y
_atom_site_fract_z
Si Si1 0.135982 0.317496 0.362303
Si Si2 0.658427 0.321429 0.620356
Si Si3 0.018789 0.317718 0.193149
Si Si4 0.865749 0.819105 0.263359
Si Si5 0.497126 0.815676 0.078476
Si Si6 0.672327 0.318941 0.256344
Si Si7 0.488706 0.817887 0.443627
Si Si8 0.851140 0.683977 0.000557
O O1 0.122404 0.500000 0.350766
O O2 0.235049 0.284454 0.384320
O O3 0.121371 0.224625 0.309803
O O4 0.064484 0.249544 0.404119
O O5 0.638248 0.500000 0.608259
O O6 0.620743 0.277684 0.677038
O O7 0.610579 0.218245 0.577657
O O8 0.041795 0.500000 0.193245
O O9 0.932687 0.287699 0.230232
O O10 0.995817 0.255076 0.136644
O O11 0.105881 0.221285 0.210583
O O12 0.762815 0.782516 0.248271
O O13 0.885842 0.000000 0.252626
O O14 0.405878 0.756413 0.050434
O O15 0.496054 0.000000 0.076766
O O16 0.589616 0.758277 0.049121
O O17 0.697317 0.500000 0.255439
O O18 0.500000 0.742776 0.500000
O O19 0.503926 0.000000 0.447695
O O20 0.842895 0.500000 0.000951
O O21 0.750000 0.750000 0.000000
#
# Coordination Sequence:
#
# PCOD8105557 Si02
#       8
#     8   8   8   8   8   8   8   8
#     4   9  19  37  56  74 103 140 174 215 266 316
#     4   9  19  35  54  74  99 133 172 213 260 312
#     4  11  21  35  55  81 113 147 179 220 270 317
#     4  10  21  38  57  80 109 142 180 222 268 321
#     4   8  18  35  54  76 107 143 177 213 263 321
#     4  11  22  36  55  81 109 142 183 222 265 321
#     4  10  21  35  52  76 104 134 170 212 262 318
#     4   9  17  35  58  78 102 138 180 221 264 311
#
# _framework density 19.427817999999998
#
# number of rings (size 3 to 8) (size 9 to 14) (size 15 to 20)
#    0.000    2.375    0.000    4.125    0.000    6.750 
#    0.000    6.250    0.000    0.000    0.000    0.000 
#    0.000    0.000    0.000    0.000    0.000    0.000 
#
# Total GULP energy -396813.956736 kJ/mol
# GULP energy per Si atom -12400.436148 kJ/mol
# Density = 1.938360 g / cm^3
# Si number density = 19.427818 Si / 1000 Ang^3
#
#
#
# Elastic Constant Matrix: (Units=GPa)
#
#
# Indices 1 2 3 4 5 6 
#
# 1 102.2891 11.0355 46.8667 0.0000 15.6970 0.0000
# 2 11.0355 36.7926 20.5270 0.0000 4.4566 0.0000
# 3 46.8667 20.5270 94.4491 0.0000 24.6147 0.0000
# 4 0.0000 0.0000 0.0000 20.5866 0.0000 1.8067
# 5 15.6970 4.4566 24.6147 0.0000 24.8967 0.0000
# 6 0.0000 0.0000 0.0000 1.8067 0.0000 33.5590
#
#
#
# Elastic Compliance Matrix: (Units=1/GPa)
#
#
# Indices 1 2 3 4 5 6 
#
# 1 0.012764 -0.000402 -0.005614 0.000000 -0.002425 0.000000
# 2 -0.000402 0.030984 -0.006944 0.000000 0.001573 0.000000
# 3 -0.005614 -0.006944 0.018369 0.000000 -0.013379 0.000000
# 4 0.000000 0.000000 0.000000 0.048806 0.000000 -0.002628
# 5 -0.002425 0.001573 -0.013379 0.000000 0.054640 0.000000
# 6 0.000000 0.000000 0.000000 -0.002628 0.000000 0.029940
#
#
# Mechanical properties :
#
#
# Convention : Reuss Voigt Hill
#
# Bulk Modulus (GPa) = 27.62762 43.37659 35.50210
# Shear Modulus (GPa) = 21.41420 26.14857 23.78138
#
# Velocity S-wave (km/s) = 3.32361 3.67268 3.50249
# Velocity P-wave (km/s) = 5.38331 6.35297 5.88814
#
# Compressibility (1/GPa) = 0.03619566
#
# Stress axis : x y z
#
# Youngs Moduli (GPa) = 78.34487 32.27496 54.43835
#
# Poissons Ratio (x) = 0.01299 0.30563
# Poissons Ratio (y) = 0.03153 0.37802
# Poissons Ratio (z) = 0.43985 0.22412
#
# Static dielectric constant tensor:
#      x y z
#    x 3.611750 0.000000 0.020040 
#    y 0.000000 3.291160 0.000000 
#    z 0.020040 0.000000 3.807760 
# 
# 
# High freq. dielectric constant tensor:
#      x y z
#    x 1.764360 0.000000 0.003440 
#    y 0.000000 1.736670 0.000000 
#    z 0.003440 0.000000 1.754770 
# 
# From -- ./inp_files/359843.got.cif
#   From: 2010.06.25/outbox.cif.g09.slc.cpg/sg12_180_cif.got.tgz:359843.got - 2010.06.28 00:19:55.
