data_PCOD8105984
_publ_section_title
;
Structure prediction by ZEFSAII (Michael W. Deem and Ramdas Pophale) SiO2 
 PCOD8105984
Probable space group: C 2/M
;
_chemical_formula_sum "Si O2"
_cell_formula_units_Z 64
_cell_length_a 9.079485
_cell_length_b 27.360295
_cell_length_c 14.567403
_cell_angle_alpha 90.000000
_cell_angle_beta 71.842084
_cell_angle_gamma 90.000000
_cell_volume 3438.584519
_symmetry_space_group_name_H-M "C 2/M"
_symmetry_group_IT_number 12
_symmetry_cell_setting 'monoclinic'
loop_
_space_group_symop_operation_xyz
x,y,z
-x,y,-z
-x,-y,-z
x,-y,z
1/2+x,1/2+y,z
1/2-x,1/2+y,-z
1/2-x,1/2-y,-z
1/2+x,1/2-y,z
loop_
_atom_site_type_symbol
_atom_site_label
_atom_site_fract_x
_atom_site_fract_y
_atom_site_fract_z
Si Si1 0.720810 0.700066 0.719575
Si Si2 0.373614 0.636378 0.099056
Si Si3 0.310036 0.056560 0.219602
Si Si4 0.027330 0.363622 0.099056
Si Si5 0.470363 0.556560 0.219602
Si Si6 0.059616 0.299934 0.719575
Si Si7 0.771849 0.395480 0.611012
Si Si8 0.382861 0.104520 0.388988
O O1 0.630954 0.680137 0.826417
O O2 0.651559 0.750000 0.696882
O O3 0.711447 0.659452 0.641372
O O4 0.895653 0.712239 0.708694
O O5 0.208215 0.628285 0.083570
O O6 0.421973 0.586101 0.138537
O O7 0.500000 0.651759 0.000000
O O8 0.439490 0.086101 0.138537
O O9 0.323525 0.065888 0.325893
O O10 0.140639 0.073101 0.218723
O O11 0.339680 0.000000 0.193676
O O12 0.957371 0.319863 0.173583
O O13 0.000000 0.348241 0.000000
O O14 0.466644 0.500000 0.193676
O O15 0.350582 0.565888 0.325893
O O16 0.147181 0.340549 0.641372
O O17 0.786673 0.404205 0.500000
O O18 0.934114 0.403635 0.631772
#
# Coordination Sequence:
#
# PCOD8105984 Si02
#       8
#     8   8   8   8   8   8   8   8
#     4   9  19  34  52  76 105 137 173 213 256 305
#     4  10  21  37  56  78 105 137 174 214 257 308
#     4  10  21  36  54  78 107 137 172 215 261 309
#     4  10  21  37  56  78 105 137 174 214 257 308
#     4  10  21  36  54  78 107 137 172 215 261 309
#     4   9  19  34  52  76 105 137 173 213 256 305
#     4   9  19  36  55  76 105 140 177 215 257 308
#     4   9  19  36  55  76 105 140 177 215 257 308
#
# _framework density 18.612310000000001
#
# number of rings (size 3 to 8) (size 9 to 14) (size 15 to 20)
#    0.000    2.500    0.000    3.000    0.000    9.500 
#    0.000    5.000    0.000    0.000    0.000    0.000 
#    0.000    0.000    0.000    0.000    0.000    0.000 
#
# Total GULP energy -396859.654552 kJ/mol
# GULP energy per Si atom -12401.864205 kJ/mol
# Density = 1.856995 g / cm^3
# Si number density = 18.612310 Si / 1000 Ang^3
#
#
#
# Elastic Constant Matrix: (Units=GPa)
#
#
# Indices 1 2 3 4 5 6 
#
# 1 68.6823 14.9528 10.2990 0.0000 0.1189 0.0000
# 2 14.9528 47.0544 -21.2872 0.0000 -0.8216 0.0000
# 3 10.2990 -21.2872 46.6459 0.0000 -0.6184 0.0000
# 4 0.0000 0.0000 0.0000 12.5960 0.0000 -0.4950
# 5 0.1189 -0.8216 -0.6184 0.0000 31.7956 0.0000
# 6 0.0000 0.0000 0.0000 -0.4950 0.0000 34.4290
#
#
#
# Elastic Compliance Matrix: (Units=1/GPa)
#
#
# Indices 1 2 3 4 5 6 
#
# 1 0.017844 -0.009405 -0.008238 0.000000 -0.000470 0.000000
# 2 -0.009405 0.031766 0.016589 0.000000 0.001179 0.000000
# 3 -0.008238 0.016589 0.030842 0.000000 0.001059 0.000000
# 4 0.000000 0.000000 0.000000 0.079435 0.000000 0.001142
# 5 -0.000470 0.001179 0.001059 0.000000 0.031504 0.000000
# 6 0.000000 0.000000 0.000000 0.001142 0.000000 0.029062
#
#
# Mechanical properties :
#
#
# Convention : Reuss Voigt Hill
#
# Bulk Modulus (GPa) = 12.76448 18.92352 15.84400
# Shear Modulus (GPa) = 20.10654 26.32532 23.21593
#
# Velocity S-wave (km/s) = 3.29033 3.76494 3.53561
# Velocity P-wave (km/s) = 4.61606 5.39342 5.01981
#
# Compressibility (1/GPa) = 0.07834240
#
# Stress axis : x y z
#
# Youngs Moduli (GPa) = 56.04250 31.47995 32.42369
#
# Poissons Ratio (x) = 0.29608 0.26711
# Poissons Ratio (y) = 0.52710 -0.53788
# Poissons Ratio (z) = 0.46169 -0.52222
#
# Static dielectric constant tensor:
#      x y z
#    x 3.482530 0.000000 0.000880 
#    y 0.000000 3.262700 0.000000 
#    z 0.000880 0.000000 3.521020 
# 
# 
# High freq. dielectric constant tensor:
#      x y z
#    x 1.728170 0.000000 -0.000110 
#    y 0.000000 1.716750 0.000000 
#    z -0.000110 0.000000 1.723450 
# 
# From -- ./inp_files/199762.got.cif
#   From: 2010.06.25/outbox.cif.g09.slc.cpg/sg12_100_cif.got.tgz:199762.got - 2010.06.28 00:19:55.
