data_PCOD8105884
_publ_section_title
;
Structure prediction by ZEFSAII (Michael W. Deem and Ramdas Pophale) SiO2 
 PCOD8105884
Probable space group: C 2/M
;
_chemical_formula_sum "Si O2"
_cell_formula_units_Z 56
_cell_length_a 14.317128
_cell_length_b 9.022897
_cell_length_c 24.439777
_cell_angle_alpha 90.000000
_cell_angle_beta 106.388150
_cell_angle_gamma 90.000000
_cell_volume 3028.909819
_symmetry_space_group_name_H-M "C 2/M"
_symmetry_group_IT_number 12
_symmetry_cell_setting 'monoclinic'
loop_
_space_group_symop_operation_xyz
x,y,z
-x,y,-z
-x,-y,-z
x,-y,z
1/2+x,1/2+y,z
1/2-x,1/2+y,-z
1/2-x,1/2-y,-z
1/2+x,1/2-y,z
loop_
_atom_site_type_symbol
_atom_site_label
_atom_site_fract_x
_atom_site_fract_y
_atom_site_fract_z
Si Si1 0.774220 0.327347 0.857803
Si Si2 0.554064 0.824600 0.425957
Si Si3 0.054776 0.173669 0.842006
Si Si4 0.167433 0.176196 0.356123
Si Si5 0.357127 0.175140 0.448561
Si Si6 0.623600 0.826294 0.237967
Si Si7 0.548312 0.673117 0.063254
O O1 0.781217 0.500000 0.871575
O O2 0.664585 0.270117 0.849830
O O3 0.805851 0.290537 0.801202
O O4 0.846794 0.247896 0.911771
O O5 0.574106 0.736202 0.373429
O O6 0.629243 0.772812 0.486283
O O7 0.447238 0.772988 0.426440
O O8 0.560329 0.000000 0.416244
O O9 0.984327 0.262542 0.789682
O O10 0.025110 0.210113 0.899374
O O11 0.044200 0.000000 0.827093
O O12 0.259660 0.238590 0.405380
O O13 0.172192 0.244883 0.296974
O O14 0.164958 0.000000 0.351037
O O15 0.355277 0.000000 0.448341
O O16 0.615076 0.000000 0.248015
O O17 0.568133 0.500000 0.061519
O O18 0.500000 0.736103 0.000000
#
# Coordination Sequence:
#
# PCOD8105884 Si02
#       7
#     8   8   8   8   8   8   8
#     4   9  19  35  54  74  99 133 171 210 252 292
#     4   9  17  34  55  74  98 131 167 202 242 296
#     4   9  18  35  55  74 101 135 167 206 253 294
#     4  11  21  33  50  75 102 129 162 204 254 300
#     4   8  17  33  53  74 100 132 164 199 246 301
#     4  10  21  36  51  71  97 128 169 211 249 296
#     4   9  18  32  51  78 110 139 168 202 243 296
#
# _framework density 18.488499999999998
#
# number of rings (size 3 to 8) (size 9 to 14) (size 15 to 20)
#    0.000    2.714    0.000    2.143    0.000    3.143 
#    0.000    6.429    0.000    0.000    0.000    0.000 
#    0.000    0.000    0.000    0.000    0.000    0.000 
#
# Total GULP energy -347198.421026 kJ/mol
# GULP energy per Si atom -12399.943608 kJ/mol
# Density = 1.844642 g / cm^3
# Si number density = 18.488500 Si / 1000 Ang^3
#
#
#
# Elastic Constant Matrix: (Units=GPa)
#
#
# Indices 1 2 3 4 5 6 
#
# 1 109.7974 30.0179 38.0849 0.0000 6.4852 0.0000
# 2 30.0179 51.7811 34.8221 0.0000 1.8824 0.0000
# 3 38.0849 34.8221 97.8435 0.0000 0.8152 0.0000
# 4 0.0000 0.0000 0.0000 27.5751 0.0000 2.6860
# 5 6.4852 1.8824 0.8152 0.0000 18.6275 0.0000
# 6 0.0000 0.0000 0.0000 2.6860 0.0000 25.1033
#
#
#
# Elastic Compliance Matrix: (Units=1/GPa)
#
#
# Indices 1 2 3 4 5 6 
#
# 1 0.011566 -0.004696 -0.002802 0.000000 -0.003430 0.000000
# 2 -0.004696 0.027383 -0.007911 0.000000 -0.000786 0.000000
# 3 -0.002802 -0.007911 0.014117 0.000000 0.001157 0.000000
# 4 0.000000 0.000000 0.000000 0.036647 0.000000 -0.003921
# 5 -0.003430 -0.000786 0.001157 0.000000 0.054907 0.000000
# 6 0.000000 0.000000 0.000000 -0.003921 0.000000 0.040255
#
#
# Mechanical properties :
#
#
# Convention : Reuss Voigt Hill
#
# Bulk Modulus (GPa) = 44.94835 51.69688 48.32261
# Shear Modulus (GPa) = 22.41061 24.69432 23.55246
#
# Velocity S-wave (km/s) = 3.48535 3.65863 3.57304
# Velocity P-wave (km/s) = 6.36877 6.77272 6.57385
#
# Compressibility (1/GPa) = 0.02224776
#
# Stress axis : x y z
#
# Youngs Moduli (GPa) = 86.45995 36.51910 70.83640
#
# Poissons Ratio (x) = 0.17149 0.19850
# Poissons Ratio (y) = 0.40600 0.56039
# Poissons Ratio (z) = 0.24228 0.28891
#
# Static dielectric constant tensor:
#      x y z
#    x 3.549200 0.000000 0.120840 
#    y 0.000000 3.183800 0.000000 
#    z 0.120840 0.000000 3.535290 
# 
# 
# High freq. dielectric constant tensor:
#      x y z
#    x 1.720450 0.000000 -0.000970 
#    y 0.000000 1.701810 0.000000 
#    z -0.000970 0.000000 1.718530 
# 
# From -- ./inp_files/337858.got.cif
#   From: 2010.06.25/outbox.cif.g09.slc.cpg/sg12_169_cif.got.tgz:337858.got - 2010.06.28 00:19:55.
