data_PCOD8105465
_publ_section_title
;
Structure prediction by ZEFSAII (Michael W. Deem and Ramdas Pophale) SiO2 
 PCOD8105465
Probable space group: C 2/M
;
_chemical_formula_sum "Si O2"
_cell_formula_units_Z 56
_cell_length_a 7.889411
_cell_length_b 19.079919
_cell_length_c 25.880523
_cell_angle_alpha 90.000000
_cell_angle_beta 44.582471
_cell_angle_gamma 90.000000
_cell_volume 2734.583367
_symmetry_space_group_name_H-M "C 2/M"
_symmetry_group_IT_number 12
_symmetry_cell_setting 'monoclinic'
loop_
_space_group_symop_operation_xyz
x,y,z
-x,y,-z
-x,-y,-z
x,-y,z
1/2+x,1/2+y,z
1/2-x,1/2+y,-z
1/2-x,1/2-y,-z
1/2+x,1/2-y,z
loop_
_atom_site_type_symbol
_atom_site_label
_atom_site_fract_x
_atom_site_fract_y
_atom_site_fract_z
Si Si1 0.947265 0.806259 0.944935
Si Si2 0.595148 0.079274 0.037032
Si Si3 0.102248 0.327292 0.587122
Si Si4 0.491698 0.672761 0.587306
Si Si5 0.154151 0.918794 0.648404
Si Si6 0.059670 0.749495 0.158746
Si Si7 0.775317 0.857761 0.800859
O O1 0.026525 0.802739 0.867397
O O2 0.194591 0.784529 0.919189
O O3 0.750000 0.750000 0.000000
O O4 0.853043 0.881884 0.983788
O O5 0.392908 0.108398 0.119262
O O6 0.648213 0.000000 0.040427
O O7 0.500000 0.089137 0.000000
O O8 0.292085 0.332029 0.499980
O O9 0.237662 0.342746 0.612578
O O10 0.984657 0.249975 0.614159
O O11 0.893980 0.383439 0.619812
O O12 0.551504 0.616512 0.618700
O O13 0.944768 0.914689 0.737266
O O14 0.210234 0.000000 0.624768
O O15 0.067525 0.795338 0.208342
O O16 0.883843 0.683337 0.207370
#
# Coordination Sequence:
#
# PCOD8105465 Si02
#       7
#     8   8   8   8   8   8   8
#     4  11  17  34  59  86 104 139 195 260 305 367
#     4  11  21  35  56  82 116 155 195 250 317 379
#     4  10  21  41  74 106 132 171 224 272 315 388
#     4  10  21  41  72 107 134 168 223 274 320 381
#     4  12  27  44  64  96 143 183 216 272 340 400
#     4  10  21  34  62  84 109 145 206 264 308 364
#     4  11  24  39  57  89 120 160 208 261 318 388
#
# _framework density 20.478439999999999
#
# number of rings (size 3 to 8) (size 9 to 14) (size 15 to 20)
#    0.000    1.286    5.714    1.286    2.000    1.714 
#    2.571    3.571    0.000    0.000    0.000    0.000 
#    0.000    0.000    0.000    0.000    0.000    0.000 
#
# Total GULP energy -346999.783200 kJ/mol
# GULP energy per Si atom -12392.849400 kJ/mol
# Density = 2.043183 g / cm^3
# Si number density = 20.478440 Si / 1000 Ang^3
#
#
#
# Elastic Constant Matrix: (Units=GPa)
#
#
# Indices 1 2 3 4 5 6 
#
# 1 131.8242 57.5640 29.8768 0.0117 -1.3151 -0.0053
# 2 57.5640 149.0275 31.0423 0.0087 -3.5640 -0.0042
# 3 29.8768 31.0423 54.1839 0.0017 -2.2235 -0.0097
# 4 0.0117 0.0087 0.0017 26.2453 -0.0094 -2.9163
# 5 -1.3151 -3.5640 -2.2235 -0.0094 15.6580 0.0017
# 6 -0.0053 -0.0042 -0.0097 -2.9163 0.0017 28.9439
#
#
#
# Elastic Compliance Matrix: (Units=1/GPa)
#
#
# Indices 1 2 3 4 5 6 
#
# 1 0.009722 -0.003003 -0.003656 -0.000003 -0.000386 0.000000
# 2 -0.003003 0.008567 -0.003201 -0.000001 0.001243 -0.000001
# 3 -0.003656 -0.003201 0.022394 0.000003 0.002144 0.000007
# 4 -0.000003 -0.000001 0.000003 0.038534 0.000023 0.003883
# 5 -0.000386 0.001243 0.002144 0.000023 0.064420 -0.000001
# 6 0.000000 -0.000001 0.000007 0.003883 -0.000001 0.034941
#
#
# Mechanical properties :
#
#
# Convention : Reuss Voigt Hill
#
# Bulk Modulus (GPa) = 47.70554 63.55577 55.63066
# Shear Modulus (GPa) = 24.35651 28.60626 26.48139
#
# Velocity S-wave (km/s) = 3.45247 3.74156 3.59992
# Velocity P-wave (km/s) = 6.26409 7.05468 6.67111
#
# Compressibility (1/GPa) = 0.02096193
#
# Stress axis : x y z
#
# Youngs Moduli (GPa) = 102.86041 116.73257 44.65580
#
# Poissons Ratio (x) = 0.35054 0.16327
# Poissons Ratio (y) = 0.30888 0.14295
# Poissons Ratio (z) = 0.37607 0.37367
#
# Static dielectric constant tensor:
#      x y z
#    x 6.265890 0.000880 -1.459370 
#    y 0.000880 3.587840 -0.000610 
#    z -1.459370 -0.000610 4.647680 
# 
# 
# High freq. dielectric constant tensor:
#      x y z
#    x 1.815960 0.000000 0.002450 
#    y 0.000000 1.783340 0.000000 
#    z 0.002450 0.000000 1.795480 
# 
# From -- ./inp_files/372771.got.cif
#   From: 2010.06.25/outbox.cif.g09.slc.cpg/sg12_187_cif.got.tgz:372771.got - 2010.06.28 00:19:55.
