data_PCOD8105521
_publ_section_title
;
Structure prediction by ZEFSAII (Michael W. Deem and Ramdas Pophale) SiO2 
 PCOD8105521
Probable space group: C 2/M
;
_chemical_formula_sum "Si O2"
_cell_formula_units_Z 64
_cell_length_a 23.135325
_cell_length_b 8.838384
_cell_length_c 21.621062
_cell_angle_alpha 90.000000
_cell_angle_beta 56.531172
_cell_angle_gamma 90.000000
_cell_volume 3687.978503
_symmetry_space_group_name_H-M "C 2/M"
_symmetry_group_IT_number 12
_symmetry_cell_setting 'monoclinic'
loop_
_space_group_symop_operation_xyz
x,y,z
-x,y,-z
-x,-y,-z
x,-y,z
1/2+x,1/2+y,z
1/2-x,1/2+y,-z
1/2-x,1/2-y,-z
1/2+x,1/2-y,z
loop_
_atom_site_type_symbol
_atom_site_label
_atom_site_fract_x
_atom_site_fract_y
_atom_site_fract_z
Si Si1 0.272184 0.326944 0.068729
Si Si2 0.570290 0.178805 0.625627
Si Si3 0.210515 0.673711 0.229034
Si Si4 0.932713 0.173564 0.502535
Si Si5 0.142894 0.171821 0.089933
Si Si6 0.208430 0.821409 0.581138
Si Si7 0.425845 0.177531 0.764110
Si Si8 0.786367 0.826658 0.645428
O O1 0.247600 0.500000 0.068292
O O2 0.273799 0.308428 0.142265
O O3 0.217506 0.207322 0.075104
O O4 0.346834 0.297916 0.990579
O O5 0.577470 0.218300 0.549561
O O6 0.630257 0.260630 0.628759
O O7 0.497194 0.242270 0.694284
O O8 0.577740 0.000000 0.629570
O O9 0.202632 0.500000 0.255410
O O10 0.138767 0.731207 0.239896
O O11 0.229655 0.777746 0.275361
O O12 0.867880 0.194514 0.586006
O O13 0.000000 0.227373 0.500000
O O14 0.939844 0.000000 0.475842
O O15 0.083649 0.269383 0.158883
O O16 0.122631 0.000000 0.114868
O O17 0.250000 0.750000 0.500000
O O18 0.243348 0.778770 0.625013
O O19 0.208469 0.000000 0.571957
O O20 0.429475 0.000000 0.762710
O O21 0.763555 0.000000 0.649092
#
# Coordination Sequence:
#
# PCOD8105521 Si02
#       8
#     8   8   8   8   8   8   8   8
#     4   8  15  27  42  65 100 137 171 206 246 295
#     4  11  22  36  55  76  99 132 171 210 254 303
#     4   9  17  31  49  71 104 140 170 204 247 298
#     4  10  21  35  51  73 103 135 165 204 250 296
#     4   9  15  24  43  69  97 134 174 208 244 292
#     4  12  24  40  59  76  96 126 167 215 259 302
#     4   9  19  33  48  72 107 140 168 205 252 302
#     4  11  22  35  52  75 102 131 167 210 253 298
#
# _framework density 17.353679
#
# number of rings (size 3 to 8) (size 9 to 14) (size 15 to 20)
#    0.000    2.125    1.250    3.750    0.000    4.250 
#    0.000    0.000    0.000    0.000    0.000    0.875 
#    0.000    7.000    0.000    0.000    0.000    0.000 
#
# Total GULP energy -396668.247903 kJ/mol
# GULP energy per Si atom -12395.882747 kJ/mol
# Density = 1.731418 g / cm^3
# Si number density = 17.353679 Si / 1000 Ang^3
#
#
#
# Elastic Constant Matrix: (Units=GPa)
#
#
# Indices 1 2 3 4 5 6 
#
# 1 69.4679 25.2791 27.8420 -0.0007 11.1161 -0.0033
# 2 25.2791 59.1501 29.4945 -0.0006 4.7757 -0.0047
# 3 27.8420 29.4945 120.4189 -0.0003 11.7353 -0.0009
# 4 -0.0007 -0.0006 -0.0003 27.1631 0.0001 2.9430
# 5 11.1161 4.7757 11.7353 0.0001 11.3714 -0.0003
# 6 -0.0033 -0.0047 -0.0009 2.9430 -0.0003 23.2167
#
#
#
# Elastic Compliance Matrix: (Units=1/GPa)
#
#
# Indices 1 2 3 4 5 6 
#
# 1 0.019767 -0.006476 -0.001519 0.000000 -0.015036 0.000001
# 2 -0.006476 0.021512 -0.003900 0.000000 0.001322 0.000003
# 3 -0.001519 -0.003900 0.010347 0.000000 -0.007556 -0.000001
# 4 0.000000 0.000000 0.000000 0.037327 -0.000001 -0.004732
# 5 -0.015036 0.001322 -0.007556 -0.000001 0.109880 0.000000
# 6 0.000001 0.000003 -0.000001 -0.004732 0.000000 0.043672
#
#
# Mechanical properties :
#
#
# Convention : Reuss Voigt Hill
#
# Bulk Modulus (GPa) = 35.92621 46.02979 40.97800
# Shear Modulus (GPa) = 18.14389 23.44499 20.79444
#
# Velocity S-wave (km/s) = 3.23698 3.67960 3.46536
# Velocity P-wave (km/s) = 5.89220 6.68092 6.29892
#
# Compressibility (1/GPa) = 0.02783483
#
# Stress axis : x y z
#
# Youngs Moduli (GPa) = 50.59060 46.48531 96.64510
#
# Poissons Ratio (x) = 0.30106 0.14677
# Poissons Ratio (y) = 0.32765 0.37696
# Poissons Ratio (z) = 0.07683 0.18131
#
# Static dielectric constant tensor:
#      x y z
#    x 3.079050 0.000000 -0.126320 
#    y 0.000000 3.251950 0.000000 
#    z -0.126320 0.000000 3.616450 
# 
# 
# High freq. dielectric constant tensor:
#      x y z
#    x 1.622850 0.000000 -0.001610 
#    y 0.000000 1.676190 0.000000 
#    z -0.001610 0.000000 1.684120 
# 
# From -- ./inp_files/323634.got.cif
#   From: 2010.06.25/outbox.cif.g09.slc.cpg/sg12_162_cif.got.tgz:323634.got - 2010.06.28 00:19:55.
