data_PCOD8105188
_publ_section_title
;
Structure prediction by ZEFSAII (Michael W. Deem and Ramdas Pophale) SiO2 
 PCOD8105188
Probable space group: C 2/M
;
_chemical_formula_sum "Si O2"
_cell_formula_units_Z 48
_cell_length_a 9.721598
_cell_length_b 30.128435
_cell_length_c 17.618900
_cell_angle_alpha 90.000000
_cell_angle_beta 152.041987
_cell_angle_gamma 90.000000
_cell_volume 2419.375237
_symmetry_space_group_name_H-M "C 2/M"
_symmetry_group_IT_number 12
_symmetry_cell_setting 'monoclinic'
loop_
_space_group_symop_operation_xyz
x,y,z
-x,y,-z
-x,-y,-z
x,-y,z
1/2+x,1/2+y,z
1/2-x,1/2+y,-z
1/2-x,1/2-y,-z
1/2+x,1/2-y,z
loop_
_atom_site_type_symbol
_atom_site_label
_atom_site_fract_x
_atom_site_fract_y
_atom_site_fract_z
Si Si1 0.218016 0.500000 0.914749
Si Si2 0.207619 0.833420 0.311281
Si Si3 0.308422 0.843100 0.183398
Si Si4 0.287780 0.082782 0.686652
Si Si5 0.181625 0.908984 0.808449
Si Si6 0.697561 0.252813 0.886325
Si Si7 0.337833 0.500000 0.145018
O O1 0.017294 0.542794 0.803482
O O2 0.500000 0.500000 0.000000
O O3 0.368770 0.500000 0.070110
O O4 0.500000 0.837556 0.500000
O O5 0.282046 0.840521 0.260283
O O6 0.987459 0.870457 0.232148
O O7 0.068361 0.785638 0.260774
O O8 0.566491 0.876155 0.286093
O O9 0.385838 0.794781 0.188478
O O10 0.000000 0.860530 0.000000
O O11 0.194165 0.098789 0.724620
O O12 0.000000 0.067608 0.500000
O O13 0.018738 0.955958 0.747537
O O14 0.500000 0.910082 0.000000
O O15 0.750000 0.250000 0.000000
O O16 0.000000 0.271801 0.000000
O O17 0.000000 0.500000 0.000000
#
# Coordination Sequence:
#
# PCOD8105188 Si02
#       7
#     4   8   8   8   8   8   4
#     4  12  25  42  68  98 125 174 217 266 312 378
#     4  12  26  42  64  99 133 163 211 272 326 372
#     4  11  24  43  65  95 130 166 219 264 308 391
#     4  12  25  42  65  98 133 166 210 268 327 375
#     4  11  22  42  71  90 125 176 215 257 311 393
#     4  11  23  44  68  92 124 172 217 261 311 382
#     4  10  20  42  66  94 121 161 228 252 295 381
#
# _framework density 19.839832000000001
#
# number of rings (size 3 to 8) (size 9 to 14) (size 15 to 20)
#    0.000    0.667    6.667    3.250    4.667    1.333 
#    0.000    0.417    0.000    0.000    0.000    0.000 
#    0.000    0.000    0.000    0.000    0.000    0.000 
#
# Total GULP energy -297645.649197 kJ/mol
# GULP energy per Si atom -12401.902050 kJ/mol
# Density = 1.979468 g / cm^3
# Si number density = 19.839832 Si / 1000 Ang^3
#
#
#
# Elastic Constant Matrix: (Units=GPa)
#
#
# Indices 1 2 3 4 5 6 
#
# 1 176.5005 58.9721 34.2587 0.0000 -12.5747 0.0000
# 2 58.9721 131.7686 26.4561 0.0000 10.2205 0.0000
# 3 34.2587 26.4561 71.2856 0.0002 -12.9432 0.0000
# 4 0.0000 0.0000 0.0002 -8.8067 0.0001 -7.1293
# 5 -12.5747 10.2205 -12.9432 0.0001 26.3834 0.0000
# 6 0.0000 0.0000 0.0000 -7.1293 0.0000 31.0339
#
#
#
# Elastic Compliance Matrix: (Units=1/GPa)
#
#
# Indices 1 2 3 4 5 6 
#
# 1 0.007356 -0.003283 -0.001591 0.000000 0.003997 0.000000
# 2 -0.003283 0.010349 -0.003596 0.000000 -0.007338 0.000000
# 3 -0.001591 -0.003596 0.017831 0.000000 0.009382 0.000000
# 4 0.000000 0.000000 0.000000 -0.095744 0.000001 -0.021995
# 5 0.003997 -0.007338 0.009382 0.000001 0.047253 0.000000
# 6 0.000000 0.000000 0.000000 -0.021995 0.000000 0.027170
#
#
# Mechanical properties :
#
#
# Convention : Reuss Voigt Hill
#
# Bulk Modulus (GPa) = 53.77183 68.76983 61.27083
# Shear Modulus (GPa) = 133.85952 27.04665 80.45309
#
# Velocity S-wave (km/s) = 8.22293 3.69623 6.37490
# Velocity P-wave (km/s) = 10.83131 7.27694 9.22689
#
# Compressibility (1/GPa) = 0.01859710
#
# Stress axis : x y z
#
# Youngs Moduli (GPa) = 135.94052 96.62509 56.08328
#
# Poissons Ratio (x) = 0.31720 0.08924
# Poissons Ratio (y) = 0.44626 0.20165
# Poissons Ratio (z) = 0.21630 0.34742
#
# Static dielectric constant tensor:
#      x y z
#    x 3.674510 0.000000 -0.009840 
#    y 0.000000 3.018720 0.000000 
#    z -0.009840 0.000000 3.499370 
# 
# 
# High freq. dielectric constant tensor:
#      x y z
#    x 1.796740 0.000000 -0.005440 
#    y 0.000000 1.790460 0.000000 
#    z -0.005440 0.000000 1.760600 
# 
# From -- ./inp_files/260463.got.cif
#   From: 2010.06.25/outbox.cif.g09.slc.cpg/sg12_131_cif.got.tgz:260463.got - 2010.06.28 00:19:55.
