data_PCOD8105344
_publ_section_title
;
Structure prediction by ZEFSAII (Michael W. Deem and Ramdas Pophale) SiO2 
 PCOD8105344
Probable space group: C 2/M
;
_chemical_formula_sum "Si O2"
_cell_formula_units_Z 56
_cell_length_a 17.400317
_cell_length_b 26.860634
_cell_length_c 20.352327
_cell_angle_alpha 90.000000
_cell_angle_beta 159.731818
_cell_angle_gamma 90.000000
_cell_volume 3295.215951
_symmetry_space_group_name_H-M "C 2/M"
_symmetry_group_IT_number 12
_symmetry_cell_setting 'monoclinic'
loop_
_space_group_symop_operation_xyz
x,y,z
-x,y,-z
-x,-y,-z
x,-y,z
1/2+x,1/2+y,z
1/2-x,1/2+y,-z
1/2-x,1/2-y,-z
1/2+x,1/2-y,z
loop_
_atom_site_type_symbol
_atom_site_label
_atom_site_fract_x
_atom_site_fract_y
_atom_site_fract_z
Si Si1 0.207149 0.862862 0.427149
Si Si2 0.459033 0.276118 0.633790
Si Si3 0.899089 0.217549 0.990665
Si Si4 0.170725 0.386873 0.822162
Si Si5 0.739456 0.553996 0.224776
Si Si6 0.176141 0.717135 0.587582
Si Si7 0.974786 0.058575 0.814804
O O1 0.038239 0.833714 0.340645
O O2 0.419122 0.876494 0.643229
O O3 0.299299 0.827591 0.443757
O O4 0.082494 0.910792 0.296943
O O5 0.250000 0.250000 0.500000
O O6 0.693180 0.252786 0.842609
O O7 0.424377 0.266732 0.528131
O O8 0.829253 0.160610 0.944239
O O9 0.000000 0.226655 0.000000
O O10 0.086252 0.231251 0.193051
O O11 0.126144 0.407563 0.712064
O O12 0.284060 0.425479 0.963402
O O13 0.858003 0.500000 0.317384
O O14 0.711698 0.570451 0.278703
O O15 0.500000 0.549726 0.000000
O O16 0.000000 0.698785 0.500000
O O17 0.983182 0.000000 0.804937
#
# Coordination Sequence:
#
# PCOD8105344 Si02
#       7
#     8   8   8   8   8   8   8
#     4  11  23  34  51  74 108 141 176 217 265 309
#     4  10  22  38  49  79 110 137 180 218 263 317
#     4  12  20  33  57  78 103 144 178 218 262 305
#     4  11  19  31  51  71 102 140 184 215 257 294
#     4   8  16  29  44  65  95 131 175 223 246 274
#     4  11  21  34  55  78 104 140 184 219 254 314
#     4  10  21  34  49  71 100 138 184 222 261 302
#
# _framework density 16.994335
#
# number of rings (size 3 to 8) (size 9 to 14) (size 15 to 20)
#    0.000    1.571    5.714    2.571    2.000    4.571 
#    0.000    1.429    0.000    0.000    0.000    0.000 
#    0.000    1.143    0.000    0.143    0.000    0.000 
#
# Total GULP energy -347024.071579 kJ/mol
# GULP energy per Si atom -12393.716842 kJ/mol
# Density = 1.695565 g / cm^3
# Si number density = 16.994335 Si / 1000 Ang^3
#
#
#
# Elastic Constant Matrix: (Units=GPa)
#
#
# Indices 1 2 3 4 5 6 
#
# 1 30.8526 34.4918 19.3476 -0.0002 -3.6317 -0.0020
# 2 34.4918 102.2643 38.8930 0.0004 -4.4601 -0.0004
# 3 19.3476 38.8930 106.3061 0.0040 -3.9491 -0.0128
# 4 -0.0002 0.0004 0.0040 16.6026 -0.0009 -3.5524
# 5 -3.6317 -4.4601 -3.9491 -0.0009 24.0802 -0.0073
# 6 -0.0020 -0.0004 -0.0128 -3.5524 -0.0073 7.7581
#
#
#
# Elastic Compliance Matrix: (Units=1/GPa)
#
#
# Indices 1 2 3 4 5 6 
#
# 1 0.053672 -0.016561 -0.003544 0.000005 0.004446 0.000014
# 2 -0.016561 0.016518 -0.003027 -0.000002 0.000065 -0.000009
# 3 -0.003544 -0.003027 0.011187 0.000001 0.000739 0.000019
# 4 0.000005 -0.000002 0.000001 0.066774 0.000012 0.030575
# 5 0.004446 0.000065 0.000739 0.000012 0.042332 0.000048
# 6 0.000014 -0.000009 0.000019 0.030575 0.000048 0.142897
#
#
# Mechanical properties :
#
#
# Convention : Reuss Voigt Hill
#
# Bulk Modulus (GPa) = 28.47909 47.20974 37.84441
# Shear Modulus (GPa) = 12.77634 19.46757 16.12196
#
# Velocity S-wave (km/s) = 2.74487 3.38824 3.08338
# Velocity P-wave (km/s) = 5.18075 6.56863 5.91553
#
# Compressibility (1/GPa) = 0.03511349
#
# Stress axis : x y z
#
# Youngs Moduli (GPa) = 18.63161 60.53916 89.39175
#
# Poissons Ratio (x) = 1.00257 0.31682
# Poissons Ratio (y) = 0.30855 0.27058
# Poissons Ratio (z) = 0.06603 0.18324
#
# Static dielectric constant tensor:
#      x y z
#    x 3.289890 -0.000010 -0.178430 
#    y -0.000010 3.363980 0.000000 
#    z -0.178430 0.000000 3.377520 
# 
# 
# High freq. dielectric constant tensor:
#      x y z
#    x 1.607120 0.000000 -0.015270 
#    y 0.000000 1.639800 0.000000 
#    z -0.015270 0.000000 1.673500 
# 
# From -- ./inp_files/318510.got.cif
#   From: 2010.06.25/outbox.cif.g09.slc.cpg/sg12_160_cif.got.tgz:318510.got - 2010.06.28 00:19:55.
