data_PCOD8105159
_publ_section_title
;
Structure prediction by ZEFSAII (Michael W. Deem and Ramdas Pophale) SiO2 
 PCOD8105159
Probable space group: C 2/M
;
_chemical_formula_sum "Si O2"
_cell_formula_units_Z 40
_cell_length_a 9.126637
_cell_length_b 17.022203
_cell_length_c 12.070089
_cell_angle_alpha 90.000000
_cell_angle_beta 103.460007
_cell_angle_gamma 90.000000
_cell_volume 1823.648766
_symmetry_space_group_name_H-M "C 2/M"
_symmetry_group_IT_number 12
_symmetry_cell_setting 'monoclinic'
loop_
_space_group_symop_operation_xyz
x,y,z
-x,y,-z
-x,-y,-z
x,-y,z
1/2+x,1/2+y,z
1/2-x,1/2+y,-z
1/2-x,1/2-y,-z
1/2+x,1/2-y,z
loop_
_atom_site_type_symbol
_atom_site_label
_atom_site_fract_x
_atom_site_fract_y
_atom_site_fract_z
Si Si1 0.334067 0.832392 0.522549
Si Si2 0.759263 0.094074 0.276153
Si Si3 0.825627 0.329638 0.971978
Si Si4 0.633996 0.408783 0.096912
Si Si5 0.402275 0.590905 0.669922
O O1 0.500000 0.826568 0.500000
O O2 0.250000 0.750000 0.500000
O O3 0.347838 0.865743 0.650224
O O4 0.229782 0.892706 0.438694
O O5 0.732630 0.136995 0.155110
O O6 0.931152 0.113843 0.343859
O O7 0.729506 0.000000 0.261598
O O8 0.750000 0.250000 0.000000
O O9 0.790672 0.393898 0.061109
O O10 0.000000 0.314762 0.000000
O O11 0.603968 0.500000 0.105455
O O12 0.632330 0.367396 0.217587
O O13 0.500000 0.370650 0.000000
O O14 0.400769 0.500000 0.692855
#
# Coordination Sequence:
#
# PCOD8105159 Si02
#       5
#     8   8   8   8   8
#     4  12  28  46  70 101 140 183 232 289 345 405
#     4  11  25  47  74 103 139 183 232 283 345 414
#     4  12  28  43  67 101 142 183 228 285 346 409
#     4  10  20  41  70 101 136 176 224 275 340 416
#     4  10  22  43  73 100 135 181 226 280 342 413
#
# _framework density 21.934048000000001
#
# number of rings (size 3 to 8) (size 9 to 14) (size 15 to 20)
#    0.000    1.000    2.000    3.600    5.600    4.800 
#    0.000    0.000    0.000    0.000    0.000    0.000 
#    0.000    0.000    0.000    0.000    0.000    0.000 
#
# Total GULP energy -247913.220605 kJ/mol
# GULP energy per Si atom -12395.661030 kJ/mol
# Density = 2.188413 g / cm^3
# Si number density = 21.934048 Si / 1000 Ang^3
#
#
#
# Elastic Constant Matrix: (Units=GPa)
#
#
# Indices 1 2 3 4 5 6 
#
# 1 160.7614 45.9827 39.1544 0.0000 -16.9015 0.0000
# 2 45.9827 81.4162 43.2927 0.0000 -9.6045 0.0000
# 3 39.1544 43.2927 112.5727 0.0000 -30.2115 0.0000
# 4 0.0000 0.0000 0.0000 35.5084 0.0000 -3.8522
# 5 -16.9015 -9.6045 -30.2115 0.0000 41.5180 0.0000
# 6 0.0000 0.0000 0.0000 -3.8522 0.0000 34.0383
#
#
#
# Elastic Compliance Matrix: (Units=1/GPa)
#
#
# Indices 1 2 3 4 5 6 
#
# 1 0.007648 -0.003704 -0.000783 0.000000 0.001687 0.000000
# 2 -0.003704 0.017263 -0.005820 0.000000 -0.001750 0.000000
# 3 -0.000783 -0.005820 0.013603 0.000000 0.008234 0.000000
# 4 0.000000 0.000000 0.000000 0.028512 0.000000 0.003227
# 5 0.001687 -0.001750 0.008234 0.000000 0.030359 0.000000
# 6 0.000000 0.000000 0.000000 0.003227 0.000000 0.029744
#
#
# Mechanical properties :
#
#
# Convention : Reuss Voigt Hill
#
# Bulk Modulus (GPa) = 55.86535 67.95666 61.91101
# Shear Modulus (GPa) = 32.52857 37.30098 34.91477
#
# Velocity S-wave (km/s) = 3.85517 4.12830 3.99407
# Velocity P-wave (km/s) = 6.73361 7.33303 7.03970
#
# Compressibility (1/GPa) = 0.01790018
#
# Stress axis : x y z
#
# Youngs Moduli (GPa) = 130.75461 57.92714 73.51093
#
# Poissons Ratio (x) = 0.21457 0.05754
# Poissons Ratio (y) = 0.48434 0.42784
# Poissons Ratio (z) = 0.10236 0.33714
#
# Static dielectric constant tensor:
#      x y z
#    x 5.732680 0.000000 2.546130 
#    y 0.000000 4.042140 0.000000 
#    z 2.546130 0.000000 9.831060 
# 
# 
# High freq. dielectric constant tensor:
#      x y z
#    x 1.866190 0.000000 -0.016460 
#    y 0.000000 1.859650 0.000000 
#    z -0.016460 0.000000 1.878610 
# 
# From -- ./inp_files/118879.got.cif
#   From: 2010.06.25/outbox.cif.g09.slc.cpg/sg12_60_cif.got.tgz:118879.got - 2010.06.28 00:19:55.
