data_PCOD8105603
_publ_section_title
;
Structure prediction by ZEFSAII (Michael W. Deem and Ramdas Pophale) SiO2 
 PCOD8105603
Probable space group: C 2/M
;
_chemical_formula_sum "Si O2"
_cell_formula_units_Z 56
_cell_length_a 14.786282
_cell_length_b 8.910568
_cell_length_c 24.557921
_cell_angle_alpha 90.000000
_cell_angle_beta 62.582445
_cell_angle_gamma 90.000000
_cell_volume 2872.166670
_symmetry_space_group_name_H-M "C 2/M"
_symmetry_group_IT_number 12
_symmetry_cell_setting 'monoclinic'
loop_
_space_group_symop_operation_xyz
x,y,z
-x,y,-z
-x,-y,-z
x,-y,z
1/2+x,1/2+y,z
1/2-x,1/2+y,-z
1/2-x,1/2-y,-z
1/2+x,1/2-y,z
loop_
_atom_site_type_symbol
_atom_site_label
_atom_site_fract_x
_atom_site_fract_y
_atom_site_fract_z
Si Si1 0.638978 0.677982 0.694056
Si Si2 0.428687 0.825006 0.769951
Si Si3 0.597475 0.334007 0.436107
Si Si4 0.676829 0.825727 0.088220
Si Si5 0.098884 0.177262 0.005744
Si Si6 0.732032 0.668361 0.560868
Si Si7 0.830778 0.171424 0.696504
O O1 0.656296 0.500000 0.697750
O O2 0.529984 0.726326 0.746531
O O3 0.642327 0.717701 0.627743
O O4 0.723222 0.771587 0.703254
O O5 0.361336 0.788114 0.841121
O O6 0.362819 0.778468 0.736339
O O7 0.456873 0.000000 0.758130
O O8 0.500000 0.314481 0.500000
O O9 0.645697 0.500000 0.434826
O O10 0.667300 0.194015 0.431825
O O11 0.581710 0.321775 0.375211
O O12 0.795312 0.773727 0.052837
O O13 0.668650 0.000000 0.076427
O O14 0.603471 0.741701 0.065666
O O15 0.088801 0.000000 0.012901
O O16 0.000000 0.240484 0.000000
O O17 0.715537 0.500000 0.547792
O O18 0.750000 0.750000 0.500000
O O19 0.818742 0.000000 0.720418
#
# Coordination Sequence:
#
# PCOD8105603 Si02
#       7
#     8   8   8   8   8   8   8
#     4  10  22  40  58  79 110 148 193 242 291 346
#     4  11  23  38  58  84 119 159 196 238 288 341
#     4   9  19  35  54  76 104 137 175 226 284 342
#     4   9  20  37  55  84 120 151 190 235 276 329
#     4   9  18  35  60  87 117 153 190 229 277 330
#     4  10  21  35  53  77 104 135 176 229 287 347
#     4  10  21  38  58  82 113 148 190 238 292 353
#
# _framework density 19.497475999999999
#
# number of rings (size 3 to 8) (size 9 to 14) (size 15 to 20)
#    0.000    2.286    0.000    1.714    2.000    5.143 
#    0.000    1.429    0.000    0.000    0.000    0.000 
#    0.000    0.000    0.000    0.000    0.000    0.000 
#
# Total GULP energy -346949.960265 kJ/mol
# GULP energy per Si atom -12391.070009 kJ/mol
# Density = 1.945310 g / cm^3
# Si number density = 19.497476 Si / 1000 Ang^3
#
#
#
# Elastic Constant Matrix: (Units=GPa)
#
#
# Indices 1 2 3 4 5 6 
#
# 1 99.6817 20.3856 49.1696 0.0000 6.5058 0.0000
# 2 20.3856 44.0188 38.0303 0.0000 0.1011 0.0000
# 3 49.1696 38.0303 130.6647 0.0000 5.7101 0.0000
# 4 0.0000 0.0000 0.0000 28.0035 0.0000 4.6706
# 5 6.5058 0.1011 5.7101 0.0000 26.0386 0.0000
# 6 0.0000 0.0000 0.0000 4.6706 0.0000 33.8370
#
#
#
# Elastic Compliance Matrix: (Units=1/GPa)
#
#
# Indices 1 2 3 4 5 6 
#
# 1 0.012623 -0.002435 -0.003942 0.000000 -0.002280 0.000000
# 2 -0.002435 0.030906 -0.008179 0.000000 0.002282 0.000000
# 3 -0.003942 -0.008179 0.011583 0.000000 -0.001524 0.000000
# 4 0.000000 0.000000 0.000000 0.036551 0.000000 -0.005045
# 5 -0.002280 0.002282 -0.001524 0.000000 0.039299 0.000000
# 6 0.000000 0.000000 0.000000 -0.005045 0.000000 0.030250
#
#
# Mechanical properties :
#
#
# Convention : Reuss Voigt Hill
#
# Bulk Modulus (GPa) = 38.45926 54.39291 46.42608
# Shear Modulus (GPa) = 25.12671 28.69447 26.91059
#
# Velocity S-wave (km/s) = 3.59376 3.84044 3.71915
# Velocity P-wave (km/s) = 6.08180 6.90096 6.50429
#
# Compressibility (1/GPa) = 0.02600154
#
# Stress axis : x y z
#
# Youngs Moduli (GPa) = 79.22012 32.35607 86.33001
#
# Poissons Ratio (x) = 0.07879 0.34029
# Poissons Ratio (y) = 0.19291 0.70606
# Poissons Ratio (z) = 0.31226 0.26463
#
# Static dielectric constant tensor:
#      x y z
#    x 3.473070 0.000000 -0.000640 
#    y 0.000000 3.549660 0.000000 
#    z -0.000640 0.000000 3.852070 
# 
# 
# High freq. dielectric constant tensor:
#      x y z
#    x 1.746990 0.000000 0.001870 
#    y 0.000000 1.761540 0.000000 
#    z 0.001870 0.000000 1.767800 
# 
# From -- ./inp_files/338534.got.cif
#   From: 2010.06.25/outbox.cif.g09.slc.cpg/sg12_170_cif.got.tgz:338534.got - 2010.06.28 00:19:55.
