data_PCOD8105566
_publ_section_title
;
Structure prediction by ZEFSAII (Michael W. Deem and Ramdas Pophale) SiO2 
 PCOD8105566
Probable space group: C 2/M
;
_chemical_formula_sum "Si O2"
_cell_formula_units_Z 40
_cell_length_a 19.096345
_cell_length_b 8.903375
_cell_length_c 19.231981
_cell_angle_alpha 90.000000
_cell_angle_beta 41.119987
_cell_angle_gamma 90.000000
_cell_volume 2150.383359
_symmetry_space_group_name_H-M "C 2/M"
_symmetry_group_IT_number 12
_symmetry_cell_setting 'monoclinic'
loop_
_space_group_symop_operation_xyz
x,y,z
-x,y,-z
-x,-y,-z
x,-y,z
1/2+x,1/2+y,z
1/2-x,1/2+y,-z
1/2-x,1/2-y,-z
1/2+x,1/2-y,z
loop_
_atom_site_type_symbol
_atom_site_label
_atom_site_fract_x
_atom_site_fract_y
_atom_site_fract_z
Si Si1 0.994815 0.327503 0.583397
Si Si2 0.697920 0.829238 0.176879
Si Si3 0.081134 0.677576 0.996852
Si Si4 0.635534 0.677185 0.589768
Si Si5 0.971955 0.677559 0.809570
O O1 0.032273 0.500000 0.565460
O O2 0.072553 0.219361 0.567222
O O3 0.000000 0.277064 0.500000
O O4 0.874342 0.308884 0.700613
O O5 0.799916 0.725952 0.110310
O O6 0.631399 0.778911 0.158676
O O7 0.736493 0.000000 0.139592
O O8 0.077768 0.500000 0.998847
O O9 0.046830 0.736688 0.098406
O O10 0.000000 0.743586 0.000000
O O11 0.646180 0.500000 0.587994
O O12 0.750000 0.750000 0.500000
O O13 0.575539 0.739402 0.702670
O O14 0.992688 0.500000 0.789669
#
# Coordination Sequence:
#
# PCOD8105566 Si02
#       5
#     8   8   8   8   8
#     4   9  19  37  58  81 111 143 177 220 270 321
#     4   9  18  33  54  77 102 137 177 215 256 311
#     4  10  21  35  52  77 108 138 170 217 271 317
#     4  11  22  36  56  81 109 142 182 224 267 317
#     4   9  19  37  56  75 103 139 179 219 264 318
#
# _framework density 18.601334000000001
#
# number of rings (size 3 to 8) (size 9 to 14) (size 15 to 20)
#    0.000    2.400    0.000    3.600    0.000    6.400 
#    0.000    4.000    0.000    0.000    0.000    0.000 
#    0.000    0.000    0.000    0.000    0.000    0.000 
#
# Total GULP energy -248046.009997 kJ/mol
# GULP energy per Si atom -12402.300500 kJ/mol
# Density = 1.855900 g / cm^3
# Si number density = 18.601334 Si / 1000 Ang^3
#
#
#
# Elastic Constant Matrix: (Units=GPa)
#
#
# Indices 1 2 3 4 5 6 
#
# 1 113.6330 28.1085 84.2648 0.0000 11.6523 0.0000
# 2 28.1085 56.6592 40.3036 0.0001 -5.7287 -0.0001
# 3 84.2648 40.3036 135.6015 0.0000 1.9741 0.0000
# 4 0.0000 0.0001 0.0000 34.6811 0.0000 -6.0445
# 5 11.6523 -5.7287 1.9741 0.0000 39.8766 0.0000
# 6 0.0000 -0.0001 0.0000 -6.0445 0.0000 25.0957
#
#
#
# Elastic Compliance Matrix: (Units=1/GPa)
#
#
# Indices 1 2 3 4 5 6 
#
# 1 0.017232 -0.001860 -0.010085 0.000000 -0.004803 0.000000
# 2 -0.001860 0.023095 -0.005769 0.000000 0.004147 0.000000
# 3 -0.010085 -0.005769 0.015336 0.000000 0.001359 0.000000
# 4 0.000000 0.000000 0.000000 0.030098 0.000000 0.007249
# 5 -0.004803 0.004147 0.001359 0.000000 0.027009 0.000000
# 6 0.000000 0.000000 0.000000 0.007249 0.000000 0.041594
#
#
# Mechanical properties :
#
#
# Convention : Reuss Voigt Hill
#
# Bulk Modulus (GPa) = 49.41980 67.91637 58.66809
# Shear Modulus (GPa) = 25.44052 30.14512 27.79282
#
# Velocity S-wave (km/s) = 3.70222 4.03002 3.86959
# Velocity P-wave (km/s) = 6.70080 7.63188 7.18145
#
# Compressibility (1/GPa) = 0.02023480
#
# Stress axis : x y z
#
# Youngs Moduli (GPa) = 58.03283 43.29934 65.20441
#
# Poissons Ratio (x) = 0.08055 0.65760
# Poissons Ratio (y) = 0.10796 0.37614
# Poissons Ratio (z) = 0.58527 0.24978
#
# Static dielectric constant tensor:
#      x y z
#    x 3.531810 0.000000 0.173230 
#    y 0.000000 3.276500 0.000000 
#    z 0.173230 0.000000 3.526290 
# 
# 
# High freq. dielectric constant tensor:
#      x y z
#    x 1.718690 0.000000 0.005110 
#    y 0.000000 1.711850 0.000000 
#    z 0.005110 0.000000 1.731880 
# 
# From -- ./inp_files/151730.got.cif
#   From: 2010.06.25/outbox.cif.g09.slc.cpg/sg12_76_cif.got.tgz:151730.got - 2010.06.28 00:19:55.
