data_PCOD8105649
_publ_section_title
;
Structure prediction by ZEFSAII (Michael W. Deem and Ramdas Pophale) SiO2 
 PCOD8105649
Probable space group: C 2/M
;
_chemical_formula_sum "Si O2"
_cell_formula_units_Z 56
_cell_length_a 9.692773
_cell_length_b 19.558172
_cell_length_c 32.462159
_cell_angle_alpha 90.000000
_cell_angle_beta 152.475019
_cell_angle_gamma 90.000000
_cell_volume 2843.955870
_symmetry_space_group_name_H-M "C 2/M"
_symmetry_group_IT_number 12
_symmetry_cell_setting 'monoclinic'
loop_
_space_group_symop_operation_xyz
x,y,z
-x,y,-z
-x,-y,-z
x,-y,z
1/2+x,1/2+y,z
1/2-x,1/2+y,-z
1/2-x,1/2-y,-z
1/2+x,1/2-y,z
loop_
_atom_site_type_symbol
_atom_site_label
_atom_site_fract_x
_atom_site_fract_y
_atom_site_fract_z
Si Si1 0.651861 0.581386 0.082356
Si Si2 0.665422 0.818693 0.392622
Si Si3 0.164506 0.918777 0.918056
Si Si4 0.152256 0.074775 0.408361
Si Si5 0.303746 0.579994 0.236499
Si Si6 0.849819 0.080931 0.750798
Si Si7 0.502601 0.711852 0.592419
O O1 0.647958 0.500000 0.084228
O O2 0.482377 0.610287 0.078365
O O3 0.988828 0.611092 0.168739
O O4 0.500000 0.606768 0.000000
O O5 0.477751 0.888191 0.344719
O O6 0.465964 0.757555 0.358817
O O7 0.000000 0.829925 0.500000
O O8 0.695214 0.791681 0.353738
O O9 0.966264 0.895805 0.826434
O O10 0.178086 0.000000 0.924125
O O11 0.500000 0.889941 0.000000
O O12 0.500000 0.065900 0.500000
O O13 0.074055 0.132586 0.420300
O O14 0.049523 0.097662 0.335819
O O15 0.008870 0.000000 0.382072
O O16 0.254633 0.500000 0.217839
O O17 0.417904 0.608124 0.222556
O O18 0.810634 0.000000 0.737391
O O19 0.250000 0.750000 0.500000
#
# Coordination Sequence:
#
# PCOD8105649 Si02
#       7
#     8   8   8   8   8   8   8
#     4   9  16  28  48  73 106 149 191 228 279 342
#     4  10  23  38  58  80 109 155 194 238 289 335
#     4   9  17  30  50  77 114 154 188 233 287 337
#     4  10  21  35  58  84 112 151 192 236 285 336
#     4   9  19  32  49  77 112 149 186 232 284 338
#     4  10  21  35  53  84 121 151 191 239 290 343
#     4  10  22  40  58  79 110 149 197 241 279 343
#
# _framework density 19.690881000000001
#
# number of rings (size 3 to 8) (size 9 to 14) (size 15 to 20)
#    0.000    2.429    0.000    2.143    8.000    4.286 
#    0.000    0.000    0.000    0.000    0.000    2.000 
#    0.000    0.000    0.000    0.000    0.000    0.000 
#
# Total GULP energy -346921.854928 kJ/mol
# GULP energy per Si atom -12390.066247 kJ/mol
# Density = 1.964606 g / cm^3
# Si number density = 19.690881 Si / 1000 Ang^3
#
#
#
# Elastic Constant Matrix: (Units=GPa)
#
#
# Indices 1 2 3 4 5 6 
#
# 1 192.8677 43.5311 67.5658 0.0058 3.2796 -0.0040
# 2 43.5311 66.1349 26.0109 -0.0046 -7.5887 0.0039
# 3 67.5658 26.0109 113.6853 0.0379 5.6976 -0.0103
# 4 0.0058 -0.0046 0.0379 31.4176 0.0173 -6.1405
# 5 3.2796 -7.5887 5.6976 0.0173 29.8939 -0.0046
# 6 -0.0040 0.0039 -0.0103 -6.1405 -0.0046 25.2283
#
#
#
# Elastic Compliance Matrix: (Units=1/GPa)
#
#
# Indices 1 2 3 4 5 6 
#
# 1 0.007192 -0.003506 -0.003421 0.000003 -0.001027 0.000001
# 2 -0.003506 0.019097 -0.002572 0.000003 0.005723 -0.000003
# 3 -0.003421 -0.002572 0.011542 -0.000012 -0.002477 0.000001
# 4 0.000003 0.000003 -0.000012 0.033419 -0.000015 0.008134
# 5 -0.001027 0.005723 -0.002477 -0.000015 0.035489 0.000001
# 6 0.000001 -0.000003 0.000001 0.008134 0.000001 0.041618
#
#
# Mechanical properties :
#
#
# Convention : Reuss Voigt Hill
#
# Bulk Modulus (GPa) = 53.10034 71.87817 62.48925
# Shear Modulus (GPa) = 28.79633 33.01330 30.90481
#
# Velocity S-wave (km/s) = 3.82831 4.09905 3.96599
# Velocity P-wave (km/s) = 6.82398 7.68020 7.26472
#
# Compressibility (1/GPa) = 0.01883227
#
# Stress axis : x y z
#
# Youngs Moduli (GPa) = 139.04056 52.36445 86.64101
#
# Poissons Ratio (x) = 0.18362 0.29637
# Poissons Ratio (y) = 0.48755 0.22285
# Poissons Ratio (z) = 0.47562 0.13469
#
# Static dielectric constant tensor:
#      x y z
#    x 4.271660 -0.000010 -0.037120 
#    y -0.000010 3.618240 -0.000020 
#    z -0.037120 -0.000020 3.503920 
# 
# 
# High freq. dielectric constant tensor:
#      x y z
#    x 1.788620 0.000000 -0.002860 
#    y 0.000000 1.715360 0.000000 
#    z -0.002860 0.000000 1.755070 
# 
# From -- ./inp_files/356745.got.cif
#   From: 2010.06.25/outbox.cif.g09.slc.cpg/sg12_179_cif.got.tgz:356745.got - 2010.06.28 00:19:55.
