data_PCOD8105727
_publ_section_title
;
Structure prediction by ZEFSAII (Michael W. Deem and Ramdas Pophale) SiO2 
 PCOD8105727
Probable space group: C 2/M
;
_chemical_formula_sum "Si O2"
_cell_formula_units_Z 48
_cell_length_a 14.146201
_cell_length_b 20.163592
_cell_length_c 11.254255
_cell_angle_alpha 90.000000
_cell_angle_beta 49.451719
_cell_angle_gamma 90.000000
_cell_volume 2439.254770
_symmetry_space_group_name_H-M "C 2/M"
_symmetry_group_IT_number 12
_symmetry_cell_setting 'monoclinic'
loop_
_space_group_symop_operation_xyz
x,y,z
-x,y,-z
-x,-y,-z
x,-y,z
1/2+x,1/2+y,z
1/2-x,1/2+y,-z
1/2-x,1/2-y,-z
1/2+x,1/2-y,z
loop_
_atom_site_type_symbol
_atom_site_label
_atom_site_fract_x
_atom_site_fract_y
_atom_site_fract_z
Si Si1 0.789834 0.575750 0.809135
Si Si2 0.080789 0.924515 0.165788
Si Si3 0.583485 0.189878 0.166125
Si Si4 0.705204 0.576731 0.617702
Si Si5 0.296281 0.190345 0.381839
Si Si6 0.204169 0.810188 0.194541
O O1 0.834199 0.500000 0.787466
O O2 0.896197 0.621544 0.778649
O O3 0.771696 0.594614 0.686953
O O4 0.658633 0.588005 0.982079
O O5 0.132597 0.878887 0.228815
O O6 0.939852 0.905904 0.250457
O O7 0.093575 0.000000 0.199635
O O8 0.442525 0.195756 0.239998
O O9 0.616829 0.250167 0.225439
O O10 0.664934 0.192056 0.980533
O O11 0.724610 0.500000 0.568741
O O12 0.766523 0.619763 0.464600
O O13 0.250000 0.250000 0.500000
O O14 0.225032 0.195823 0.316532
#
# Coordination Sequence:
#
# PCOD8105727 Si02
#       6
#     8   8   8   8   8   8
#     4   9  18  35  59  84 110 144 186 227 266 313
#     4   9  18  35  59  84 110 144 186 227 266 313
#     4  10  22  40  60  80 105 142 186 228 270 320
#     4  10  21  35  55  85 117 147 179 221 272 322
#     4  12  25  38  55  82 114 145 178 221 276 332
#     4  10  22  40  60  80 105 142 186 228 270 320
#
# _framework density 19.678141
#
# number of rings (size 3 to 8) (size 9 to 14) (size 15 to 20)
#    0.000    2.000    0.000    3.000    0.000    8.000 
#    0.000   10.000    0.000    5.000    0.000    0.000 
#    0.000    0.000    0.000    0.000    0.000    0.000 
#
# Total GULP energy -297716.773440 kJ/mol
# GULP energy per Si atom -12404.865560 kJ/mol
# Density = 1.963335 g / cm^3
# Si number density = 19.678141 Si / 1000 Ang^3
#
#
#
# Elastic Constant Matrix: (Units=GPa)
#
#
# Indices 1 2 3 4 5 6 
#
# 1 73.7697 35.6355 18.0847 0.0000 24.3592 0.0000
# 2 35.6355 97.8475 29.4123 0.0000 13.4145 0.0000
# 3 18.0847 29.4123 42.5352 0.0000 13.8687 0.0000
# 4 0.0000 0.0000 0.0000 30.4473 0.0000 2.6851
# 5 24.3592 13.4145 13.8687 0.0000 40.3773 0.0000
# 6 0.0000 0.0000 0.0000 2.6851 0.0000 26.7843
#
#
#
# Elastic Compliance Matrix: (Units=1/GPa)
#
#
# Indices 1 2 3 4 5 6 
#
# 1 0.019698 -0.005406 -0.001518 0.000000 -0.009566 0.000000
# 2 -0.005406 0.014454 -0.008101 0.000000 0.001242 0.000000
# 3 -0.001518 -0.008101 0.032185 0.000000 -0.007448 0.000000
# 4 0.000000 0.000000 0.000000 0.033137 0.000000 -0.003322
# 5 -0.009566 0.001242 -0.007448 0.000000 0.032683 0.000000
# 6 0.000000 0.000000 0.000000 -0.003322 0.000000 0.037668
#
#
# Mechanical properties :
#
#
# Convention : Reuss Voigt Hill
#
# Bulk Modulus (GPa) = 27.55764 42.26858 34.91311
# Shear Modulus (GPa) = 23.58820 28.25647 25.92233
#
# Velocity S-wave (km/s) = 3.46598 3.79348 3.63342
# Velocity P-wave (km/s) = 5.48197 6.38075 5.94836
#
# Compressibility (1/GPa) = 0.03628758
#
# Stress axis : x y z
#
# Youngs Moduli (GPa) = 50.76610 69.18647 31.07019
#
# Poissons Ratio (x) = 0.37404 0.04715
# Poissons Ratio (y) = 0.27446 0.25169
# Poissons Ratio (z) = 0.07704 0.56047
#
# Static dielectric constant tensor:
#      x y z
#    x 3.463620 0.000000 -0.050050 
#    y 0.000000 3.817340 0.000000 
#    z -0.050050 0.000000 3.490630 
# 
# 
# High freq. dielectric constant tensor:
#      x y z
#    x 1.764070 0.000000 -0.002900 
#    y 0.000000 1.781600 0.000000 
#    z -0.002900 0.000000 1.762780 
# 
# From -- ./inp_files/133722.got.cif
#   From: 2010.06.25/outbox.cif.g09.slc.cpg/sg12_67_cif.got.tgz:133722.got - 2010.06.28 00:19:55.
