data_PCOD8105462
_publ_section_title
;
Structure prediction by ZEFSAII (Michael W. Deem and Ramdas Pophale) SiO2 
 PCOD8105462
Probable space group: C 2/M
;
_chemical_formula_sum "Si O2"
_cell_formula_units_Z 48
_cell_length_a 25.357325
_cell_length_b 16.894890
_cell_length_c 12.994018
_cell_angle_alpha 90.000000
_cell_angle_beta 23.742916
_cell_angle_gamma 90.000000
_cell_volume 2241.362986
_symmetry_space_group_name_H-M "C 2/M"
_symmetry_group_IT_number 12
_symmetry_cell_setting 'monoclinic'
loop_
_space_group_symop_operation_xyz
x,y,z
-x,y,-z
-x,-y,-z
x,-y,z
1/2+x,1/2+y,z
1/2-x,1/2+y,-z
1/2-x,1/2-y,-z
1/2+x,1/2-y,z
loop_
_atom_site_type_symbol
_atom_site_label
_atom_site_fract_x
_atom_site_fract_y
_atom_site_fract_z
Si Si1 0.529851 0.698911 0.062486
Si Si2 0.665800 0.168980 0.937414
Si Si3 0.042109 0.590274 0.571720
Si Si4 0.641803 0.762514 0.280570
Si Si5 0.790411 0.910150 0.530802
Si Si6 0.262166 0.912255 0.601179
O O1 0.412536 0.648367 0.318567
O O2 0.500000 0.727958 0.000000
O O3 0.554582 0.771756 0.093850
O O4 0.659895 0.647195 0.832573
O O5 0.801342 0.213349 0.724441
O O6 0.695945 0.105311 0.795394
O O7 0.603989 0.125660 0.148651
O O8 0.038306 0.500000 0.536277
O O9 0.120524 0.644617 0.349462
O O10 0.104302 0.593714 0.574241
O O11 0.500000 0.727240 0.500000
O O12 0.750000 0.750000 0.000000
O O13 0.710489 0.893496 0.567872
O O14 0.841411 0.000000 0.444416
O O15 0.201109 0.000000 0.720041
#
# Coordination Sequence:
#
# PCOD8105462 Si02
#       6
#     8   8   8   8   8   8
#     4  10  21  34  60  91 130 170 219 261 316 385
#     4  12  24  40  65  96 132 168 220 272 328 382
#     4  11  24  43  68  98 131 173 218 267 332 404
#     4  12  26  49  73  96 127 170 225 286 340 387
#     4  10  22  38  59  92 136 177 210 256 319 390
#     4   9  19  37  61  92 133 177 214 254 317 396
#
# _framework density 21.41554
#
# number of rings (size 3 to 8) (size 9 to 14) (size 15 to 20)
#    0.000    1.333    3.333    2.000    2.333    3.667 
#    0.000    2.500    0.000    2.500    0.000    0.000 
#    0.000    0.000    0.000    0.000    0.000    0.000 
#
# Total GULP energy -297559.334265 kJ/mol
# GULP energy per Si atom -12398.305594 kJ/mol
# Density = 2.136680 g / cm^3
# Si number density = 21.415540 Si / 1000 Ang^3
#
#
#
# Elastic Constant Matrix: (Units=GPa)
#
#
# Indices 1 2 3 4 5 6 
#
# 1 84.3392 42.8378 38.2509 0.0002 -3.7249 0.0001
# 2 42.8378 118.7333 51.3923 0.0000 5.5378 0.0001
# 3 38.2509 51.3923 113.2314 0.0001 12.6771 0.0002
# 4 0.0002 0.0000 0.0001 68.9909 -0.0002 -1.0375
# 5 -3.7249 5.5378 12.6771 -0.0002 41.6120 -0.0001
# 6 0.0001 0.0001 0.0002 -1.0375 -0.0001 20.3743
#
#
#
# Elastic Compliance Matrix: (Units=1/GPa)
#
#
# Indices 1 2 3 4 5 6 
#
# 1 0.015862 -0.004229 -0.003791 0.000000 0.003137 0.000000
# 2 -0.004229 0.011609 -0.003753 0.000000 -0.000780 0.000000
# 3 -0.003791 -0.003753 0.012214 0.000000 -0.003561 0.000000
# 4 0.000000 0.000000 0.000000 0.014506 0.000000 0.000739
# 5 0.003137 -0.000780 -0.003561 0.000000 0.025501 0.000000
# 6 0.000000 0.000000 0.000000 0.000739 0.000000 0.049119
#
#
# Mechanical properties :
#
#
# Convention : Reuss Voigt Hill
#
# Bulk Modulus (GPa) = 61.95496 64.58508 63.27002
# Shear Modulus (GPa) = 31.69864 38.45031 35.07448
#
# Velocity S-wave (km/s) = 3.85147 4.24186 4.05137
# Velocity P-wave (km/s) = 6.98363 7.36306 7.17586
#
# Compressibility (1/GPa) = 0.01614076
#
# Stress axis : x y z
#
# Youngs Moduli (GPa) = 63.04217 86.14208 81.87330
#
# Poissons Ratio (x) = 0.36426 0.31034
# Poissons Ratio (y) = 0.26658 0.30727
# Poissons Ratio (z) = 0.23896 0.32329
#
# Static dielectric constant tensor:
#      x y z
#    x 4.129430 0.000000 -0.140270 
#    y 0.000000 3.985280 0.000000 
#    z -0.140270 0.000000 3.686100 
# 
# 
# High freq. dielectric constant tensor:
#      x y z
#    x 1.849600 0.000000 0.001880 
#    y 0.000000 1.841850 0.000000 
#    z 0.001880 0.000000 1.830200 
# 
# From -- ./inp_files/177416.got.cif
#   From: 2010.06.25/outbox.cif.g09.slc.cpg/sg12_89_cif.got.tgz:177416.got - 2010.06.28 00:19:55.
