data_PCOD8105234
_publ_section_title
;
Structure prediction by ZEFSAII (Michael W. Deem and Ramdas Pophale) SiO2 
 PCOD8105234
Probable space group: C 2/M
;
_chemical_formula_sum "Si O2"
_cell_formula_units_Z 64
_cell_length_a 23.158836
_cell_length_b 9.618071
_cell_length_c 19.499351
_cell_angle_alpha 90.000000
_cell_angle_beta 58.256071
_cell_angle_gamma 90.000000
_cell_volume 3693.619789
_symmetry_space_group_name_H-M "C 2/M"
_symmetry_group_IT_number 12
_symmetry_cell_setting 'monoclinic'
loop_
_space_group_symop_operation_xyz
x,y,z
-x,y,-z
-x,-y,-z
x,-y,z
1/2+x,1/2+y,z
1/2-x,1/2+y,-z
1/2-x,1/2-y,-z
1/2+x,1/2-y,z
loop_
_atom_site_type_symbol
_atom_site_label
_atom_site_fract_x
_atom_site_fract_y
_atom_site_fract_z
Si Si1 0.334336 0.838201 0.386272
Si Si2 0.314022 0.340754 0.158083
Si Si3 0.795110 0.340485 0.559586
Si Si4 0.551567 0.836487 0.907645
Si Si5 0.971105 0.664165 0.232601
Si Si6 0.233928 0.656628 0.073337
Si Si7 0.676559 0.162619 0.310003
Si Si8 0.401164 0.835572 0.767181
O O1 0.270322 0.756090 0.397897
O O2 0.341504 0.813341 0.463887
O O3 0.400494 0.777320 0.307151
O O4 0.322993 0.000000 0.376704
O O5 0.332063 0.500000 0.166785
O O6 0.378368 0.244175 0.129563
O O7 0.293686 0.331273 0.091338
O O8 0.251446 0.280726 0.242870
O O9 0.769961 0.500000 0.577184
O O10 0.839161 0.306108 0.600320
O O11 0.519530 0.798044 0.853426
O O12 0.567182 0.000000 0.903163
O O13 0.500000 0.789803 0.000000
O O14 0.970989 0.500000 0.242496
O O15 0.031782 0.731740 0.240176
O O16 0.226669 0.500000 0.051391
O O17 0.162869 0.708915 0.147810
O O18 0.250000 0.750000 0.000000
O O19 0.615338 0.221485 0.299996
O O20 0.680561 0.000000 0.290394
O O21 0.411053 0.000000 0.759914
#
# Coordination Sequence:
#
# PCOD8105234 Si02
#       8
#     8   8   8   8   8   8   8   8
#     4   9  17  28  44  69  95 120 147 180 224 267
#     4   9  18  32  47  66  90 116 148 184 226 272
#     4   9  16  27  46  70  94 116 147 187 220 261
#     4  10  21  32  45  67  89 116 155 191 222 266
#     4   9  17  30  45  63  93 123 149 183 226 273
#     4   9  18  30  48  69  87 113 151 189 227 268
#     4   8  14  27  46  67  89 115 149 183 219 267
#     4   8  15  28  46  65  87 120 150 179 225 272
#
# _framework density 17.327176000000001
#
# number of rings (size 3 to 8) (size 9 to 14) (size 15 to 20)
#    0.000    3.125    0.000    2.250    1.750    0.750 
#    0.000    0.625    0.000    5.250    0.000    0.000 
#    0.000    4.000    0.000    0.000    0.000    0.000 
#
# Total GULP energy -396550.956776 kJ/mol
# GULP energy per Si atom -12392.217399 kJ/mol
# Density = 1.728774 g / cm^3
# Si number density = 17.327176 Si / 1000 Ang^3
#
#
#
# Elastic Constant Matrix: (Units=GPa)
#
#
# Indices 1 2 3 4 5 6 
#
# 1 109.9574 22.5314 56.8050 0.0001 6.9710 0.0000
# 2 22.5314 26.1797 19.7587 0.0001 4.3371 -0.0002
# 3 56.8050 19.7587 108.0934 0.0000 18.7443 0.0000
# 4 0.0001 0.0001 0.0000 17.2580 0.0000 -0.2378
# 5 6.9710 4.3371 18.7443 0.0000 25.9109 0.0000
# 6 0.0000 -0.0002 0.0000 -0.2378 0.0000 19.8019
#
#
#
# Elastic Compliance Matrix: (Units=1/GPa)
#
#
# Indices 1 2 3 4 5 6 
#
# 1 0.013687 -0.007449 -0.006184 0.000000 0.002039 0.000000
# 2 -0.007449 0.048437 -0.004437 0.000000 -0.002893 0.000000
# 3 -0.006184 -0.004437 0.014745 0.000000 -0.008260 0.000000
# 4 0.000000 0.000000 0.000000 0.057954 0.000000 0.000696
# 5 0.002039 -0.002893 -0.008260 0.000000 0.044505 0.000000
# 6 0.000000 0.000000 0.000000 0.000696 0.000000 0.050509
#
#
# Mechanical properties :
#
#
# Convention : Reuss Voigt Hill
#
# Bulk Modulus (GPa) = 24.55427 49.15785 36.85606
# Shear Modulus (GPa) = 17.88567 22.26986 20.07777
#
# Velocity S-wave (km/s) = 3.21632 3.58894 3.40773
# Velocity P-wave (km/s) = 5.29100 6.75322 6.06633
#
# Compressibility (1/GPa) = 0.04072612
#
# Stress axis : x y z
#
# Youngs Moduli (GPa) = 73.06452 20.64529 67.82104
#
# Poissons Ratio (x) = 0.15380 0.41943
# Poissons Ratio (y) = 0.54429 0.30095
# Poissons Ratio (z) = 0.45185 0.09161
#
# Static dielectric constant tensor:
#      x y z
#    x 3.803620 0.000000 0.050660 
#    y 0.000000 2.864640 0.000000 
#    z 0.050660 0.000000 3.395230 
# 
# 
# High freq. dielectric constant tensor:
#      x y z
#    x 1.668880 0.000000 0.016480 
#    y 0.000000 1.625300 0.000000 
#    z 0.016480 0.000000 1.672980 
# 
# From -- ./inp_files/282841.got.cif
#   From: 2010.06.25/outbox.cif.g09.slc.cpg/sg12_142_cif.got.tgz:282841.got - 2010.06.28 00:19:55.
