data_PCOD8105926
_publ_section_title
;
Structure prediction by ZEFSAII (Michael W. Deem and Ramdas Pophale) SiO2 
 PCOD8105926
Probable space group: C 2/M
;
_chemical_formula_sum "Si O2"
_cell_formula_units_Z 48
_cell_length_a 19.922610
_cell_length_b 9.194653
_cell_length_c 20.979986
_cell_angle_alpha 90.000000
_cell_angle_beta 44.548493
_cell_angle_gamma 90.000000
_cell_volume 2696.014960
_symmetry_space_group_name_H-M "C 2/M"
_symmetry_group_IT_number 12
_symmetry_cell_setting 'monoclinic'
loop_
_space_group_symop_operation_xyz
x,y,z
-x,y,-z
-x,-y,-z
x,-y,z
1/2+x,1/2+y,z
1/2-x,1/2+y,-z
1/2-x,1/2-y,-z
1/2+x,1/2-y,z
loop_
_atom_site_type_symbol
_atom_site_label
_atom_site_fract_x
_atom_site_fract_y
_atom_site_fract_z
Si Si1 0.251091 0.668974 0.933204
Si Si2 0.895314 0.330912 0.392262
Si Si3 0.088243 0.165568 0.275144
Si Si4 0.393266 0.827068 0.073524
Si Si5 0.241376 0.169372 0.603557
Si Si6 0.743517 0.668226 0.277137
O O1 0.235226 0.500000 0.957257
O O2 0.350998 0.695959 0.829646
O O3 0.164807 0.731943 0.948235
O O4 0.250000 0.750000 0.000000
O O5 0.899138 0.500000 0.372606
O O6 0.853018 0.247761 0.359683
O O7 0.830990 0.299365 0.497398
O O8 0.000711 0.275609 0.336485
O O9 0.152451 0.193525 0.293760
O O10 0.050339 0.000000 0.300856
O O11 0.339561 0.781986 0.174914
O O12 0.394862 0.000000 0.068519
O O13 0.500000 0.760645 0.000000
O O14 0.269069 0.232052 0.653134
O O15 0.218336 0.000000 0.625067
O O16 0.750555 0.500000 0.293044
#
# Coordination Sequence:
#
# PCOD8105926 Si02
#       6
#     8   8   8   8   8   8
#     4   9  18  32  50  74 103 133 166 206 251 296
#     4  10  21  36  54  75  99 132 173 210 250 306
#     4   9  19  35  52  73 105 139 170 210 255 297
#     4   8  15  30  51  73  98 129 166 205 241 285
#     4  10  21  36  53  75 104 132 162 210 262 303
#     4   9  18  33  53  76 102 135 172 205 246 303
#
# _framework density 17.804055999999999
#
# number of rings (size 3 to 8) (size 9 to 14) (size 15 to 20)
#    0.000    2.833    0.000    3.000    0.000    5.333 
#    0.000    7.500    0.000    1.000    0.000    0.000 
#    0.000    0.000    0.000    0.000    0.000    0.000 
#
# Total GULP energy -297604.279287 kJ/mol
# GULP energy per Si atom -12400.178304 kJ/mol
# Density = 1.776353 g / cm^3
# Si number density = 17.804056 Si / 1000 Ang^3
#
#
#
# Elastic Constant Matrix: (Units=GPa)
#
#
# Indices 1 2 3 4 5 6 
#
# 1 99.0825 57.0380 66.8156 0.0000 3.1570 0.0000
# 2 57.0380 83.4530 56.3505 0.0000 4.8433 0.0000
# 3 66.8156 56.3505 84.5910 0.0000 3.3519 0.0000
# 4 0.0000 0.0000 0.0000 29.8469 0.0000 4.2090
# 5 3.1570 4.8433 3.3519 0.0000 38.9235 0.0000
# 6 0.0000 0.0000 0.0000 4.2090 0.0000 34.8400
#
#
#
# Elastic Compliance Matrix: (Units=1/GPa)
#
#
# Indices 1 2 3 4 5 6 
#
# 1 0.023317 -0.006369 -0.014179 0.000000 0.000122 0.000000
# 2 -0.006369 0.023603 -0.010633 0.000000 -0.001505 0.000000
# 3 -0.014179 -0.010633 0.030109 0.000000 -0.000120 0.000000
# 4 0.000000 0.000000 0.000000 0.034085 0.000000 -0.004118
# 5 0.000122 -0.001505 -0.000120 0.000000 0.025879 0.000000
# 6 0.000000 0.000000 0.000000 -0.004118 0.000000 0.029200
#
#
# Mechanical properties :
#
#
# Convention : Reuss Voigt Hill
#
# Bulk Modulus (GPa) = 68.18227 69.72607 68.95417
# Shear Modulus (GPa) = 21.41843 26.51689 23.96766
#
# Velocity S-wave (km/s) = 3.47220 3.86343 3.67303
# Velocity P-wave (km/s) = 7.37929 7.69087 7.53669
#
# Compressibility (1/GPa) = 0.01466657
#
# Stress axis : x y z
#
# Youngs Moduli (GPa) = 42.88740 42.36760 33.21283
#
# Poissons Ratio (x) = 0.26985 0.47093
# Poissons Ratio (y) = 0.27317 0.35314
# Poissons Ratio (z) = 0.60810 0.45048
#
# Static dielectric constant tensor:
#      x y z
#    x 3.403650 0.000000 -0.112290 
#    y 0.000000 3.105840 0.000000 
#    z -0.112290 0.000000 3.330610 
# 
# 
# High freq. dielectric constant tensor:
#      x y z
#    x 1.693840 0.000000 -0.000040 
#    y 0.000000 1.673150 0.000000 
#    z -0.000040 0.000000 1.689410 
# 
# From -- ./inp_files/248779.got.cif
#   From: 2010.06.25/outbox.cif.g09.slc.cpg/sg12_125_cif.got.tgz:248779.got - 2010.06.28 00:19:55.
