data_PCOD8105298
_publ_section_title
;
Structure prediction by ZEFSAII (Michael W. Deem and Ramdas Pophale) SiO2 
 PCOD8105298
Probable space group: C 2/M
;
_chemical_formula_sum "Si O2"
_cell_formula_units_Z 64
_cell_length_a 11.640983
_cell_length_b 27.768095
_cell_length_c 11.192748
_cell_angle_alpha 90.000000
_cell_angle_beta 88.372721
_cell_angle_gamma 90.000000
_cell_volume 3616.573407
_symmetry_space_group_name_H-M "C 2/M"
_symmetry_group_IT_number 12
_symmetry_cell_setting 'monoclinic'
loop_
_space_group_symop_operation_xyz
x,y,z
-x,y,-z
-x,-y,-z
x,-y,z
1/2+x,1/2+y,z
1/2-x,1/2+y,-z
1/2-x,1/2-y,-z
1/2+x,1/2-y,z
loop_
_atom_site_type_symbol
_atom_site_label
_atom_site_fract_x
_atom_site_fract_y
_atom_site_fract_z
Si Si1 0.917614 0.857205 0.834901
Si Si2 0.167345 0.708496 0.259797
Si Si3 0.131193 0.637567 0.474865
Si Si4 0.463479 0.554473 0.691959
Si Si5 0.951410 0.285548 0.117341
Si Si6 0.141866 0.183879 0.914245
Si Si7 0.230761 0.691792 0.697867
Si Si8 0.315293 0.555178 0.463869
O O1 0.928698 0.914030 0.808199
O O2 0.848749 0.834500 0.726542
O O3 0.045728 0.836462 0.828177
O O4 0.855483 0.846430 0.962878
O O5 0.132950 0.669621 0.357496
O O6 0.236000 0.680289 0.153787
O O7 0.245017 0.750916 0.315134
O O8 0.052205 0.730585 0.205224
O O9 0.180444 0.670882 0.578294
O O10 0.205559 0.589593 0.453765
O O11 0.000000 0.621515 0.500000
O O12 0.468350 0.500000 0.737611
O O13 0.366696 0.560632 0.594199
O O14 0.587433 0.569880 0.635201
O O15 0.888647 0.239499 0.058993
O O16 0.859848 0.317498 0.192141
O O17 0.000000 0.314743 0.000000
O O18 0.275970 0.500000 0.443653
#
# Coordination Sequence:
#
# PCOD8105298 Si02
#       8
#     8   8   8   8   8   8   8   8
#     4  11  18  35  55  81 111 138 185 225 267 327
#     4  11  22  37  52  76 114 150 186 227 271 319
#     4  12  23  38  54  81 113 141 183 234 280 330
#     4   9  18  34  60  86 111 140 175 225 279 341
#     4  11  19  35  53  73 104 148 195 229 254 310
#     4  10  21  33  53  81 105 145 190 224 261 311
#     4  11  22  35  53  77 111 150 181 228 277 321
#     4   9  19  37  59  84 109 140 181 223 281 339
#
# _framework density 17.696308999999999
#
# number of rings (size 3 to 8) (size 9 to 14) (size 15 to 20)
#    0.000    1.500    5.000    2.625    0.000    2.250 
#    0.000    1.250    0.000    0.750    0.000    0.000 
#    0.000    4.500    0.000    0.000    0.000    0.000 
#
# Total GULP energy -396730.853434 kJ/mol
# GULP energy per Si atom -12397.839170 kJ/mol
# Density = 1.765603 g / cm^3
# Si number density = 17.696309 Si / 1000 Ang^3
#
#
#
# Elastic Constant Matrix: (Units=GPa)
#
#
# Indices 1 2 3 4 5 6 
#
# 1 90.8924 33.0083 30.8520 0.0000 2.1499 0.0000
# 2 33.0083 82.0820 46.3869 0.0000 -6.2212 0.0000
# 3 30.8520 46.3869 82.0905 0.0000 -8.9798 0.0000
# 4 0.0000 0.0000 0.0000 29.1760 0.0000 -2.1382
# 5 2.1499 -6.2212 -8.9798 0.0000 24.3598 0.0000
# 6 0.0000 0.0000 0.0000 -2.1382 0.0000 25.5760
#
#
#
# Elastic Compliance Matrix: (Units=1/GPa)
#
#
# Indices 1 2 3 4 5 6 
#
# 1 0.013607 -0.003863 -0.003303 0.000000 -0.003405 0.000000
# 2 -0.003863 0.019013 -0.009090 0.000000 0.001846 0.000000
# 3 -0.003303 -0.009090 0.019108 0.000000 0.005014 0.000000
# 4 0.000000 0.000000 0.000000 0.034486 0.000000 0.002883
# 5 -0.003405 0.001846 0.005014 0.000000 0.043672 0.000000
# 6 0.000000 0.000000 0.000000 0.002883 0.000000 0.039340
#
#
# Mechanical properties :
#
#
# Convention : Reuss Voigt Hill
#
# Bulk Modulus (GPa) = 52.04214 52.83991 52.44103
# Shear Modulus (GPa) = 24.02178 25.47687 24.74932
#
# Velocity S-wave (km/s) = 3.68835 3.79842 3.74379
# Velocity P-wave (km/s) = 6.90006 7.01152 6.95601
#
# Compressibility (1/GPa) = 0.01921520
#
# Stress axis : x y z
#
# Youngs Moduli (GPa) = 73.49297 52.59447 52.33343
#
# Poissons Ratio (x) = 0.20317 0.17288
# Poissons Ratio (y) = 0.28390 0.47572
# Poissons Ratio (z) = 0.24278 0.47809
#
# Static dielectric constant tensor:
#      x y z
#    x 3.409330 0.000000 -0.065360 
#    y 0.000000 3.097630 0.000000 
#    z -0.065360 0.000000 3.271710 
# 
# 
# High freq. dielectric constant tensor:
#      x y z
#    x 1.693020 0.000000 -0.001390 
#    y 0.000000 1.656720 0.000000 
#    z -0.001390 0.000000 1.682100 
# 
# From -- ./inp_files/136641.got.cif
#   From: 2010.06.25/outbox.cif.g09.slc.cpg/sg12_69_cif.got.tgz:136641.got - 2010.06.28 00:19:55.
