data_PCOD8105056
_publ_section_title
;
Structure prediction by ZEFSAII (Michael W. Deem and Ramdas Pophale) SiO2 
 PCOD8105056
Probable space group: C 2/M
;
_chemical_formula_sum "Si O2"
_cell_formula_units_Z 48
_cell_length_a 13.737710
_cell_length_b 13.460311
_cell_length_c 16.205842
_cell_angle_alpha 90.000000
_cell_angle_beta 46.196842
_cell_angle_gamma 90.000000
_cell_volume 2162.773451
_symmetry_space_group_name_H-M "C 2/M"
_symmetry_group_IT_number 12
_symmetry_cell_setting 'monoclinic'
loop_
_space_group_symop_operation_xyz
x,y,z
-x,y,-z
-x,-y,-z
x,-y,z
1/2+x,1/2+y,z
1/2-x,1/2+y,-z
1/2-x,1/2-y,-z
1/2+x,1/2-y,z
loop_
_atom_site_type_symbol
_atom_site_label
_atom_site_fract_x
_atom_site_fract_y
_atom_site_fract_z
Si Si1 0.929860 0.884478 0.126875
Si Si2 0.005472 0.613387 0.680583
Si Si3 0.823099 0.295549 0.661456
Si Si4 0.873472 0.776454 0.868127
Si Si5 0.278241 0.613256 0.445359
Si Si6 0.418513 0.384505 0.686134
O O1 0.790219 0.824927 0.204650
O O2 0.017886 0.841218 0.148204
O O3 0.903356 0.000000 0.160146
O O4 0.000000 0.865302 0.000000
O O5 0.965033 0.500000 0.721962
O O6 0.953864 0.645016 0.618937
O O7 0.942313 0.676720 0.792205
O O8 0.168451 0.626318 0.582754
O O9 0.769991 0.320674 0.602691
O O10 0.860343 0.177844 0.642723
O O11 0.831556 0.848356 0.816607
O O12 0.750000 0.750000 0.000000
O O13 0.285408 0.500000 0.410229
O O14 0.424952 0.646746 0.391340
O O15 0.398785 0.500000 0.678502
#
# Coordination Sequence:
#
# PCOD8105056 Si02
#       6
#     8   8   8   8   8   8
#     4  11  22  39  64  92 125 164 214 272 320 376
#     4  10  22  39  62  96 131 164 213 273 321 374
#     4  11  21  36  65  98 128 163 219 264 320 379
#     4  11  23  39  63  94 126 169 217 263 321 389
#     4  10  20  40  68  96 127 170 219 265 320 383
#     4  10  22  41  66  93 129 174 215 261 324 390
#
# _framework density 22.193725000000001
#
# number of rings (size 3 to 8) (size 9 to 14) (size 15 to 20)
#    0.000    1.500    1.667    4.500    0.000    6.667 
#    3.000    0.833    0.000   11.000    0.000    0.000 
#    0.000    0.000    0.000    0.000    0.000    0.000 
#
# Total GULP energy -297525.702338 kJ/mol
# GULP energy per Si atom -12396.904264 kJ/mol
# Density = 2.214321 g / cm^3
# Si number density = 22.193725 Si / 1000 Ang^3
#
#
#
# Elastic Constant Matrix: (Units=GPa)
#
#
# Indices 1 2 3 4 5 6 
#
# 1 67.8715 52.9421 11.3050 0.0000 -2.7864 0.0000
# 2 52.9421 161.1578 50.4504 0.0000 0.7962 0.0000
# 3 11.3050 50.4504 98.2713 0.0000 -14.1913 0.0000
# 4 0.0000 0.0000 0.0000 27.5160 0.0000 -0.1295
# 5 -2.7864 0.7962 -14.1913 0.0000 29.7174 0.0000
# 6 0.0000 0.0000 0.0000 -0.1295 0.0000 38.0926
#
#
#
# Elastic Compliance Matrix: (Units=1/GPa)
#
#
# Indices 1 2 3 4 5 6 
#
# 1 0.020176 -0.007208 0.001805 0.000000 0.002947 0.000000
# 2 -0.007208 0.010099 -0.004825 0.000000 -0.003251 0.000000
# 3 0.001805 -0.004825 0.013414 0.000000 0.006704 0.000000
# 4 0.000000 0.000000 0.000000 0.036343 0.000000 0.000124
# 5 0.002947 -0.003251 0.006704 0.000000 0.037215 0.000000
# 6 0.000000 0.000000 0.000000 0.000124 0.000000 0.026252
#
#
# Mechanical properties :
#
#
# Convention : Reuss Voigt Hill
#
# Bulk Modulus (GPa) = 43.04179 61.85506 52.44843
# Shear Modulus (GPa) = 29.12054 33.23876 31.17965
#
# Velocity S-wave (km/s) = 3.62623 3.87417 3.75225
# Velocity P-wave (km/s) = 6.08017 6.92411 6.51582
#
# Compressibility (1/GPa) = 0.02323323
#
# Stress axis : x y z
#
# Youngs Moduli (GPa) = 49.56307 99.01529 74.55168
#
# Poissons Ratio (x) = 0.71367 -0.13455
# Poissons Ratio (y) = 0.35723 0.35972
# Poissons Ratio (z) = -0.08945 0.47776
#
# Static dielectric constant tensor:
#      x y z
#    x 3.985710 0.000000 -0.058430 
#    y 0.000000 4.129600 0.000000 
#    z -0.058430 0.000000 4.761350 
# 
# 
# High freq. dielectric constant tensor:
#      x y z
#    x 1.865430 0.000000 -0.006580 
#    y 0.000000 1.884620 0.000000 
#    z -0.006580 0.000000 1.880050 
# 
# From -- ./inp_files/270131.got.cif
#   From: 2010.06.25/outbox.cif.g09.slc.cpg/sg12_136_cif.got.tgz:270131.got - 2010.06.28 00:19:55.
