data_PCOD8105477
_publ_section_title
;
Structure prediction by ZEFSAII (Michael W. Deem and Ramdas Pophale) SiO2 
 PCOD8105477
Probable space group: C 2/M
;
_chemical_formula_sum "Si O2"
_cell_formula_units_Z 56
_cell_length_a 26.642200
_cell_length_b 8.962439
_cell_length_c 21.801707
_cell_angle_alpha 90.000000
_cell_angle_beta 40.442247
_cell_angle_gamma 90.000000
_cell_volume 3376.899509
_symmetry_space_group_name_H-M "C 2/M"
_symmetry_group_IT_number 12
_symmetry_cell_setting 'monoclinic'
loop_
_space_group_symop_operation_xyz
x,y,z
-x,y,-z
-x,-y,-z
x,-y,z
1/2+x,1/2+y,z
1/2-x,1/2+y,-z
1/2-x,1/2-y,-z
1/2+x,1/2-y,z
loop_
_atom_site_type_symbol
_atom_site_label
_atom_site_fract_x
_atom_site_fract_y
_atom_site_fract_z
Si Si1 0.670683 0.173799 0.792277
Si Si2 0.976837 0.833934 0.113169
Si Si3 0.321805 0.823564 0.966352
Si Si4 0.762237 0.674450 0.395793
Si Si5 0.527872 0.330785 0.204526
Si Si6 0.132178 0.825142 0.605237
Si Si7 0.850088 0.827786 0.068233
O O1 0.583851 0.210527 0.851394
O O2 0.730806 0.218848 0.682239
O O3 0.694711 0.265900 0.830479
O O4 0.675078 0.000000 0.803925
O O5 0.991450 0.819158 0.171409
O O6 0.945018 0.000000 0.127095
O O7 0.058523 0.807811 0.002783
O O8 0.399077 0.778099 0.856936
O O9 0.313249 0.000000 0.974053
O O10 0.250000 0.750000 0.000000
O O11 0.324616 0.765848 0.033129
O O12 0.775672 0.500000 0.391305
O O13 0.830167 0.751069 0.370439
O O14 0.677903 0.722607 0.500694
O O15 0.555898 0.500000 0.191504
O O16 0.458821 0.281210 0.315373
O O17 0.138688 0.000000 0.610770
O O18 0.828880 0.000000 0.075947
#
# Coordination Sequence:
#
# PCOD8105477 Si02
#       7
#     8   8   8   8   8   8   8
#     4  11  20  28  41  66  98 130 164 201 238 276
#     4   9  17  29  43  62  90 127 165 199 231 277
#     4  11  22  37  56  76  98 120 149 193 243 291
#     4   9  18  28  41  65  97 131 168 206 237 271
#     4   9  17  30  49  71  96 128 165 199 237 284
#     4   9  16  29  46  64  92 132 170 201 236 278
#     4  10  21  35  49  66  91 125 163 197 234 286
#
# _framework density 16.583259000000002
#
# number of rings (size 3 to 8) (size 9 to 14) (size 15 to 20)
#    0.000    2.286    1.429    3.429    0.000    5.714 
#    0.000    0.000    0.000    0.000    0.000    1.000 
#    0.000    8.000    0.000    0.000    0.000    0.000 
#
# Total GULP energy -347106.331582 kJ/mol
# GULP energy per Si atom -12396.654699 kJ/mol
# Density = 1.654552 g / cm^3
# Si number density = 16.583259 Si / 1000 Ang^3
#
#
#
# Elastic Constant Matrix: (Units=GPa)
#
#
# Indices 1 2 3 4 5 6 
#
# 1 56.4332 36.7991 46.9078 -0.0006 -8.2418 0.0059
# 2 36.7991 87.3137 51.9778 0.0053 -2.5634 0.0004
# 3 46.9078 51.9778 129.8691 0.0025 -0.4714 -0.0070
# 4 -0.0006 0.0053 0.0025 23.8157 -0.0053 0.4102
# 5 -8.2418 -2.5634 -0.4714 -0.0053 13.0769 0.0089
# 6 0.0059 0.0004 -0.0070 0.4102 0.0089 25.3280
#
#
#
# Elastic Compliance Matrix: (Units=1/GPa)
#
#
# Indices 1 2 3 4 5 6 
#
# 1 0.032940 -0.008255 -0.008526 0.000008 0.018835 -0.000017
# 2 -0.008255 0.017202 -0.003910 -0.000004 -0.001971 0.000001
# 3 -0.008526 -0.003910 0.012324 -0.000002 -0.005696 0.000007
# 4 0.000008 -0.000004 -0.000002 0.042001 0.000022 -0.000680
# 5 0.018835 -0.001971 -0.005696 0.000022 0.087750 -0.000037
# 6 -0.000017 0.000001 0.000007 -0.000680 -0.000037 0.039493
#
#
# Mechanical properties :
#
#
# Convention : Reuss Voigt Hill
#
# Bulk Modulus (GPa) = 47.42800 60.55394 53.99097
# Shear Modulus (GPa) = 17.84954 21.63953 19.74453
#
# Velocity S-wave (km/s) = 3.28435 3.61626 3.45429
# Velocity P-wave (km/s) = 6.56084 7.35057 6.96690
#
# Compressibility (1/GPa) = 0.02108459
#
# Stress axis : x y z
#
# Youngs Moduli (GPa) = 30.35814 58.13304 81.14367
#
# Poissons Ratio (x) = 0.47987 0.69180
# Poissons Ratio (y) = 0.25060 0.31730
# Poissons Ratio (z) = 0.25882 0.22732
#
# Static dielectric constant tensor:
#      x y z
#    x 2.756730 -0.000010 0.026410 
#    y -0.000010 3.206900 0.000010 
#    z 0.026410 0.000010 3.646130 
# 
# 
# High freq. dielectric constant tensor:
#      x y z
#    x 1.588980 0.000000 0.007650 
#    y 0.000000 1.643460 0.000000 
#    z 0.007650 0.000000 1.647930 
# 
# From -- ./inp_files/323571.got.cif
#   From: 2010.06.25/outbox.cif.g09.slc.cpg/sg12_162_cif.got.tgz:323571.got - 2010.06.28 00:19:55.
