data_PCOD8105549
_publ_section_title
;
Structure prediction by ZEFSAII (Michael W. Deem and Ramdas Pophale) SiO2 
 PCOD8105549
Probable space group: C 2/M
;
_chemical_formula_sum "Si O2"
_cell_formula_units_Z 56
_cell_length_a 28.260452
_cell_length_b 9.188142
_cell_length_c 13.828657
_cell_angle_alpha 90.000000
_cell_angle_beta 118.246061
_cell_angle_gamma 90.000000
_cell_volume 3163.187182
_symmetry_space_group_name_H-M "C 2/M"
_symmetry_group_IT_number 12
_symmetry_cell_setting 'monoclinic'
loop_
_space_group_symop_operation_xyz
x,y,z
-x,y,-z
-x,-y,-z
x,-y,z
1/2+x,1/2+y,z
1/2-x,1/2+y,-z
1/2-x,1/2-y,-z
1/2+x,1/2-y,z
loop_
_atom_site_type_symbol
_atom_site_label
_atom_site_fract_x
_atom_site_fract_y
_atom_site_fract_z
Si Si1 0.033031 0.169527 0.163323
Si Si2 0.872037 0.169996 0.620528
Si Si3 0.791071 0.667515 0.167113
Si Si4 0.281511 0.834329 0.611396
Si Si5 0.420298 0.327361 0.992501
Si Si6 0.317637 0.831600 0.976618
Si Si7 0.680104 0.334568 0.629043
O O1 0.065434 0.203883 0.294309
O O2 0.971349 0.223395 0.108680
O O3 0.029422 0.000000 0.140296
O O4 0.065785 0.228387 0.102129
O O5 0.838767 0.253407 0.672991
O O6 0.855871 0.222317 0.496810
O O7 0.858227 0.000000 0.616668
O O8 0.778466 0.500000 0.177853
O O9 0.822347 0.685652 0.096740
O O10 0.830167 0.733156 0.288057
O O11 0.735644 0.754549 0.113011
O O12 0.250000 0.750000 0.500000
O O13 0.244432 0.825822 0.670635
O O14 0.291288 0.000000 0.589512
O O15 0.408832 0.500000 0.988318
O O16 0.368753 0.241619 0.978159
O O17 0.314740 0.000000 0.943094
O O18 0.663345 0.500000 0.637013
#
# Coordination Sequence:
#
# PCOD8105549 Si02
#       7
#     8   8   8   8   8   8   8
#     4   8  16  31  51  76 103 129 164 200 234 288
#     4   9  17  30  47  69  99 133 162 197 241 285
#     4  10  21  35  52  72  95 129 167 200 245 299
#     4   9  17  28  41  63  94 128 162 195 234 281
#     4   9  17  32  54  77  99 129 165 200 240 288
#     4  10  21  36  52  73 100 125 158 207 252 292
#     4   9  18  30  45  68  99 129 161 203 244 282
#
# _framework density 17.703664
#
# number of rings (size 3 to 8) (size 9 to 14) (size 15 to 20)
#    0.000    2.857    0.000    3.000    2.000    4.571 
#    0.000    2.143    0.000    0.857    0.000    6.000 
#    0.000    0.000    0.000    0.000    0.000    0.000 
#
# Total GULP energy -346924.773489 kJ/mol
# GULP energy per Si atom -12390.170482 kJ/mol
# Density = 1.766337 g / cm^3
# Si number density = 17.703664 Si / 1000 Ang^3
#
#
#
# Elastic Constant Matrix: (Units=GPa)
#
#
# Indices 1 2 3 4 5 6 
#
# 1 63.5496 23.9153 18.0238 0.0000 3.4586 0.0000
# 2 23.9153 73.0482 29.0215 0.0000 -3.8496 0.0000
# 3 18.0238 29.0215 94.5113 0.0000 0.1347 0.0000
# 4 0.0000 0.0000 0.0000 21.7807 0.0000 -5.5863
# 5 3.4586 -3.8496 0.1347 0.0000 19.1769 0.0000
# 6 0.0000 0.0000 0.0000 -5.5863 0.0000 22.9339
#
#
#
# Elastic Compliance Matrix: (Units=1/GPa)
#
#
# Indices 1 2 3 4 5 6 
#
# 1 0.018604 -0.005603 -0.001821 0.000000 -0.004467 0.000000
# 2 -0.005603 0.017473 -0.004304 0.000000 0.004548 0.000000
# 3 -0.001821 -0.004304 0.012250 0.000000 -0.000622 0.000000
# 4 0.000000 0.000000 0.000000 0.048972 0.000000 0.011929
# 5 -0.004467 0.004548 -0.000622 0.000000 0.053869 0.000000
# 6 0.000000 0.000000 0.000000 0.011929 0.000000 0.046509
#
#
# Mechanical properties :
#
#
# Convention : Reuss Voigt Hill
#
# Bulk Modulus (GPa) = 40.20427 41.44782 40.82604
# Shear Modulus (GPa) = 21.79382 23.45487 22.62435
#
# Velocity S-wave (km/s) = 3.51242 3.64381 3.57872
# Velocity P-wave (km/s) = 6.26165 6.41607 6.33933
#
# Compressibility (1/GPa) = 0.02487298
#
# Stress axis : x y z
#
# Youngs Moduli (GPa) = 53.75257 57.23018 81.62990
#
# Poissons Ratio (x) = 0.32064 0.14865
# Poissons Ratio (y) = 0.30116 0.35130
# Poissons Ratio (z) = 0.09789 0.24629
#
# Static dielectric constant tensor:
#      x y z
#    x 3.207380 0.000000 0.076980 
#    y 0.000000 3.398870 0.000000 
#    z 0.076980 0.000000 3.343170 
# 
# 
# High freq. dielectric constant tensor:
#      x y z
#    x 1.651650 0.000000 0.004790 
#    y 0.000000 1.675650 0.000000 
#    z 0.004790 0.000000 1.687790 
# 
# From -- ./inp_files/244315.got.cif
#   From: 2010.06.25/outbox.cif.g09.slc.cpg/sg12_123_cif.got.tgz:244315.got - 2010.06.28 00:19:55.
