data_PCOD8105039
_publ_section_title
;
Structure prediction by ZEFSAII (Michael W. Deem and Ramdas Pophale) SiO2 
 PCOD8105039
Probable space group: C 2/M
;
_chemical_formula_sum "Si O2"
_cell_formula_units_Z 40
_cell_length_a 29.490345
_cell_length_b 14.000732
_cell_length_c 9.367445
_cell_angle_alpha 90.000000
_cell_angle_beta 151.149962
_cell_angle_gamma 90.000000
_cell_volume 1866.233499
_symmetry_space_group_name_H-M "C 2/M"
_symmetry_group_IT_number 12
_symmetry_cell_setting 'monoclinic'
loop_
_space_group_symop_operation_xyz
x,y,z
-x,y,-z
-x,-y,-z
x,-y,z
1/2+x,1/2+y,z
1/2-x,1/2+y,-z
1/2-x,1/2-y,-z
1/2+x,1/2-y,z
loop_
_atom_site_type_symbol
_atom_site_label
_atom_site_fract_x
_atom_site_fract_y
_atom_site_fract_z
Si Si1 0.037779 0.889502 0.835198
Si Si2 0.643805 0.771621 0.247304
Si Si3 0.842347 0.611678 0.429057
Si Si4 0.136853 0.889634 0.811540
Si Si5 0.985102 0.610513 0.300643
O O1 0.106060 0.873844 0.888905
O O2 0.935713 0.845928 0.505901
O O3 0.034804 0.000000 0.875877
O O4 0.082228 0.826381 0.085280
O O5 0.750000 0.750000 0.500000
O O6 0.631771 0.826293 0.362304
O O7 0.603597 0.836804 0.010391
O O8 0.835989 0.500000 0.456912
O O9 0.920468 0.629071 0.526720
O O10 0.743443 0.647540 0.088730
O O11 0.130633 0.000000 0.757597
O O12 0.958318 0.500000 0.232712
O O13 0.000000 0.651987 0.500000
#
# Coordination Sequence:
#
# PCOD8105039 Si02
#       5
#     8   8   8   8   8
#     4   9  18  33  55  88 128 164 202 246 299 367
#     4  12  23  34  60  94 128 164 201 248 309 374
#     4  10  20  40  67  94 122 158 208 257 313 373
#     4   8  15  31  58  87 116 159 206 247 296 358
#     4  10  24  45  66  89 121 162 211 265 311 362
#
# _framework density 21.433544999999999
#
# number of rings (size 3 to 8) (size 9 to 14) (size 15 to 20)
#    0.000    2.200    2.000    2.400    2.800    2.400 
#    0.000    6.000    0.000    2.400    0.000    0.000 
#    0.000    0.000    0.000    0.000    0.000    0.000 
#
# Total GULP energy -247937.337402 kJ/mol
# GULP energy per Si atom -12396.866870 kJ/mol
# Density = 2.138476 g / cm^3
# Si number density = 21.433545 Si / 1000 Ang^3
#
#
#
# Elastic Constant Matrix: (Units=GPa)
#
#
# Indices 1 2 3 4 5 6 
#
# 1 97.3129 43.0696 75.5715 0.0000 -7.2875 0.0000
# 2 43.0696 94.9100 70.6214 0.0000 -4.8458 0.0000
# 3 75.5715 70.6214 186.6640 0.0000 13.0195 0.0000
# 4 0.0000 0.0000 0.0000 42.5896 0.0000 0.6271
# 5 -7.2875 -4.8458 13.0195 0.0000 25.3628 0.0000
# 6 0.0000 0.0000 0.0000 0.6271 0.0000 16.1635
#
#
#
# Elastic Compliance Matrix: (Units=1/GPa)
#
#
# Indices 1 2 3 4 5 6 
#
# 1 0.016985 -0.002499 -0.006469 0.000000 0.007724 0.000000
# 2 -0.002499 0.015923 -0.005367 0.000000 0.005079 0.000000
# 3 -0.006469 -0.005367 0.010587 0.000000 -0.008319 0.000000
# 4 0.000000 0.000000 0.000000 0.023493 0.000000 -0.000912
# 5 0.007724 0.005079 -0.008319 0.000000 0.046888 0.000000
# 6 0.000000 0.000000 0.000000 -0.000912 0.000000 0.061903
#
#
# Mechanical properties :
#
#
# Convention : Reuss Voigt Hill
#
# Bulk Modulus (GPa) = 67.45845 84.15687 75.80766
# Shear Modulus (GPa) = 23.87874 29.46482 26.67178
#
# Velocity S-wave (km/s) = 3.34141 3.71173 3.53142
# Velocity P-wave (km/s) = 6.81383 7.59727 7.21619
#
# Compressibility (1/GPa) = 0.01482394
#
# Stress axis : x y z
#
# Youngs Moduli (GPa) = 58.87611 62.80210 94.45562
#
# Poissons Ratio (x) = 0.15697 0.61108
# Poissons Ratio (y) = 0.14716 0.50690
# Poissons Ratio (z) = 0.38090 0.33703
#
# Static dielectric constant tensor:
#      x y z
#    x 3.392440 0.000000 -0.059530 
#    y 0.000000 3.984940 0.000000 
#    z -0.059530 0.000000 4.081930 
# 
# 
# High freq. dielectric constant tensor:
#      x y z
#    x 1.812360 0.000000 0.011850 
#    y 0.000000 1.845830 0.000000 
#    z 0.011850 0.000000 1.857480 
# 
# From -- ./inp_files/59217.got.cif
#   From: 2010.06.25/outbox.cif.g09.slc.cpg/sg12_30_cif.got.tgz:59217.got - 2010.06.28 00:19:55.
