data_PCOD8105044
_publ_section_title
;
Structure prediction by ZEFSAII (Michael W. Deem and Ramdas Pophale) SiO2 
 PCOD8105044
Probable space group: C 2/M
;
_chemical_formula_sum "Si O2"
_cell_formula_units_Z 44
_cell_length_a 8.938697
_cell_length_b 29.726056
_cell_length_c 8.285604
_cell_angle_alpha 90.000000
_cell_angle_beta 93.494014
_cell_angle_gamma 90.000000
_cell_volume 2197.493758
_symmetry_space_group_name_H-M "C 2/M"
_symmetry_group_IT_number 12
_symmetry_cell_setting 'monoclinic'
loop_
_space_group_symop_operation_xyz
x,y,z
-x,y,-z
-x,-y,-z
x,-y,z
1/2+x,1/2+y,z
1/2-x,1/2+y,-z
1/2-x,1/2-y,-z
1/2+x,1/2-y,z
loop_
_atom_site_type_symbol
_atom_site_label
_atom_site_fract_x
_atom_site_fract_y
_atom_site_fract_z
Si Si1 0.930608 0.123536 0.826453
Si Si2 0.000000 0.745258 0.500000
Si Si3 0.056495 0.551108 0.182668
Si Si4 0.788438 0.109659 0.376186
Si Si5 0.240927 0.188474 0.391370
Si Si6 0.756174 0.949105 0.682947
O O1 0.802169 0.159217 0.767768
O O2 0.846792 0.075446 0.833813
O O3 0.052834 0.120483 0.693508
O O4 0.000000 0.138150 0.000000
O O5 0.107956 0.775572 0.399291
O O6 0.102168 0.714305 0.624942
O O7 0.122890 0.500000 0.195302
O O8 0.177362 0.589252 0.234329
O O9 0.921314 0.555045 0.301298
O O10 0.000000 0.561572 0.000000
O O11 0.734912 0.156892 0.448988
O O12 0.802886 0.072615 0.516684
O O13 0.810551 0.000000 0.686428
#
# Coordination Sequence:
#
# PCOD8105044 Si02
#       6
#     8   4   8   8   8   8
#     4  11  23  39  57  85 125 156 191 242 295 350
#     4  10  20  40  68  86 114 142 192 244 290 354
#     4  10  21  36  55  85 123 160 198 241 289 340
#     4  11  21  36  58  87 115 156 198 245 286 344
#     4  10  21  39  64  89 112 149 192 236 294 352
#     4  10  21  36  57  84 115 159 208 241 280 339
#
# _framework density 20.022808999999999
#
# number of rings (size 3 to 8) (size 9 to 14) (size 15 to 20)
#    0.000    1.636    1.818    3.818    5.091    4.000 
#    0.000    0.909    0.000    0.000    0.000    0.000 
#    0.000    0.000    0.000    0.000    0.000    0.000 
#
# Total GULP energy -272755.532688 kJ/mol
# GULP energy per Si atom -12397.978759 kJ/mol
# Density = 1.997724 g / cm^3
# Si number density = 20.022809 Si / 1000 Ang^3
#
#
#
# Elastic Constant Matrix: (Units=GPa)
#
#
# Indices 1 2 3 4 5 6 
#
# 1 72.1623 50.7745 27.7384 0.0000 17.2172 0.0000
# 2 50.7745 136.2458 46.0683 0.0000 20.4036 0.0000
# 3 27.7384 46.0683 93.6500 0.0000 18.4963 0.0000
# 4 0.0000 0.0000 0.0000 10.2157 0.0000 9.2461
# 5 17.2172 20.4036 18.4963 0.0000 31.2240 0.0000
# 6 0.0000 0.0000 0.0000 9.2461 0.0000 40.0765
#
#
#
# Elastic Compliance Matrix: (Units=1/GPa)
#
#
# Indices 1 2 3 4 5 6 
#
# 1 0.020258 -0.006009 -0.001828 0.000000 -0.006161 0.000000
# 2 -0.006009 0.010961 -0.003230 0.000000 -0.001936 0.000000
# 3 -0.001828 -0.003230 0.013808 0.000000 -0.005061 0.000000
# 4 0.000000 0.000000 0.000000 0.123724 0.000000 -0.028544
# 5 -0.006161 -0.001936 -0.005061 0.000000 0.039687 0.000000
# 6 0.000000 0.000000 0.000000 -0.028544 0.000000 0.031538
#
#
# Mechanical properties :
#
#
# Convention : Reuss Voigt Hill
#
# Bulk Modulus (GPa) = 43.67873 61.24672 52.46272
# Shear Modulus (GPa) = 18.53638 28.13503 23.33570
#
# Velocity S-wave (km/s) = 3.04594 3.75260 3.41758
# Velocity P-wave (km/s) = 5.85082 7.03071 6.46773
#
# Compressibility (1/GPa) = 0.02289444
#
# Stress axis : x y z
#
# Youngs Moduli (GPa) = 49.36289 91.23251 72.42319
#
# Poissons Ratio (x) = 0.54821 0.13235
# Poissons Ratio (y) = 0.29662 0.23391
# Poissons Ratio (z) = 0.09021 0.29466
#
# Static dielectric constant tensor:
#      x y z
#    x 3.773470 0.000000 0.167060 
#    y 0.000000 3.935470 0.000000 
#    z 0.167060 0.000000 3.413060 
# 
# 
# High freq. dielectric constant tensor:
#      x y z
#    x 1.786670 0.000000 0.012300 
#    y 0.000000 1.790620 0.000000 
#    z 0.012300 0.000000 1.757620 
# 
# From -- ./inp_files/41735.got.cif
#   From: 2010.06.25/outbox.cif.g09.slc.cpg/sg12_21_cif.got.tgz:41735.got - 2010.06.28 00:19:55.
