data_PCOD8105167
_publ_section_title
;
Structure prediction by ZEFSAII (Michael W. Deem and Ramdas Pophale) SiO2 
 PCOD8105167
Probable space group: C 2/M
;
_chemical_formula_sum "Si O2"
_cell_formula_units_Z 44
_cell_length_a 15.795357
_cell_length_b 10.224833
_cell_length_c 14.586669
_cell_angle_alpha 90.000000
_cell_angle_beta 89.549679
_cell_angle_gamma 90.000000
_cell_volume 2355.745573
_symmetry_space_group_name_H-M "C 2/M"
_symmetry_group_IT_number 12
_symmetry_cell_setting 'monoclinic'
loop_
_space_group_symop_operation_xyz
x,y,z
-x,y,-z
-x,-y,-z
x,-y,z
1/2+x,1/2+y,z
1/2-x,1/2+y,-z
1/2-x,1/2-y,-z
1/2+x,1/2-y,z
loop_
_atom_site_type_symbol
_atom_site_label
_atom_site_fract_x
_atom_site_fract_y
_atom_site_fract_z
Si Si1 0.557948 0.500000 0.256527
Si Si2 0.887553 0.500000 0.434756
Si Si3 0.075763 0.500000 0.363622
Si Si4 0.700545 0.257333 0.593664
Si Si5 0.657001 0.770425 0.259009
Si Si6 0.250564 0.644887 0.079664
Si Si7 0.889048 0.000000 0.164484
Si Si8 0.600762 0.500000 0.633843
O O1 0.616549 0.626837 0.254897
O O2 0.492391 0.500000 0.168633
O O3 0.501439 0.500000 0.350583
O O4 0.865782 0.500000 0.544773
O O5 0.847888 0.624383 0.386162
O O6 0.984568 0.500000 0.408257
O O7 0.089263 0.372333 0.300734
O O8 0.750000 0.250000 0.500000
O O9 0.761367 0.278923 0.678292
O O10 0.631037 0.371320 0.580548
O O11 0.684441 0.809461 0.156998
O O12 0.221298 0.500000 0.044818
O O13 0.347891 0.629479 0.116798
O O14 0.250000 0.750000 0.000000
O O15 0.852686 0.000000 0.267959
#
# Coordination Sequence:
#
# PCOD8105167 Si02
#       8
#     4   4   4   8   8   8   4   4
#     4  10  23  36  66  89 119 161 200 249 307 359
#     4  11  24  36  55  89 120 164 202 249 306 357
#     4  11  22  40  57  79 128 165 199 247 312 359
#     4  12  21  37  60  86 118 160 209 251 296 359
#     4  12  21  41  62  91 118 159 211 252 299 366
#     4  10  21  40  70  92 116 160 202 249 299 365
#     4   8  19  44  62  84 122 165 189 240 321 355
#     4  10  20  42  58  81 120 167 196 238 312 363
#
# _framework density 18.677738000000002
#
# number of rings (size 3 to 8) (size 9 to 14) (size 15 to 20)
#    1.091    0.182    4.545    2.727    1.273    0.000 
#    0.000    2.727    2.000    1.091    0.000    0.000 
#    0.000    0.000    0.000    0.000    0.000    0.000 
#
# Total GULP energy -272605.507023 kJ/mol
# GULP energy per Si atom -12391.159410 kJ/mol
# Density = 1.863523 g / cm^3
# Si number density = 18.677738 Si / 1000 Ang^3
#
#
#
# Elastic Constant Matrix: (Units=GPa)
#
#
# Indices 1 2 3 4 5 6 
#
# 1 67.3966 41.9469 18.4779 0.0000 -13.1124 0.0000
# 2 41.9469 161.6655 32.5254 0.0000 -19.7553 0.0000
# 3 18.4779 32.5254 82.1951 0.0000 -27.0325 0.0000
# 4 0.0000 0.0000 0.0000 37.3554 0.0000 -4.3725
# 5 -13.1124 -19.7553 -27.0325 0.0000 22.4934 0.0000
# 6 0.0000 0.0000 0.0000 -4.3725 0.0000 43.0784
#
#
#
# Elastic Compliance Matrix: (Units=1/GPa)
#
#
# Indices 1 2 3 4 5 6 
#
# 1 0.018754 -0.003934 -0.000331 0.000000 0.007080 0.000000
# 2 -0.003934 0.007830 -0.001168 0.000000 0.003179 0.000000
# 3 -0.000331 -0.001168 0.020342 0.000000 0.023228 0.000000
# 4 0.000000 0.000000 0.000000 0.027092 0.000000 0.002750
# 5 0.007080 0.003179 0.023228 0.000000 0.079292 0.000000
# 6 0.000000 0.000000 0.000000 0.002750 0.000000 0.023493
#
#
# Mechanical properties :
#
#
# Convention : Reuss Voigt Hill
#
# Bulk Modulus (GPa) = 27.73196 55.23972 41.48584
# Shear Modulus (GPa) = 25.03876 35.13926 30.08901
#
# Velocity S-wave (km/s) = 3.66535 4.34215 4.01803
# Velocity P-wave (km/s) = 5.72651 7.40124 6.61707
#
# Compressibility (1/GPa) = 0.03605947
#
# Stress axis : x y z
#
# Youngs Moduli (GPa) = 53.32084 127.71352 49.15875
#
# Poissons Ratio (x) = 0.50248 0.01626
# Poissons Ratio (y) = 0.20979 0.05743
# Poissons Ratio (z) = 0.01764 0.14921
#
# Static dielectric constant tensor:
#      x y z
#    x 3.409300 0.000000 0.085790 
#    y 0.000000 3.441940 0.000000 
#    z 0.085790 0.000000 3.316250 
# 
# 
# High freq. dielectric constant tensor:
#      x y z
#    x 1.720560 0.000000 -0.009010 
#    y 0.000000 1.737550 0.000000 
#    z -0.009010 0.000000 1.707710 
# 
# From -- ./inp_files/221109.got.cif
#   From: 2010.06.25/outbox.cif.g09.slc.cpg/sg12_111_cif.got.tgz:221109.got - 2010.06.28 00:19:55.
