data_PCOD8105419
_publ_section_title
;
Structure prediction by ZEFSAII (Michael W. Deem and Ramdas Pophale) SiO2 
 PCOD8105419
Probable space group: C 2/M
;
_chemical_formula_sum "Si O2"
_cell_formula_units_Z 60
_cell_length_a 25.633609
_cell_length_b 13.266121
_cell_length_c 27.241804
_cell_angle_alpha 90.000000
_cell_angle_beta 161.133055
_cell_angle_gamma 90.000000
_cell_volume 2995.652148
_symmetry_space_group_name_H-M "C 2/M"
_symmetry_group_IT_number 12
_symmetry_cell_setting 'monoclinic'
loop_
_space_group_symop_operation_xyz
x,y,z
-x,y,-z
-x,-y,-z
x,-y,z
1/2+x,1/2+y,z
1/2-x,1/2+y,-z
1/2-x,1/2-y,-z
1/2+x,1/2-y,z
loop_
_atom_site_type_symbol
_atom_site_label
_atom_site_fract_x
_atom_site_fract_y
_atom_site_fract_z
Si Si1 0.562181 0.111159 0.503696
Si Si2 0.925688 0.737110 0.254053
Si Si3 0.427036 0.882681 0.697461
Si Si4 0.891344 0.384273 0.817421
Si Si5 0.320541 0.112783 0.998407
Si Si6 0.500000 0.248960 0.000000
Si Si7 0.759969 0.110839 0.843905
Si Si8 0.687428 0.288244 0.559229
O O1 0.500000 0.158299 0.500000
O O2 0.407967 0.099660 0.332817
O O3 0.696864 0.179596 0.595761
O O4 0.639749 0.000000 0.581918
O O5 0.009870 0.792729 0.376092
O O6 0.056412 0.669938 0.340878
O O7 0.842186 0.821963 0.146470
O O8 0.780342 0.663572 0.140442
O O9 0.309307 0.809954 0.623290
O O10 0.365048 0.000000 0.638319
O O11 0.601934 0.881614 0.878602
O O12 0.895451 0.500000 0.836673
O O13 0.728997 0.367296 0.639895
O O14 0.047264 0.352776 0.924177
O O15 0.892413 0.319282 0.867906
O O16 0.265797 0.000000 0.937387
O O17 0.381988 0.320484 0.923719
O O18 0.836172 0.000000 0.920515
#
# Coordination Sequence:
#
# PCOD8105419 Si02
#       8
#     8   8   8   8   8   4   8   8
#     4   9  18  35  57  81 116 155 190 233 291 348
#     4  11  20  37  59  86 114 152 196 241 292 353
#     4  10  21  38  60  82 114 158 194 237 296 349
#     4  10  21  38  58  83 116 154 194 239 294 349
#     4   9  19  36  57  81 112 150 193 240 291 343
#     4  12  20  36  62  84 114 158 202 240 286 354
#     4  10  21  34  54  85 116 148 189 241 292 344
#     4  10  21  36  59  86 115 153 193 241 290 348
#
# _framework density 20.029026999999999
#
# number of rings (size 3 to 8) (size 9 to 14) (size 15 to 20)
#    0.000    2.000    1.333    3.600    0.000    1.600 
#    0.000    1.333    0.000    4.800    0.000    0.000 
#    0.000    0.000    0.000    0.000    0.000    0.000 
#
# Total GULP energy -371711.789760 kJ/mol
# GULP energy per Si atom -12390.392992 kJ/mol
# Density = 1.998344 g / cm^3
# Si number density = 20.029027 Si / 1000 Ang^3
#
#
#
# Elastic Constant Matrix: (Units=GPa)
#
#
# Indices 1 2 3 4 5 6 
#
# 1 96.1990 54.6141 21.7170 -0.0012 11.5304 -0.0029
# 2 54.6141 121.6214 45.3829 -0.0009 14.5473 -0.0017
# 3 21.7170 45.3829 52.9517 0.0176 -3.0824 0.0054
# 4 -0.0012 -0.0009 0.0176 31.8616 0.0101 0.3968
# 5 11.5304 14.5473 -3.0824 0.0101 28.8152 0.0040
# 6 -0.0029 -0.0017 0.0054 0.3968 0.0040 28.2569
#
#
#
# Elastic Compliance Matrix: (Units=1/GPa)
#
#
# Indices 1 2 3 4 5 6 
#
# 1 0.014185 -0.005548 -0.001237 0.000002 -0.003007 0.000002
# 2 -0.005548 0.015981 -0.011835 0.000009 -0.007114 0.000004
# 3 -0.001237 -0.011835 0.030100 -0.000020 0.009690 -0.000008
# 4 0.000002 0.000009 -0.000020 0.031391 -0.000018 -0.000441
# 5 -0.003007 -0.007114 0.009690 -0.000018 0.040535 -0.000008
# 6 0.000002 0.000004 -0.000008 -0.000441 -0.000008 0.035396
#
#
# Mechanical properties :
#
#
# Convention : Reuss Voigt Hill
#
# Bulk Modulus (GPa) = 43.43278 57.13335 50.28306
# Shear Modulus (GPa) = 23.52887 27.72393 25.62640
#
# Velocity S-wave (km/s) = 3.43116 3.72450 3.58084
# Velocity P-wave (km/s) = 6.11794 6.86171 6.50047
#
# Compressibility (1/GPa) = 0.02302409
#
# Stress axis : x y z
#
# Youngs Moduli (GPa) = 70.49816 62.57484 33.22224
#
# Poissons Ratio (x) = 0.34718 0.04111
# Poissons Ratio (y) = 0.39114 0.39319
# Poissons Ratio (z) = 0.08724 0.74059
#
# Static dielectric constant tensor:
#      x y z
#    x 3.743450 0.000010 -0.051870 
#    y 0.000010 4.026010 -0.000030 
#    z -0.051870 -0.000030 3.522660 
# 
# 
# High freq. dielectric constant tensor:
#      x y z
#    x 1.781750 0.000000 -0.013810 
#    y 0.000000 1.787510 0.000000 
#    z -0.013810 0.000000 1.756090 
# 
# From -- ./inp_files/383960.got.cif
#   From: 2010.06.25/outbox.cif.g09.slc.cpg/sg12_192_cif.got.tgz:383960.got - 2010.06.28 00:19:55.
