data_PCOD8105806
_publ_section_title
;
Structure prediction by ZEFSAII (Michael W. Deem and Ramdas Pophale) SiO2 
 PCOD8105806
Probable space group: C 2/M
;
_chemical_formula_sum "Si O2"
_cell_formula_units_Z 52
_cell_length_a 17.454386
_cell_length_b 28.544560
_cell_length_c 5.357104
_cell_angle_alpha 90.000000
_cell_angle_beta 119.737706
_cell_angle_gamma 90.000000
_cell_volume 2317.557097
_symmetry_space_group_name_H-M "C 2/M"
_symmetry_group_IT_number 12
_symmetry_cell_setting 'monoclinic'
loop_
_space_group_symop_operation_xyz
x,y,z
-x,y,-z
-x,-y,-z
x,-y,z
1/2+x,1/2+y,z
1/2-x,1/2+y,-z
1/2-x,1/2-y,-z
1/2+x,1/2-y,z
loop_
_atom_site_type_symbol
_atom_site_label
_atom_site_fract_x
_atom_site_fract_y
_atom_site_fract_z
Si Si1 0.444817 0.725334 0.162695
Si Si2 0.745858 0.946333 0.657467
Si Si3 0.055839 0.000000 0.340631
Si Si4 0.443333 0.829480 0.160795
Si Si5 0.897827 0.870858 0.970785
Si Si6 0.098273 0.901237 0.520543
Si Si7 0.704606 0.906651 0.091856
O O1 0.500000 0.713745 0.500000
O O2 0.402217 0.776856 0.118302
O O3 0.500000 0.725198 0.000000
O O4 0.374688 0.682237 0.020772
O O5 0.816346 0.903895 0.765331
O O6 0.687702 0.938117 0.313483
O O7 0.784556 0.000000 0.722609
O O8 0.689641 0.938936 0.821045
O O9 0.115890 0.953936 0.448221
O O10 0.000000 0.000000 0.500000
O O11 0.000000 0.000000 0.000000
O O12 0.500000 0.840465 0.500000
O O13 0.500000 0.834829 0.000000
O O14 0.362027 0.863937 0.017495
O O15 0.946746 0.869324 0.774331
O O16 0.950880 0.898252 0.284213
O O17 0.196682 0.883770 0.755273
#
# Coordination Sequence:
#
# PCOD8105806 Si02
#       7
#     8   8   4   8   8   8   8
#     4  10  21  37  59  85 118 159 194 242 313 369
#     4  10  21  36  60  85 114 160 199 243 293 350
#     4  12  26  40  56  84 116 156 208 246 280 340
#     4  10  21  40  66  92 119 152 199 252 310 374
#     4  10  21  35  58  81 116 153 198 247 282 351
#     4  10  23  37  57  83 117 160 201 246 289 343
#     4  10  21  38  63  89 116 160 205 248 304 356
#
# _framework density 22.437418999999998
#
# number of rings (size 3 to 8) (size 9 to 14) (size 15 to 20)
#    0.000    1.846    0.000    3.231    8.615    3.692 
#    0.000    6.154    0.000    9.231    0.000    0.000 
#    0.000    0.000    0.000    0.000    0.000    0.000 
#
# Total GULP energy -322119.855149 kJ/mol
# GULP energy per Si atom -12389.225198 kJ/mol
# Density = 2.238635 g / cm^3
# Si number density = 22.437419 Si / 1000 Ang^3
#
#
#
# Elastic Constant Matrix: (Units=GPa)
#
#
# Indices 1 2 3 4 5 6 
#
# 1 73.3504 55.2431 68.8268 0.0000 -21.3339 0.0000
# 2 55.2431 167.4488 75.5826 0.0000 4.4958 0.0000
# 3 68.8268 75.5826 172.2280 0.0000 -47.9381 0.0000
# 4 0.0000 0.0000 0.0000 39.8544 0.0000 2.1976
# 5 -21.3339 4.4958 -47.9381 0.0000 48.4850 0.0000
# 6 0.0000 0.0000 0.0000 2.1976 0.0000 37.1818
#
#
#
# Elastic Compliance Matrix: (Units=1/GPa)
#
#
# Indices 1 2 3 4 5 6 
#
# 1 0.025261 -0.005810 -0.005934 0.000000 0.005786 0.000000
# 2 -0.005810 0.009978 -0.004175 0.000000 -0.007609 0.000000
# 3 -0.005934 -0.004175 0.012956 0.000000 0.010586 0.000000
# 4 0.000000 0.000000 0.000000 0.025173 0.000000 -0.001488
# 5 0.005786 -0.007609 0.010586 0.000000 0.034343 0.000000
# 6 0.000000 0.000000 0.000000 -0.001488 0.000000 0.026983
#
#
# Mechanical properties :
#
#
# Convention : Reuss Voigt Hill
#
# Bulk Modulus (GPa) = 61.14080 90.25912 75.69996
# Shear Modulus (GPa) = 29.07233 39.32921 34.20077
#
# Velocity S-wave (km/s) = 3.60350 4.19124 3.90843
# Velocity P-wave (km/s) = 6.67999 7.98350 7.36066
#
# Compressibility (1/GPa) = 0.01635569
#
# Stress axis : x y z
#
# Youngs Moduli (GPa) = 39.58741 100.22476 77.18209
#
# Poissons Ratio (x) = 0.58236 0.45802
# Poissons Ratio (y) = 0.23002 0.32221
# Poissons Ratio (z) = 0.23492 0.41841
#
# Static dielectric constant tensor:
#      x y z
#    x 4.269720 0.000000 -1.043520 
#    y 0.000000 4.472120 0.000000 
#    z -1.043520 0.000000 4.688540 
# 
# 
# High freq. dielectric constant tensor:
#      x y z
#    x 1.868240 0.000000 -0.063190 
#    y 0.000000 1.883590 0.000000 
#    z -0.063190 0.000000 1.912510 
# 
# From -- ./inp_files/21815.got.cif
#   From: 2010.06.25/outbox.cif.g09.slc.cpg/sg12_11_cif.got.tgz:21815.got - 2010.06.28 00:19:55.
