data_PCOD8105041
_publ_section_title
;
Structure prediction by ZEFSAII (Michael W. Deem and Ramdas Pophale) SiO2 
 PCOD8105041
Probable space group: C 2/M
;
_chemical_formula_sum "Si O2"
_cell_formula_units_Z 48
_cell_length_a 29.102371
_cell_length_b 8.537526
_cell_length_c 14.912423
_cell_angle_alpha 90.000000
_cell_angle_beta 139.818804
_cell_angle_gamma 90.000000
_cell_volume 2390.604234
_symmetry_space_group_name_H-M "C 2/M"
_symmetry_group_IT_number 12
_symmetry_cell_setting 'monoclinic'
loop_
_space_group_symop_operation_xyz
x,y,z
-x,y,-z
-x,-y,-z
x,-y,z
1/2+x,1/2+y,z
1/2-x,1/2+y,-z
1/2-x,1/2-y,-z
1/2+x,1/2-y,z
loop_
_atom_site_type_symbol
_atom_site_label
_atom_site_fract_x
_atom_site_fract_y
_atom_site_fract_z
Si Si1 0.932446 0.681919 0.677429
Si Si2 0.329270 0.820020 0.861962
Si Si3 0.077035 0.817998 0.149906
Si Si4 0.177272 0.680483 0.639104
Si Si5 0.417781 0.319003 0.147776
Si Si6 0.425036 0.818722 0.349078
O O1 0.951894 0.500000 0.695590
O O2 0.903106 0.718439 0.732586
O O3 0.872489 0.731297 0.517389
O O4 0.002312 0.782787 0.763341
O O5 0.364496 0.713403 0.838291
O O6 0.245436 0.790519 0.739374
O O7 0.344201 0.000000 0.861241
O O8 0.361967 0.780608 0.007220
O O9 0.076961 0.000000 0.175012
O O10 0.000000 0.763408 0.000000
O O11 0.200563 0.500000 0.664755
O O12 0.136341 0.709455 0.670562
O O13 0.402046 0.500000 0.106420
O O14 0.405075 0.280871 0.232527
O O15 0.500000 0.758427 0.500000
O O16 0.432441 0.000000 0.332413
#
# Coordination Sequence:
#
# PCOD8105041 Si02
#       6
#     8   8   8   8   8   8
#     4  11  22  40  67  96 125 166 212 257 311 375
#     4  12  26  43  65  92 127 169 212 260 314 376
#     4  11  23  40  65  96 127 164 208 261 314 371
#     4  10  23  43  66  93 130 166 205 261 318 370
#     4  12  24  39  63  95 129 166 210 262 313 370
#     4  10  20  40  67  95 125 166 212 258 312 372
#
# _framework density 20.078603999999999
#
# number of rings (size 3 to 8) (size 9 to 14) (size 15 to 20)
#    0.000    1.000    3.333    4.000    0.000    4.333 
#    0.000    0.000    0.000    0.000    0.000    0.000 
#    0.000    0.000    0.000    0.000    0.000    0.000 
#
# Total GULP energy -297805.091773 kJ/mol
# GULP energy per Si atom -12408.545491 kJ/mol
# Density = 2.003290 g / cm^3
# Si number density = 20.078604 Si / 1000 Ang^3
#
#
#
# Elastic Constant Matrix: (Units=GPa)
#
#
# Indices 1 2 3 4 5 6 
#
# 1 81.1926 22.6368 33.8317 0.0000 -6.8148 0.0000
# 2 22.6368 64.8728 37.0474 0.0000 1.2345 0.0000
# 3 33.8317 37.0474 109.2538 0.0000 -4.8990 0.0000
# 4 0.0000 0.0000 0.0000 29.6981 0.0000 -0.7598
# 5 -6.8148 1.2345 -4.8990 0.0000 38.8733 0.0000
# 6 0.0000 0.0000 0.0000 -0.7598 0.0000 32.8604
#
#
#
# Elastic Compliance Matrix: (Units=1/GPa)
#
#
# Indices 1 2 3 4 5 6 
#
# 1 0.014831 -0.003292 -0.003374 0.000000 0.002279 0.000000
# 2 -0.003292 0.019927 -0.005825 0.000000 -0.001944 0.000000
# 3 -0.003374 -0.005825 0.012224 0.000000 0.001134 0.000000
# 4 0.000000 0.000000 0.000000 0.033692 0.000000 0.000779
# 5 0.002279 -0.001944 0.001134 0.000000 0.026329 0.000000
# 6 0.000000 0.000000 0.000000 0.000779 0.000000 0.030450
#
#
# Mechanical properties :
#
#
# Convention : Reuss Voigt Hill
#
# Bulk Modulus (GPa) = 45.45382 49.15012 47.30197
# Shear Modulus (GPa) = 29.45188 31.07325 30.26257
#
# Velocity S-wave (km/s) = 3.83408 3.93820 3.88649
# Velocity P-wave (km/s) = 6.50287 6.72393 6.61432
#
# Compressibility (1/GPa) = 0.02200035
#
# Stress axis : x y z
#
# Youngs Moduli (GPa) = 67.42421 50.18346 81.80654
#
# Poissons Ratio (x) = 0.16519 0.27604
# Poissons Ratio (y) = 0.22194 0.47652
# Poissons Ratio (z) = 0.22751 0.29232
#
# Static dielectric constant tensor:
#      x y z
#    x 4.660240 0.000000 -1.324080 
#    y 0.000000 3.570020 0.000000 
#    z -1.324080 0.000000 5.061740 
# 
# 
# High freq. dielectric constant tensor:
#      x y z
#    x 1.791210 0.000000 -0.010460 
#    y 0.000000 1.784000 0.000000 
#    z -0.010460 0.000000 1.787930 
# 
# From -- ./inp_files/230423.got.cif
#   From: 2010.06.25/outbox.cif.g09.slc.cpg/sg12_116_cif.got.tgz:230423.got - 2010.06.28 00:19:55.
