data_PCOD8105831
_publ_section_title
;
Structure prediction by ZEFSAII (Michael W. Deem and Ramdas Pophale) SiO2 
 PCOD8105831
Probable space group: C 2/M
;
_chemical_formula_sum "Si O2"
_cell_formula_units_Z 52
_cell_length_a 8.454334
_cell_length_b 25.834622
_cell_length_c 25.438911
_cell_angle_alpha 90.000000
_cell_angle_beta 31.174714
_cell_angle_gamma 90.000000
_cell_volume 2876.178259
_symmetry_space_group_name_H-M "C 2/M"
_symmetry_group_IT_number 12
_symmetry_cell_setting 'monoclinic'
loop_
_space_group_symop_operation_xyz
x,y,z
-x,y,-z
-x,-y,-z
x,-y,z
1/2+x,1/2+y,z
1/2-x,1/2+y,-z
1/2-x,1/2-y,-z
1/2+x,1/2-y,z
loop_
_atom_site_type_symbol
_atom_site_label
_atom_site_fract_x
_atom_site_fract_y
_atom_site_fract_z
Si Si1 0.542709 0.199564 0.621519
Si Si2 0.742478 0.500000 0.314609
Si Si3 0.132792 0.904316 0.609020
Si Si4 0.909973 0.803527 0.614353
Si Si5 0.874862 0.000000 0.094124
Si Si6 0.637192 0.000000 0.605797
Si Si7 0.269431 0.405880 0.304779
Si Si8 0.662940 0.442788 0.100996
O O1 0.605793 0.189040 0.665511
O O2 0.362260 0.253675 0.665496
O O3 0.357155 0.151454 0.652348
O O4 0.837019 0.205416 0.501598
O O5 0.517997 0.451005 0.380180
O O6 0.953578 0.500000 0.306995
O O7 0.003449 0.500000 0.195399
O O8 0.500000 0.903418 0.500000
O O9 0.037409 0.914213 0.696829
O O10 0.982983 0.851968 0.630384
O O11 0.997316 0.948798 0.090963
O O12 0.000000 0.000000 0.000000
O O13 0.501969 0.948276 0.618138
O O14 0.000000 0.000000 0.500000
O O15 0.473517 0.407470 0.194695
O O16 0.695069 0.500000 0.118330
O O17 0.000000 0.417840 0.000000
#
# Coordination Sequence:
#
# PCOD8105831 Si02
#       8
#     8   4   8   8   4   4   8   8
#     4  10  21  35  59  75 111 147 196 239 284 323
#     4  12  24  36  52  83 116 150 187 239 274 353
#     4  12  24  36  51  81 119 156 198 224 280 338
#     4  10  21  37  53  81 108 152 194 241 271 332
#     4  10  21  37  60  80 110 140 196 240 292 333
#     4  12  23  35  50  76 118 157 189 217 286 339
#     4  12  21  37  56  80 113 157 189 237 283 350
#     4   9  20  38  58  80 109 147 191 237 292 346
#
# _framework density 18.079547000000002
#
# number of rings (size 3 to 8) (size 9 to 14) (size 15 to 20)
#    0.462    0.769    3.846    3.462    6.462    0.000 
#    0.000    0.000    0.000    0.000    0.000    5.385 
#    0.000    0.000    0.000    0.000    0.000    0.000 
#
# Total GULP energy -322268.255138 kJ/mol
# GULP energy per Si atom -12394.932890 kJ/mol
# Density = 1.803840 g / cm^3
# Si number density = 18.079547 Si / 1000 Ang^3
#
#
#
# Elastic Constant Matrix: (Units=GPa)
#
#
# Indices 1 2 3 4 5 6 
#
# 1 113.8639 39.6978 17.4927 0.0027 14.3162 -0.0042
# 2 39.6978 126.0072 14.7452 0.0001 -3.6702 -0.0011
# 3 17.4927 14.7452 63.2032 0.0028 4.1460 0.0000
# 4 0.0027 0.0001 0.0028 2.8546 -0.0002 21.4440
# 5 14.3162 -3.6702 4.1460 -0.0002 28.4774 0.0018
# 6 -0.0042 -0.0011 0.0000 21.4440 0.0018 12.0827
#
#
#
# Elastic Compliance Matrix: (Units=1/GPa)
#
#
# Indices 1 2 3 4 5 6 
#
# 1 0.010970 -0.003403 -0.001870 0.000003 -0.005681 -0.000002
# 2 -0.003403 0.009265 -0.001424 -0.000001 0.003112 0.000001
# 3 -0.001870 -0.001424 0.016782 0.000001 -0.001687 -0.000002
# 4 0.000003 -0.000001 0.000001 -0.028406 -0.000005 0.050414
# 5 -0.005681 0.003112 -0.001687 -0.000005 0.038618 0.000002
# 6 -0.000002 0.000001 -0.000002 0.050414 0.000002 -0.006711
#
#
# Mechanical properties :
#
#
# Convention : Reuss Voigt Hill
#
# Bulk Modulus (GPa) = 42.32786 49.66063 45.99425
# Shear Modulus (GPa) = 80.92298 24.09218 52.50758
#
# Velocity S-wave (km/s) = 6.69751 3.65439 5.39496
# Velocity P-wave (km/s) = 9.12533 6.73302 8.01889
#
# Compressibility (1/GPa) = 0.02362510
#
# Stress axis : x y z
#
# Youngs Moduli (GPa) = 91.15478 107.92866 59.58648
#
# Poissons Ratio (x) = 0.36726 0.11141
# Poissons Ratio (y) = 0.31019 0.08485
# Poissons Ratio (z) = 0.17043 0.15369
#
# Static dielectric constant tensor:
#      x y z
#    x 3.670860 0.000000 0.023640 
#    y 0.000000 3.199070 0.000000 
#    z 0.023640 0.000000 3.073230 
# 
# 
# High freq. dielectric constant tensor:
#      x y z
#    x 1.720300 0.000000 0.003050 
#    y 0.000000 1.686160 0.000000 
#    z 0.003050 0.000000 1.659450 
# 
# From -- ./inp_files/357053.got.cif
#   From: 2010.06.25/outbox.cif.g09.slc.cpg/sg12_179_cif.got.tgz:357053.got - 2010.06.28 00:19:55.
