data_PCOD8105793
_publ_section_title
;
Structure prediction by ZEFSAII (Michael W. Deem and Ramdas Pophale) SiO2 
 PCOD8105793
Probable space group: C 2/M
;
_chemical_formula_sum "Si O2"
_cell_formula_units_Z 64
_cell_length_a 18.756161
_cell_length_b 14.333215
_cell_length_c 25.215870
_cell_angle_alpha 90.000000
_cell_angle_beta 28.459097
_cell_angle_gamma 90.000000
_cell_volume 3230.374830
_symmetry_space_group_name_H-M "C 2/M"
_symmetry_group_IT_number 12
_symmetry_cell_setting 'monoclinic'
loop_
_space_group_symop_operation_xyz
x,y,z
-x,y,-z
-x,-y,-z
x,-y,z
1/2+x,1/2+y,z
1/2-x,1/2+y,-z
1/2-x,1/2-y,-z
1/2+x,1/2-y,z
loop_
_atom_site_type_symbol
_atom_site_label
_atom_site_fract_x
_atom_site_fract_y
_atom_site_fract_z
Si Si1 0.804266 0.341618 0.492253
Si Si2 0.933714 0.602921 0.752930
Si Si3 0.030167 0.273738 0.893863
Si Si4 0.491753 0.398155 0.731791
Si Si5 0.892415 0.610397 0.257072
Si Si6 0.741493 0.230824 0.852370
Si Si7 0.094569 0.110728 0.780276
Si Si8 0.654699 0.766091 0.424223
O O1 0.750000 0.250000 0.500000
O O2 0.658586 0.404155 0.598891
O O3 0.883884 0.311296 0.494321
O O4 0.922232 0.396317 0.379511
O O5 0.866963 0.500000 0.797133
O O6 0.795667 0.663493 0.822783
O O7 0.983099 0.631973 0.779850
O O8 0.043953 0.353514 0.840480
O O9 0.174685 0.282326 0.837487
O O10 0.015913 0.168910 0.878960
O O11 0.880355 0.295303 0.024000
O O12 0.418667 0.500000 0.775787
O O13 0.389473 0.330603 0.763995
O O14 0.502633 0.367875 0.786368
O O15 0.854135 0.500000 0.279171
O O16 0.746892 0.669707 0.368468
O O17 0.259574 0.155616 0.666751
O O18 0.102850 0.000000 0.787514
O O19 0.500000 0.737266 0.500000
#
# Coordination Sequence:
#
# PCOD8105793 Si02
#       8
#     8   8   8   8   8   8   8   8
#     4  11  19  36  59  86 123 155 189 238 283 340
#     4  11  23  39  62  90 119 155 197 242 292 346
#     4  10  24  41  60  83 120 155 189 248 297 349
#     4  10  21  38  62  87 114 152 199 241 283 341
#     4  10  22  41  60  85 118 154 196 243 292 346
#     4  11  23  41  60  87 116 152 198 241 299 350
#     4   9  20  39  60  84 115 152 195 242 289 342
#     4  10  21  35  57  88 121 158 194 233 288 347
#
# _framework density 19.811944
#
# number of rings (size 3 to 8) (size 9 to 14) (size 15 to 20)
#    0.000    1.750    2.500    1.875    3.500    5.000 
#    0.000    5.000    0.000    0.000    0.000    0.000 
#    0.000    0.000    0.000    0.000    0.000    0.000 
#
# Total GULP energy -396750.792607 kJ/mol
# GULP energy per Si atom -12398.462269 kJ/mol
# Density = 1.976685 g / cm^3
# Si number density = 19.811944 Si / 1000 Ang^3
#
#
#
# Elastic Constant Matrix: (Units=GPa)
#
#
# Indices 1 2 3 4 5 6 
#
# 1 97.5544 29.3617 47.9325 -0.0015 4.9872 0.0018
# 2 29.3617 100.3285 17.3815 -0.0009 0.6917 0.0008
# 3 47.9325 17.3815 56.1551 -0.0010 3.5007 0.0003
# 4 -0.0015 -0.0009 -0.0010 13.5638 0.0001 4.6703
# 5 4.9872 0.6917 3.5007 0.0001 34.4845 -0.0004
# 6 0.0018 0.0008 0.0003 4.6703 -0.0004 14.6513
#
#
#
# Elastic Compliance Matrix: (Units=1/GPa)
#
#
# Indices 1 2 3 4 5 6 
#
# 1 0.018418 -0.002822 -0.014779 0.000002 -0.001107 -0.000002
# 2 -0.002822 0.010965 -0.001003 0.000000 0.000290 0.000000
# 3 -0.014779 -0.001003 0.030793 0.000000 -0.000969 0.000001
# 4 0.000002 0.000000 0.000000 0.082815 -0.000001 -0.026398
# 5 -0.001107 0.000290 -0.000969 -0.000001 0.029251 0.000001
# 6 -0.000002 0.000000 0.000001 -0.026398 0.000001 0.076668
#
#
# Mechanical properties :
#
#
# Convention : Reuss Voigt Hill
#
# Bulk Modulus (GPa) = 43.53779 49.26548 46.40164
# Shear Modulus (GPa) = 17.01985 23.16407 20.09196
#
# Velocity S-wave (km/s) = 2.93417 3.42306 3.18800
# Velocity P-wave (km/s) = 5.78812 6.36739 6.08465
#
# Compressibility (1/GPa) = 0.02296855
#
# Stress axis : x y z
#
# Youngs Moduli (GPa) = 54.29470 91.19958 32.47463
#
# Poissons Ratio (x) = 0.25738 0.47993
# Poissons Ratio (y) = 0.15323 0.03257
# Poissons Ratio (z) = 0.80240 0.09148
#
# Static dielectric constant tensor:
#      x y z
#    x 3.608120 -0.000050 0.020290 
#    y -0.000050 3.512770 -0.000190 
#    z 0.020290 -0.000190 2.967620 
# 
# 
# High freq. dielectric constant tensor:
#      x y z
#    x 1.776730 0.000000 0.009770 
#    y 0.000000 1.777490 0.000000 
#    z 0.009770 0.000000 1.762330 
# 
# From -- ./inp_files/344043.got.cif
#   From: 2010.06.25/outbox.cif.g09.slc.cpg/sg12_173_cif.got.tgz:344043.got - 2010.06.28 00:19:55.
