data_PCOD8105038
_publ_section_title
;
Structure prediction by ZEFSAII (Michael W. Deem and Ramdas Pophale) SiO2 
 PCOD8105038
Probable space group: C 2/M
;
_chemical_formula_sum "Si O2"
_cell_formula_units_Z 64
_cell_length_a 12.008443
_cell_length_b 18.589698
_cell_length_c 27.994880
_cell_angle_alpha 90.000000
_cell_angle_beta 149.918685
_cell_angle_gamma 90.000000
_cell_volume 3132.372951
_symmetry_space_group_name_H-M "C 2/M"
_symmetry_group_IT_number 12
_symmetry_cell_setting 'monoclinic'
loop_
_space_group_symop_operation_xyz
x,y,z
-x,y,-z
-x,-y,-z
x,-y,z
1/2+x,1/2+y,z
1/2-x,1/2+y,-z
1/2-x,1/2-y,-z
1/2+x,1/2-y,z
loop_
_atom_site_type_symbol
_atom_site_label
_atom_site_fract_x
_atom_site_fract_y
_atom_site_fract_z
Si Si1 0.387165 0.580398 0.634884
Si Si2 0.117387 0.657150 0.275217
Si Si3 0.131181 0.173903 0.461319
Si Si4 0.657404 0.297472 0.847465
Si Si5 0.108264 0.581272 0.176654
Si Si6 0.585890 0.914152 0.364697
Si Si7 0.900911 0.309792 0.034062
Si Si8 0.803937 0.919132 0.706188
O O1 0.386456 0.500000 0.612668
O O2 0.303571 0.633487 0.563146
O O3 0.639031 0.600365 0.744991
O O4 0.224429 0.584441 0.620906
O O5 0.369702 0.685006 0.371604
O O6 0.087790 0.594337 0.225769
O O7 0.035298 0.624554 0.295343
O O8 0.977373 0.723465 0.202154
O O9 0.250000 0.250000 0.500000
O O10 0.204614 0.125774 0.533886
O O11 0.501413 0.363880 0.780309
O O12 0.845306 0.283318 0.877503
O O13 0.782160 0.326039 0.940568
O O14 0.050036 0.500000 0.144087
O O15 0.919099 0.622815 0.076463
O O16 0.384760 0.897999 0.326296
O O17 0.629292 0.000000 0.374498
O O18 0.750000 0.250000 0.000000
O O19 0.889394 0.000000 0.749022
#
# Coordination Sequence:
#
# PCOD8105038 Si02
#       8
#     8   8   8   8   8   8   8   8
#     4   9  19  38  65  91 121 164 211 263 322 376
#     4  11  24  41  66  92 127 176 213 261 321 387
#     4  11  24  40  63  96 127 166 220 273 320 377
#     4  11  24  39  66  93 130 164 208 263 318 389
#     4  10  20  40  67  94 121 159 214 262 312 382
#     4  11  25  43  63  93 133 171 215 268 322 381
#     4  11  23  40  63  96 126 164 205 261 326 376
#     4  10  22  41  65  93 128 170 211 261 322 384
#
# _framework density 20.431794
#
# number of rings (size 3 to 8) (size 9 to 14) (size 15 to 20)
#    0.000    1.500    2.500    1.875    3.500    3.000 
#    2.250    3.125    0.000    0.750    0.000    0.000 
#    0.000    0.000    0.000    0.000    0.000    0.000 
#
# Total GULP energy -396550.482594 kJ/mol
# GULP energy per Si atom -12392.202581 kJ/mol
# Density = 2.038529 g / cm^3
# Si number density = 20.431794 Si / 1000 Ang^3
#
#
#
# Elastic Constant Matrix: (Units=GPa)
#
#
# Indices 1 2 3 4 5 6 
#
# 1 131.7277 49.1556 39.2409 -0.0002 -4.7886 -0.0002
# 2 49.1556 111.3868 56.5710 0.0000 -12.0325 -0.0002
# 3 39.2409 56.5710 82.5875 0.0007 -10.0509 -0.0002
# 4 -0.0002 0.0000 0.0007 40.6247 -0.0002 -8.0076
# 5 -4.7886 -12.0325 -10.0509 -0.0002 29.6834 -0.0002
# 6 -0.0002 -0.0002 -0.0002 -8.0076 -0.0002 25.9697
#
#
#
# Elastic Compliance Matrix: (Units=1/GPa)
#
#
# Indices 1 2 3 4 5 6 
#
# 1 0.009419 -0.002926 -0.002535 0.000000 -0.000525 0.000000
# 2 -0.002926 0.014855 -0.008458 0.000000 0.002686 0.000000
# 3 -0.002535 -0.008458 0.019441 0.000000 0.002745 0.000000
# 4 0.000000 0.000000 0.000000 0.026208 0.000000 0.008081
# 5 -0.000525 0.002686 0.002745 0.000000 0.035622 0.000000
# 6 0.000000 0.000000 0.000000 0.008081 0.000000 0.040998
#
#
# Mechanical properties :
#
#
# Convention : Reuss Voigt Hill
#
# Bulk Modulus (GPa) = 62.98730 68.40412 65.69571
# Shear Modulus (GPa) = 27.82803 31.30454 29.56628
#
# Velocity S-wave (km/s) = 3.69453 3.91851 3.80817
# Velocity P-wave (km/s) = 7.00674 7.35016 7.18051
#
# Compressibility (1/GPa) = 0.01587622
#
# Stress axis : x y z
#
# Youngs Moduli (GPa) = 106.16375 67.31817 51.43822
#
# Poissons Ratio (x) = 0.19697 0.13041
# Poissons Ratio (y) = 0.31063 0.43508
# Poissons Ratio (z) = 0.26915 0.56939
#
# Static dielectric constant tensor:
#      x y z
#    x 3.698130 0.000030 0.168340 
#    y 0.000030 3.126180 -0.000030 
#    z 0.168340 -0.000030 3.502820 
# 
# 
# High freq. dielectric constant tensor:
#      x y z
#    x 1.813550 0.000000 -0.006300 
#    y 0.000000 1.802690 0.000000 
#    z -0.006300 0.000000 1.790110 
# 
# From -- ./inp_files/374475.got.cif
#   From: 2010.06.25/outbox.cif.g09.slc.cpg/sg12_188_cif.got.tgz:374475.got - 2010.06.28 00:19:55.
