data_PCOD8105018
_publ_section_title
;
Structure prediction by ZEFSAII (Michael W. Deem and Ramdas Pophale) SiO2 
 PCOD8105018
Probable space group: C 2/M
;
_chemical_formula_sum "Si O2"
_cell_formula_units_Z 48
_cell_length_a 21.128487
_cell_length_b 16.929737
_cell_length_c 9.530584
_cell_angle_alpha 90.000000
_cell_angle_beta 137.110178
_cell_angle_gamma 90.000000
_cell_volume 2320.193217
_symmetry_space_group_name_H-M "C 2/M"
_symmetry_group_IT_number 12
_symmetry_cell_setting 'monoclinic'
loop_
_space_group_symop_operation_xyz
x,y,z
-x,y,-z
-x,-y,-z
x,-y,z
1/2+x,1/2+y,z
1/2-x,1/2+y,-z
1/2-x,1/2-y,-z
1/2+x,1/2-y,z
loop_
_atom_site_type_symbol
_atom_site_label
_atom_site_fract_x
_atom_site_fract_y
_atom_site_fract_z
Si Si1 0.897332 0.592787 0.823339
Si Si2 0.261490 0.091265 0.363533
Si Si3 0.314312 0.193602 0.195987
Si Si4 0.912518 0.839536 0.449167
Si Si5 0.288627 0.092295 0.912269
Si Si6 0.421754 0.591448 0.761942
O O1 0.903509 0.500000 0.859796
O O2 0.855386 0.610133 0.602136
O O3 0.831080 0.628344 0.837568
O O4 0.000000 0.631102 0.000000
O O5 0.256171 0.149345 0.222847
O O6 0.177072 0.109556 0.330099
O O7 0.258229 0.000000 0.307608
O O8 0.397062 0.245581 0.397325
O O9 0.250000 0.250000 0.000000
O O10 0.347953 0.127539 0.139477
O O11 0.820693 0.887719 0.255580
O O12 0.935670 0.853698 0.649441
O O13 0.000000 0.869360 0.500000
O O14 0.301808 0.000000 0.940178
O O15 0.429108 0.500000 0.727611
O O16 0.500000 0.614452 0.000000
#
# Coordination Sequence:
#
# PCOD8105018 Si02
#       6
#     8   8   8   8   8   8
#     4   9  18  35  62  92 118 151 203 265 320 366
#     4  10  20  40  67  94 123 161 214 273 320 369
#     4  10  24  40  57  85 127 172 209 248 310 383
#     4  11  24  41  60  92 138 175 207 252 320 395
#     4  10  20  40  66  92 124 163 214 270 319 372
#     4  10  22  39  64  98 128 161 215 269 319 380
#
# _framework density 20.687932
#
# number of rings (size 3 to 8) (size 9 to 14) (size 15 to 20)
#    0.000    2.000    1.667    1.000    4.667    3.333 
#    0.000    0.833    0.000    5.000    0.000    0.000 
#    0.000    0.000    0.000    0.000    0.000    0.000 
#
# Total GULP energy -297530.260059 kJ/mol
# GULP energy per Si atom -12397.094169 kJ/mol
# Density = 2.064085 g / cm^3
# Si number density = 20.687932 Si / 1000 Ang^3
#
#
#
# Elastic Constant Matrix: (Units=GPa)
#
#
# Indices 1 2 3 4 5 6 
#
# 1 129.7336 51.6810 67.6898 0.0000 -12.1204 0.0000
# 2 51.6810 78.6117 55.4569 0.0000 -16.9086 0.0000
# 3 67.6898 55.4569 127.0042 0.0000 -11.4364 0.0000
# 4 0.0000 0.0000 0.0000 40.3764 0.0000 -8.2351
# 5 -12.1204 -16.9086 -11.4364 0.0000 41.2938 0.0000
# 6 0.0000 0.0000 0.0000 -8.2351 0.0000 20.6042
#
#
#
# Elastic Compliance Matrix: (Units=1/GPa)
#
#
# Indices 1 2 3 4 5 6 
#
# 1 0.011817 -0.004725 -0.004202 0.000000 0.000370 0.000000
# 2 -0.004725 0.021547 -0.006380 0.000000 0.005669 0.000000
# 3 -0.004202 -0.006380 0.012874 0.000000 -0.000280 0.000000
# 4 0.000000 0.000000 0.000000 0.026965 0.000000 0.010777
# 5 0.000370 0.005669 -0.000280 0.000000 0.026569 0.000000
# 6 0.000000 0.000000 0.000000 0.010777 0.000000 0.052841
#
#
# Mechanical properties :
#
#
# Convention : Reuss Voigt Hill
#
# Bulk Modulus (GPa) = 64.00084 76.11165 70.05624
# Shear Modulus (GPa) = 26.53431 31.15634 28.84533
#
# Velocity S-wave (km/s) = 3.58522 3.88495 3.73809
# Velocity P-wave (km/s) = 6.93844 7.54944 7.25038
#
# Compressibility (1/GPa) = 0.01562479
#
# Stress axis : x y z
#
# Youngs Moduli (GPa) = 84.62168 46.40971 77.67807
#
# Poissons Ratio (x) = 0.21930 0.32638
# Poissons Ratio (y) = 0.39986 0.49557
# Poissons Ratio (z) = 0.35555 0.29608
#
# Static dielectric constant tensor:
#      x y z
#    x 3.847090 0.000000 -0.150730 
#    y 0.000000 3.916910 0.000000 
#    z -0.150730 0.000000 4.023600 
# 
# 
# High freq. dielectric constant tensor:
#      x y z
#    x 1.807010 0.000000 -0.011290 
#    y 0.000000 1.794580 0.000000 
#    z -0.011290 0.000000 1.813920 
# 
# From -- ./inp_files/88159.got.cif
#   From: 2010.06.25/outbox.cif.g09.slc.cpg/sg12_45_cif.got.tgz:88159.got - 2010.06.28 00:19:55.
