data_PCOD8105059
_publ_section_title
;
Structure prediction by ZEFSAII (Michael W. Deem and Ramdas Pophale) SiO2 
 PCOD8105059
Probable space group: C 2/M
;
_chemical_formula_sum "Si O2"
_cell_formula_units_Z 48
_cell_length_a 12.616812
_cell_length_b 21.391897
_cell_length_c 11.811279
_cell_angle_alpha 90.000000
_cell_angle_beta 135.768000
_cell_angle_gamma 90.000000
_cell_volume 2223.723498
_symmetry_space_group_name_H-M "C 2/M"
_symmetry_group_IT_number 12
_symmetry_cell_setting 'monoclinic'
loop_
_space_group_symop_operation_xyz
x,y,z
-x,y,-z
-x,-y,-z
x,-y,z
1/2+x,1/2+y,z
1/2-x,1/2+y,-z
1/2-x,1/2-y,-z
1/2+x,1/2-y,z
loop_
_atom_site_type_symbol
_atom_site_label
_atom_site_fract_x
_atom_site_fract_y
_atom_site_fract_z
Si Si1 0.673506 0.825514 0.142516
Si Si2 0.898114 0.278463 0.315080
Si Si3 0.831864 0.882291 0.864593
Si Si4 0.694590 0.428293 0.907030
Si Si5 0.346825 0.431221 0.643295
Si Si6 0.321026 0.815672 0.592820
O O1 0.796858 0.777338 0.184588
O O2 0.695905 0.890368 0.093650
O O3 0.714398 0.830931 0.305267
O O4 0.500000 0.802271 0.000000
O O5 0.781273 0.330074 0.270095
O O6 0.000000 0.256671 0.500000
O O7 0.999238 0.308068 0.292207
O O8 0.837854 0.935919 0.773337
O O9 0.774549 0.909003 0.939815
O O10 0.000000 0.852001 0.000000
O O11 0.740831 0.500000 0.927707
O O12 0.519650 0.416862 0.738285
O O13 0.296994 0.500000 0.558996
O O14 0.240427 0.375843 0.519954
O O15 0.250000 0.750000 0.500000
#
# Coordination Sequence:
#
# PCOD8105059 Si02
#       6
#     8   8   8   8   8   8
#     4  12  27  44  66  96 134 177 217 270 333 395
#     4  12  23  41  67  97 127 169 215 273 334 391
#     4  10  20  40  68  98 133 168 218 274 329 386
#     4  10  23  42  67  96 133 180 223 262 322 401
#     4  10  21  39  67 101 132 173 224 277 331 386
#     4  12  24  42  65  96 134 169 220 278 330 390
#
# _framework density 21.585415999999999
#
# number of rings (size 3 to 8) (size 9 to 14) (size 15 to 20)
#    0.000    1.000    3.333    3.000    0.000    8.333 
#    0.000    5.833    0.000    0.000    0.000    0.000 
#    0.000    0.000    0.000    0.000    0.000    0.000 
#
# Total GULP energy -297559.194830 kJ/mol
# GULP energy per Si atom -12398.299785 kJ/mol
# Density = 2.153629 g / cm^3
# Si number density = 21.585416 Si / 1000 Ang^3
#
#
#
# Elastic Constant Matrix: (Units=GPa)
#
#
# Indices 1 2 3 4 5 6 
#
# 1 106.4899 45.2994 42.8552 0.0000 0.3363 0.0000
# 2 45.2994 139.3687 56.3233 0.0000 13.9526 0.0000
# 3 42.8552 56.3233 90.9080 0.0000 8.0312 0.0000
# 4 0.0000 0.0000 0.0000 26.4437 0.0000 3.9086
# 5 0.3363 13.9526 8.0312 0.0000 43.8879 0.0000
# 6 0.0000 0.0000 0.0000 3.9086 0.0000 28.6068
#
#
#
# Elastic Compliance Matrix: (Units=1/GPa)
#
#
# Indices 1 2 3 4 5 6 
#
# 1 0.012148 -0.002305 -0.004427 0.000000 0.001450 0.000000
# 2 -0.002305 0.010183 -0.005019 0.000000 -0.002301 0.000000
# 3 -0.004427 -0.005019 0.016317 0.000000 -0.001356 0.000000
# 4 0.000000 0.000000 0.000000 0.038596 0.000000 -0.005273
# 5 0.001450 -0.002301 -0.001356 0.000000 0.023754 0.000000
# 6 0.000000 0.000000 0.000000 -0.005273 0.000000 0.035677
#
#
# Mechanical properties :
#
#
# Convention : Reuss Voigt Hill
#
# Bulk Modulus (GPa) = 66.02423 69.52470 67.77447
# Shear Modulus (GPa) = 30.26179 32.60693 31.43436
#
# Velocity S-wave (km/s) = 3.74833 3.89086 3.82026
# Velocity P-wave (km/s) = 7.02760 7.24321 7.13622
#
# Compressibility (1/GPa) = 0.01514595
#
# Stress axis : x y z
#
# Youngs Moduli (GPa) = 82.31917 98.20151 61.28694
#
# Poissons Ratio (x) = 0.22631 0.27131
# Poissons Ratio (y) = 0.18971 0.30763
# Poissons Ratio (z) = 0.36442 0.49291
#
# Static dielectric constant tensor:
#      x y z
#    x 4.157730 0.000000 0.088090 
#    y 0.000000 3.795620 0.000000 
#    z 0.088090 0.000000 3.786190 
# 
# 
# High freq. dielectric constant tensor:
#      x y z
#    x 1.857570 0.000000 0.002340 
#    y 0.000000 1.842590 0.000000 
#    z 0.002340 0.000000 1.840190 
# 
# From -- ./inp_files/134092.got.cif
#   From: 2010.06.25/outbox.cif.g09.slc.cpg/sg12_68_cif.got.tgz:134092.got - 2010.06.28 00:19:55.
