data_PCOD8105367
_publ_section_title
;
Structure prediction by ZEFSAII (Michael W. Deem and Ramdas Pophale) SiO2 
 PCOD8105367
Probable space group: C 2/M
;
_chemical_formula_sum "Si O2"
_cell_formula_units_Z 56
_cell_length_a 19.131922
_cell_length_b 33.424907
_cell_length_c 5.345051
_cell_angle_alpha 90.000000
_cell_angle_beta 107.488457
_cell_angle_gamma 90.000000
_cell_volume 3260.076126
_symmetry_space_group_name_H-M "C 2/M"
_symmetry_group_IT_number 12
_symmetry_cell_setting 'monoclinic'
loop_
_space_group_symop_operation_xyz
x,y,z
-x,y,-z
-x,-y,-z
x,-y,z
1/2+x,1/2+y,z
1/2-x,1/2+y,-z
1/2-x,1/2-y,-z
1/2+x,1/2-y,z
loop_
_atom_site_type_symbol
_atom_site_label
_atom_site_fract_x
_atom_site_fract_y
_atom_site_fract_z
Si Si1 0.586974 0.955054 0.595609
Si Si2 0.087077 0.589832 0.096254
Si Si3 0.799961 0.726286 0.368775
Si Si4 0.156431 0.323756 0.171781
Si Si5 0.961039 0.278067 0.205449
Si Si6 0.303779 0.306152 0.124231
Si Si7 0.039226 0.816866 0.793105
O O1 0.500000 0.956390 0.500000
O O2 0.614487 0.934316 0.369692
O O3 0.618851 0.000000 0.638565
O O4 0.614684 0.931850 0.872851
O O5 0.123422 0.632808 0.149940
O O6 0.000000 0.594529 0.000000
O O7 0.750000 0.750000 0.500000
O O8 0.861545 0.701711 0.593421
O O9 0.835100 0.761969 0.237794
O O10 0.745214 0.696177 0.174180
O O11 0.245911 0.326158 0.256309
O O12 0.121287 0.298502 0.896808
O O13 0.962709 0.230697 0.187491
O O14 0.000000 0.293200 0.500000
O O15 0.000000 0.296645 0.000000
O O16 0.376280 0.332110 0.140525
O O17 0.000000 0.832303 0.500000
O O18 0.000000 0.834926 0.000000
#
# Coordination Sequence:
#
# PCOD8105367 Si02
#       7
#     8   8   8   8   8   8   8
#     4   9  18  35  56  73  97 133 169 203 239 293
#     4  10  21  34  50  78 105 128 168 211 253 296
#     4   9  19  32  51  65  89 126 173 204 250 315
#     4  11  23  32  51  69 102 134 162 212 264 310
#     4  10  22  33  46  66  93 123 160 207 264 300
#     4  10  21  35  50  66  90 128 175 207 258 314
#     4  10  22  35  51  67  85 114 167 225 256 293
#
# _framework density 17.177512
#
# number of rings (size 3 to 8) (size 9 to 14) (size 15 to 20)
#    0.000    2.143    0.000    3.429   14.000    3.429 
#    0.000    0.000    0.000    0.000    0.000    0.000 
#    0.000    0.000    0.000    0.000    0.000   14.286 
#
# Total GULP energy -346931.754789 kJ/mol
# GULP energy per Si atom -12390.419814 kJ/mol
# Density = 1.713841 g / cm^3
# Si number density = 17.177512 Si / 1000 Ang^3
#
#
#
# Elastic Constant Matrix: (Units=GPa)
#
#
# Indices 1 2 3 4 5 6 
#
# 1 75.0175 -4.5375 27.0146 0.0000 -1.4952 0.0000
# 2 -4.5375 75.9352 33.3375 0.0000 -2.7712 0.0000
# 3 27.0146 33.3375 130.7924 0.0000 -10.7082 0.0000
# 4 0.0000 0.0000 0.0000 19.0338 0.0000 1.3080
# 5 -1.4952 -2.7712 -10.7082 0.0000 21.1427 0.0000
# 6 0.0000 0.0000 0.0000 1.3080 0.0000 15.3314
#
#
#
# Elastic Compliance Matrix: (Units=1/GPa)
#
#
# Indices 1 2 3 4 5 6 
#
# 1 0.014820 0.002510 -0.003743 0.000000 -0.000519 0.000000
# 2 0.002510 0.015254 -0.004411 0.000000 -0.000057 0.000000
# 3 -0.003743 -0.004411 0.009884 0.000000 0.004163 0.000000
# 4 0.000000 0.000000 0.000000 0.052848 0.000000 -0.004509
# 5 -0.000519 -0.000057 0.004163 0.000000 0.049362 0.000000
# 6 0.000000 0.000000 0.000000 -0.004509 0.000000 0.065610
#
#
# Mechanical properties :
#
#
# Convention : Reuss Voigt Hill
#
# Bulk Modulus (GPa) = 34.88126 43.70827 39.29476
# Shear Modulus (GPa) = 21.87016 26.16362 24.01689
#
# Velocity S-wave (km/s) = 3.57204 3.90697 3.74325
# Velocity P-wave (km/s) = 6.11254 6.77147 6.45042
#
# Compressibility (1/GPa) = 0.02866869
#
# Stress axis : x y z
#
# Youngs Moduli (GPa) = 67.47787 65.55829 101.17344
#
# Poissons Ratio (x) = -0.16455 0.37871
# Poissons Ratio (y) = -0.16937 0.44629
# Poissons Ratio (z) = 0.25258 0.28918
#
# Static dielectric constant tensor:
#      x y z
#    x 3.201390 0.000000 -0.111070 
#    y 0.000000 2.852070 0.000000 
#    z -0.111070 0.000000 3.890060 
# 
# 
# High freq. dielectric constant tensor:
#      x y z
#    x 1.658570 0.000000 -0.020080 
#    y 0.000000 1.589490 0.000000 
#    z -0.020080 0.000000 1.686970 
# 
# From -- ./inp_files/22699.got.cif
#   From: 2010.06.25/outbox.cif.g09.slc.cpg/sg12_12_cif.got.tgz:22699.got - 2010.06.28 00:19:55.
