data_PCOD8105055
_publ_section_title
;
Structure prediction by ZEFSAII (Michael W. Deem and Ramdas Pophale) SiO2 
 PCOD8105055
Probable space group: C 2/M
;
_chemical_formula_sum "Si O2"
_cell_formula_units_Z 48
_cell_length_a 13.722064
_cell_length_b 18.157890
_cell_length_c 16.167163
_cell_angle_alpha 90.000000
_cell_angle_beta 34.610194
_cell_angle_gamma 90.000000
_cell_volume 2288.018182
_symmetry_space_group_name_H-M "C 2/M"
_symmetry_group_IT_number 12
_symmetry_cell_setting 'monoclinic'
loop_
_space_group_symop_operation_xyz
x,y,z
-x,y,-z
-x,-y,-z
x,-y,z
1/2+x,1/2+y,z
1/2-x,1/2+y,-z
1/2-x,1/2-y,-z
1/2+x,1/2-y,z
loop_
_atom_site_type_symbol
_atom_site_label
_atom_site_fract_x
_atom_site_fract_y
_atom_site_fract_z
Si Si1 0.692943 0.682656 0.359580
Si Si2 0.257272 0.084147 0.471897
Si Si3 0.580006 0.915757 0.357935
Si Si4 0.603630 0.316837 0.848319
Si Si5 0.965190 0.084575 0.807052
Si Si6 0.805616 0.585191 0.136423
O O1 0.500000 0.714076 0.500000
O O2 0.747419 0.639564 0.403137
O O3 0.824945 0.748852 0.254261
O O4 0.694173 0.627351 0.281735
O O5 0.445152 0.093942 0.378739
O O6 0.117349 0.105440 0.638060
O O7 0.227775 0.000000 0.462579
O O8 0.500000 0.888556 0.500000
O O9 0.744101 0.866963 0.222478
O O10 0.640579 0.000000 0.324411
O O11 0.477092 0.363952 0.878629
O O12 0.500000 0.287039 0.000000
O O13 0.780910 0.098063 0.892626
O O14 0.983734 0.000000 0.822482
O O15 0.800689 0.500000 0.164874
O O16 0.000000 0.614906 0.000000
#
# Coordination Sequence:
#
# PCOD8105055 Si02
#       6
#     8   8   8   8   8   8
#     4  12  25  41  65  94 131 170 219 261 315 377
#     4  10  21  39  69 102 125 157 214 272 319 371
#     4  10  20  40  68  96 127 163 211 268 315 369
#     4  12  27  43  61  92 135 176 213 257 318 385
#     4  10  21  41  69  97 125 165 213 265 321 377
#     4  10  22  42  68  97 132 166 206 264 325 383
#
# _framework density 20.978853999999998
#
# number of rings (size 3 to 8) (size 9 to 14) (size 15 to 20)
#    0.000    1.333    3.333    2.000    0.000    5.333 
#    0.000    5.833    0.000    0.000    0.000    0.000 
#    0.000    0.000    0.000    0.000    0.000    0.000 
#
# Total GULP energy -297719.041974 kJ/mol
# GULP energy per Si atom -12404.960082 kJ/mol
# Density = 2.093111 g / cm^3
# Si number density = 20.978854 Si / 1000 Ang^3
#
#
#
# Elastic Constant Matrix: (Units=GPa)
#
#
# Indices 1 2 3 4 5 6 
#
# 1 113.9517 50.5133 41.5413 -0.0023 -0.4545 0.0007
# 2 50.5133 88.1518 40.9655 -0.0046 9.6382 0.0067
# 3 41.5413 40.9655 99.4557 -0.0036 -3.2201 0.0091
# 4 -0.0023 -0.0046 -0.0036 21.7566 0.0066 10.6992
# 5 -0.4545 9.6382 -3.2201 0.0066 36.3791 -0.0001
# 6 0.0007 0.0067 0.0091 10.6992 -0.0001 10.0539
#
#
#
# Elastic Compliance Matrix: (Units=1/GPa)
#
#
# Indices 1 2 3 4 5 6 
#
# 1 0.012434 -0.006062 -0.002647 -0.000008 0.001527 0.000014
# 2 -0.006062 0.017669 -0.004914 0.000015 -0.005192 -0.000023
# 3 -0.002647 -0.004914 0.013264 0.000009 0.002443 -0.000018
# 4 -0.000008 0.000015 0.000009 0.096425 -0.000021 -0.102614
# 5 0.001527 -0.005192 0.002443 -0.000021 0.029099 0.000024
# 6 0.000014 -0.000023 -0.000018 -0.102614 0.000024 0.208664
#
#
# Mechanical properties :
#
#
# Convention : Reuss Voigt Hill
#
# Bulk Modulus (GPa) = 62.03266 63.06661 62.54963
# Shear Modulus (GPa) = 12.18997 24.87385 18.53191
#
# Velocity S-wave (km/s) = 2.41313 3.44708 2.97536
# Velocity P-wave (km/s) = 6.11536 6.78015 6.45632
#
# Compressibility (1/GPa) = 0.01612054
#
# Stress axis : x y z
#
# Youngs Moduli (GPa) = 80.42556 56.59681 75.39442
#
# Poissons Ratio (x) = 0.34307 0.19959
# Poissons Ratio (y) = 0.48751 0.37049
# Poissons Ratio (z) = 0.21290 0.27811
#
# Static dielectric constant tensor:
#      x y z
#    x 3.807900 -0.000010 -0.146740 
#    y -0.000010 3.755470 0.000020 
#    z -0.146740 0.000020 3.747510 
# 
# 
# High freq. dielectric constant tensor:
#      x y z
#    x 1.828490 0.000000 -0.010740 
#    y 0.000000 1.822560 0.000000 
#    z -0.010740 0.000000 1.814050 
# 
# From -- ./inp_files/271587.got.cif
#   From: 2010.06.25/outbox.cif.g09.slc.cpg/sg12_136_cif.got.tgz:271587.got - 2010.06.28 00:19:55.
