data_PCOD8105803
_publ_section_title
;
Structure prediction by ZEFSAII (Michael W. Deem and Ramdas Pophale) SiO2 
 PCOD8105803
Probable space group: C 2/M
;
_chemical_formula_sum "Si O2"
_cell_formula_units_Z 52
_cell_length_a 5.089601
_cell_length_b 28.427897
_cell_length_c 20.515685
_cell_angle_alpha 90.000000
_cell_angle_beta 59.806322
_cell_angle_gamma 90.000000
_cell_volume 2565.631212
_symmetry_space_group_name_H-M "C 2/M"
_symmetry_group_IT_number 12
_symmetry_cell_setting 'monoclinic'
loop_
_space_group_symop_operation_xyz
x,y,z
-x,y,-z
-x,-y,-z
x,-y,z
1/2+x,1/2+y,z
1/2-x,1/2+y,-z
1/2-x,1/2-y,-z
1/2+x,1/2-y,z
loop_
_atom_site_type_symbol
_atom_site_label
_atom_site_fract_x
_atom_site_fract_y
_atom_site_fract_z
Si Si1 0.307151 0.720647 0.841758
Si Si2 0.643193 0.053966 0.549732
Si Si3 0.154631 0.500000 0.891924
Si Si4 0.177440 0.412183 0.052469
Si Si5 0.122265 0.409056 0.289679
Si Si6 0.500000 0.172998 0.000000
Si Si7 0.706164 0.874178 0.783802
Si Si8 0.645162 0.000000 0.209769
O O1 0.637946 0.737898 0.823404
O O2 0.138892 0.707113 0.929292
O O3 0.325010 0.676403 0.792124
O O4 0.500000 0.070818 0.500000
O O5 0.513339 0.088465 0.621116
O O6 0.000000 0.059911 0.500000
O O7 0.550294 0.000000 0.576759
O O8 0.071041 0.451331 0.940282
O O9 0.941574 0.500000 0.854550
O O10 0.496527 0.500000 0.828617
O O11 0.229525 0.364735 0.003313
O O12 0.067147 0.395663 0.138030
O O13 0.500000 0.437865 0.000000
O O14 0.487183 0.405345 0.249788
O O15 0.015922 0.454950 0.262964
O O16 0.943656 0.368956 0.269808
#
# Coordination Sequence:
#
# PCOD8105803 Si02
#       8
#     8   8   4   8   8   4   8   4
#     4  11  24  43  64  86 112 143 193 255 321 386
#     4  10  21  35  57  91 128 168 207 239 274 326
#     4  12  25  39  54  77 114 161 219 254 298 330
#     4  11  25  38  55  80 115 158 209 267 291 346
#     4  12  21  41  61  88 125 165 202 244 286 348
#     4  10  26  37  62  80 110 150 192 251 328 370
#     4  11  25  39  63  87 116 155 205 252 306 359
#     4  12  22  38  58  83 114 165 207 246 286 351
#
# _framework density 20.267917000000001
#
# number of rings (size 3 to 8) (size 9 to 14) (size 15 to 20)
#    0.000    0.923    3.846    2.538   10.769    0.308 
#    0.000    0.000    0.000    0.000    0.000    0.000 
#    0.000   43.077    0.000    0.000    0.000    0.000 
#
# Total GULP energy -322155.960724 kJ/mol
# GULP energy per Si atom -12390.613874 kJ/mol
# Density = 2.022179 g / cm^3
# Si number density = 20.267917 Si / 1000 Ang^3
#
#
#
# Elastic Constant Matrix: (Units=GPa)
#
#
# Indices 1 2 3 4 5 6 
#
# 1 102.5344 6.6401 45.2128 0.0000 13.4369 0.0000
# 2 6.6401 55.2710 29.6206 0.0000 6.5020 0.0000
# 3 45.2128 29.6206 111.0800 0.0000 17.6848 0.0000
# 4 0.0000 0.0000 0.0000 19.1033 0.0000 10.0415
# 5 13.4369 6.5020 17.6848 0.0000 32.4042 0.0000
# 6 0.0000 0.0000 0.0000 10.0415 0.0000 30.6685
#
#
#
# Elastic Compliance Matrix: (Units=1/GPa)
#
#
# Indices 1 2 3 4 5 6 
#
# 1 0.012179 0.001493 -0.004932 0.000000 -0.002658 0.000000
# 2 0.001493 0.021340 -0.006043 0.000000 -0.001603 0.000000
# 3 -0.004932 -0.006043 0.013255 0.000000 -0.003976 0.000000
# 4 0.000000 0.000000 0.000000 0.063229 0.000000 -0.020702
# 5 -0.002658 -0.001603 -0.003976 0.000000 0.034454 0.000000
# 6 0.000000 0.000000 0.000000 -0.020702 0.000000 0.039385
#
#
# Mechanical properties :
#
#
# Convention : Reuss Voigt Hill
#
# Bulk Modulus (GPa) = 35.95913 47.98136 41.97024
# Shear Modulus (GPa) = 23.57633 28.92934 26.25284
#
# Velocity S-wave (km/s) = 3.41432 3.78212 3.60292
# Velocity P-wave (km/s) = 5.77268 6.54198 6.16934
#
# Compressibility (1/GPa) = 0.02780935
#
# Stress axis : x y z
#
# Youngs Moduli (GPa) = 82.10604 46.85937 75.44597
#
# Poissons Ratio (x) = -0.06995 0.37212
# Poissons Ratio (y) = -0.12256 0.45592
# Poissons Ratio (z) = 0.40497 0.28317
#
# Static dielectric constant tensor:
#      x y z
#    x 3.792350 0.000000 0.185100 
#    y 0.000000 3.786170 0.000000 
#    z 0.185100 0.000000 3.478520 
# 
# 
# High freq. dielectric constant tensor:
#      x y z
#    x 1.809240 0.000000 0.009580 
#    y 0.000000 1.775730 0.000000 
#    z 0.009580 0.000000 1.766710 
# 
# From -- ./inp_files/298359.got.cif
#   From: 2010.06.25/outbox.cif.g09.slc.cpg/sg12_150_cif.got.tgz:298359.got - 2010.06.28 00:19:55.
