data_PCOD8105839
_publ_section_title
;
Structure prediction by ZEFSAII (Michael W. Deem and Ramdas Pophale) SiO2 
 PCOD8105839
Probable space group: C 2/M
;
_chemical_formula_sum "Si O2"
_cell_formula_units_Z 64
_cell_length_a 18.124631
_cell_length_b 30.467699
_cell_length_c 8.677077
_cell_angle_alpha 90.000000
_cell_angle_beta 140.245826
_cell_angle_gamma 90.000000
_cell_volume 3064.216463
_symmetry_space_group_name_H-M "C 2/M"
_symmetry_group_IT_number 12
_symmetry_cell_setting 'monoclinic'
loop_
_space_group_symop_operation_xyz
x,y,z
-x,y,-z
-x,-y,-z
x,-y,z
1/2+x,1/2+y,z
1/2-x,1/2+y,-z
1/2-x,1/2-y,-z
1/2+x,1/2-y,z
loop_
_atom_site_type_symbol
_atom_site_label
_atom_site_fract_x
_atom_site_fract_y
_atom_site_fract_z
Si Si1 0.329444 0.824018 0.400252
Si Si2 0.555383 0.746612 0.260791
Si Si3 0.397857 0.626508 0.940423
Si Si4 0.652521 0.216851 0.890385
Si Si5 0.443342 0.590556 0.558606
Si Si6 0.792035 0.831521 0.369301
Si Si7 0.797718 0.950111 0.576517
Si Si8 0.616195 0.886198 0.278816
O O1 0.349843 0.785127 0.559622
O O2 0.193139 0.834696 0.173614
O O3 0.376931 0.812615 0.306563
O O4 0.400959 0.867292 0.574821
O O5 0.458134 0.755902 0.233258
O O6 0.617868 0.701247 0.403774
O O7 0.500000 0.747505 0.000000
O O8 0.348527 0.582464 0.784377
O O9 0.500000 0.647052 0.000000
O O10 0.446879 0.610119 0.178671
O O11 0.750000 0.250000 0.000000
O O12 0.697605 0.188951 0.105982
O O13 0.500000 0.568001 0.500000
O O14 0.361756 0.631864 0.385078
O O15 0.370639 0.554210 0.535762
O O16 0.723596 0.856178 0.394678
O O17 0.662016 0.936302 0.339418
O O18 0.803549 0.000000 0.643870
O O19 0.500000 0.880044 0.000000
#
# Coordination Sequence:
#
# PCOD8105839 Si02
#       8
#     8   8   8   8   8   8   8   8
#     4  11  22  40  60  84 118 155 208 256 302 356
#     4  12  28  41  59  82 117 163 209 261 311 354
#     4   9  20  37  61  90 119 161 200 243 303 367
#     4  12  26  41  58  86 115 160 210 264 304 348
#     4  10  21  35  59  89 120 160 197 246 306 354
#     4  11  25  40  59  83 119 161 209 256 301 364
#     4   9  20  39  62  92 124 154 196 239 294 372
#     4  10  22  42  64  90 118 157 199 247 305 364
#
# _framework density 20.886253
#
# number of rings (size 3 to 8) (size 9 to 14) (size 15 to 20)
#    0.000    1.500    1.250    3.750    5.250    6.250 
#    0.000    0.625    0.000    0.000    0.000    0.000 
#    0.000   16.000    0.000    0.000    0.000    0.000 
#
# Total GULP energy -396600.872348 kJ/mol
# GULP energy per Si atom -12393.777261 kJ/mol
# Density = 2.083871 g / cm^3
# Si number density = 20.886253 Si / 1000 Ang^3
#
#
#
# Elastic Constant Matrix: (Units=GPa)
#
#
# Indices 1 2 3 4 5 6 
#
# 1 90.2434 22.0276 29.8642 0.0000 8.2335 0.0000
# 2 22.0276 87.6536 15.0339 0.0000 20.0915 0.0000
# 3 29.8642 15.0339 101.4061 0.0000 10.3582 0.0000
# 4 0.0000 0.0000 0.0000 19.6077 0.0000 4.7595
# 5 8.2335 20.0915 10.3582 0.0000 34.4784 0.0000
# 6 0.0000 0.0000 0.0000 4.7595 0.0000 14.1339
#
#
#
# Elastic Compliance Matrix: (Units=1/GPa)
#
#
# Indices 1 2 3 4 5 6 
#
# 1 0.012860 -0.002520 -0.003353 0.000000 -0.000595 0.000000
# 2 -0.002520 0.013806 -0.000561 0.000000 -0.007274 0.000000
# 3 -0.003353 -0.000561 0.011159 0.000000 -0.002225 0.000000
# 4 0.000000 0.000000 0.000000 0.055540 0.000000 -0.018703
# 5 -0.000595 -0.007274 -0.002225 0.000000 0.034053 0.000000
# 6 0.000000 0.000000 0.000000 -0.018703 0.000000 0.077050
#
#
# Mechanical properties :
#
#
# Convention : Reuss Voigt Hill
#
# Bulk Modulus (GPa) = 40.07106 45.90604 42.98855
# Shear Modulus (GPa) = 22.15760 27.80250 24.98005
#
# Velocity S-wave (km/s) = 3.26063 3.65244 3.46208
# Velocity P-wave (km/s) = 5.77950 6.30982 6.05048
#
# Compressibility (1/GPa) = 0.02495567
#
# Stress axis : x y z
#
# Youngs Moduli (GPa) = 77.75930 72.43438 89.61176
#
# Poissons Ratio (x) = 0.18256 0.30046
# Poissons Ratio (y) = 0.19598 0.05031
# Poissons Ratio (z) = 0.26072 0.04067
#
# Static dielectric constant tensor:
#      x y z
#    x 3.836400 0.000000 0.175390 
#    y 0.000000 3.574890 0.000000 
#    z 0.175390 0.000000 4.065640 
# 
# 
# High freq. dielectric constant tensor:
#      x y z
#    x 1.812860 0.000000 0.003290 
#    y 0.000000 1.792510 0.000000 
#    z 0.003290 0.000000 1.838260 
# 
# From -- ./inp_files/80743.got.cif
#   From: 2010.06.25/outbox.cif.g09.slc.cpg/sg12_41_cif.got.tgz:80743.got - 2010.06.28 00:19:55.
