data_PCOD8105671
_publ_section_title
;
Structure prediction by ZEFSAII (Michael W. Deem and Ramdas Pophale) SiO2 
 PCOD8105671
Probable space group: C 2/M
;
_chemical_formula_sum "Si O2"
_cell_formula_units_Z 56
_cell_length_a 29.162704
_cell_length_b 9.018244
_cell_length_c 20.132310
_cell_angle_alpha 90.000000
_cell_angle_beta 147.541778
_cell_angle_gamma 90.000000
_cell_volume 2841.596630
_symmetry_space_group_name_H-M "C 2/M"
_symmetry_group_IT_number 12
_symmetry_cell_setting 'monoclinic'
loop_
_space_group_symop_operation_xyz
x,y,z
-x,y,-z
-x,-y,-z
x,-y,z
1/2+x,1/2+y,z
1/2-x,1/2+y,-z
1/2-x,1/2-y,-z
1/2+x,1/2-y,z
loop_
_atom_site_type_symbol
_atom_site_label
_atom_site_fract_x
_atom_site_fract_y
_atom_site_fract_z
Si Si1 0.936678 0.328154 0.780980
Si Si2 0.049610 0.329321 0.740321
Si Si3 0.759132 0.324825 0.810409
Si Si4 0.637037 0.168100 0.451567
Si Si5 0.601714 0.675548 0.934218
Si Si6 0.295625 0.174209 0.707312
Si Si7 0.909716 0.328123 0.359488
O O1 0.963361 0.500000 0.821004
O O2 0.878513 0.304003 0.645201
O O3 0.882225 0.269392 0.777343
O O4 0.022899 0.233719 0.881926
O O5 0.059972 0.500000 0.776027
O O6 0.095455 0.226210 0.850230
O O7 0.092124 0.299603 0.721543
O O8 0.948971 0.291738 0.613100
O O9 0.765019 0.500000 0.828794
O O10 0.797433 0.276371 0.786021
O O11 0.661130 0.273808 0.693097
O O12 0.810631 0.240267 0.930211
O O13 0.712253 0.270654 0.567935
O O14 0.664492 0.000000 0.499095
O O15 0.604631 0.500000 0.940782
O O16 0.291700 0.000000 0.695647
O O17 0.891516 0.500000 0.353768
O O18 0.000000 0.278906 0.500000
#
# Coordination Sequence:
#
# PCOD8105671 Si02
#       7
#     8   8   8   8   8   8   8
#     4   9  19  37  57  79 111 149 186 225 276 333
#     4   9  19  37  60  84 113 149 183 222 276 330
#     4  11  24  40  57  80 113 150 187 229 276 328
#     4   9  17  31  55  84 113 144 179 226 279 329
#     4  11  23  39  59  83 109 142 188 235 278 325
#     4  10  21  35  54  80 111 150 189 227 275 329
#     4  10  21  39  63  89 116 146 181 222 271 327
#
# _framework density 19.707229000000002
#
# number of rings (size 3 to 8) (size 9 to 14) (size 15 to 20)
#    0.000    2.143    0.000    3.857    0.000    7.143 
#    0.000    2.857    0.000    0.000    0.000    0.000 
#    0.000    0.000    0.000    0.000    0.000    0.000 
#
# Total GULP energy -347289.666976 kJ/mol
# GULP energy per Si atom -12403.202392 kJ/mol
# Density = 1.966237 g / cm^3
# Si number density = 19.707229 Si / 1000 Ang^3
#
#
#
# Elastic Constant Matrix: (Units=GPa)
#
#
# Indices 1 2 3 4 5 6 
#
# 1 86.7517 41.4221 22.4541 0.0000 -2.5166 0.0000
# 2 41.4221 76.6414 44.4703 0.0000 1.4291 0.0000
# 3 22.4541 44.4703 96.6283 0.0000 1.8085 0.0000
# 4 0.0000 0.0000 0.0000 33.8382 0.0000 7.8373
# 5 -2.5166 1.4291 1.8085 0.0000 15.0699 0.0000
# 6 0.0000 0.0000 0.0000 7.8373 0.0000 23.7661
#
#
#
# Elastic Compliance Matrix: (Units=1/GPa)
#
#
# Indices 1 2 3 4 5 6 
#
# 1 0.015719 -0.008735 0.000304 0.000000 0.003417 0.000000
# 2 -0.008735 0.022663 -0.008352 0.000000 -0.002606 0.000000
# 3 0.000304 -0.008352 0.014138 0.000000 -0.000854 0.000000
# 4 0.000000 0.000000 0.000000 0.031996 0.000000 -0.010551
# 5 0.003417 -0.002606 -0.000854 0.000000 0.067278 0.000000
# 6 0.000000 0.000000 0.000000 -0.010551 0.000000 0.045556
#
#
# Mechanical properties :
#
#
# Convention : Reuss Voigt Hill
#
# Bulk Modulus (GPa) = 52.76073 52.96827 52.86450
# Shear Modulus (GPa) = 21.07621 24.64649 22.86135
#
# Velocity S-wave (km/s) = 3.27382 3.54026 3.40964
# Velocity P-wave (km/s) = 6.41256 6.60660 6.51030
#
# Compressibility (1/GPa) = 0.01895349
#
# Stress axis : x y z
#
# Youngs Moduli (GPa) = 63.61895 44.12413 70.73178
#
# Poissons Ratio (x) = 0.38543 -0.02147
# Poissons Ratio (y) = 0.55573 0.59072
# Poissons Ratio (z) = -0.01931 0.36850
#
# Static dielectric constant tensor:
#      x y z
#    x 3.916360 0.000000 -0.001510 
#    y 0.000000 3.444460 0.000000 
#    z -0.001510 0.000000 3.430100 
# 
# 
# High freq. dielectric constant tensor:
#      x y z
#    x 1.778780 0.000000 0.000170 
#    y 0.000000 1.757070 0.000000 
#    z 0.000170 0.000000 1.765090 
# 
# From -- ./inp_files/329569.got.cif
#   From: 2010.06.25/outbox.cif.g09.slc.cpg/sg12_165_cif.got.tgz:329569.got - 2010.06.28 00:19:55.
