data_PCOD8105396
_publ_section_title
;
Structure prediction by ZEFSAII (Michael W. Deem and Ramdas Pophale) SiO2 
 PCOD8105396
Probable space group: C 2/M
;
_chemical_formula_sum "Si O2"
_cell_formula_units_Z 56
_cell_length_a 10.107125
_cell_length_b 20.976869
_cell_length_c 15.006177
_cell_angle_alpha 90.000000
_cell_angle_beta 117.854680
_cell_angle_gamma 90.000000
_cell_volume 2812.918736
_symmetry_space_group_name_H-M "C 2/M"
_symmetry_group_IT_number 12
_symmetry_cell_setting 'monoclinic'
loop_
_space_group_symop_operation_xyz
x,y,z
-x,y,-z
-x,-y,-z
x,-y,z
1/2+x,1/2+y,z
1/2-x,1/2+y,-z
1/2-x,1/2-y,-z
1/2+x,1/2-y,z
loop_
_atom_site_type_symbol
_atom_site_label
_atom_site_fract_x
_atom_site_fract_y
_atom_site_fract_z
Si Si1 0.419294 0.072750 0.230455
Si Si2 0.573407 0.259849 0.930614
Si Si3 0.934237 0.075004 0.576647
Si Si4 0.591979 0.572324 0.109643
Si Si5 0.568029 0.124663 0.113416
Si Si6 0.598729 0.075663 0.450161
Si Si7 0.079587 0.128751 0.794117
O O1 0.255148 0.106224 0.172089
O O2 0.511191 0.075018 0.168296
O O3 0.522172 0.105933 0.338124
O O4 0.393016 0.000000 0.250995
O O5 0.492020 0.194279 0.878944
O O6 0.540566 0.306502 0.836657
O O7 0.500000 0.285224 0.000000
O O8 0.750000 0.250000 0.000000
O O9 0.765404 0.100307 0.517911
O O10 0.000000 0.086902 0.500000
O O11 0.012472 0.121222 0.673837
O O12 0.949207 0.000000 0.608152
O O13 0.623944 0.500000 0.091715
O O14 0.494834 0.573490 0.169361
O O15 0.500000 0.605798 0.000000
O O16 0.744759 0.121552 0.160330
O O17 0.500000 0.100907 0.000000
O O18 0.500000 0.100161 0.500000
O O19 0.605067 0.000000 0.444478
#
# Coordination Sequence:
#
# PCOD8105396 Si02
#       7
#     8   8   8   8   8   8   8
#     4  10  21  36  57  85 120 161 196 238 299 359
#     4  11  23  43  63  87 115 152 205 250 300 362
#     4  10  21  37  59  89 122 156 197 246 299 356
#     4  10  21  34  52  86 126 159 193 239 299 363
#     4  11  23  38  57  85 116 151 195 239 294 362
#     4   9  17  33  54  78 111 149 194 238 278 340
#     4  12  22  36  62  86 115 155 201 249 299 358
#
# _framework density 19.908147
#
# number of rings (size 3 to 8) (size 9 to 14) (size 15 to 20)
#    0.000    1.571    2.857    3.429    2.000    4.857 
#    0.000    0.000    0.000    4.286    0.000    0.000 
#    0.000    0.000    0.000    0.000    0.000    0.000 
#
# Total GULP energy -347041.151533 kJ/mol
# GULP energy per Si atom -12394.326840 kJ/mol
# Density = 1.986284 g / cm^3
# Si number density = 19.908147 Si / 1000 Ang^3
#
#
#
# Elastic Constant Matrix: (Units=GPa)
#
#
# Indices 1 2 3 4 5 6 
#
# 1 187.3808 12.5362 82.7963 0.0000 14.5503 0.0000
# 2 12.5362 25.9757 25.3213 0.0000 0.0130 0.0000
# 3 82.7963 25.3213 186.7857 0.0000 8.4835 0.0000
# 4 0.0000 0.0000 0.0000 40.4044 0.0000 -10.7377
# 5 14.5503 0.0130 8.4835 0.0000 38.9639 0.0000
# 6 0.0000 0.0000 0.0000 -10.7377 0.0000 15.2013
#
#
#
# Elastic Compliance Matrix: (Units=1/GPa)
#
#
# Indices 1 2 3 4 5 6 
#
# 1 0.006778 -0.000491 -0.002851 0.000000 -0.001910 0.000000
# 2 -0.000491 0.044461 -0.005876 0.000000 0.001448 0.000000
# 3 -0.002851 -0.005876 0.007439 0.000000 -0.000553 0.000000
# 4 0.000000 0.000000 0.000000 0.030470 0.000000 0.021523
# 5 -0.001910 0.001448 -0.000553 0.000000 0.026498 0.000000
# 6 0.000000 0.000000 0.000000 0.021523 0.000000 0.080987
#
#
# Mechanical properties :
#
#
# Convention : Reuss Voigt Hill
#
# Bulk Modulus (GPa) = 24.84890 71.27220 48.06055
# Shear Modulus (GPa) = 21.88364 37.54649 29.71506
#
# Velocity S-wave (km/s) = 3.31906 4.34751 3.86762
# Velocity P-wave (km/s) = 5.21508 7.81533 6.64366
#
# Compressibility (1/GPa) = 0.04024324
#
# Stress axis : x y z
#
# Youngs Moduli (GPa) = 147.54401 22.49155 134.42433
#
# Poissons Ratio (x) = 0.01104 0.38325
# Poissons Ratio (y) = 0.07241 0.78981
# Poissons Ratio (z) = 0.42065 0.13215
#
# Static dielectric constant tensor:
#      x y z
#    x 3.820490 0.000000 0.325160 
#    y 0.000000 3.284620 0.000000 
#    z 0.325160 0.000000 3.097720 
# 
# 
# High freq. dielectric constant tensor:
#      x y z
#    x 1.801300 0.000000 0.002880 
#    y 0.000000 1.730430 0.000000 
#    z 0.002880 0.000000 1.784740 
# 
# From -- ./inp_files/198498.got.cif
#   From: 2010.06.25/outbox.cif.g09.slc.cpg/sg12_100_cif.got.tgz:198498.got - 2010.06.28 00:19:55.
