data_PCOD8105501
_publ_section_title
;
Structure prediction by ZEFSAII (Michael W. Deem and Ramdas Pophale) SiO2 
 PCOD8105501
Probable space group: C 2/M
;
_chemical_formula_sum "Si O2"
_cell_formula_units_Z 56
_cell_length_a 29.855497
_cell_length_b 17.686821
_cell_length_c 9.460900
_cell_angle_alpha 90.000000
_cell_angle_beta 33.310637
_cell_angle_gamma 90.000000
_cell_volume 2743.592775
_symmetry_space_group_name_H-M "C 2/M"
_symmetry_group_IT_number 12
_symmetry_cell_setting 'monoclinic'
loop_
_space_group_symop_operation_xyz
x,y,z
-x,y,-z
-x,-y,-z
x,-y,z
1/2+x,1/2+y,z
1/2-x,1/2+y,-z
1/2-x,1/2-y,-z
1/2+x,1/2-y,z
loop_
_atom_site_type_symbol
_atom_site_label
_atom_site_fract_x
_atom_site_fract_y
_atom_site_fract_z
Si Si1 0.155193 0.873955 0.959479
Si Si2 0.334150 0.916158 0.552198
Si Si3 0.781762 0.585899 0.999138
Si Si4 0.868964 0.717886 0.284312
Si Si5 0.788634 0.291134 0.209415
Si Si6 0.031267 0.148097 0.062692
Si Si7 0.902681 0.085241 0.597814
O O1 0.112557 0.888943 0.918469
O O2 0.094222 0.905163 0.240682
O O3 0.242027 0.915031 0.733161
O O4 0.165449 0.784751 0.960206
O O5 0.390746 0.853537 0.326917
O O6 0.369566 0.000000 0.430331
O O7 0.333667 0.899037 0.720615
O O8 0.794419 0.500000 0.018372
O O9 0.811635 0.642756 0.040586
O O10 0.688181 0.602389 0.212733
O O11 0.820746 0.683350 0.277901
O O12 0.808581 0.775769 0.526627
O O13 0.949553 0.764076 0.026893
O O14 0.960421 0.145049 0.366432
O O15 0.000000 0.107236 0.000000
O O16 0.929827 0.000000 0.487073
#
# Coordination Sequence:
#
# PCOD8105501 Si02
#       7
#     8   8   8   8   8   8   8
#     4   9  19  34  53  75  99 131 170 205 245 296
#     4   9  18  33  54  77 100 127 162 209 259 300
#     4   9  18  32  52  80 105 127 163 207 250 295
#     4   9  19  33  48  71 100 133 169 202 248 302
#     4   9  17  32  51  73 101 128 163 212 253 289
#     4  11  22  34  48  69 102 139 173 203 235 285
#     4  10  21  35  50  72 105 141 170 196 236 296
#
# _framework density 20.411193000000001
#
# number of rings (size 3 to 8) (size 9 to 14) (size 15 to 20)
#    0.000    2.571    0.000    3.429    0.000    8.857 
#    0.000    2.143    0.000    0.429    0.000    1.000 
#    0.000    9.143    0.000    0.000    0.000    0.000 
#
# Total GULP energy -347074.468982 kJ/mol
# GULP energy per Si atom -12395.516749 kJ/mol
# Density = 2.036474 g / cm^3
# Si number density = 20.411193 Si / 1000 Ang^3
#
#
#
# Elastic Constant Matrix: (Units=GPa)
#
#
# Indices 1 2 3 4 5 6 
#
# 1 76.0228 21.0781 5.4577 0.0000 21.9575 0.0000
# 2 21.0781 103.0987 46.4920 0.0000 17.0747 0.0000
# 3 5.4577 46.4920 75.6510 0.0000 12.6223 0.0000
# 4 0.0000 0.0000 0.0000 37.7917 0.0000 6.5450
# 5 21.9575 17.0747 12.6223 0.0000 22.6923 0.0000
# 6 0.0000 0.0000 0.0000 6.5450 0.0000 22.7898
#
#
#
# Elastic Compliance Matrix: (Units=1/GPa)
#
#
# Indices 1 2 3 4 5 6 
#
# 1 0.018813 -0.002194 0.003034 0.000000 -0.018241 0.000000
# 2 -0.002194 0.014479 -0.008020 0.000000 -0.004311 0.000000
# 3 0.003034 -0.008020 0.019193 0.000000 -0.007577 0.000000
# 4 0.000000 0.000000 0.000000 0.027846 0.000000 -0.007997
# 5 -0.018241 -0.004311 -0.007577 0.000000 0.069176 0.000000
# 6 0.000000 0.000000 0.000000 -0.007997 0.000000 0.046176
#
#
# Mechanical properties :
#
#
# Convention : Reuss Voigt Hill
#
# Bulk Modulus (GPa) = 26.22962 44.53648 35.38305
# Shear Modulus (GPa) = 22.44669 28.77106 25.60887
#
# Velocity S-wave (km/s) = 3.31981 3.75850 3.54594
# Velocity P-wave (km/s) = 5.25103 6.37982 5.84275
#
# Compressibility (1/GPa) = 0.03812483
#
# Stress axis : x y z
#
# Youngs Moduli (GPa) = 53.15546 69.06744 52.10245
#
# Poissons Ratio (x) = 0.15150 -0.15810
# Poissons Ratio (y) = 0.11660 0.41789
# Poissons Ratio (z) = -0.16129 0.55396
#
# Static dielectric constant tensor:
#      x y z
#    x 3.673970 0.000000 0.243890 
#    y 0.000000 3.578260 0.000000 
#    z 0.243890 0.000000 3.537550 
# 
# 
# High freq. dielectric constant tensor:
#      x y z
#    x 1.789870 0.000000 0.020030 
#    y 0.000000 1.782790 0.000000 
#    z 0.020030 0.000000 1.776560 
# 
# From -- ./inp_files/112582.got.cif
#   From: 2010.06.25/outbox.cif.g09.slc.cpg/sg12_57_cif.got.tgz:112582.got - 2010.06.28 00:19:55.
