data_PCOD8105901
_publ_section_title
;
Structure prediction by ZEFSAII (Michael W. Deem and Ramdas Pophale) SiO2 
 PCOD8105901
Probable space group: C 2/M
;
_chemical_formula_sum "Si O2"
_cell_formula_units_Z 64
_cell_length_a 26.935726
_cell_length_b 13.840704
_cell_length_c 10.033142
_cell_angle_alpha 90.000000
_cell_angle_beta 109.861581
_cell_angle_gamma 90.000000
_cell_volume 3517.953415
_symmetry_space_group_name_H-M "C 2/M"
_symmetry_group_IT_number 12
_symmetry_cell_setting 'monoclinic'
loop_
_space_group_symop_operation_xyz
x,y,z
-x,y,-z
-x,-y,-z
x,-y,z
1/2+x,1/2+y,z
1/2-x,1/2+y,-z
1/2-x,1/2-y,-z
1/2+x,1/2-y,z
loop_
_atom_site_type_symbol
_atom_site_label
_atom_site_fract_x
_atom_site_fract_y
_atom_site_fract_z
Si Si1 0.869695 0.701333 0.020099
Si Si2 0.681935 0.111873 0.277500
Si Si3 0.955037 0.388559 0.561533
Si Si4 0.302927 0.391320 0.323442
Si Si5 0.322080 0.391280 0.031245
Si Si6 0.843839 0.702281 0.466300
Si Si7 0.478562 0.888626 0.122299
Si Si8 0.705001 0.888743 0.830072
O O1 0.858609 0.649912 0.869877
O O2 0.864251 0.817637 0.004995
O O3 0.928621 0.675408 0.119349
O O4 0.828687 0.669477 0.094487
O O5 0.740772 0.127828 0.279138
O O6 0.673142 0.171794 0.402698
O O7 0.669095 0.000000 0.293938
O O8 0.939351 0.500000 0.521479
O O9 0.904427 0.322348 0.490746
O O10 0.000000 0.355487 0.500000
O O11 0.974933 0.372874 0.729621
O O12 0.316797 0.500000 0.383058
O O13 0.318228 0.374483 0.185123
O O14 0.335856 0.317603 0.445164
O O15 0.341132 0.500000 0.017123
O O16 0.266138 0.370577 0.912404
O O17 0.806012 0.647444 0.328634
O O18 0.460473 0.000000 0.101864
O O19 0.500000 0.853415 0.000000
O O20 0.689398 0.000000 0.830832
#
# Coordination Sequence:
#
# PCOD8105901 Si02
#       8
#     8   8   8   8   8   8   8   8
#     4  12  20  35  60  82 107 150 190 220 272 330
#     4  11  22  35  54  85 121 147 175 221 278 336
#     4  10  21  36  52  76 111 141 175 229 281 322
#     4  10  21  38  56  80 113 148 186 230 272 317
#     4  10  21  37  56  83 114 142 186 238 269 309
#     4  12  22  36  56  81 112 152 185 221 275 335
#     4  10  21  36  55  80 109 141 179 223 273 331
#     4  11  20  32  55  85 113 143 185 226 268 331
#
# _framework density 18.192395000000001
#
# number of rings (size 3 to 8) (size 9 to 14) (size 15 to 20)
#    0.000    1.250    2.500    5.250    0.000    2.000 
#    0.000    1.875    0.000    1.500    0.000    0.000 
#    0.000    0.000    0.000    0.000    0.000    0.000 
#
# Total GULP energy -396972.878972 kJ/mol
# GULP energy per Si atom -12405.402468 kJ/mol
# Density = 1.815099 g / cm^3
# Si number density = 18.192395 Si / 1000 Ang^3
#
#
#
# Elastic Constant Matrix: (Units=GPa)
#
#
# Indices 1 2 3 4 5 6 
#
# 1 47.7086 46.5261 9.9688 0.0000 7.2353 0.0000
# 2 46.5261 104.9229 12.0083 0.0000 19.1525 0.0000
# 3 9.9688 12.0083 45.7128 0.0000 4.5685 0.0000
# 4 0.0000 0.0000 0.0000 29.2016 0.0000 0.3570
# 5 7.2353 19.1525 4.5685 0.0000 17.9838 0.0000
# 6 0.0000 0.0000 0.0000 0.3570 0.0000 25.4782
#
#
#
# Elastic Compliance Matrix: (Units=1/GPa)
#
#
# Indices 1 2 3 4 5 6 
#
# 1 0.037831 -0.017022 -0.004175 0.000000 0.003969 0.000000
# 2 -0.017022 0.019652 -0.000044 0.000000 -0.014070 0.000000
# 3 -0.004175 -0.000044 0.023215 0.000000 -0.004171 0.000000
# 4 0.000000 0.000000 0.000000 0.034251 0.000000 -0.000480
# 5 0.003969 -0.014070 -0.004171 0.000000 0.070053 0.000000
# 6 0.000000 0.000000 0.000000 -0.000480 0.000000 0.039256
#
#
# Mechanical properties :
#
#
# Convention : Reuss Voigt Hill
#
# Bulk Modulus (GPa) = 26.16758 37.26121 31.71440
# Shear Modulus (GPa) = 17.89042 23.18879 20.53961
#
# Velocity S-wave (km/s) = 3.13933 3.57409 3.36374
# Velocity P-wave (km/s) = 5.24933 6.12849 5.70587
#
# Compressibility (1/GPa) = 0.03821522
#
# Stress axis : x y z
#
# Youngs Moduli (GPa) = 26.43303 50.88452 43.07634
#
# Poissons Ratio (x) = 0.86617 0.17985
# Poissons Ratio (y) = 0.44995 0.00190
# Poissons Ratio (z) = 0.11036 0.00225
#
# Static dielectric constant tensor:
#      x y z
#    x 3.202970 0.000000 -0.010590 
#    y 0.000000 3.520900 0.000000 
#    z -0.010590 0.000000 3.486410 
# 
# 
# High freq. dielectric constant tensor:
#      x y z
#    x 1.688900 0.000000 -0.004290 
#    y 0.000000 1.699590 0.000000 
#    z -0.004290 0.000000 1.714130 
# 
# From -- ./inp_files/104497.got.cif
#   From: 2010.06.25/outbox.cif.g09.slc.cpg/sg12_53_cif.got.tgz:104497.got - 2010.06.28 00:19:55.
