data_PCOD8105907
_publ_section_title
;
Structure prediction by ZEFSAII (Michael W. Deem and Ramdas Pophale) SiO2 
 PCOD8105907
Probable space group: C 2/M
;
_chemical_formula_sum "Si O2"
_cell_formula_units_Z 64
_cell_length_a 19.639785
_cell_length_b 29.649189
_cell_length_c 8.831824
_cell_angle_alpha 90.000000
_cell_angle_beta 135.846144
_cell_angle_gamma 90.000000
_cell_volume 3582.412833
_symmetry_space_group_name_H-M "C 2/M"
_symmetry_group_IT_number 12
_symmetry_cell_setting 'monoclinic'
loop_
_space_group_symop_operation_xyz
x,y,z
-x,y,-z
-x,-y,-z
x,-y,z
1/2+x,1/2+y,z
1/2-x,1/2+y,-z
1/2-x,1/2-y,-z
1/2+x,1/2-y,z
loop_
_atom_site_type_symbol
_atom_site_label
_atom_site_fract_x
_atom_site_fract_y
_atom_site_fract_z
Si Si1 0.051094 0.449242 0.845550
Si Si2 0.149319 0.447901 0.310085
Si Si3 0.603161 0.122198 0.695646
Si Si4 0.791756 0.690722 0.953776
Si Si5 0.599058 0.306144 0.094503
Si Si6 0.901079 0.774102 0.246540
Si Si7 0.287094 0.136045 0.432771
Si Si8 0.886855 0.292137 0.794300
O O1 0.044560 0.500000 0.783711
O O2 0.073001 0.424893 0.723228
O O3 0.948529 0.434439 0.755501
O O4 0.133956 0.442812 0.105997
O O5 0.182535 0.500000 0.399732
O O6 0.224794 0.407914 0.477385
O O7 0.500000 0.148385 0.500000
O O8 0.665344 0.117037 0.643617
O O9 0.671829 0.143007 0.932350
O O10 0.674844 0.693631 0.786791
O O11 0.817276 0.693842 0.819882
O O12 0.849095 0.725682 0.153812
O O13 0.680318 0.344404 0.230075
O O14 0.625224 0.262219 0.241512
O O15 0.500000 0.328214 0.000000
O O16 0.578933 0.290940 0.890756
O O17 0.000000 0.771222 0.500000
O O18 0.351771 0.178384 0.595851
O O19 0.000000 0.304529 0.000000
#
# Coordination Sequence:
#
# PCOD8105907 Si02
#       8
#     8   8   8   8   8   8   8   8
#     4   9  19  35  53  78 116 153 181 215 273 344
#     4   9  19  36  57  80 112 151 187 224 274 346
#     4  12  21  31  50  80 117 146 177 226 273 329
#     4  10  21  36  52  79 107 142 193 232 273 329
#     4  10  23  41  54  78 110 149 196 242 284 326
#     4  10  21  38  57  75 106 148 189 235 287 327
#     4  12  22  34  57  84 114 143 193 232 276 342
#     4  10  22  37  55  79 111 156 192 227 279 336
#
# _framework density 17.865055000000002
#
# number of rings (size 3 to 8) (size 9 to 14) (size 15 to 20)
#    0.000    1.750    2.500    3.000    3.500    2.750 
#    0.000    0.000    0.000    0.375    0.000    0.000 
#    0.000    3.000    0.000    0.000    0.000    0.000 
#
# Total GULP energy -396578.865964 kJ/mol
# GULP energy per Si atom -12393.089561 kJ/mol
# Density = 1.782439 g / cm^3
# Si number density = 17.865055 Si / 1000 Ang^3
#
#
#
# Elastic Constant Matrix: (Units=GPa)
#
#
# Indices 1 2 3 4 5 6 
#
# 1 99.5434 22.4525 28.5949 0.0000 3.9515 0.0000
# 2 22.4525 67.9084 37.2043 0.0000 -6.2038 0.0000
# 3 28.5949 37.2043 84.4971 0.0000 7.6898 0.0000
# 4 0.0000 0.0000 0.0000 49.0340 0.0000 -86.4673
# 5 3.9515 -6.2038 7.6898 0.0000 20.5203 0.0000
# 6 0.0000 0.0000 0.0000 -86.4673 0.0000 279.7420
#
#
#
# Elastic Compliance Matrix: (Units=1/GPa)
#
#
# Indices 1 2 3 4 5 6 
#
# 1 0.011439 -0.002565 -0.002558 0.000000 -0.002020 0.000000
# 2 -0.002565 0.021903 -0.009756 0.000000 0.010772 0.000000
# 3 -0.002558 -0.009756 0.017828 0.000000 -0.009138 0.000000
# 4 0.000000 0.000000 0.000000 0.044828 0.000000 0.013856
# 5 -0.002020 0.010772 -0.009138 0.000000 0.055802 0.000000
# 6 0.000000 0.000000 0.000000 0.013856 0.000000 0.007858
#
#
# Mechanical properties :
#
#
# Convention : Reuss Voigt Hill
#
# Bulk Modulus (GPa) = 46.70437 47.60581 47.15509
# Shear Modulus (GPa) = 25.43831 80.77241 53.10536
#
# Velocity S-wave (km/s) = 3.77757 6.73132 5.45805
# Velocity P-wave (km/s) = 6.72505 9.33378 8.13468
#
# Compressibility (1/GPa) = 0.02141127
#
# Stress axis : x y z
#
# Youngs Moduli (GPa) = 87.41667 45.65602 56.09286
#
# Poissons Ratio (x) = 0.11712 0.14348
# Poissons Ratio (y) = 0.22426 0.54725
# Poissons Ratio (z) = 0.22360 0.44542
#
# Static dielectric constant tensor:
#      x y z
#    x 3.456260 0.000000 -0.036320 
#    y 0.000000 3.272110 0.000000 
#    z -0.036320 0.000000 3.225990 
# 
# 
# High freq. dielectric constant tensor:
#      x y z
#    x 1.692250 0.000000 -0.017470 
#    y 0.000000 1.675830 0.000000 
#    z -0.017470 0.000000 1.677550 
# 
# From -- ./inp_files/80745.got.cif
#   From: 2010.06.25/outbox.cif.g09.slc.cpg/sg12_41_cif.got.tgz:80745.got - 2010.06.28 00:19:55.
