data_PCOD8105359
_publ_section_title
;
Structure prediction by ZEFSAII (Michael W. Deem and Ramdas Pophale) SiO2 
 PCOD8105359
Probable space group: C 2/M
;
_chemical_formula_sum "Si O2"
_cell_formula_units_Z 64
_cell_length_a 22.757433
_cell_length_b 9.423308
_cell_length_c 16.433051
_cell_angle_alpha 90.000000
_cell_angle_beta 86.941749
_cell_angle_gamma 90.000000
_cell_volume 3519.053776
_symmetry_space_group_name_H-M "C 2/M"
_symmetry_group_IT_number 12
_symmetry_cell_setting 'monoclinic'
loop_
_space_group_symop_operation_xyz
x,y,z
-x,y,-z
-x,-y,-z
x,-y,z
1/2+x,1/2+y,z
1/2-x,1/2+y,-z
1/2-x,1/2-y,-z
1/2+x,1/2-y,z
loop_
_atom_site_type_symbol
_atom_site_label
_atom_site_fract_x
_atom_site_fract_y
_atom_site_fract_z
Si Si1 0.521101 0.667670 0.414779
Si Si2 0.341773 0.836722 0.270373
Si Si3 0.139790 0.832691 0.330122
Si Si4 0.246842 0.331515 0.585493
Si Si5 0.921299 0.168254 0.824615
Si Si6 0.214377 0.662265 0.892927
Si Si7 0.164317 0.834391 0.034423
Si Si8 0.459012 0.332116 0.257850
O O1 0.500000 0.740019 0.500000
O O2 0.514446 0.500000 0.419195
O O3 0.588839 0.709351 0.397523
O O4 0.480179 0.721422 0.344593
O O5 0.312701 0.795787 0.359578
O O6 0.294107 0.810069 0.202342
O O7 0.398049 0.743647 0.243393
O O8 0.361410 0.000000 0.270273
O O9 0.200392 0.772185 0.361602
O O10 0.120711 0.768296 0.243870
O O11 0.146753 0.000000 0.320605
O O12 0.252405 0.500000 0.568782
O O13 0.250000 0.250000 0.500000
O O14 0.894986 0.214467 0.913778
O O15 0.989609 0.215218 0.809862
O O16 0.918913 0.000000 0.814449
O O17 0.202092 0.500000 0.916397
O O18 0.280745 0.705028 0.911437
O O19 0.167841 0.753092 0.948836
O O20 0.162505 0.000000 0.014571
O O21 0.448553 0.500000 0.254999
#
# Coordination Sequence:
#
# PCOD8105359 Si02
#       8
#     8   8   8   8   8   8   8   8
#     4   8  14  24  43  71  94 112 149 205 248 274
#     4  10  21  36  50  67 101 139 164 190 236 300
#     4   8  14  26  45  68  93 120 154 194 238 286
#     4  10  21  34  50  72  96 127 163 198 240 288
#     4   8  14  28  50  76  98 120 158 208 250 283
#     4   9  18  32  50  74 101 132 164 194 239 298
#     4   9  16  29  53  78 100 122 157 209 253 284
#     4   9  18  31  50  74  96 124 165 207 244 285
#
# _framework density 18.186707999999999
#
# number of rings (size 3 to 8) (size 9 to 14) (size 15 to 20)
#    0.000    3.125    0.000    2.250    1.750    4.000 
#    0.000    1.250    0.000    9.375    0.000    0.000 
#    0.000    0.000    0.000    0.000    0.000    0.000 
#
# Total GULP energy -396544.960401 kJ/mol
# GULP energy per Si atom -12392.030013 kJ/mol
# Density = 1.814531 g / cm^3
# Si number density = 18.186708 Si / 1000 Ang^3
#
#
#
# Elastic Constant Matrix: (Units=GPa)
#
#
# Indices 1 2 3 4 5 6 
#
# 1 86.4696 28.0060 30.0879 0.0000 -11.3794 0.0000
# 2 28.0060 34.4394 29.7254 0.0000 -5.6154 0.0000
# 3 30.0879 29.7254 91.6524 0.0000 -22.6069 0.0000
# 4 0.0000 0.0000 0.0000 24.0949 0.0000 0.4819
# 5 -11.3794 -5.6154 -22.6069 0.0000 28.0765 0.0000
# 6 0.0000 0.0000 0.0000 0.4819 0.0000 20.3513
#
#
#
# Elastic Compliance Matrix: (Units=1/GPa)
#
#
# Indices 1 2 3 4 5 6 
#
# 1 0.016143 -0.012139 -0.000433 0.000000 0.003766 0.000000
# 2 -0.012139 0.049667 -0.013585 0.000000 -0.005925 0.000000
# 3 -0.000433 -0.013585 0.018400 0.000000 0.011923 0.000000
# 4 0.000000 0.000000 0.000000 0.041522 0.000000 -0.000983
# 5 0.003766 -0.005925 0.011923 0.000000 0.045558 0.000000
# 6 0.000000 0.000000 0.000000 -0.000983 0.000000 0.049160
#
#
# Mechanical properties :
#
#
# Convention : Reuss Voigt Hill
#
# Bulk Modulus (GPa) = 31.35267 43.13334 37.24301
# Shear Modulus (GPa) = 17.64307 22.82067 20.23187
#
# Velocity S-wave (km/s) = 3.11803 3.54616 3.33896
# Velocity P-wave (km/s) = 5.49906 6.36674 5.94874
#
# Compressibility (1/GPa) = 0.03189521
#
# Stress axis : x y z
#
# Youngs Moduli (GPa) = 61.94707 20.13394 54.34820
#
# Poissons Ratio (x) = 0.24441 0.02356
# Poissons Ratio (y) = 0.75198 0.73831
# Poissons Ratio (z) = 0.02685 0.27352
#
# Static dielectric constant tensor:
#      x y z
#    x 3.456110 0.000000 -0.182480 
#    y 0.000000 2.894030 0.000000 
#    z -0.182480 0.000000 3.596280 
# 
# 
# High freq. dielectric constant tensor:
#      x y z
#    x 1.705310 0.000000 -0.013160 
#    y 0.000000 1.651590 0.000000 
#    z -0.013160 0.000000 1.707230 
# 
# From -- ./inp_files/281395.got.cif
#   From: 2010.06.25/outbox.cif.g09.slc.cpg/sg12_141_cif.got.tgz:281395.got - 2010.06.28 00:19:55.
