data_PCOD8105000
_publ_section_title
;
Structure prediction by ZEFSAII (Michael W. Deem and Ramdas Pophale) SiO2 
 PCOD8105000
Probable space group: C 2/M
;
_chemical_formula_sum "Si O2"
_cell_formula_units_Z 56
_cell_length_a 32.314868
_cell_length_b 9.153083
_cell_length_c 22.411968
_cell_angle_alpha 90.000000
_cell_angle_beta 25.590880
_cell_angle_gamma 90.000000
_cell_volume 2863.356424
_symmetry_space_group_name_H-M "C 2/M"
_symmetry_group_IT_number 12
_symmetry_cell_setting 'monoclinic'
loop_
_space_group_symop_operation_xyz
x,y,z
-x,y,-z
-x,-y,-z
x,-y,z
1/2+x,1/2+y,z
1/2-x,1/2+y,-z
1/2-x,1/2-y,-z
1/2+x,1/2-y,z
loop_
_atom_site_type_symbol
_atom_site_label
_atom_site_fract_x
_atom_site_fract_y
_atom_site_fract_z
Si Si1 0.464047 0.164245 0.642728
Si Si2 0.107851 0.829863 0.841660
Si Si3 0.328878 0.171838 0.130327
Si Si4 0.343419 0.669304 0.355418
Si Si5 0.650554 0.671897 0.113675
Si Si6 0.950119 0.829866 0.878328
Si Si7 0.148288 0.335464 0.332949
O O1 0.431395 0.281209 0.733720
O O2 0.401445 0.182656 0.665516
O O3 0.574307 0.194465 0.482932
O O4 0.451684 0.000000 0.684317
O O5 0.175356 0.737281 0.797662
O O6 0.130219 0.778810 0.745559
O O7 0.129947 0.000000 0.821832
O O8 0.000000 0.791694 0.000000
O O9 0.230201 0.214954 0.226989
O O10 0.340691 0.000000 0.117451
O O11 0.416102 0.238381 0.979354
O O12 0.317842 0.500000 0.389039
O O13 0.250000 0.750000 0.500000
O O14 0.435892 0.701343 0.277550
O O15 0.667674 0.500000 0.095539
O O16 0.610949 0.716811 0.100148
O O17 0.750000 0.750000 0.000000
O O18 0.934453 0.000000 0.913648
O O19 0.190288 0.500000 0.284176
#
# Coordination Sequence:
#
# PCOD8105000 Si02
#       7
#     8   8   8   8   8   8   8
#     4   9  19  37  59  81 111 151 197 244 287 343
#     4  10  20  40  66  85 112 157 200 235 286 360
#     4  12  24  35  57  92 121 146 190 251 299 339
#     4  10  22  41  65  90 119 158 200 247 301 356
#     4  11  23  37  58  85 118 156 196 243 295 352
#     4  10  22  42  61  80 114 162 203 237 290 365
#     4   9  19  37  59  82 112 154 195 234 290 358
#
# _framework density 19.557466999999999
#
# number of rings (size 3 to 8) (size 9 to 14) (size 15 to 20)
#    0.000    1.857    1.429    3.429    0.000    8.286 
#    0.000    4.286    0.000    0.000    0.000    0.000 
#    0.000    0.000    0.000    0.000    0.000    0.000 
#
# Total GULP energy -347222.944501 kJ/mol
# GULP energy per Si atom -12400.819446 kJ/mol
# Density = 1.951295 g / cm^3
# Si number density = 19.557467 Si / 1000 Ang^3
#
#
#
# Elastic Constant Matrix: (Units=GPa)
#
#
# Indices 1 2 3 4 5 6 
#
# 1 98.4235 49.6907 50.2563 -0.0030 0.7287 0.0017
# 2 49.6907 75.5098 48.5780 0.0044 2.5149 0.0004
# 3 50.2563 48.5780 118.3610 -0.0242 1.5581 0.0014
# 4 -0.0030 0.0044 -0.0242 38.3309 0.0051 0.7903
# 5 0.7287 2.5149 1.5581 0.0051 32.8135 -0.0013
# 6 0.0017 0.0004 0.0014 0.7903 -0.0013 27.1086
#
#
#
# Elastic Compliance Matrix: (Units=1/GPa)
#
#
# Indices 1 2 3 4 5 6 
#
# 1 0.016166 -0.008470 -0.003394 0.000000 0.000451 -0.000001
# 2 -0.008470 0.022467 -0.005608 -0.000007 -0.001268 0.000001
# 3 -0.003394 -0.005608 0.012192 0.000008 -0.000074 -0.000001
# 4 0.000000 -0.000007 0.000008 0.026104 -0.000004 -0.000761
# 5 0.000451 -0.001268 -0.000074 -0.000004 0.030566 0.000002
# 6 -0.000001 0.000001 -0.000001 -0.000761 0.000002 0.036911
#
#
# Mechanical properties :
#
#
# Convention : Reuss Voigt Hill
#
# Bulk Modulus (GPa) = 62.96441 65.48270 64.22355
# Shear Modulus (GPa) = 27.07911 29.23521 28.15716
#
# Velocity S-wave (km/s) = 3.72505 3.87051 3.79847
# Velocity P-wave (km/s) = 7.12501 7.31637 7.22132
#
# Compressibility (1/GPa) = 0.01588199
#
# Stress axis : x y z
#
# Youngs Moduli (GPa) = 61.85826 44.50929 82.01881
#
# Poissons Ratio (x) = 0.37700 0.27835
# Poissons Ratio (y) = 0.52394 0.45996
# Poissons Ratio (z) = 0.20993 0.24961
#
# Static dielectric constant tensor:
#      x y z
#    x 3.682700 -0.000010 0.010850 
#    y -0.000010 3.451620 0.000030 
#    z 0.010850 0.000030 3.633490 
# 
# 
# High freq. dielectric constant tensor:
#      x y z
#    x 1.766330 0.000000 -0.003490 
#    y 0.000000 1.749790 0.000000 
#    z -0.003490 0.000000 1.765720 
# 
# From -- ./inp_files/329438.got.cif
#   From: 2010.06.25/outbox.cif.g09.slc.cpg/sg12_165_cif.got.tgz:329438.got - 2010.06.28 00:19:55.
