data_PCOD8105912
_publ_section_title
;
Structure prediction by ZEFSAII (Michael W. Deem and Ramdas Pophale) SiO2 
 PCOD8105912
Probable space group: C 2/M
;
_chemical_formula_sum "Si O2"
_cell_formula_units_Z 64
_cell_length_a 23.335376
_cell_length_b 8.980036
_cell_length_c 24.813447
_cell_angle_alpha 90.000000
_cell_angle_beta 42.865271
_cell_angle_gamma 90.000000
_cell_volume 3537.248665
_symmetry_space_group_name_H-M "C 2/M"
_symmetry_group_IT_number 12
_symmetry_cell_setting 'monoclinic'
loop_
_space_group_symop_operation_xyz
x,y,z
-x,y,-z
-x,-y,-z
x,-y,z
1/2+x,1/2+y,z
1/2-x,1/2+y,-z
1/2-x,1/2-y,-z
1/2+x,1/2-y,z
loop_
_atom_site_type_symbol
_atom_site_label
_atom_site_fract_x
_atom_site_fract_y
_atom_site_fract_z
Si Si1 0.802483 0.175798 0.635640
Si Si2 0.885561 0.328190 0.674555
Si Si3 0.162124 0.829302 0.569181
Si Si4 0.355817 0.174933 0.815263
Si Si5 0.578025 0.171896 0.533416
Si Si6 0.796610 0.827886 0.015448
Si Si7 0.951428 0.174718 0.847669
Si Si8 0.637954 0.670319 0.710924
O O1 0.824032 0.229139 0.680818
O O2 0.866441 0.250646 0.550106
O O3 0.707211 0.222083 0.688479
O O4 0.811489 0.000000 0.624953
O O5 0.856374 0.500000 0.691878
O O6 0.879262 0.266214 0.739821
O O7 0.980027 0.311903 0.586658
O O8 0.250000 0.750000 0.500000
O O9 0.092328 0.747978 0.581230
O O10 0.134065 0.814488 0.649601
O O11 0.170325 0.000000 0.545107
O O12 0.255175 0.212805 0.894348
O O13 0.415055 0.248963 0.819142
O O14 0.373227 0.000000 0.806656
O O15 0.605773 0.000000 0.517490
O O16 0.786405 0.000000 0.011359
O O17 0.750000 0.750000 0.000000
O O18 0.895869 0.785681 0.940142
O O19 0.046705 0.225155 0.795024
O O20 0.951276 0.000000 0.835137
O O21 0.657797 0.500000 0.714111
#
# Coordination Sequence:
#
# PCOD8105912 Si02
#       8
#     8   8   8   8   8   8   8   8
#     4  12  25  38  54  73  96 131 175 220 260 302
#     4  10  22  38  55  74 100 135 172 211 256 303
#     4  11  21  33  52  76 103 136 170 209 255 302
#     4   9  17  31  52  79 108 137 165 202 250 301
#     4  11  22  37  56  76 101 133 169 212 260 309
#     4   8  14  26  47  76 108 135 163 197 243 298
#     4   9  17  30  51  80 109 137 166 203 247 298
#     4  10  21  36  53  73 103 139 172 207 253 303
#
# _framework density 18.093159
#
# number of rings (size 3 to 8) (size 9 to 14) (size 15 to 20)
#    0.000    2.000    1.250    3.000    0.000    4.000 
#    0.000    0.000    0.000    0.750    0.000    5.250 
#    0.000    0.000    0.000    0.000    0.000    0.000 
#
# Total GULP energy -396619.323019 kJ/mol
# GULP energy per Si atom -12394.353844 kJ/mol
# Density = 1.805198 g / cm^3
# Si number density = 18.093159 Si / 1000 Ang^3
#
#
#
# Elastic Constant Matrix: (Units=GPa)
#
#
# Indices 1 2 3 4 5 6 
#
# 1 86.3953 43.9776 44.0219 -0.0001 -2.6824 -0.0001
# 2 43.9776 87.3625 36.8389 -0.0008 -5.3790 0.0011
# 3 44.0219 36.8389 118.7524 0.0000 -23.2090 0.0000
# 4 -0.0001 -0.0008 0.0000 18.3650 0.0000 1.9174
# 5 -2.6824 -5.3790 -23.2090 0.0000 18.0255 0.0000
# 6 -0.0001 0.0011 0.0000 1.9174 0.0000 29.1569
#
#
#
# Elastic Compliance Matrix: (Units=1/GPa)
#
#
# Indices 1 2 3 4 5 6 
#
# 1 0.017869 -0.006970 -0.005811 0.000000 -0.006903 0.000000
# 2 -0.006970 0.015931 -0.002180 0.000001 0.000909 -0.000001
# 3 -0.005811 -0.002180 0.014639 0.000000 0.017333 0.000000
# 4 0.000000 0.000001 0.000000 0.054828 0.000000 -0.003606
# 5 -0.006903 0.000909 0.017333 0.000000 0.077039 0.000000
# 6 0.000000 -0.000001 0.000000 -0.003606 0.000000 0.034534
#
#
# Mechanical properties :
#
#
# Convention : Reuss Voigt Hill
#
# Bulk Modulus (GPa) = 54.00729 60.24300 57.12514
# Shear Modulus (GPa) = 19.92549 24.28760 22.10655
#
# Velocity S-wave (km/s) = 3.32214 3.66780 3.49924
# Velocity P-wave (km/s) = 6.68056 7.16277 6.92586
#
# Compressibility (1/GPa) = 0.01851602
#
# Stress axis : x y z
#
# Youngs Moduli (GPa) = 55.96209 62.77245 68.30994
#
# Poissons Ratio (x) = 0.43751 0.39696
# Poissons Ratio (y) = 0.39005 0.14895
# Poissons Ratio (z) = 0.32520 0.13687
#
# Static dielectric constant tensor:
#      x y z
#    x 3.190920 -0.000010 -0.022430 
#    y -0.000010 3.752110 0.000000 
#    z -0.022430 0.000000 4.091210 
# 
# 
# High freq. dielectric constant tensor:
#      x y z
#    x 1.676530 0.000000 -0.013420 
#    y 0.000000 1.701400 0.000000 
#    z -0.013420 0.000000 1.710830 
# 
# From -- ./inp_files/346051.got.cif
#   From: 2010.06.25/outbox.cif.g09.slc.cpg/sg12_174_cif.got.tgz:346051.got - 2010.06.28 00:19:55.
