data_PCOD8105698
_publ_section_title
;
Structure prediction by ZEFSAII (Michael W. Deem and Ramdas Pophale) SiO2 
 PCOD8105698
Probable space group: C 2/M
;
_chemical_formula_sum "Si O2"
_cell_formula_units_Z 48
_cell_length_a 23.348469
_cell_length_b 9.188461
_cell_length_c 14.758173
_cell_angle_alpha 90.000000
_cell_angle_beta 130.466282
_cell_angle_gamma 90.000000
_cell_volume 2408.781745
_symmetry_space_group_name_H-M "C 2/M"
_symmetry_group_IT_number 12
_symmetry_cell_setting 'monoclinic'
loop_
_space_group_symop_operation_xyz
x,y,z
-x,y,-z
-x,-y,-z
x,-y,z
1/2+x,1/2+y,z
1/2-x,1/2+y,-z
1/2-x,1/2-y,-z
1/2+x,1/2-y,z
loop_
_atom_site_type_symbol
_atom_site_label
_atom_site_fract_x
_atom_site_fract_y
_atom_site_fract_z
Si Si1 0.867599 0.834227 0.934550
Si Si2 0.701618 0.827875 0.710692
Si Si3 0.021406 0.833703 0.799630
Si Si4 0.439418 0.670405 0.361455
Si Si5 0.081930 0.661177 0.174939
Si Si6 0.248150 0.836812 0.590183
O O1 0.780436 0.786509 0.840631
O O2 0.924186 0.743473 0.927732
O O3 0.874572 0.000000 0.908673
O O4 0.897756 0.812719 0.067719
O O5 0.635470 0.764780 0.704197
O O6 0.695858 0.750963 0.606813
O O7 0.692026 0.000000 0.688515
O O8 0.027346 0.784508 0.701806
O O9 0.957856 0.740084 0.782745
O O10 0.994934 0.000000 0.778403
O O11 0.500000 0.711983 0.500000
O O12 0.418558 0.500000 0.343566
O O13 0.047700 0.500000 0.129269
O O14 0.169280 0.653980 0.285804
O O15 0.250000 0.750000 0.500000
O O16 0.215124 0.000000 0.542034
#
# Coordination Sequence:
#
# PCOD8105698 Si02
#       6
#     8   8   8   8   8   8
#     4   9  19  37  59  84 114 149 189 230 283 344
#     4  10  21  38  59  83 112 147 188 238 286 333
#     4  10  21  37  58  82 113 155 194 230 279 340
#     4  10  23  41  58  81 112 151 194 237 284 338
#     4  10  21  35  54  86 120 146 182 234 286 334
#     4  10  21  36  56  83 114 150 189 232 283 337
#
# _framework density 19.927087
#
# number of rings (size 3 to 8) (size 9 to 14) (size 15 to 20)
#    0.000    2.167    0.000    2.000    2.333    7.000 
#    0.000    0.000    0.000    0.000    0.000    0.000 
#    0.000    0.000    0.000    0.000    0.000    0.000 
#
# Total GULP energy -297637.482884 kJ/mol
# GULP energy per Si atom -12401.561787 kJ/mol
# Density = 1.988173 g / cm^3
# Si number density = 19.927087 Si / 1000 Ang^3
#
#
#
# Elastic Constant Matrix: (Units=GPa)
#
#
# Indices 1 2 3 4 5 6 
#
# 1 114.2736 61.6111 41.7266 0.0000 -17.7052 0.0000
# 2 61.6111 113.2610 43.6125 0.0000 -14.1432 0.0000
# 3 41.7266 43.6125 112.1601 0.0000 -27.1911 0.0000
# 4 0.0000 0.0000 0.0000 19.9689 0.0000 -4.2944
# 5 -17.7052 -14.1432 -27.1911 0.0000 26.4652 0.0000
# 6 0.0000 0.0000 0.0000 -4.2944 0.0000 40.4194
#
#
#
# Elastic Compliance Matrix: (Units=1/GPa)
#
#
# Indices 1 2 3 4 5 6 
#
# 1 0.013229 -0.006088 -0.001595 0.000000 0.003958 0.000000
# 2 -0.006088 0.013255 -0.002876 0.000000 0.000056 0.000000
# 3 -0.001595 -0.002876 0.013312 0.000000 0.011073 0.000000
# 4 0.000000 0.000000 0.000000 0.051249 0.000000 0.005445
# 5 0.003958 0.000056 0.011073 0.000000 0.051841 0.000000
# 6 0.000000 0.000000 0.000000 0.005445 0.000000 0.025319
#
#
# Mechanical properties :
#
#
# Convention : Reuss Voigt Hill
#
# Bulk Modulus (GPa) = 53.53483 70.39945 61.96714
# Shear Modulus (GPa) = 25.56933 30.22034 27.89483
#
# Velocity S-wave (km/s) = 3.58599 3.89851 3.74551
# Velocity P-wave (km/s) = 6.63848 7.46121 7.06184
#
# Compressibility (1/GPa) = 0.01867943
#
# Stress axis : x y z
#
# Youngs Moduli (GPa) = 75.59288 75.44259 75.12164
#
# Poissons Ratio (x) = 0.45928 0.11979
# Poissons Ratio (y) = 0.46019 0.21602
# Poissons Ratio (z) = 0.12055 0.21695
#
# Static dielectric constant tensor:
#      x y z
#    x 3.496040 0.000000 0.034230 
#    y 0.000000 3.855180 0.000000 
#    z 0.034230 0.000000 3.765400 
# 
# 
# High freq. dielectric constant tensor:
#      x y z
#    x 1.770840 0.000000 0.003020 
#    y 0.000000 1.781040 0.000000 
#    z 0.003020 0.000000 1.781860 
# 
# From -- ./inp_files/173055.got.cif
#   From: 2010.06.25/outbox.cif.g09.slc.cpg/sg12_87_cif.got.tgz:173055.got - 2010.06.28 00:19:55.
