data_PCOD8105222
_publ_section_title
;
Structure prediction by ZEFSAII (Michael W. Deem and Ramdas Pophale) SiO2 
 PCOD8105222
Probable space group: C 2/M
;
_chemical_formula_sum "Si O2"
_cell_formula_units_Z 40
_cell_length_a 8.704002
_cell_length_b 26.602132
_cell_length_c 18.004227
_cell_angle_alpha 90.000000
_cell_angle_beta 148.256733
_cell_angle_gamma 90.000000
_cell_volume 2193.258185
_symmetry_space_group_name_H-M "C 2/M"
_symmetry_group_IT_number 12
_symmetry_cell_setting 'monoclinic'
loop_
_space_group_symop_operation_xyz
x,y,z
-x,y,-z
-x,-y,-z
x,-y,z
1/2+x,1/2+y,z
1/2-x,1/2+y,-z
1/2-x,1/2-y,-z
1/2+x,1/2-y,z
loop_
_atom_site_type_symbol
_atom_site_label
_atom_site_fract_x
_atom_site_fract_y
_atom_site_fract_z
Si Si1 0.655079 0.944971 0.353577
Si Si2 0.528026 0.782286 0.095298
Si Si3 0.600055 0.123080 0.459427
Si Si4 0.265438 0.850348 0.699465
Si Si5 0.564833 0.783340 0.365762
O O1 0.534540 0.926411 0.383728
O O2 0.579717 0.902524 0.261590
O O3 0.000000 0.949562 0.500000
O O4 0.519703 0.000000 0.278689
O O5 0.538151 0.830871 0.152148
O O6 0.819149 0.749922 0.226578
O O7 0.500000 0.801647 0.000000
O O8 0.250000 0.750000 0.000000
O O9 0.500000 0.109185 0.500000
O O10 0.419854 0.171358 0.354548
O O11 0.937959 0.139736 0.592597
O O12 0.253212 0.809484 0.627099
O O13 0.750000 0.750000 0.500000
#
# Coordination Sequence:
#
# PCOD8105222 Si02
#       5
#     8   8   8   8   8
#     4   8  16  34  57  80 109 142 184 238 290 333
#     4  12  25  37  52  80 117 157 189 232 276 329
#     4  10  21  30  53  86 111 145 187 233 276 334
#     4  10  21  38  53  81 113 148 192 226 282 341
#     4  11  22  35  57  77 112 157 190 226 273 337
#
# _framework density 18.237705999999999
#
# number of rings (size 3 to 8) (size 9 to 14) (size 15 to 20)
#    0.000    1.800    4.000    1.800    5.600    0.400 
#    0.000    0.000    0.000    0.600    0.000   11.200 
#    0.000    0.000    0.000    0.000    0.000    0.000 
#
# Total GULP energy -247811.645331 kJ/mol
# GULP energy per Si atom -12390.582267 kJ/mol
# Density = 1.819620 g / cm^3
# Si number density = 18.237706 Si / 1000 Ang^3
#
#
#
# Elastic Constant Matrix: (Units=GPa)
#
#
# Indices 1 2 3 4 5 6 
#
# 1 136.7320 64.4071 38.9781 0.0065 -28.1911 0.0020
# 2 64.4071 158.2852 48.9782 -0.0056 -25.5547 -0.0021
# 3 38.9781 48.9782 85.9885 0.0408 -21.2606 0.0130
# 4 0.0065 -0.0056 0.0408 16.6442 0.0055 -7.0902
# 5 -28.1911 -25.5547 -21.2606 0.0055 32.7818 0.0021
# 6 0.0020 -0.0021 0.0130 -7.0902 0.0021 16.0115
#
#
#
# Elastic Compliance Matrix: (Units=1/GPa)
#
#
# Indices 1 2 3 4 5 6 
#
# 1 0.010237 -0.002740 -0.001704 -0.000004 0.005562 -0.000003
# 2 -0.002740 0.008810 -0.003169 0.000016 0.002456 0.000011
# 3 -0.001704 -0.003169 0.015761 -0.000058 0.006286 -0.000040
# 4 -0.000004 0.000016 -0.000058 0.074050 -0.000043 0.032791
# 5 0.005562 0.002456 0.006286 -0.000043 0.041279 -0.000030
# 6 -0.000003 0.000011 -0.000040 0.032791 -0.000030 0.076976
#
#
# Mechanical properties :
#
#
# Convention : Reuss Voigt Hill
#
# Bulk Modulus (GPa) = 51.06847 76.19249 63.63048
# Shear Modulus (GPa) = 20.09117 28.33030 24.21073
#
# Velocity S-wave (km/s) = 3.32268 3.94559 3.64745
# Velocity P-wave (km/s) = 6.54084 7.91360 7.25974
#
# Compressibility (1/GPa) = 0.01958155
#
# Stress axis : x y z
#
# Youngs Moduli (GPa) = 97.68567 113.51190 63.44729
#
# Poissons Ratio (x) = 0.31103 0.10814
# Poissons Ratio (y) = 0.26767 0.20104
# Poissons Ratio (z) = 0.16650 0.35967
#
# Static dielectric constant tensor:
#      x y z
#    x 3.596580 -0.000550 -0.417860 
#    y -0.000550 3.888590 0.000310 
#    z -0.417860 0.000310 3.102180 
# 
# 
# High freq. dielectric constant tensor:
#      x y z
#    x 1.714170 0.000000 -0.016030 
#    y 0.000000 1.703650 0.000000 
#    z -0.016030 0.000000 1.670180 
# 
# From -- ./inp_files/40523.got.cif
#   From: 2010.06.25/outbox.cif.g09.slc.cpg/sg12_21_cif.got.tgz:40523.got - 2010.06.28 00:19:55.
