data_PCOD8105654
_publ_section_title
;
Structure prediction by ZEFSAII (Michael W. Deem and Ramdas Pophale) SiO2 
 PCOD8105654
Probable space group: C 2/M
;
_chemical_formula_sum "Si O2"
_cell_formula_units_Z 56
_cell_length_a 20.183692
_cell_length_b 9.296945
_cell_length_c 21.173319
_cell_angle_alpha 90.000000
_cell_angle_beta 133.175955
_cell_angle_gamma 90.000000
_cell_volume 2897.408503
_symmetry_space_group_name_H-M "C 2/M"
_symmetry_group_IT_number 12
_symmetry_cell_setting 'monoclinic'
loop_
_space_group_symop_operation_xyz
x,y,z
-x,y,-z
-x,-y,-z
x,-y,z
1/2+x,1/2+y,z
1/2-x,1/2+y,-z
1/2-x,1/2-y,-z
1/2+x,1/2-y,z
loop_
_atom_site_type_symbol
_atom_site_label
_atom_site_fract_x
_atom_site_fract_y
_atom_site_fract_z
Si Si1 0.479744 0.661249 0.181201
Si Si2 0.329649 0.340984 0.626027
Si Si3 0.747203 0.834490 0.763204
Si Si4 0.945060 0.835063 0.585628
Si Si5 0.092558 0.665174 0.754412
Si Si6 0.952144 0.828508 0.906241
Si Si7 0.186305 0.833124 0.605632
O O1 0.438928 0.500000 0.154568
O O2 0.580498 0.660417 0.273479
O O3 0.414555 0.759069 0.181978
O O4 0.488052 0.722063 0.115080
O O5 0.284529 0.500000 0.600733
O O6 0.357338 0.303477 0.572453
O O7 0.263755 0.220110 0.608845
O O8 0.695729 0.819361 0.796704
O O9 0.848634 0.769737 0.835438
O O10 0.688863 0.750180 0.673043
O O11 0.751356 0.000000 0.744065
O O12 0.911868 0.808561 0.492077
O O13 0.027484 0.732861 0.658537
O O14 0.977334 0.000000 0.616689
O O15 0.064376 0.500000 0.744579
O O16 0.948403 0.000000 0.906009
O O17 0.000000 0.765648 0.000000
O O18 0.202728 0.000000 0.629913
#
# Coordination Sequence:
#
# PCOD8105654 Si02
#       7
#     8   8   8   8   8   8   8
#     4   9  17  33  57  81 107 140 176 218 262 311
#     4   9  16  30  50  72 104 142 177 218 264 309
#     4  10  21  38  55  77 109 141 177 220 267 317
#     4   9  20  35  49  71 106 145 184 222 258 308
#     4  10  21  35  54  77 107 146 181 218 263 313
#     4   9  17  34  62  87 104 133 178 217 256 319
#     4  11  21  31  49  77 106 140 181 225 269 308
#
# _framework density 19.327617
#
# number of rings (size 3 to 8) (size 9 to 14) (size 15 to 20)
#    0.000    2.429    1.429    2.143    0.000    5.143 
#    0.000    3.571    0.000    1.714    0.000    0.000 
#    0.000    0.000    0.000    0.000    0.000    0.000 
#
# Total GULP energy -347112.096984 kJ/mol
# GULP energy per Si atom -12396.860607 kJ/mol
# Density = 1.928363 g / cm^3
# Si number density = 19.327617 Si / 1000 Ang^3
#
#
#
# Elastic Constant Matrix: (Units=GPa)
#
#
# Indices 1 2 3 4 5 6 
#
# 1 98.2735 47.9361 51.9568 0.0000 -11.4496 0.0000
# 2 47.9361 81.9969 32.2712 0.0000 -9.0439 0.0000
# 3 51.9568 32.2712 89.4321 0.0000 -32.1644 0.0000
# 4 0.0000 0.0000 0.0000 16.3090 0.0000 -6.4169
# 5 -11.4496 -9.0439 -32.1644 0.0000 18.8858 0.0000
# 6 0.0000 0.0000 0.0000 -6.4169 0.0000 28.3052
#
#
#
# Elastic Compliance Matrix: (Units=1/GPa)
#
#
# Indices 1 2 3 4 5 6 
#
# 1 0.019723 -0.007569 -0.014788 0.000000 -0.016854 0.000000
# 2 -0.007569 0.017302 -0.001334 0.000000 0.001426 0.000000
# 3 -0.014788 -0.001334 0.043358 0.000000 0.064238 0.000000
# 4 0.000000 0.000000 0.000000 0.067321 0.000000 0.015262
# 5 -0.016854 0.001426 0.064238 0.000000 0.152819 0.000000
# 6 0.000000 0.000000 0.000000 0.015262 0.000000 0.038789
#
#
# Mechanical properties :
#
#
# Convention : Reuss Voigt Hill
#
# Bulk Modulus (GPa) = 30.30158 59.33674 44.81916
# Shear Modulus (GPa) = 12.57249 21.86922 17.22085
#
# Velocity S-wave (km/s) = 2.55324 3.36743 2.98820
# Velocity P-wave (km/s) = 4.94004 6.77396 5.92835
#
# Compressibility (1/GPa) = 0.03300158
#
# Stress axis : x y z
#
# Youngs Moduli (GPa) = 50.70351 57.79550 23.06391
#
# Poissons Ratio (x) = 0.43743 0.34108
# Poissons Ratio (y) = 0.38376 0.03076
# Poissons Ratio (z) = 0.74982 0.07707
#
# Static dielectric constant tensor:
#      x y z
#    x 3.564710 0.000000 -0.240540 
#    y 0.000000 3.378670 0.000000 
#    z -0.240540 0.000000 3.510720 
# 
# 
# High freq. dielectric constant tensor:
#      x y z
#    x 1.752800 0.000000 -0.017330 
#    y 0.000000 1.732310 0.000000 
#    z -0.017330 0.000000 1.732990 
# 
# From -- ./inp_files/319647.got.cif
#   From: 2010.06.25/outbox.cif.g09.slc.cpg/sg12_160_cif.got.tgz:319647.got - 2010.06.28 00:19:55.
