data_PCOD8105370
_publ_section_title
;
Structure prediction by ZEFSAII (Michael W. Deem and Ramdas Pophale) SiO2 
 PCOD8105370
Probable space group: C 2/M
;
_chemical_formula_sum "Si O2"
_cell_formula_units_Z 56
_cell_length_a 27.124380
_cell_length_b 9.463402
_cell_length_c 15.150479
_cell_angle_alpha 90.000000
_cell_angle_beta 50.835554
_cell_angle_gamma 90.000000
_cell_volume 3015.252749
_symmetry_space_group_name_H-M "C 2/M"
_symmetry_group_IT_number 12
_symmetry_cell_setting 'monoclinic'
loop_
_space_group_symop_operation_xyz
x,y,z
-x,y,-z
-x,-y,-z
x,-y,z
1/2+x,1/2+y,z
1/2-x,1/2+y,-z
1/2-x,1/2-y,-z
1/2+x,1/2-y,z
loop_
_atom_site_type_symbol
_atom_site_label
_atom_site_fract_x
_atom_site_fract_y
_atom_site_fract_z
Si Si1 0.206870 0.837100 0.943610
Si Si2 0.807297 0.152490 0.414544
Si Si3 0.152485 0.153167 0.819682
Si Si4 0.467880 0.665704 0.629809
Si Si5 0.551665 0.664683 0.703857
Si Si6 0.546471 0.845742 0.867953
Si Si7 0.848427 0.332351 0.840047
O O1 0.193173 0.801983 0.857921
O O2 0.281300 0.801343 0.868972
O O3 0.193561 0.000000 0.984493
O O4 0.159248 0.739584 0.055127
O O5 0.750000 0.250000 0.500000
O O6 0.802465 0.135513 0.315093
O O7 0.874465 0.213591 0.375473
O O8 0.797149 0.000000 0.471416
O O9 0.105510 0.276135 0.848630
O O10 0.118706 0.000000 0.875685
O O11 0.500000 0.707982 0.500000
O O12 0.449166 0.500000 0.651419
O O13 0.520298 0.699495 0.645536
O O14 0.404933 0.758601 0.719980
O O15 0.546158 0.500000 0.734035
O O16 0.516989 0.751831 0.821416
O O17 0.564678 0.000000 0.808803
O O18 0.500000 0.865088 0.000000
O O19 0.862525 0.500000 0.833026
#
# Coordination Sequence:
#
# PCOD8105370 Si02
#       7
#     8   8   8   8   8   8   8
#     4   9  19  37  58  81 110 148 189 230 281 342
#     4   9  18  33  52  76 104 136 176 220 267 320
#     4   9  19  35  54  76 104 140 183 219 258 329
#     4  10  22  40  60  82 111 151 198 239 278 335
#     4   9  20  38  56  76 106 146 187 222 264 328
#     4  10  21  34  50  79 113 138 169 220 276 325
#     4  10  21  36  56  83 115 146 184 237 290 336
#
# _framework density 18.572240000000001
#
# number of rings (size 3 to 8) (size 9 to 14) (size 15 to 20)
#    0.000    2.571    0.000    1.714    2.000    6.571 
#    0.000    0.000    0.000    0.000    0.000    0.000 
#    0.000    0.000    0.000    0.000    0.000    0.000 
#
# Total GULP energy -346936.565729 kJ/mol
# GULP energy per Si atom -12390.591633 kJ/mol
# Density = 1.852997 g / cm^3
# Si number density = 18.572240 Si / 1000 Ang^3
#
#
#
# Elastic Constant Matrix: (Units=GPa)
#
#
# Indices 1 2 3 4 5 6 
#
# 1 99.1276 50.4607 64.9331 0.0000 22.3328 0.0000
# 2 50.4607 107.8805 64.8319 -0.0001 -2.6156 0.0000
# 3 64.9331 64.8319 108.6545 0.0000 -1.2172 0.0000
# 4 0.0000 -0.0001 0.0000 34.4309 0.0000 -5.8339
# 5 22.3328 -2.6156 -1.2172 0.0000 29.1542 0.0000
# 6 0.0000 0.0000 0.0000 -5.8339 0.0000 21.1359
#
#
#
# Elastic Compliance Matrix: (Units=1/GPa)
#
#
# Indices 1 2 3 4 5 6 
#
# 1 0.025286 -0.004836 -0.012453 0.000000 -0.020323 0.000000
# 2 -0.004836 0.015402 -0.006246 0.000000 0.004826 0.000000
# 3 -0.012453 -0.006246 0.020483 0.000000 0.009834 0.000000
# 4 0.000000 0.000000 0.000000 0.030469 0.000000 0.008410
# 5 -0.020323 0.004826 0.009834 0.000000 0.050712 0.000000
# 6 0.000000 0.000000 0.000000 0.008410 0.000000 0.049634
#
#
# Mechanical properties :
#
#
# Convention : Reuss Voigt Hill
#
# Bulk Modulus (GPa) = 70.92142 75.12377 73.02260
# Shear Modulus (GPa) = 20.51228 25.97334 23.24281
#
# Velocity S-wave (km/s) = 3.32695 3.74371 3.54147
# Velocity P-wave (km/s) = 7.28202 7.69575 7.49174
#
# Compressibility (1/GPa) = 0.01410011
#
# Stress axis : x y z
#
# Youngs Moduli (GPa) = 39.54753 64.92570 48.82196
#
# Poissons Ratio (x) = 0.31400 0.60799
# Poissons Ratio (y) = 0.19126 0.30494
# Poissons Ratio (z) = 0.49249 0.40552
#
# Static dielectric constant tensor:
#      x y z
#    x 3.446580 0.000000 0.047560 
#    y 0.000000 3.509870 0.000000 
#    z 0.047560 0.000000 3.209270 
# 
# 
# High freq. dielectric constant tensor:
#      x y z
#    x 1.719260 0.000000 0.008250 
#    y 0.000000 1.727800 0.000000 
#    z 0.008250 0.000000 1.710220 
# 
# From -- ./inp_files/248903.got.cif
#   From: 2010.06.25/outbox.cif.g09.slc.cpg/sg12_125_cif.got.tgz:248903.got - 2010.06.28 00:19:55.
