data_PCOD8105416
_publ_section_title
;
Structure prediction by ZEFSAII (Michael W. Deem and Ramdas Pophale) SiO2 
 PCOD8105416
Probable space group: C 2/M
;
_chemical_formula_sum "Si O2"
_cell_formula_units_Z 56
_cell_length_a 9.082977
_cell_length_b 25.895169
_cell_length_c 16.558370
_cell_angle_alpha 90.000000
_cell_angle_beta 132.746910
_cell_angle_gamma 90.000000
_cell_volume 2860.046128
_symmetry_space_group_name_H-M "C 2/M"
_symmetry_group_IT_number 12
_symmetry_cell_setting 'monoclinic'
loop_
_space_group_symop_operation_xyz
x,y,z
-x,y,-z
-x,-y,-z
x,-y,z
1/2+x,1/2+y,z
1/2-x,1/2+y,-z
1/2-x,1/2-y,-z
1/2+x,1/2-y,z
loop_
_atom_site_type_symbol
_atom_site_label
_atom_site_fract_x
_atom_site_fract_y
_atom_site_fract_z
Si Si1 0.480263 0.363558 0.079494
Si Si2 0.259783 0.289994 0.734849
Si Si3 0.543830 0.098510 0.929059
Si Si4 0.909381 0.355282 0.644393
Si Si5 0.736178 0.324308 0.739706
Si Si6 0.666049 0.058834 0.807246
Si Si7 0.278262 0.698159 0.563150
O O1 0.554779 0.327767 0.179919
O O2 0.612939 0.416162 0.118710
O O3 0.500000 0.334679 0.000000
O O4 0.251296 0.371682 0.016560
O O5 0.331967 0.232656 0.782739
O O6 0.172827 0.293970 0.610584
O O7 0.074777 0.309988 0.720784
O O8 0.359245 0.137793 0.844267
O O9 0.576246 0.060058 0.865480
O O10 0.500000 0.070958 0.000000
O O11 0.745232 0.346668 0.652291
O O12 0.809622 0.350521 0.519038
O O13 0.013470 0.411205 0.690999
O O14 0.503452 0.316766 0.672284
O O15 0.680316 0.000000 0.783830
O O16 0.250000 0.750000 0.500000
#
# Coordination Sequence:
#
# PCOD8105416 Si02
#       7
#     8   8   8   8   8   8   8
#     4   9  20  36  56  80 110 146 187 228 280 332
#     4  11  20  33  52  81 112 148 194 224 263 333
#     4  10  21  35  53  83 115 145 180 232 290 334
#     4  10  21  34  54  81 111 143 186 237 274 325
#     4  11  21  33  50  78 116 151 186 222 269 335
#     4   9  20  40  62  82 105 141 193 241 284 334
#     4  12  21  32  54  80 112 152 188 226 270 323
#
# _framework density 19.580103000000001
#
# number of rings (size 3 to 8) (size 9 to 14) (size 15 to 20)
#    0.000    1.714    2.857    2.571    0.000    4.000 
#    0.000    0.000    0.000   13.714    0.000    0.000 
#    0.000    0.000    0.000    0.000    0.000    0.000 
#
# Total GULP energy -346967.869752 kJ/mol
# GULP energy per Si atom -12391.709634 kJ/mol
# Density = 1.953554 g / cm^3
# Si number density = 19.580103 Si / 1000 Ang^3
#
#
#
# Elastic Constant Matrix: (Units=GPa)
#
#
# Indices 1 2 3 4 5 6 
#
# 1 42.1895 -6.6995 17.6756 0.0000 -0.3308 0.0000
# 2 -6.6995 84.2683 43.6634 0.0000 1.7499 0.0000
# 3 17.6756 43.6634 93.1643 0.0000 -2.8275 0.0000
# 4 0.0000 0.0000 0.0000 14.9903 0.0000 -1.5874
# 5 -0.3308 1.7499 -2.8275 0.0000 33.8982 0.0000
# 6 0.0000 0.0000 0.0000 -1.5874 0.0000 15.0185
#
#
#
# Elastic Compliance Matrix: (Units=1/GPa)
#
#
# Indices 1 2 3 4 5 6 
#
# 1 0.028335 0.006692 -0.008536 0.000000 -0.000781 0.000000
# 2 0.006692 0.017322 -0.009437 0.000000 -0.001616 0.000000
# 3 -0.008536 -0.009437 0.016831 0.000000 0.001808 0.000000
# 4 0.000000 0.000000 0.000000 0.067465 0.000000 0.007131
# 5 -0.000781 -0.001616 0.001808 0.000000 0.029727 0.000000
# 6 0.000000 0.000000 0.000000 0.007131 0.000000 0.067338
#
#
# Mechanical properties :
#
#
# Convention : Reuss Voigt Hill
#
# Bulk Modulus (GPa) = 25.04630 36.54457 30.79543
# Shear Modulus (GPa) = 19.01941 23.78024 21.39982
#
# Velocity S-wave (km/s) = 3.12005 3.48876 3.30955
# Velocity P-wave (km/s) = 5.07928 5.91044 5.51055
#
# Compressibility (1/GPa) = 0.03992606
#
# Stress axis : x y z
#
# Youngs Moduli (GPa) = 35.29178 57.72938 59.41443
#
# Poissons Ratio (x) = -0.38631 0.50715
# Poissons Ratio (y) = -0.23616 0.56070
# Poissons Ratio (z) = 0.30124 0.54480
#
# Static dielectric constant tensor:
#      x y z
#    x 3.648730 0.000000 -0.031770 
#    y 0.000000 3.162470 0.000000 
#    z -0.031770 0.000000 3.772930 
# 
# 
# High freq. dielectric constant tensor:
#      x y z
#    x 1.773550 0.000000 0.003550 
#    y 0.000000 1.716390 0.000000 
#    z 0.003550 0.000000 1.769660 
# 
# From -- ./inp_files/259276.got.cif
#   From: 2010.06.25/outbox.cif.g09.slc.cpg/sg12_130_cif.got.tgz:259276.got - 2010.06.28 00:19:55.
