data_PCOD8105268
_publ_section_title
;
Structure prediction by ZEFSAII (Michael W. Deem and Ramdas Pophale) SiO2 
 PCOD8105268
Probable space group: C 2/M
;
_chemical_formula_sum "Si O2"
_cell_formula_units_Z 64
_cell_length_a 21.030347
_cell_length_b 25.255779
_cell_length_c 9.494343
_cell_angle_alpha 90.000000
_cell_angle_beta 44.399412
_cell_angle_gamma 90.000000
_cell_volume 3528.228408
_symmetry_space_group_name_H-M "C 2/M"
_symmetry_group_IT_number 12
_symmetry_cell_setting 'monoclinic'
loop_
_space_group_symop_operation_xyz
x,y,z
-x,y,-z
-x,-y,-z
x,-y,z
1/2+x,1/2+y,z
1/2-x,1/2+y,-z
1/2-x,1/2-y,-z
1/2+x,1/2-y,z
loop_
_atom_site_type_symbol
_atom_site_label
_atom_site_fract_x
_atom_site_fract_y
_atom_site_fract_z
Si Si1 0.279783 0.634216 0.977519
Si Si2 0.620288 0.734736 0.090949
Si Si3 0.278510 0.358225 0.657697
Si Si4 0.614102 0.438519 0.684471
Si Si5 0.897926 0.323668 0.670016
Si Si6 0.090433 0.061712 0.043731
Si Si7 0.082389 0.236980 0.593396
Si Si8 0.166491 0.272168 0.721474
O O1 0.314744 0.694642 0.929314
O O2 0.268784 0.619636 0.831137
O O3 0.349974 0.594709 0.940509
O O4 0.180463 0.631162 0.212573
O O5 0.623013 0.794032 0.149056
O O6 0.517690 0.714146 0.273493
O O7 0.650160 0.734914 0.881566
O O8 0.305744 0.407640 0.519231
O O9 0.353227 0.312771 0.526206
O O10 0.184912 0.332605 0.744393
O O11 0.635666 0.500000 0.635617
O O12 0.516549 0.425744 0.767356
O O13 0.616082 0.421840 0.844696
O O14 0.886230 0.280707 0.567162
O O15 0.000000 0.348443 0.500000
O O16 0.109759 0.000000 0.040216
O O17 0.082191 0.265963 0.747386
O O18 0.250000 0.250000 0.500000
#
# Coordination Sequence:
#
# PCOD8105268 Si02
#       8
#     8   8   8   8   8   8   8   8
#     4  12  21  33  56  77 106 139 178 215 261 317
#     4  11  20  34  51  73 109 146 172 214 260 305
#     4  11  21  33  50  78 106 141 177 214 257 308
#     4   9  20  39  55  76 109 137 169 217 266 308
#     4  10  21  36  52  75 110 144 173 214 264 310
#     4   9  21  38  57  79 103 135 175 217 261 315
#     4  10  21  33  49  76 107 142 182 212 254 310
#     4  10  21  33  46  72 108 139 183 217 249 300
#
# _framework density 18.139415
#
# number of rings (size 3 to 8) (size 9 to 14) (size 15 to 20)
#    0.000    1.750    2.500    3.750    5.250    2.000 
#    0.000    1.250    0.000    0.375    0.000    0.000 
#    0.000    4.000    0.000    0.000    0.000    0.000 
#
# Total GULP energy -396664.939387 kJ/mol
# GULP energy per Si atom -12395.779356 kJ/mol
# Density = 1.809813 g / cm^3
# Si number density = 18.139415 Si / 1000 Ang^3
#
#
#
# Elastic Constant Matrix: (Units=GPa)
#
#
# Indices 1 2 3 4 5 6 
#
# 1 65.5494 16.7211 13.5070 0.0000 4.7762 0.0000
# 2 16.7211 47.8862 18.9580 0.0000 1.3148 0.0000
# 3 13.5070 18.9580 73.6436 0.0000 13.6871 0.0000
# 4 0.0000 0.0000 0.0000 23.7820 0.0000 -1.2412
# 5 4.7762 1.3148 13.6871 0.0000 31.5833 0.0000
# 6 0.0000 0.0000 0.0000 -1.2412 0.0000 32.5889
#
#
#
# Elastic Compliance Matrix: (Units=1/GPa)
#
#
# Indices 1 2 3 4 5 6 
#
# 1 0.017038 -0.005336 -0.001429 0.000000 -0.001735 0.000000
# 2 -0.005336 0.025015 -0.005892 0.000000 0.002319 0.000000
# 3 -0.001429 -0.005892 0.016610 0.000000 -0.006737 0.000000
# 4 0.000000 0.000000 0.000000 0.042132 0.000000 0.001605
# 5 -0.001735 0.002319 -0.006737 0.000000 0.034748 0.000000
# 6 0.000000 0.000000 0.000000 0.001605 0.000000 0.030746
#
#
# Mechanical properties :
#
#
# Convention : Reuss Voigt Hill
#
# Bulk Modulus (GPa) = 29.98577 31.71682 30.85130
# Shear Modulus (GPa) = 24.66473 26.78371 25.72422
#
# Velocity S-wave (km/s) = 3.69145 3.84676 3.76990
# Velocity P-wave (km/s) = 5.89370 6.10353 5.99953
#
# Compressibility (1/GPa) = 0.03334915
#
# Stress axis : x y z
#
# Youngs Moduli (GPa) = 58.69340 39.97599 60.20556
#
# Poissons Ratio (x) = 0.21331 0.08602
# Poissons Ratio (y) = 0.31319 0.35473
# Poissons Ratio (z) = 0.08386 0.23553
#
# Static dielectric constant tensor:
#      x y z
#    x 4.052100 0.000000 0.050990 
#    y 0.000000 3.087420 0.000000 
#    z 0.050990 0.000000 3.421120 
# 
# 
# High freq. dielectric constant tensor:
#      x y z
#    x 1.708220 0.000000 0.009020 
#    y 0.000000 1.658380 0.000000 
#    z 0.009020 0.000000 1.711430 
# 
# From -- ./inp_files/91087.got.cif
#   From: 2010.06.25/outbox.cif.g09.slc.cpg/sg12_46_cif.got.tgz:91087.got - 2010.06.28 00:19:55.
