data_PCOD8105849
_publ_section_title
;
Structure prediction by ZEFSAII (Michael W. Deem and Ramdas Pophale) SiO2 
 PCOD8105849
Probable space group: C 2/M
;
_chemical_formula_sum "Si O2"
_cell_formula_units_Z 56
_cell_length_a 8.877702
_cell_length_b 28.757677
_cell_length_c 21.739736
_cell_angle_alpha 90.000000
_cell_angle_beta 149.979060
_cell_angle_gamma 90.000000
_cell_volume 2776.856479
_symmetry_space_group_name_H-M "C 2/M"
_symmetry_group_IT_number 12
_symmetry_cell_setting 'monoclinic'
loop_
_space_group_symop_operation_xyz
x,y,z
-x,y,-z
-x,-y,-z
x,-y,z
1/2+x,1/2+y,z
1/2-x,1/2+y,-z
1/2-x,1/2-y,-z
1/2+x,1/2-y,z
loop_
_atom_site_type_symbol
_atom_site_label
_atom_site_fract_x
_atom_site_fract_y
_atom_site_fract_z
Si Si1 0.343287 0.445176 0.381086
Si Si2 0.325533 0.448160 0.881619
Si Si3 0.318140 0.807847 0.140031
Si Si4 0.424327 0.947337 0.038140
Si Si5 0.262514 0.765762 0.251231
Si Si6 0.203572 0.190228 0.359990
Si Si7 0.230885 0.117238 0.747227
O O1 0.500000 0.430065 0.500000
O O2 0.393759 0.500000 0.387705
O O3 0.478211 0.413741 0.373213
O O4 0.991158 0.428682 0.255338
O O5 0.251235 0.500000 0.879588
O O6 0.500000 0.421998 0.000000
O O7 0.561182 0.447485 0.909314
O O8 0.247579 0.798514 0.186666
O O9 0.452784 0.763121 0.151495
O O10 0.553343 0.849609 0.216791
O O11 0.000000 0.822250 0.000000
O O12 0.561742 0.918326 0.142276
O O13 0.551698 0.000000 0.087605
O O14 0.500000 0.923747 0.000000
O O15 0.300327 0.797218 0.325049
O O16 0.550850 0.732497 0.343617
O O17 0.500000 0.174809 0.500000
O O18 0.976755 0.146399 0.279679
#
# Coordination Sequence:
#
# PCOD8105849 Si02
#       7
#     8   8   8   8   8   8   8
#     4  10  21  38  60  85 118 159 204 248 296 350
#     4   9  16  32  61  83 103 145 201 250 286 340
#     4  10  21  35  60  88 119 149 185 236 291 351
#     4  10  21  38  59  83 117 157 201 248 295 348
#     4   9  20  40  61  85 112 154 192 225 288 357
#     4  10  21  39  61  85 117 151 194 238 287 350
#     4  11  23  36  55  91 118 152 196 247 299 338
#
# _framework density 20.166689000000002
#
# number of rings (size 3 to 8) (size 9 to 14) (size 15 to 20)
#    0.000    2.143    1.429    1.286    2.000    2.286 
#    2.571    2.857    0.000    0.857    0.000    0.000 
#    0.000    0.000    0.000    0.000    0.000    0.000 
#
# Total GULP energy -346946.571394 kJ/mol
# GULP energy per Si atom -12390.948978 kJ/mol
# Density = 2.012079 g / cm^3
# Si number density = 20.166689 Si / 1000 Ang^3
#
#
#
# Elastic Constant Matrix: (Units=GPa)
#
#
# Indices 1 2 3 4 5 6 
#
# 1 124.8915 38.5183 37.8515 -0.0001 -18.4554 -0.0002
# 2 38.5183 83.4413 30.6567 -0.0012 -15.0006 0.0004
# 3 37.8515 30.6567 115.5124 0.0044 -10.6847 0.0008
# 4 -0.0001 -0.0012 0.0044 4.7527 0.0029 5.6115
# 5 -18.4554 -15.0006 -10.6847 0.0029 31.1184 -0.0011
# 6 -0.0002 0.0004 0.0008 5.6115 -0.0011 10.8180
#
#
#
# Elastic Compliance Matrix: (Units=1/GPa)
#
#
# Indices 1 2 3 4 5 6 
#
# 1 0.010213 -0.003255 -0.002135 -0.000005 0.003755 0.000004
# 2 -0.003255 0.015243 -0.002559 0.000008 0.004539 -0.000004
# 3 -0.002135 -0.002559 0.010126 -0.000025 0.000977 0.000012
# 4 -0.000005 0.000008 -0.000025 0.542936 -0.000068 -0.281633
# 5 0.003755 0.004539 0.000977 -0.000068 0.036886 0.000039
# 6 0.000004 -0.000004 0.000012 -0.281633 0.000039 0.238528
#
#
# Mechanical properties :
#
#
# Convention : Reuss Voigt Hill
#
# Bulk Modulus (GPa) = 50.80380 59.76646 55.28513
# Shear Modulus (GPa) = 5.70521 23.79239 14.74880
#
# Velocity S-wave (km/s) = 1.68380 3.43853 2.70727
# Velocity P-wave (km/s) = 5.38766 6.74279 6.10295
#
# Compressibility (1/GPa) = 0.01968357
#
# Stress axis : x y z
#
# Youngs Moduli (GPa) = 97.91595 65.60296 98.75217
#
# Poissons Ratio (x) = 0.21353 0.21088
# Poissons Ratio (y) = 0.31871 0.25272
# Poissons Ratio (z) = 0.20909 0.16788
#
# Static dielectric constant tensor:
#      x y z
#    x 3.805710 0.000000 0.049770 
#    y 0.000000 3.694540 0.000000 
#    z 0.049770 0.000000 3.611280 
# 
# 
# High freq. dielectric constant tensor:
#      x y z
#    x 1.790900 0.000000 0.000610 
#    y 0.000000 1.784090 0.000000 
#    z 0.000610 0.000000 1.773260 
# 
# From -- ./inp_files/303056.got.cif
#   From: 2010.06.25/outbox.cif.g09.slc.cpg/sg12_152_cif.got.tgz:303056.got - 2010.06.28 00:19:55.
