data_PCOD8105915
_publ_section_title
;
Structure prediction by ZEFSAII (Michael W. Deem and Ramdas Pophale) SiO2 
 PCOD8105915
Probable space group: C 2/M
;
_chemical_formula_sum "Si O2"
_cell_formula_units_Z 64
_cell_length_a 27.552654
_cell_length_b 13.891513
_cell_length_c 18.891851
_cell_angle_alpha 90.000000
_cell_angle_beta 150.752416
_cell_angle_gamma 90.000000
_cell_volume 3532.865802
_symmetry_space_group_name_H-M "C 2/M"
_symmetry_group_IT_number 12
_symmetry_cell_setting 'monoclinic'
loop_
_space_group_symop_operation_xyz
x,y,z
-x,y,-z
-x,-y,-z
x,-y,z
1/2+x,1/2+y,z
1/2-x,1/2+y,-z
1/2-x,1/2-y,-z
1/2+x,1/2-y,z
loop_
_atom_site_type_symbol
_atom_site_label
_atom_site_fract_x
_atom_site_fract_y
_atom_site_fract_z
Si Si1 0.410176 0.283730 0.517819
Si Si2 0.000095 0.389208 0.309661
Si Si3 0.811706 0.787695 0.244842
Si Si4 0.440439 0.886738 0.768571
Si Si5 0.204739 0.611308 0.875718
Si Si6 0.267942 0.109522 0.641536
Si Si7 0.864451 0.608703 0.911922
Si Si8 0.387204 0.611483 0.206728
O O1 0.425898 0.169185 0.544867
O O2 0.388292 0.301323 0.407490
O O3 0.323937 0.321092 0.459798
O O4 0.510726 0.332237 0.674046
O O5 0.029151 0.500000 0.354861
O O6 0.884765 0.371750 0.182542
O O7 0.022947 0.347641 0.260506
O O8 0.811487 0.679210 0.213257
O O9 0.702892 0.814615 0.132724
O O10 0.843156 0.865007 0.227023
O O11 0.331664 0.849207 0.655795
O O12 0.430026 0.000000 0.750762
O O13 0.522926 0.858180 0.931447
O O14 0.206687 0.500000 0.852914
O O15 0.307035 0.640608 0.044760
O O16 0.344884 0.110735 0.804077
O O17 0.229311 0.000000 0.580073
O O18 0.845779 0.500000 0.918013
O O19 0.412046 0.500000 0.234309
#
# Coordination Sequence:
#
# PCOD8105915 Si02
#       8
#     8   8   8   8   8   8   8   8
#     4  11  23  34  51  79 108 141 174 212 266 322
#     4  10  21  36  53  74 100 135 183 226 258 299
#     4  11  21  34  53  78 106 143 177 210 262 317
#     4   9  17  31  53  76 100 135 173 214 264 307
#     4  10  22  38  56  77 104 141 184 225 257 299
#     4   9  18  33  50  75 110 136 165 210 263 325
#     4   9  17  29  51  81 107 133 167 211 261 314
#     4  11  22  35  53  78 109 140 172 213 265 320
#
# _framework density 18.115604999999999
#
# number of rings (size 3 to 8) (size 9 to 14) (size 15 to 20)
#    0.000    2.000    1.250    2.625    1.750    6.500 
#    0.000    1.250    0.000    0.000    0.000    0.000 
#    0.000    4.000    0.000    0.000    0.000    0.000 
#
# Total GULP energy -396655.588810 kJ/mol
# GULP energy per Si atom -12395.487150 kJ/mol
# Density = 1.807437 g / cm^3
# Si number density = 18.115605 Si / 1000 Ang^3
#
#
#
# Elastic Constant Matrix: (Units=GPa)
#
#
# Indices 1 2 3 4 5 6 
#
# 1 82.4542 31.1974 26.8924 0.0000 17.6416 0.0000
# 2 31.1974 76.6511 36.7324 0.0000 5.0900 0.0000
# 3 26.8924 36.7324 78.8101 0.0000 10.9874 0.0000
# 4 0.0000 0.0000 0.0000 22.9762 0.0000 -2.5380
# 5 17.6416 5.0900 10.9874 0.0000 19.6320 0.0000
# 6 0.0000 0.0000 0.0000 -2.5380 0.0000 23.4008
#
#
#
# Elastic Compliance Matrix: (Units=1/GPa)
#
#
# Indices 1 2 3 4 5 6 
#
# 1 0.017622 -0.005532 -0.001548 0.000000 -0.013535 0.000000
# 2 -0.005532 0.018534 -0.007348 0.000000 0.004277 0.000000
# 3 -0.001548 -0.007348 0.017551 0.000000 -0.006527 0.000000
# 4 0.000000 0.000000 0.000000 0.044051 0.000000 0.004778
# 5 -0.013535 0.004277 -0.006527 0.000000 0.065644 0.000000
# 6 0.000000 0.000000 0.000000 0.004778 0.000000 0.043252
#
#
# Mechanical properties :
#
#
# Convention : Reuss Voigt Hill
#
# Bulk Modulus (GPa) = 40.23556 47.50665 43.87111
# Shear Modulus (GPa) = 20.50924 22.74133 21.62529
#
# Velocity S-wave (km/s) = 3.36837 3.54693 3.45880
# Velocity P-wave (km/s) = 6.11445 6.56166 6.34200
#
# Compressibility (1/GPa) = 0.02485364
#
# Stress axis : x y z
#
# Youngs Moduli (GPa) = 56.74882 53.95348 56.97523
#
# Poissons Ratio (x) = 0.29844 0.08819
# Poissons Ratio (y) = 0.31391 0.41863
# Poissons Ratio (z) = 0.08784 0.39642
#
# Static dielectric constant tensor:
#      x y z
#    x 3.477180 0.000000 0.095630 
#    y 0.000000 3.312350 0.000000 
#    z 0.095630 0.000000 3.333250 
# 
# 
# High freq. dielectric constant tensor:
#      x y z
#    x 1.698520 0.000000 0.008940 
#    y 0.000000 1.687760 0.000000 
#    z 0.008940 0.000000 1.699700 
# 
# From -- ./inp_files/246374.got.cif
#   From: 2010.06.25/outbox.cif.g09.slc.cpg/sg12_124_cif.got.tgz:246374.got - 2010.06.28 00:19:55.
