data_PCOD8105983
_publ_section_title
;
Structure prediction by ZEFSAII (Michael W. Deem and Ramdas Pophale) SiO2 
 PCOD8105983
Probable space group: C 2/M
;
_chemical_formula_sum "Si O2"
_cell_formula_units_Z 56
_cell_length_a 10.053246
_cell_length_b 9.303214
_cell_length_c 35.480075
_cell_angle_alpha 90.000000
_cell_angle_beta 119.373796
_cell_angle_gamma 90.000000
_cell_volume 2891.748107
_symmetry_space_group_name_H-M "C 2/M"
_symmetry_group_IT_number 12
_symmetry_cell_setting 'monoclinic'
loop_
_space_group_symop_operation_xyz
x,y,z
-x,y,-z
-x,-y,-z
x,-y,z
1/2+x,1/2+y,z
1/2-x,1/2+y,-z
1/2-x,1/2-y,-z
1/2+x,1/2-y,z
loop_
_atom_site_type_symbol
_atom_site_label
_atom_site_fract_x
_atom_site_fract_y
_atom_site_fract_z
Si Si1 0.848900 0.668040 0.832316
Si Si2 0.206784 0.833433 0.310394
Si Si3 0.823268 0.832758 0.976058
Si Si4 0.851933 0.335091 0.409307
Si Si5 0.699547 0.832399 0.878630
Si Si6 0.141821 0.168543 0.734808
Si Si7 0.705571 0.832699 0.456368
O O1 0.823434 0.500000 0.835805
O O2 0.803677 0.748428 0.863864
O O3 0.746808 0.724656 0.783525
O O4 0.023205 0.703838 0.846599
O O5 0.251019 0.794800 0.359164
O O6 0.312383 0.744101 0.297324
O O7 0.031356 0.790898 0.279290
O O8 0.236398 0.000000 0.306111
O O9 0.745224 0.780336 0.926606
O O10 0.793814 0.000000 0.978470
O O11 0.750000 0.750000 0.000000
O O12 0.000000 0.794144 0.000000
O O13 0.824314 0.500000 0.418053
O O14 0.804725 0.230394 0.436223
O O15 0.027663 0.309685 0.423034
O O16 0.734582 0.000000 0.878450
O O17 0.162317 0.000000 0.731235
O O18 0.750000 0.750000 0.500000
O O19 0.746259 0.000000 0.466685
#
# Coordination Sequence:
#
# PCOD8105983 Si02
#       7
#     8   8   8   8   8   8   8
#     4  10  21  36  54  79 109 140 177 219 264 316
#     4  10  21  37  57  81 109 142 179 219 265 315
#     4  10  21  36  54  78 106 137 177 221 265 317
#     4  10  22  39  57  81 112 142 178 223 265 313
#     4  10  21  36  54  78 107 139 177 220 265 316
#     4  10  21  36  55  81 110 140 178 221 263 314
#     4  11  23  38  58  83 110 143 181 220 266 317
#
# _framework density 19.365449999999999
#
# number of rings (size 3 to 8) (size 9 to 14) (size 15 to 20)
#    0.000    1.857    0.000    3.429    0.000    6.000 
#    0.000    0.000    0.000    0.000    0.000    0.000 
#    0.000    0.000    0.000    0.000    0.000    0.000 
#
# Total GULP energy -347372.160852 kJ/mol
# GULP energy per Si atom -12406.148602 kJ/mol
# Density = 1.932137 g / cm^3
# Si number density = 19.365450 Si / 1000 Ang^3
#
#
#
# Elastic Constant Matrix: (Units=GPa)
#
#
# Indices 1 2 3 4 5 6 
#
# 1 58.0387 38.2115 16.9252 0.0000 -13.1831 0.0000
# 2 38.2115 62.6914 31.0273 0.0000 -13.5532 0.0000
# 3 16.9252 31.0273 88.7319 0.0000 3.1462 0.0000
# 4 0.0000 0.0000 0.0000 31.5565 0.0000 -12.2438
# 5 -13.1831 -13.5532 3.1462 0.0000 40.6181 0.0000
# 6 0.0000 0.0000 0.0000 -12.2438 0.0000 33.4229
#
#
#
# Elastic Compliance Matrix: (Units=1/GPa)
#
#
# Indices 1 2 3 4 5 6 
#
# 1 0.029327 -0.017207 0.000290 0.000000 0.003754 0.000000
# 2 -0.017207 0.031582 -0.007959 0.000000 0.005570 0.000000
# 3 0.000290 -0.007959 0.014127 0.000000 -0.003656 0.000000
# 4 0.000000 0.000000 0.000000 0.036940 0.000000 0.013532
# 5 0.003754 0.005570 -0.003656 0.000000 0.027980 0.000000
# 6 0.000000 0.000000 0.000000 0.013532 0.000000 0.034877
#
#
# Mechanical properties :
#
#
# Convention : Reuss Voigt Hill
#
# Bulk Modulus (GPa) = 39.55031 42.42111 40.98571
# Shear Modulus (GPa) = 21.45802 29.33936 25.39869
#
# Velocity S-wave (km/s) = 3.33236 3.89657 3.62546
# Velocity P-wave (km/s) = 5.93916 6.49596 6.22379
#
# Compressibility (1/GPa) = 0.02528425
#
# Stress axis : x y z
#
# Youngs Moduli (GPa) = 34.09841 31.66330 70.78496
#
# Poissons Ratio (x) = 0.54483 -0.02051
# Poissons Ratio (y) = 0.58673 0.56337
# Poissons Ratio (z) = -0.00988 0.25201
#
# Static dielectric constant tensor:
#      x y z
#    x 3.521980 0.000000 0.180170 
#    y 0.000000 3.495040 0.000000 
#    z 0.180170 0.000000 3.767400 
# 
# 
# High freq. dielectric constant tensor:
#      x y z
#    x 1.764040 0.000000 0.007200 
#    y 0.000000 1.748090 0.000000 
#    z 0.007200 0.000000 1.770680 
# 
# From -- ./inp_files/373625.got.cif
#   From: 2010.06.25/outbox.cif.g09.slc.cpg/sg12_187_cif.got.tgz:373625.got - 2010.06.28 00:19:55.
