data_PCOD8105785
_publ_section_title
;
Structure prediction by ZEFSAII (Michael W. Deem and Ramdas Pophale) SiO2 
 PCOD8105785
Probable space group: C 2/M
;
_chemical_formula_sum "Si O2"
_cell_formula_units_Z 48
_cell_length_a 21.467485
_cell_length_b 11.846524
_cell_length_c 13.043521
_cell_angle_alpha 90.000000
_cell_angle_beta 129.899912
_cell_angle_gamma 90.000000
_cell_volume 2544.815921
_symmetry_space_group_name_H-M "C 2/M"
_symmetry_group_IT_number 12
_symmetry_cell_setting 'monoclinic'
loop_
_space_group_symop_operation_xyz
x,y,z
-x,y,-z
-x,-y,-z
x,-y,z
1/2+x,1/2+y,z
1/2-x,1/2+y,-z
1/2-x,1/2-y,-z
1/2+x,1/2-y,z
loop_
_atom_site_type_symbol
_atom_site_label
_atom_site_fract_x
_atom_site_fract_y
_atom_site_fract_z
Si Si1 0.379162 0.500000 0.815669
Si Si2 0.872277 0.785859 0.091793
Si Si3 0.486297 0.873820 0.104886
Si Si4 0.297857 0.134419 0.174397
Si Si5 0.753529 0.317306 0.351748
Si Si6 0.546458 0.500000 0.881226
Si Si7 0.340313 0.128212 0.645999
O O1 0.327647 0.390213 0.736977
O O2 0.453391 0.500000 0.815796
O O3 0.400695 0.500000 0.958507
O O4 0.865408 0.710170 0.187474
O O5 0.908692 0.704171 0.043568
O O6 0.934019 0.891059 0.168623
O O7 0.787598 0.838580 0.967839
O O8 0.567521 0.826222 0.245742
O O9 0.466541 0.000000 0.122950
O O10 0.500000 0.871305 0.000000
O O11 0.300160 0.176848 0.293460
O O12 0.315973 0.000000 0.186183
O O13 0.724395 0.191956 0.349994
O O14 0.816268 0.362893 0.501987
O O15 0.337770 0.000000 0.682311
#
# Coordination Sequence:
#
# PCOD8105785 Si02
#       7
#     4   8   8   8   8   4   8
#     4  11  20  34  62  83 114 150 185 249 281 336
#     4  11  21  35  54  81 116 147 188 230 287 339
#     4  10  21  36  54  81 114 145 184 240 286 331
#     4  11  21  37  57  80 115 152 191 234 280 343
#     4  11  19  37  58  84 112 150 189 234 283 338
#     4  11  22  34  56  91 116 145 192 234 297 326
#     4  10  21  35  57  84 113 145 190 234 285 341
#
# _framework density 18.861874
#
# number of rings (size 3 to 8) (size 9 to 14) (size 15 to 20)
#    0.000    1.333    4.167    2.500    2.333    0.000 
#    1.500    0.833    0.000    3.000    0.000    3.500 
#    0.000    0.000    0.000    0.000    0.000    0.000 
#
# Total GULP energy -297568.331922 kJ/mol
# GULP energy per Si atom -12398.680497 kJ/mol
# Density = 1.881894 g / cm^3
# Si number density = 18.861874 Si / 1000 Ang^3
#
#
#
# Elastic Constant Matrix: (Units=GPa)
#
#
# Indices 1 2 3 4 5 6 
#
# 1 98.6692 57.8761 27.0015 0.0000 -18.5257 0.0000
# 2 57.8761 106.6481 17.9469 0.0000 -19.9356 0.0000
# 3 27.0015 17.9469 77.5413 0.0000 -7.5632 0.0000
# 4 0.0000 0.0000 0.0000 20.4856 0.0000 -1.5950
# 5 -18.5257 -19.9356 -7.5632 0.0000 27.5281 0.0000
# 6 0.0000 0.0000 0.0000 -1.5950 0.0000 36.7032
#
#
#
# Elastic Compliance Matrix: (Units=1/GPa)
#
#
# Indices 1 2 3 4 5 6 
#
# 1 0.016303 -0.007385 -0.003513 0.000000 0.004658 0.000000
# 2 -0.007385 0.014438 -0.000241 0.000000 0.005420 0.000000
# 3 -0.003513 -0.000241 0.014311 0.000000 0.001393 0.000000
# 4 0.000000 0.000000 0.000000 0.048981 0.000000 0.002128
# 5 0.004658 0.005420 0.001393 0.000000 0.043769 0.000000
# 6 0.000000 0.000000 0.000000 0.002128 0.000000 0.027338
#
#
# Mechanical properties :
#
#
# Convention : Reuss Voigt Hill
#
# Bulk Modulus (GPa) = 43.91282 54.27861 49.09571
# Shear Modulus (GPa) = 25.63960 28.94563 27.29261
#
# Velocity S-wave (km/s) = 3.69092 3.92166 3.80804
# Velocity P-wave (km/s) = 6.44171 7.02462 6.73947
#
# Compressibility (1/GPa) = 0.02277239
#
# Stress axis : x y z
#
# Youngs Moduli (GPa) = 61.33893 69.26047 69.87392
#
# Poissons Ratio (x) = 0.51152 0.24549
# Poissons Ratio (y) = 0.45301 0.01687
# Poissons Ratio (z) = 0.21551 0.01672
#
# Static dielectric constant tensor:
#      x y z
#    x 3.510220 0.000000 -0.020010 
#    y 0.000000 3.766340 0.000000 
#    z -0.020010 0.000000 3.371640 
# 
# 
# High freq. dielectric constant tensor:
#      x y z
#    x 1.727090 0.000000 0.000350 
#    y 0.000000 1.751120 0.000000 
#    z 0.000350 0.000000 1.711240 
# 
# From -- ./inp_files/165221.got.cif
#   From: 2010.06.25/outbox.cif.g09.slc.cpg/sg12_83_cif.got.tgz:165221.got - 2010.06.28 00:19:55.
