data_PCOD8106928
_publ_section_title
;
Structure prediction by ZEFSAII (Michael W. Deem and Ramdas Pophale) SiO2 
 PCOD8106928
Probable space group: C 2/M
;
_chemical_formula_sum "Si O2"
_cell_formula_units_Z 64
_cell_length_a 15.391099
_cell_length_b 8.669295
_cell_length_c 28.331938
_cell_angle_alpha 90.000000
_cell_angle_beta 122.089800
_cell_angle_gamma 90.000000
_cell_volume 3202.757862
_symmetry_space_group_name_H-M "C 2/M"
_symmetry_group_IT_number 12
_symmetry_cell_setting 'monoclinic'
loop_
_space_group_symop_operation_xyz
x,y,z
-x,y,-z
-x,-y,-z
x,-y,z
1/2+x,1/2+y,z
1/2-x,1/2+y,-z
1/2-x,1/2-y,-z
1/2+x,1/2-y,z
loop_
_atom_site_type_symbol
_atom_site_label
_atom_site_fract_x
_atom_site_fract_y
_atom_site_fract_z
Si Si1 0.662564 0.178550 0.746736
Si Si2 0.283318 0.179216 0.130931
Si Si3 0.992126 0.820782 0.640750
Si Si4 0.068501 0.181928 0.561903
Si Si5 0.213687 0.823288 0.371659
Si Si6 0.985241 0.683002 0.138876
Si Si7 0.936051 0.682328 0.937656
Si Si8 0.841392 0.319136 0.740962
O O1 0.672857 0.215161 0.804803
O O2 0.548049 0.221109 0.697384
O O3 0.737759 0.288929 0.739637
O O4 0.686548 0.000000 0.742973
O O5 0.369687 0.233041 0.118390
O O6 0.182382 0.275622 0.090847
O O7 0.256924 0.000000 0.117544
O O8 0.026613 0.754905 0.599773
O O9 0.869795 0.798425 0.611026
O O10 0.022126 0.000000 0.655271
O O11 0.186575 0.224052 0.587820
O O12 0.000000 0.253770 0.500000
O O13 0.057744 0.000000 0.558528
O O14 0.159900 0.773278 0.307810
O O15 0.247929 0.000000 0.377488
O O16 0.994818 0.500000 0.140716
O O17 0.016952 0.752724 0.097154
O O18 0.063556 0.745242 0.201011
O O19 0.946491 0.500000 0.939662
O O20 0.000000 0.751445 0.000000
O O21 0.850811 0.500000 0.732789
#
# Coordination Sequence:
#
# PCOD8106928 Si02
#       8
#     8   8   8   8   8   8   8   8
#     4  11  21  34  57  88 117 147 187 235 284 339
#     4  10  21  37  57  82 114 147 184 230 280 336
#     4  10  22  39  59  85 119 155 187 231 287 338
#     4  10  22  41  62  83 112 155 200 236 278 337
#     4  11  23  38  58  88 120 149 189 240 286 332
#     4   9  19  36  57  81 112 150 185 224 280 340
#     4  10  21  38  58  80 109 147 192 236 278 329
#     4  11  20  35  60  84 114 155 188 224 287 350
#
# _framework density 19.982778
#
# number of rings (size 3 to 8) (size 9 to 14) (size 15 to 20)
#    0.000    1.750    2.500    1.875    0.000    4.000 
#    0.000    1.875    0.000    0.000    0.000    0.000 
#    0.000    0.000    0.000    0.000    0.000    0.000 
#
# Total GULP energy -396885.486366 kJ/mol
# GULP energy per Si atom -12402.671449 kJ/mol
# Density = 1.993730 g / cm^3
# Si number density = 19.982778 Si / 1000 Ang^3
#
#
#
# Elastic Constant Matrix: (Units=GPa)
#
#
# Indices 1 2 3 4 5 6 
#
# 1 122.5704 6.5439 52.2702 0.0000 13.7077 0.0000
# 2 6.5439 10.6890 11.5219 0.0000 -2.4754 0.0000
# 3 52.2702 11.5219 146.7247 0.0000 6.2486 0.0000
# 4 0.0000 0.0000 0.0000 16.4080 0.0000 7.2604
# 5 13.7077 -2.4754 6.2486 0.0000 16.6074 0.0000
# 6 0.0000 0.0000 0.0000 7.2604 0.0000 28.3765
#
#
#
# Elastic Compliance Matrix: (Units=1/GPa)
#
#
# Indices 1 2 3 4 5 6 
#
# 1 0.010676 -0.005223 -0.003033 0.000000 -0.008449 0.000000
# 2 -0.005223 0.110713 -0.007845 0.000000 0.023765 0.000000
# 3 -0.003033 -0.007845 0.008593 0.000000 -0.001899 0.000000
# 4 0.000000 0.000000 0.000000 0.068727 0.000000 -0.017584
# 5 -0.008449 0.023765 -0.001899 0.000000 0.071445 0.000000
# 6 0.000000 0.000000 0.000000 -0.017584 0.000000 0.039740
#
#
# Mechanical properties :
#
#
# Convention : Reuss Voigt Hill
#
# Bulk Modulus (GPa) = 10.22722 46.73957 28.48339
# Shear Modulus (GPa) = 13.34441 26.25492 19.79966
#
# Velocity S-wave (km/s) = 2.58698 3.62868 3.15117
# Velocity P-wave (km/s) = 3.74865 6.40290 5.24640
#
# Compressibility (1/GPa) = 0.09777831
#
# Stress axis : x y z
#
# Youngs Moduli (GPa) = 93.66923 9.03239 116.37333
#
# Poissons Ratio (x) = 0.04718 0.35299
# Poissons Ratio (y) = 0.48923 0.91300
# Poissons Ratio (z) = 0.28413 0.07086
#
# Static dielectric constant tensor:
#      x y z
#    x 3.800370 0.000000 -0.150510 
#    y 0.000000 3.378180 0.000000 
#    z -0.150510 0.000000 3.788990 
# 
# 
# High freq. dielectric constant tensor:
#      x y z
#    x 1.791640 0.000000 0.001560 
#    y 0.000000 1.757680 0.000000 
#    z 0.001560 0.000000 1.778820 
# 
# From -- ./inp_files/375619.got.cif
#   From: 2010.06.25/outbox.cif.g09.slc.cpg/sg12_188_cif.got.tgz:375619.got - 2010.06.28 00:19:55.
