data_PCOD8106371
_publ_section_title
;
Structure prediction by ZEFSAII (Michael W. Deem and Ramdas Pophale) SiO2 
 PCOD8106371
Probable space group: C 2/M
;
_chemical_formula_sum "Si O2"
_cell_formula_units_Z 48
_cell_length_a 19.592581
_cell_length_b 8.884622
_cell_length_c 20.460461
_cell_angle_alpha 90.000000
_cell_angle_beta 38.863277
_cell_angle_gamma 90.000000
_cell_volume 2234.780742
_symmetry_space_group_name_H-M "C 2/M"
_symmetry_group_IT_number 12
_symmetry_cell_setting 'monoclinic'
loop_
_space_group_symop_operation_xyz
x,y,z
-x,y,-z
-x,-y,-z
x,-y,z
1/2+x,1/2+y,z
1/2-x,1/2+y,-z
1/2-x,1/2-y,-z
1/2+x,1/2-y,z
loop_
_atom_site_type_symbol
_atom_site_label
_atom_site_fract_x
_atom_site_fract_y
_atom_site_fract_z
Si Si1 0.691624 0.821659 0.481063
Si Si2 0.312494 0.671284 0.855680
Si Si3 0.108641 0.829568 0.059767
Si Si4 0.711372 0.674179 0.332880
Si Si5 0.059602 0.327047 0.889717
Si Si6 0.943028 0.675766 0.647469
O O1 0.750000 0.750000 0.500000
O O2 0.744300 0.757804 0.375339
O O3 0.564976 0.773415 0.573908
O O4 0.706824 0.000000 0.472893
O O5 0.312598 0.500000 0.828738
O O6 0.380278 0.686282 0.871317
O O7 0.367075 0.782786 0.764389
O O8 0.189150 0.720268 0.960225
O O9 0.987411 0.775509 0.133494
O O10 0.130189 0.000000 0.021221
O O11 0.692222 0.500000 0.362973
O O12 0.809996 0.696862 0.207033
O O13 0.601047 0.742020 0.384719
O O14 0.031248 0.500000 0.896514
O O15 0.000000 0.272053 0.000000
O O16 0.936798 0.500000 0.637832
#
# Coordination Sequence:
#
# PCOD8106371 Si02
#       6
#     8   8   8   8   8   8
#     4  11  26  46  68  96 130 168 216 270 327 385
#     4  10  21  37  59  89 124 165 209 259 320 383
#     4  10  21  36  57  88 123 164 212 262 316 376
#     4  11  24  42  67  98 131 172 217 264 324 386
#     4  10  22  39  60  88 126 168 211 259 313 377
#     4  11  24  42  66  94 126 166 213 267 322 381
#
# _framework density 21.478615000000001
#
# number of rings (size 3 to 8) (size 9 to 14) (size 15 to 20)
#    0.000    1.500    0.000    4.000    2.333    9.667 
#    0.000    0.000    0.000    0.000    0.000    0.000 
#    0.000    0.000    0.000    0.000    0.000    0.000 
#
# Total GULP energy -297700.088558 kJ/mol
# GULP energy per Si atom -12404.170357 kJ/mol
# Density = 2.142973 g / cm^3
# Si number density = 21.478615 Si / 1000 Ang^3
#
#
#
# Elastic Constant Matrix: (Units=GPa)
#
#
# Indices 1 2 3 4 5 6 
#
# 1 141.8667 65.6267 45.0854 0.0000 -9.5975 0.0000
# 2 65.6267 91.9803 30.2665 0.0000 -0.7675 0.0001
# 3 45.0854 30.2665 75.1207 0.0000 8.7832 0.0000
# 4 0.0000 0.0000 0.0000 33.9737 0.0000 0.3860
# 5 -9.5975 -0.7675 8.7832 0.0000 27.3073 0.0000
# 6 0.0000 0.0001 0.0000 0.3860 0.0000 40.6312
#
#
#
# Elastic Compliance Matrix: (Units=1/GPa)
#
#
# Indices 1 2 3 4 5 6 
#
# 1 0.012382 -0.007050 -0.005275 0.000000 0.005851 0.000000
# 2 -0.007050 0.016659 -0.002334 0.000000 -0.001259 0.000000
# 3 -0.005275 -0.002334 0.018332 0.000000 -0.007816 0.000000
# 4 0.000000 0.000000 0.000000 0.029438 0.000000 -0.000280
# 5 0.005851 -0.001259 -0.007816 0.000000 0.041155 0.000000
# 6 0.000000 0.000000 0.000000 -0.000280 0.000000 0.024614
#
#
# Mechanical properties :
#
#
# Convention : Reuss Voigt Hill
#
# Bulk Modulus (GPa) = 55.38312 65.65833 60.52073
# Shear Modulus (GPa) = 28.10290 31.58170 29.84230
#
# Velocity S-wave (km/s) = 3.62112 3.83871 3.73150
# Velocity P-wave (km/s) = 6.58214 7.09106 6.84134
#
# Compressibility (1/GPa) = 0.01805604
#
# Stress axis : x y z
#
# Youngs Moduli (GPa) = 80.75945 60.02601 54.54935
#
# Poissons Ratio (x) = 0.42319 0.28776
# Poissons Ratio (y) = 0.56936 0.12730
# Poissons Ratio (z) = 0.42602 0.14008
#
# Static dielectric constant tensor:
#      x y z
#    x 3.975460 0.000000 -0.030330 
#    y 0.000000 3.863110 0.000000 
#    z -0.030330 0.000000 3.819040 
# 
# 
# High freq. dielectric constant tensor:
#      x y z
#    x 1.854800 0.000000 -0.000310 
#    y 0.000000 1.848670 0.000000 
#    z -0.000310 0.000000 1.840890 
# 
# From -- ./inp_files/319543.got.cif
#   From: 2010.06.25/outbox.cif.g09.slc.cpg/sg12_160_cif.got.tgz:319543.got - 2010.06.28 00:19:55.
