data_PCOD8106127
_publ_section_title
;
Structure prediction by ZEFSAII (Michael W. Deem and Ramdas Pophale) SiO2 
 PCOD8106127
Probable space group: C 2/M
;
_chemical_formula_sum "Si O2"
_cell_formula_units_Z 56
_cell_length_a 5.202959
_cell_length_b 16.127163
_cell_length_c 32.458788
_cell_angle_alpha 90.000000
_cell_angle_beta 95.112153
_cell_angle_gamma 90.000000
_cell_volume 2712.749496
_symmetry_space_group_name_H-M "C 2/M"
_symmetry_group_IT_number 12
_symmetry_cell_setting 'monoclinic'
loop_
_space_group_symop_operation_xyz
x,y,z
-x,y,-z
-x,-y,-z
x,-y,z
1/2+x,1/2+y,z
1/2-x,1/2+y,-z
1/2-x,1/2-y,-z
1/2+x,1/2-y,z
loop_
_atom_site_type_symbol
_atom_site_label
_atom_site_fract_x
_atom_site_fract_y
_atom_site_fract_z
Si Si1 0.239972 0.842993 0.981964
Si Si2 0.410896 0.803314 0.243445
Si Si3 0.926276 0.401405 0.326091
Si Si4 0.207247 0.096408 0.892463
Si Si5 0.323940 0.096091 0.159879
Si Si6 0.053430 0.197409 0.546069
Si Si7 0.547524 0.402065 0.626292
O O1 0.211745 0.845090 0.932473
O O2 0.500000 0.889955 0.000000
O O3 0.250000 0.750000 0.000000
O O4 0.000000 0.889904 0.000000
O O5 0.700177 0.768246 0.246567
O O6 0.389122 0.868518 0.279830
O O7 0.352749 0.850599 0.200812
O O8 0.925267 0.500000 0.323966
O O9 0.693843 0.367438 0.351142
O O10 0.191802 0.367091 0.349290
O O11 0.453371 0.120730 0.868865
O O12 0.951447 0.117492 0.863506
O O13 0.213866 0.000000 0.905821
O O14 0.345288 0.000000 0.172306
O O15 0.344534 0.231347 0.552439
O O16 0.024305 0.125149 0.578799
O O17 0.000000 0.159276 0.500000
O O18 0.549041 0.500000 0.626743
#
# Coordination Sequence:
#
# PCOD8106127 Si02
#       7
#     8   8   8   8   8   8   8
#     4  10  21  38  54  85 118 150 187 227 286 338
#     4  12  25  41  59  94 122 150 195 241 292 345
#     4  10  22  40  61  84 118 159 193 240 297 358
#     4  10  21  39  64  87 112 154 200 234 275 339
#     4  10  22  43  64  86 118 157 195 236 288 344
#     4  10  21  36  55  81 117 157 199 244 302 362
#     4  10  21  37  59  87 113 151 205 246 296 352
#
# _framework density 20.643260999999999
#
# number of rings (size 3 to 8) (size 9 to 14) (size 15 to 20)
#    0.000    1.714    0.000    3.857    0.000    4.286 
#   15.429    5.714    0.000    5.143    0.000    0.000 
#    0.000    0.000    0.000    0.000    0.000    0.000 
#
# Total GULP energy -347264.281050 kJ/mol
# GULP energy per Si atom -12402.295752 kJ/mol
# Density = 2.059628 g / cm^3
# Si number density = 20.643261 Si / 1000 Ang^3
#
#
#
# Elastic Constant Matrix: (Units=GPa)
#
#
# Indices 1 2 3 4 5 6 
#
# 1 -18.0451 4.5515 -127.7034 0.0000 -1.6182 0.0000
# 2 4.5515 31.0029 26.9625 0.0000 -1.0228 0.0000
# 3 -127.7034 26.9625 -25.7458 0.0000 0.1900 0.0000
# 4 0.0000 0.0000 0.0000 123.5872 0.0000 95.5826
# 5 -1.6182 -1.0228 0.1900 0.0000 34.1290 0.0000
# 6 0.0000 0.0000 0.0000 95.5826 0.0000 119.9575
#
#
#
# Elastic Compliance Matrix: (Units=1/GPa)
#
#
# Indices 1 2 3 4 5 6 
#
# 1 0.003002 0.006552 -0.008026 0.000000 0.000383 0.000000
# 2 0.006552 0.031186 0.000170 0.000000 0.001244 0.000000
# 3 -0.008026 0.000170 0.001145 0.000000 -0.000382 0.000000
# 4 0.000000 0.000000 0.000000 0.021085 0.000000 -0.016801
# 5 0.000383 0.001244 -0.000382 0.000000 0.029358 0.000000
# 6 0.000000 0.000000 0.000000 -0.016801 0.000000 0.021723
#
#
# Mechanical properties :
#
#
# Convention : Reuss Voigt Hill
#
# Bulk Modulus (GPa) = 30.55754 -22.79631 3.88062
# Shear Modulus (GPa) = 41.31657 61.09484 51.20571
#
# Velocity S-wave (km/s) = 4.47862 5.44608 4.98587
# Velocity P-wave (km/s) = 6.44816 5.33661 5.91854
#
# Compressibility (1/GPa) = 0.03272515
#
# Stress axis : x y z
#
# Youngs Moduli (GPa) = 333.10293 32.06525 873.33597
#
# Poissons Ratio (x) = -0.21010 7.00956
# Poissons Ratio (y) = -2.18253 -0.14837
# Poissons Ratio (z) = 2.67355 -0.00545
#
# Static dielectric constant tensor:
#      x y z
#    x 3.514260 0.000000 0.064880 
#    y 0.000000 3.475110 0.000000 
#    z 0.064880 0.000000 3.775880 
# 
# 
# High freq. dielectric constant tensor:
#      x y z
#    x 1.837260 0.000000 -0.002660 
#    y 0.000000 1.784360 0.000000 
#    z -0.002660 0.000000 1.820540 
# 
# From -- ./inp_files/354946.got.cif
#   From: 2010.06.25/outbox.cif.g09.slc.cpg/sg12_178_cif.got.tgz:354946.got - 2010.06.28 00:19:55.
