data_PCOD8106398
_publ_section_title
;
Structure prediction by ZEFSAII (Michael W. Deem and Ramdas Pophale) SiO2 
 PCOD8106398
Probable space group: C 2/M
;
_chemical_formula_sum "Si O2"
_cell_formula_units_Z 32
_cell_length_a 14.390412
_cell_length_b 20.945560
_cell_length_c 5.206369
_cell_angle_alpha 90.000000
_cell_angle_beta 87.039026
_cell_angle_gamma 90.000000
_cell_volume 1567.183886
_symmetry_space_group_name_H-M "C 2/M"
_symmetry_group_IT_number 12
_symmetry_cell_setting 'monoclinic'
loop_
_space_group_symop_operation_xyz
x,y,z
-x,y,-z
-x,-y,-z
x,-y,z
1/2+x,1/2+y,z
1/2-x,1/2+y,-z
1/2-x,1/2-y,-z
1/2+x,1/2-y,z
loop_
_atom_site_type_symbol
_atom_site_label
_atom_site_fract_x
_atom_site_fract_y
_atom_site_fract_z
Si Si1 0.098527 0.071559 0.620811
Si Si2 0.740022 0.343617 0.368941
Si Si3 0.651002 0.691496 0.871673
Si Si4 0.556650 0.180543 0.754697
O O1 0.180950 0.090663 0.407499
O O2 0.100142 0.122134 0.856235
O O3 0.000000 0.076697 0.500000
O O4 0.116241 0.000000 0.722166
O O5 0.727699 0.302232 0.631967
O O6 0.848146 0.358960 0.302673
O O7 0.701109 0.301791 0.137417
O O8 0.576314 0.746896 0.838942
O O9 0.500000 0.179330 0.500000
O O10 0.500000 0.148402 0.000000
#
# Coordination Sequence:
#
# PCOD8106398 Si02
#       4
#     8   8   8   8
#     4   9  21  38  61  86 115 151 190 234 286 340
#     4  10  22  38  58  85 120 150 189 233 286 338
#     4  10  21  36  58  84 119 150 184 236 280 343
#     4  12  23  36  60  87 118 153 190 233 283 341
#
# _framework density 20.418789
#
# number of rings (size 3 to 8) (size 9 to 14) (size 15 to 20)
#    1.500    0.250    0.000    5.250    3.500    1.000 
#    0.000    2.500    0.000    1.500    0.000    0.000 
#    0.000    0.000    0.000    0.000    0.000    0.000 
#
# Total GULP energy -198257.066323 kJ/mol
# GULP energy per Si atom -12391.066645 kJ/mol
# Density = 2.037231 g / cm^3
# Si number density = 20.418789 Si / 1000 Ang^3
#
#
#
# Elastic Constant Matrix: (Units=GPa)
#
#
# Indices 1 2 3 4 5 6 
#
# 1 144.6625 32.3983 44.2007 0.0000 -3.6323 0.0000
# 2 32.3983 63.7088 5.2589 0.0000 1.3171 0.0000
# 3 44.2007 5.2589 123.3411 0.0000 9.7307 0.0000
# 4 0.0000 0.0000 0.0000 12.7414 0.0000 0.1307
# 5 -3.6323 1.3171 9.7307 0.0000 39.1396 0.0000
# 6 0.0000 0.0000 0.0000 0.1307 0.0000 10.9955
#
#
#
# Elastic Compliance Matrix: (Units=1/GPa)
#
#
# Indices 1 2 3 4 5 6 
#
# 1 0.008876 -0.004291 -0.003136 0.000000 0.001748 0.000000
# 2 -0.004291 0.017832 0.000873 0.000000 -0.001215 0.000000
# 3 -0.003136 0.000873 0.009404 0.000000 -0.002658 0.000000
# 4 0.000000 0.000000 0.000000 0.078494 0.000000 -0.000933
# 5 0.001748 -0.001215 -0.002658 0.000000 0.026414 0.000000
# 6 0.000000 0.000000 0.000000 -0.000933 0.000000 0.090957
#
#
# Mechanical properties :
#
#
# Convention : Reuss Voigt Hill
#
# Bulk Modulus (GPa) = 43.46972 55.04756 49.25864
# Shear Modulus (GPa) = 19.78237 29.23227 24.50732
#
# Velocity S-wave (km/s) = 3.11598 3.78780 3.46820
# Velocity P-wave (km/s) = 5.85501 6.79321 6.34148
#
# Compressibility (1/GPa) = 0.02300452
#
# Stress axis : x y z
#
# Youngs Moduli (GPa) = 112.66913 56.08048 106.34054
#
# Poissons Ratio (x) = 0.24063 0.33344
# Poissons Ratio (y) = 0.48345 -0.09286
# Poissons Ratio (z) = 0.35328 -0.04897
#
# Static dielectric constant tensor:
#      x y z
#    x 3.774580 0.000000 -0.098380 
#    y 0.000000 3.444390 0.000000 
#    z -0.098380 0.000000 3.701030 
# 
# 
# High freq. dielectric constant tensor:
#      x y z
#    x 1.805020 0.000000 -0.003270 
#    y 0.000000 1.755300 0.000000 
#    z -0.003270 0.000000 1.807850 
# 
# From -- ./inp_files/6651.got.cif
#   From: 2010.06.25/outbox.cif.g09.slc.cpg/sg12_4_cif.got.tgz:6651.got - 2010.06.28 00:19:55.
