data_PCOD8106282
_publ_section_title
;
Structure prediction by ZEFSAII (Michael W. Deem and Ramdas Pophale) SiO2 
 PCOD8106282
Probable space group: C 2/M
;
_chemical_formula_sum "Si O2"
_cell_formula_units_Z 56
_cell_length_a 19.871482
_cell_length_b 19.400978
_cell_length_c 8.600285
_cell_angle_alpha 90.000000
_cell_angle_beta 57.644632
_cell_angle_gamma 90.000000
_cell_volume 2800.866361
_symmetry_space_group_name_H-M "C 2/M"
_symmetry_group_IT_number 12
_symmetry_cell_setting 'monoclinic'
loop_
_space_group_symop_operation_xyz
x,y,z
-x,y,-z
-x,-y,-z
x,-y,z
1/2+x,1/2+y,z
1/2-x,1/2+y,-z
1/2-x,1/2-y,-z
1/2+x,1/2-y,z
loop_
_atom_site_type_symbol
_atom_site_label
_atom_site_fract_x
_atom_site_fract_y
_atom_site_fract_z
Si Si1 0.993828 0.577859 0.824998
Si Si2 0.067800 0.311856 0.535099
Si Si3 0.814304 0.421982 0.005085
Si Si4 0.282719 0.578772 0.576337
Si Si5 0.745808 0.187279 0.379847
Si Si6 0.416824 0.662403 0.577126
Si Si7 0.701373 0.314592 0.007000
O O1 0.014304 0.500000 0.734923
O O2 0.053577 0.639237 0.701707
O O3 0.905870 0.600916 0.876888
O O4 0.000000 0.573586 0.000000
O O5 0.162688 0.317878 0.385782
O O6 0.057985 0.229186 0.559156
O O7 0.000000 0.340489 0.500000
O O8 0.803970 0.500000 0.964815
O O9 0.790120 0.412423 0.214974
O O10 0.755564 0.381501 0.965305
O O11 0.302030 0.500000 0.514833
O O12 0.259020 0.615096 0.446778
O O13 0.360981 0.613251 0.549217
O O14 0.750000 0.250000 0.500000
O O15 0.813578 0.194834 0.161013
O O16 0.500000 0.622151 0.500000
O O17 0.379372 0.682168 0.791910
O O18 0.750000 0.250000 0.000000
#
# Coordination Sequence:
#
# PCOD8106282 Si02
#       7
#     8   8   8   8   8   8   8
#     4  10  21  36  56  88 128 168 203 243 303 372
#     4  11  22  38  58  87 127 163 203 256 300 365
#     4   9  19  37  59  87 122 161 206 245 298 371
#     4  10  21  40  66  92 124 166 206 257 313 363
#     4  12  22  39  61  91 125 161 205 259 309 366
#     4  10  22  42  62  91 123 158 213 263 305 369
#     4  11  21  38  63  84 117 162 205 255 307 360
#
# _framework density 19.993812999999999
#
# number of rings (size 3 to 8) (size 9 to 14) (size 15 to 20)
#    0.000    1.571    2.857    2.571    2.000    2.857 
#    0.000    0.714    0.000    0.857    0.000    0.000 
#    0.000    0.000    0.000    0.000    0.000    0.000 
#
# Total GULP energy -346868.483204 kJ/mol
# GULP energy per Si atom -12388.160114 kJ/mol
# Density = 1.994831 g / cm^3
# Si number density = 19.993813 Si / 1000 Ang^3
#
#
#
# Elastic Constant Matrix: (Units=GPa)
#
#
# Indices 1 2 3 4 5 6 
#
# 1 84.7233 25.3306 33.8944 0.0000 -9.2762 0.0000
# 2 25.3306 111.6849 50.9799 0.0000 2.3732 0.0000
# 3 33.8944 50.9799 87.9666 0.0000 4.0321 0.0000
# 4 0.0000 0.0000 0.0000 30.9153 0.0000 -2.7146
# 5 -9.2762 2.3732 4.0321 0.0000 34.7794 0.0000
# 6 0.0000 0.0000 0.0000 -2.7146 0.0000 25.8976
#
#
#
# Elastic Compliance Matrix: (Units=1/GPa)
#
#
# Indices 1 2 3 4 5 6 
#
# 1 0.014732 -0.001022 -0.005296 0.000000 0.004613 0.000000
# 2 -0.001022 0.012245 -0.006687 0.000000 -0.000333 0.000000
# 3 -0.005296 -0.006687 0.017420 0.000000 -0.002976 0.000000
# 4 0.000000 0.000000 0.000000 0.032647 0.000000 0.003422
# 5 0.004613 -0.000333 -0.002976 0.000000 0.030351 0.000000
# 6 0.000000 0.000000 0.000000 0.003422 0.000000 0.038972
#
#
# Mechanical properties :
#
#
# Convention : Reuss Voigt Hill
#
# Bulk Modulus (GPa) = 54.38445 56.08716 55.23581
# Shear Modulus (GPa) = 28.01002 29.92980 28.96991
#
# Velocity S-wave (km/s) = 3.74697 3.87325 3.81063
# Velocity P-wave (km/s) = 6.78081 6.93656 6.85913
#
# Compressibility (1/GPa) = 0.01838761
#
# Stress axis : x y z
#
# Youngs Moduli (GPa) = 67.87777 81.66444 57.40384
#
# Poissons Ratio (x) = 0.08347 0.30399
# Poissons Ratio (y) = 0.06938 0.38389
# Poissons Ratio (z) = 0.35945 0.54613
#
# Static dielectric constant tensor:
#      x y z
#    x 3.731600 0.000000 -0.333450 
#    y 0.000000 3.734010 0.000000 
#    z -0.333450 0.000000 4.945150 
# 
# 
# High freq. dielectric constant tensor:
#      x y z
#    x 1.775340 0.000000 -0.004870 
#    y 0.000000 1.784500 0.000000 
#    z -0.004870 0.000000 1.768960 
# 
# From -- ./inp_files/89517.got.cif
#   From: 2010.06.25/outbox.cif.g09.slc.cpg/sg12_45_cif.got.tgz:89517.got - 2010.06.28 00:19:55.
