data_PCOD8106531
_publ_section_title
;
Structure prediction by ZEFSAII (Michael W. Deem and Ramdas Pophale) SiO2 
 PCOD8106531
Probable space group: C 2/M
;
_chemical_formula_sum "Si O2"
_cell_formula_units_Z 48
_cell_length_a 28.205931
_cell_length_b 19.003599
_cell_length_c 9.694646
_cell_angle_alpha 90.000000
_cell_angle_beta 26.622597
_cell_angle_gamma 90.000000
_cell_volume 2328.598085
_symmetry_space_group_name_H-M "C 2/M"
_symmetry_group_IT_number 12
_symmetry_cell_setting 'monoclinic'
loop_
_space_group_symop_operation_xyz
x,y,z
-x,y,-z
-x,-y,-z
x,-y,z
1/2+x,1/2+y,z
1/2-x,1/2+y,-z
1/2-x,1/2-y,-z
1/2+x,1/2-y,z
loop_
_atom_site_type_symbol
_atom_site_label
_atom_site_fract_x
_atom_site_fract_y
_atom_site_fract_z
Si Si1 0.795684 0.636576 0.857196
Si Si2 0.231127 0.833361 0.549217
Si Si3 0.400323 0.728430 0.665313
Si Si4 0.119183 0.580871 0.642843
Si Si5 0.800991 0.921399 0.629067
Si Si6 0.994615 0.165974 0.162931
O O1 0.865773 0.690932 0.764547
O O2 0.864923 0.598437 0.560330
O O3 0.696348 0.676694 0.043863
O O4 0.756674 0.581208 0.072742
O O5 0.250000 0.750000 0.500000
O O6 0.308934 0.868826 0.453613
O O7 0.248927 0.865890 0.350053
O O8 0.112269 0.850905 0.910410
O O9 0.500000 0.710303 0.500000
O O10 0.432566 0.718697 0.422614
O O11 0.151253 0.500000 0.584470
O O12 0.000000 0.594714 0.000000
O O13 0.925887 0.905432 0.325976
O O14 0.788683 0.000000 0.601848
O O15 0.000000 0.204574 0.000000
#
# Coordination Sequence:
#
# PCOD8106531 Si02
#       6
#     8   8   8   8   8   8
#     4  10  23  38  63  89 124 163 210 254 309 369
#     4  11  25  38  67  95 125 162 207 261 309 368
#     4  10  21  36  59  92 125 156 199 260 310 364
#     4  11  26  44  62  88 127 172 211 253 309 374
#     4  10  22  42  64  93 128 164 206 256 313 373
#     4   9  21  37  60  94 122 156 202 251 317 363
#
# _framework density 20.61326
#
# number of rings (size 3 to 8) (size 9 to 14) (size 15 to 20)
#    0.000    1.833    0.000    2.000   14.000    3.667 
#    0.000    0.000    0.000    9.500    0.000    0.000 
#    0.000    0.000    0.000    0.000    0.000    0.000 
#
# Total GULP energy -297567.429774 kJ/mol
# GULP energy per Si atom -12398.642907 kJ/mol
# Density = 2.056634 g / cm^3
# Si number density = 20.613260 Si / 1000 Ang^3
#
#
#
# Elastic Constant Matrix: (Units=GPa)
#
#
# Indices 1 2 3 4 5 6 
#
# 1 77.6887 44.4995 37.7775 0.0000 1.3707 0.0000
# 2 44.4995 128.7000 34.1407 0.0000 3.8997 0.0000
# 3 37.7775 34.1407 123.8927 0.0000 17.8167 0.0000
# 4 0.0000 0.0000 0.0000 15.4799 0.0000 0.6244
# 5 1.3707 3.8997 17.8167 0.0000 32.0173 0.0000
# 6 0.0000 0.0000 0.0000 0.6244 0.0000 26.8539
#
#
#
# Elastic Compliance Matrix: (Units=1/GPa)
#
#
# Indices 1 2 3 4 5 6 
#
# 1 0.017875 -0.005089 -0.004378 0.000000 0.002291 0.000000
# 2 -0.005089 0.009834 -0.001106 0.000000 -0.000365 0.000000
# 3 -0.004378 -0.001106 0.010505 0.000000 -0.005524 0.000000
# 4 0.000000 0.000000 0.000000 0.064660 0.000000 -0.001504
# 5 0.002291 -0.000365 -0.005524 0.000000 0.034253 0.000000
# 6 0.000000 0.000000 0.000000 -0.001504 0.000000 0.037274
#
#
# Mechanical properties :
#
#
# Convention : Reuss Voigt Hill
#
# Bulk Modulus (GPa) = 58.58190 62.56854 60.57522
# Shear Modulus (GPa) = 24.84651 29.12779 26.98715
#
# Velocity S-wave (km/s) = 3.47560 3.76315 3.62223
# Velocity P-wave (km/s) = 6.67740 7.02148 6.85160
#
# Compressibility (1/GPa) = 0.01707012
#
# Stress axis : x y z
#
# Youngs Moduli (GPa) = 55.94451 101.68962 95.18899
#
# Poissons Ratio (x) = 0.51746 0.41670
# Poissons Ratio (y) = 0.28468 0.10526
# Poissons Ratio (z) = 0.24490 0.11245
#
# Static dielectric constant tensor:
#      x y z
#    x 3.673740 0.000000 0.035830 
#    y 0.000000 3.545120 0.000000 
#    z 0.035830 0.000000 4.051640 
# 
# 
# High freq. dielectric constant tensor:
#      x y z
#    x 1.802830 0.000000 0.005580 
#    y 0.000000 1.792990 0.000000 
#    z 0.005580 0.000000 1.822920 
# 
# From -- ./inp_files/106496.got.cif
#   From: 2010.06.25/outbox.cif.g09.slc.cpg/sg12_54_cif.got.tgz:106496.got - 2010.06.28 00:19:55.
