data_PCOD8106648
_publ_section_title
;
Structure prediction by ZEFSAII (Michael W. Deem and Ramdas Pophale) SiO2 
 PCOD8106648
Probable space group: C 2/M
;
_chemical_formula_sum "Si O2"
_cell_formula_units_Z 56
_cell_length_a 19.739370
_cell_length_b 30.076817
_cell_length_c 8.967354
_cell_angle_alpha 90.000000
_cell_angle_beta 148.956713
_cell_angle_gamma 90.000000
_cell_volume 2745.455515
_symmetry_space_group_name_H-M "C 2/M"
_symmetry_group_IT_number 12
_symmetry_cell_setting 'monoclinic'
loop_
_space_group_symop_operation_xyz
x,y,z
-x,y,-z
-x,-y,-z
x,-y,z
1/2+x,1/2+y,z
1/2-x,1/2+y,-z
1/2-x,1/2-y,-z
1/2+x,1/2-y,z
loop_
_atom_site_type_symbol
_atom_site_label
_atom_site_fract_x
_atom_site_fract_y
_atom_site_fract_z
Si Si1 0.050503 0.607120 0.260148
Si Si2 0.887831 0.203342 0.664064
Si Si3 0.873111 0.388799 0.180870
Si Si4 0.977577 0.949350 0.784323
Si Si5 0.231509 0.450356 0.765111
Si Si6 0.125415 0.301320 0.338149
Si Si7 0.396224 0.368713 0.438068
O O1 0.173405 0.574403 0.510675
O O2 0.099379 0.657068 0.399141
O O3 0.929884 0.591253 0.134794
O O4 0.000000 0.606213 0.000000
O O5 0.859601 0.253766 0.550630
O O6 0.752533 0.185773 0.479716
O O7 0.933233 0.173172 0.611119
O O8 0.000000 0.201421 0.000000
O O9 0.820255 0.428850 0.181021
O O10 0.000000 0.364731 0.500000
O O11 0.747536 0.358229 0.904582
O O12 0.888615 0.913354 0.527879
O O13 0.918989 0.000000 0.665941
O O14 0.112888 0.947975 0.949225
O O15 0.000000 0.935802 0.000000
O O16 0.178514 0.500000 0.662257
O O17 0.000000 0.295589 0.000000
O O18 0.500000 0.373305 0.500000
#
# Coordination Sequence:
#
# PCOD8106648 Si02
#       7
#     8   8   8   8   8   8   8
#     4  10  21  36  64  89 118 161 210 253 301 360
#     4  10  22  37  64  95 123 158 204 258 303 365
#     4  10  23  41  59  83 120 166 200 245 305 369
#     4  10  23  40  61  89 124 163 204 256 313 369
#     4  10  22  41  59  85 124 163 204 252 310 363
#     4   9  19  39  61  90 125 162 202 243 314 369
#     4  12  23  38  63  93 124 159 209 255 309 367
#
# _framework density 20.397342999999999
#
# number of rings (size 3 to 8) (size 9 to 14) (size 15 to 20)
#    0.000    1.857    1.429    2.143    6.000    3.714 
#    0.000    2.143    0.000   12.000    0.000    0.000 
#    0.000    0.000    0.000    0.000    0.000    0.000 
#
# Total GULP energy -346925.756687 kJ/mol
# GULP energy per Si atom -12390.205596 kJ/mol
# Density = 2.035092 g / cm^3
# Si number density = 20.397343 Si / 1000 Ang^3
#
#
#
# Elastic Constant Matrix: (Units=GPa)
#
#
# Indices 1 2 3 4 5 6 
#
# 1 100.4358 33.1505 33.3421 0.0000 -10.1125 0.0000
# 2 33.1505 104.3128 24.0125 0.0000 -18.4096 0.0000
# 3 33.3421 24.0125 106.3238 0.0000 2.3094 0.0000
# 4 0.0000 0.0000 0.0000 21.8763 0.0000 1.6055
# 5 -10.1125 -18.4096 2.3094 0.0000 33.2679 0.0000
# 6 0.0000 0.0000 0.0000 1.6055 0.0000 25.9162
#
#
#
# Elastic Compliance Matrix: (Units=1/GPa)
#
#
# Indices 1 2 3 4 5 6 
#
# 1 0.012172 -0.002687 -0.003263 0.000000 0.002440 0.000000
# 2 -0.002687 0.011944 -0.001984 0.000000 0.005930 0.000000
# 3 -0.003263 -0.001984 0.010938 0.000000 -0.002849 0.000000
# 4 0.000000 0.000000 0.000000 0.045920 0.000000 -0.002845
# 5 0.002440 0.005930 -0.002849 0.000000 0.034280 0.000000
# 6 0.000000 0.000000 0.000000 -0.002845 0.000000 0.038762
#
#
# Mechanical properties :
#
#
# Convention : Reuss Voigt Hill
#
# Bulk Modulus (GPa) = 52.11820 54.67584 53.39702
# Shear Modulus (GPa) = 28.36395 30.91657 29.64026
#
# Velocity S-wave (km/s) = 3.73308 3.89744 3.81615
# Velocity P-wave (km/s) = 6.64742 6.86418 6.75667
#
# Compressibility (1/GPa) = 0.01918716
#
# Stress axis : x y z
#
# Youngs Moduli (GPa) = 82.15325 83.72694 91.42028
#
# Poissons Ratio (x) = 0.22494 0.29834
# Poissons Ratio (y) = 0.22071 0.18135
# Poissons Ratio (z) = 0.26810 0.16609
#
# Static dielectric constant tensor:
#      x y z
#    x 3.748070 0.000000 0.121210 
#    y 0.000000 4.065850 0.000000 
#    z 0.121210 0.000000 3.837130 
# 
# 
# High freq. dielectric constant tensor:
#      x y z
#    x 1.799500 0.000000 0.012150 
#    y 0.000000 1.788010 0.000000 
#    z 0.012150 0.000000 1.798450 
# 
# From -- ./inp_files/91626.got.cif
#   From: 2010.06.25/outbox.cif.g09.slc.cpg/sg12_46_cif.got.tgz:91626.got - 2010.06.28 00:19:55.
