data_PCOD8106663
_publ_section_title
;
Structure prediction by ZEFSAII (Michael W. Deem and Ramdas Pophale) SiO2 
 PCOD8106663
Probable space group: C 2/M
;
_chemical_formula_sum "Si O2"
_cell_formula_units_Z 48
_cell_length_a 22.781820
_cell_length_b 8.655298
_cell_length_c 20.009679
_cell_angle_alpha 90.000000
_cell_angle_beta 136.376950
_cell_angle_gamma 90.000000
_cell_volume 2722.096516
_symmetry_space_group_name_H-M "C 2/M"
_symmetry_group_IT_number 12
_symmetry_cell_setting 'monoclinic'
loop_
_space_group_symop_operation_xyz
x,y,z
-x,y,-z
-x,-y,-z
x,-y,z
1/2+x,1/2+y,z
1/2-x,1/2+y,-z
1/2-x,1/2-y,-z
1/2+x,1/2-y,z
loop_
_atom_site_type_symbol
_atom_site_label
_atom_site_fract_x
_atom_site_fract_y
_atom_site_fract_z
Si Si1 0.593447 0.181829 0.724071
Si Si2 0.658155 0.319116 0.912978
Si Si3 0.048622 0.182506 0.947169
Si Si4 0.383404 0.819078 0.865054
Si Si5 0.207992 0.682055 0.689864
Si Si6 0.443338 0.820587 0.516951
O O1 0.621155 0.275281 0.811140
O O2 0.659563 0.216748 0.719178
O O3 0.497646 0.243376 0.624977
O O4 0.592391 0.000000 0.739040
O O5 0.668228 0.500000 0.926790
O O6 0.594287 0.259549 0.917602
O O7 0.750000 0.250000 0.000000
O O8 0.958678 0.269899 0.877085
O O9 0.032606 0.000000 0.934612
O O10 0.108348 0.226706 0.058792
O O11 0.294533 0.777470 0.757434
O O12 0.389144 0.000000 0.884541
O O13 0.226651 0.500000 0.699102
O O14 0.150996 0.743101 0.579119
O O15 0.500000 0.787099 0.500000
O O16 0.432842 0.000000 0.520386
#
# Coordination Sequence:
#
# PCOD8106663 Si02
#       6
#     8   8   8   8   8   8
#     4   9  17  30  50  74 100 130 161 196 237 279
#     4  11  23  35  50  72  98 129 161 194 234 284
#     4  10  21  37  52  67  92 129 166 194 232 287
#     4  11  21  32  50  75  98 121 155 203 248 279
#     4   9  16  29  50  74 100 130 162 193 231 285
#     4   7  12  25  46  71  96 125 162 196 228 275
#
# _framework density 17.633468000000001
#
# number of rings (size 3 to 8) (size 9 to 14) (size 15 to 20)
#    0.000    2.500    0.000    6.500    0.000    7.333 
#    0.000    0.833    0.000    4.000    0.000    0.000 
#    0.000    0.000    0.000    0.000    0.000    0.000 
#
# Total GULP energy -297385.358020 kJ/mol
# GULP energy per Si atom -12391.056584 kJ/mol
# Density = 1.759333 g / cm^3
# Si number density = 17.633468 Si / 1000 Ang^3
#
#
#
# Elastic Constant Matrix: (Units=GPa)
#
#
# Indices 1 2 3 4 5 6 
#
# 1 83.0021 25.7249 55.6560 0.0000 4.5674 0.0000
# 2 25.7249 37.6696 17.2779 0.0000 5.1415 0.0000
# 3 55.6560 17.2779 150.8772 0.0000 17.3159 0.0000
# 4 0.0000 0.0000 0.0000 23.5443 0.0000 -1.4550
# 5 4.5674 5.1415 17.3159 0.0000 26.7778 0.0000
# 6 0.0000 0.0000 0.0000 -1.4550 0.0000 21.9696
#
#
#
# Elastic Compliance Matrix: (Units=1/GPa)
#
#
# Indices 1 2 3 4 5 6 
#
# 1 0.019429 -0.010782 -0.006254 0.000000 0.002800 0.000000
# 2 -0.010782 0.034321 0.000640 0.000000 -0.005164 0.000000
# 3 -0.006254 0.000640 0.009455 0.000000 -0.005170 0.000000
# 4 0.000000 0.000000 0.000000 0.042648 0.000000 0.002824
# 5 0.002800 -0.005164 -0.005170 0.000000 0.041202 0.000000
# 6 0.000000 0.000000 0.000000 0.002824 0.000000 0.045704
#
#
# Mechanical properties :
#
#
# Convention : Reuss Voigt Hill
#
# Bulk Modulus (GPa) = 32.88063 52.09629 42.48846
# Shear Modulus (GPa) = 21.21451 25.98437 23.59944
#
# Velocity S-wave (km/s) = 3.47231 3.84289 3.66229
# Velocity P-wave (km/s) = 5.89603 7.02129 6.48312
#
# Compressibility (1/GPa) = 0.03041304
#
# Stress axis : x y z
#
# Youngs Moduli (GPa) = 51.47019 29.13652 105.76567
#
# Poissons Ratio (x) = 0.31415 0.66141
# Poissons Ratio (y) = 0.55495 -0.06765
# Poissons Ratio (z) = 0.32187 -0.01864
#
# Static dielectric constant tensor:
#      x y z
#    x 2.641470 0.000000 0.524650 
#    y 0.000000 3.087300 0.000000 
#    z 0.524650 0.000000 3.375870 
# 
# 
# High freq. dielectric constant tensor:
#      x y z
#    x 1.651650 0.000000 0.013790 
#    y 0.000000 1.667940 0.000000 
#    z 0.013790 0.000000 1.699300 
# 
# From -- ./inp_files/323877.got.cif
#   From: 2010.06.25/outbox.cif.g09.slc.cpg/sg12_162_cif.got.tgz:323877.got - 2010.06.28 00:19:55.
