data_PCOD8106076
_publ_section_title
;
Structure prediction by ZEFSAII (Michael W. Deem and Ramdas Pophale) SiO2 
 PCOD8106076
Probable space group: C 2/M
;
_chemical_formula_sum "Si O2"
_cell_formula_units_Z 56
_cell_length_a 15.513799
_cell_length_b 25.200829
_cell_length_c 8.153792
_cell_angle_alpha 90.000000
_cell_angle_beta 122.672627
_cell_angle_gamma 90.000000
_cell_volume 2683.400111
_symmetry_space_group_name_H-M "C 2/M"
_symmetry_group_IT_number 12
_symmetry_cell_setting 'monoclinic'
loop_
_space_group_symop_operation_xyz
x,y,z
-x,y,-z
-x,-y,-z
x,-y,z
1/2+x,1/2+y,z
1/2-x,1/2+y,-z
1/2-x,1/2-y,-z
1/2+x,1/2-y,z
loop_
_atom_site_type_symbol
_atom_site_label
_atom_site_fract_x
_atom_site_fract_y
_atom_site_fract_z
Si Si1 0.443800 0.683800 0.102787
Si Si2 0.639874 0.346599 0.483035
Si Si3 0.251471 0.351813 0.741537
Si Si4 0.951461 0.561674 0.791392
Si Si5 0.136212 0.560643 0.794169
Si Si6 0.888105 0.253467 0.328975
Si Si7 0.251164 0.439923 0.258177
O O1 0.522985 0.651021 0.298237
O O2 0.395558 0.733511 0.149223
O O3 0.500000 0.707547 0.000000
O O4 0.355291 0.643452 0.954847
O O5 0.722414 0.344994 0.422032
O O6 0.656084 0.293648 0.604106
O O7 0.657894 0.397897 0.617857
O O8 0.186176 0.405053 0.701014
O O9 0.188861 0.301854 0.742664
O O10 0.979719 0.500000 0.832456
O O11 0.829612 0.570564 0.674041
O O12 0.017027 0.580373 0.698766
O O13 0.000000 0.590637 0.000000
O O14 0.141720 0.500000 0.738315
O O15 0.197693 0.568549 0.027863
O O16 0.000000 0.272463 0.500000
O O17 0.294242 0.500000 0.314869
#
# Coordination Sequence:
#
# PCOD8106076 Si02
#       7
#     8   8   8   8   8   8   8
#     4   9  20  38  57  78 106 142 178 220 270 317
#     4  10  21  36  55  79 111 142 176 224 269 308
#     4  11  21  35  56  80 107 143 184 216 261 325
#     4   7  12  26  47  71 102 138 173 211 256 305
#     4   9  18  33  53  79 111 143 178 222 268 316
#     4  10  21  38  58  80 108 138 175 223 273 320
#     4   9  17  32  55  80 107 145 186 220 263 318
#
# _framework density 20.869045
#
# number of rings (size 3 to 8) (size 9 to 14) (size 15 to 20)
#    0.000    2.714    0.000    3.429    0.000    1.714 
#    0.000    2.857    0.000   11.143    0.000    0.000 
#    0.000    0.000    0.000    0.000    0.000    0.000 
#
# Total GULP energy -346977.604777 kJ/mol
# GULP energy per Si atom -12392.057313 kJ/mol
# Density = 2.082155 g / cm^3
# Si number density = 20.869045 Si / 1000 Ang^3
#
#
#
# Elastic Constant Matrix: (Units=GPa)
#
#
# Indices 1 2 3 4 5 6 
#
# 1 101.0436 45.1366 10.1738 0.0000 -12.3086 0.0000
# 2 45.1366 99.0256 17.0403 0.0000 3.8795 0.0000
# 3 10.1738 17.0403 28.5343 0.0000 -4.3784 0.0000
# 4 0.0000 0.0000 0.0000 21.1718 0.0000 -2.0129
# 5 -12.3086 3.8795 -4.3784 0.0000 24.7046 0.0000
# 6 0.0000 0.0000 0.0000 -2.0129 0.0000 30.3047
#
#
#
# Elastic Compliance Matrix: (Units=1/GPa)
#
#
# Indices 1 2 3 4 5 6 
#
# 1 0.013814 -0.006656 0.000274 0.000000 0.007976 0.000000
# 2 -0.006656 0.014689 -0.007465 0.000000 -0.006946 0.000000
# 3 0.000274 -0.007465 0.040714 0.000000 0.008524 0.000000
# 4 0.000000 0.000000 0.000000 0.047533 0.000000 0.003157
# 5 0.007976 -0.006946 0.008524 0.000000 0.047054 0.000000
# 6 0.000000 0.000000 0.000000 0.003157 0.000000 0.033208
#
#
# Mechanical properties :
#
#
# Convention : Reuss Voigt Hill
#
# Bulk Modulus (GPa) = 24.08344 41.47832 32.78088
# Shear Modulus (GPa) = 20.96025 25.65307 23.30666
#
# Velocity S-wave (km/s) = 3.17262 3.50986 3.34549
# Velocity P-wave (km/s) = 4.99860 6.02861 5.53760
#
# Compressibility (1/GPa) = 0.04152231
#
# Stress axis : x y z
#
# Youngs Moduli (GPa) = 72.38953 68.07834 24.56173
#
# Poissons Ratio (x) = 0.45314 -0.00672
# Poissons Ratio (y) = 0.48184 0.18334
# Poissons Ratio (z) = -0.01980 0.50818
#
# Static dielectric constant tensor:
#      x y z
#    x 4.052020 0.000000 -0.028990 
#    y 0.000000 3.424360 0.000000 
#    z -0.028990 0.000000 3.705190 
# 
# 
# High freq. dielectric constant tensor:
#      x y z
#    x 1.828750 0.000000 -0.007410 
#    y 0.000000 1.783440 0.000000 
#    z -0.007410 0.000000 1.815560 
# 
# From -- ./inp_files/65977.got.cif
#   From: 2010.06.25/outbox.cif.g09.slc.cpg/sg12_33_cif.got.tgz:65977.got - 2010.06.28 00:19:55.
