data_PCOD8106856
_publ_section_title
;
Structure prediction by ZEFSAII (Michael W. Deem and Ramdas Pophale) SiO2 
 PCOD8106856
Probable space group: C 2/M
;
_chemical_formula_sum "Si O2"
_cell_formula_units_Z 44
_cell_length_a 23.419659
_cell_length_b 10.993714
_cell_length_c 9.192542
_cell_angle_alpha 90.000000
_cell_angle_beta 86.584978
_cell_angle_gamma 90.000000
_cell_volume 2362.592051
_symmetry_space_group_name_H-M "C 2/M"
_symmetry_group_IT_number 12
_symmetry_cell_setting 'monoclinic'
loop_
_space_group_symop_operation_xyz
x,y,z
-x,y,-z
-x,-y,-z
x,-y,z
1/2+x,1/2+y,z
1/2-x,1/2+y,-z
1/2-x,1/2-y,-z
1/2+x,1/2-y,z
loop_
_atom_site_type_symbol
_atom_site_label
_atom_site_fract_x
_atom_site_fract_y
_atom_site_fract_z
Si Si1 0.775905 0.866619 0.654074
Si Si2 0.513868 0.000000 0.244574
Si Si3 0.788805 0.133106 0.974651
Si Si4 0.901645 0.139270 0.142755
Si Si5 0.500000 0.196271 0.000000
Si Si6 0.157918 0.266025 0.592727
Si Si7 0.589828 0.000000 0.517801
O O1 0.825087 0.817277 0.543718
O O2 0.716740 0.791150 0.671641
O O3 0.758627 0.000000 0.601168
O O4 0.806433 0.869370 0.804379
O O5 0.518157 0.883356 0.137743
O O6 0.563669 0.000000 0.358673
O O7 0.455070 0.000000 0.343067
O O8 0.844865 0.148174 0.058803
O O9 0.759630 0.000000 0.017480
O O10 0.750000 0.250000 0.000000
O O11 0.948189 0.217825 0.052280
O O12 0.888376 0.196434 0.302080
O O13 0.922562 0.000000 0.158127
O O14 0.129771 0.384272 0.528658
#
# Coordination Sequence:
#
# PCOD8106856 Si02
#       7
#     8   4   8   8   4   8   4
#     4  10  21  37  56  86 123 162 200 237 295 368
#     4  10  24  42  66  90 118 148 212 256 304 367
#     4  10  21  39  59  89 126 161 206 257 303 365
#     4  11  23  40  63  89 122 161 207 254 304 365
#     4  11  23  44  66  90 115 163 200 260 316 359
#     4  11  21  37  62  85 124 160 198 240 308 356
#     4  11  22  42  62  92 120 160 196 259 300 365
#
# _framework density 18.623612999999999
#
# number of rings (size 3 to 8) (size 9 to 14) (size 15 to 20)
#    0.000    1.455    4.545    0.818    2.545    0.000 
#    4.909    0.000    0.000    1.091    0.000    0.000 
#    0.000    0.000    0.000    0.000    0.000    0.000 
#
# Total GULP energy -272677.216513 kJ/mol
# GULP energy per Si atom -12394.418932 kJ/mol
# Density = 1.858123 g / cm^3
# Si number density = 18.623613 Si / 1000 Ang^3
#
#
#
# Elastic Constant Matrix: (Units=GPa)
#
#
# Indices 1 2 3 4 5 6 
#
# 1 43.0973 39.2247 38.0969 0.0000 -8.0070 0.0000
# 2 39.2247 153.4311 63.7754 0.0000 -12.6285 0.0000
# 3 38.0969 63.7754 111.6072 0.0000 -6.5078 0.0000
# 4 0.0000 0.0000 0.0000 9.6578 0.0000 -23.5800
# 5 -8.0070 -12.6285 -6.5078 0.0000 35.9817 0.0000
# 6 0.0000 0.0000 0.0000 -23.5800 0.0000 28.4929
#
#
#
# Elastic Compliance Matrix: (Units=1/GPa)
#
#
# Indices 1 2 3 4 5 6 
#
# 1 0.037147 -0.005182 -0.009443 0.000000 0.004740 0.000000
# 2 -0.005182 0.009437 -0.003535 0.000000 0.001520 0.000000
# 3 -0.009443 -0.003535 0.014158 0.000000 -0.000781 0.000000
# 4 0.000000 0.000000 0.000000 -0.101456 0.000000 -0.083962
# 5 0.004740 0.001520 -0.000781 0.000000 0.029239 0.000000
# 6 0.000000 0.000000 0.000000 -0.083962 0.000000 -0.034389
#
#
# Mechanical properties :
#
#
# Convention : Reuss Voigt Hill
#
# Bulk Modulus (GPa) = 40.94555 65.59217 53.26886
# Shear Modulus (GPa) = -3559.82784 25.96237 -1766.93273
#
# Velocity S-wave (km/s) = -43.76767 3.73776 -30.83535
# Velocity P-wave (km/s) = 50.32009 7.34330 35.20076
#
# Compressibility (1/GPa) = 0.02442268
#
# Stress axis : x y z
#
# Youngs Moduli (GPa) = 26.92005 105.96906 70.63256
#
# Poissons Ratio (x) = 0.54908 0.66697
# Poissons Ratio (y) = 0.13949 0.24969
# Poissons Ratio (z) = 0.25420 0.37461
#
# Static dielectric constant tensor:
#      x y z
#    x 3.702750 0.000000 -0.300430 
#    y 0.000000 3.846680 0.000000 
#    z -0.300430 0.000000 3.799890 
# 
# 
# High freq. dielectric constant tensor:
#      x y z
#    x 1.705830 0.000000 0.001210 
#    y 0.000000 1.743780 0.000000 
#    z 0.001210 0.000000 1.734990 
# 
# From -- ./inp_files/84107.got.cif
#   From: 2010.06.25/outbox.cif.g09.slc.cpg/sg12_43_cif.got.tgz:84107.got - 2010.06.28 00:19:55.
