data_PCOD8106717
_publ_section_title
;
Structure prediction by ZEFSAII (Michael W. Deem and Ramdas Pophale) SiO2 
 PCOD8106717
Probable space group: C 2/M
;
_chemical_formula_sum "Si O2"
_cell_formula_units_Z 56
_cell_length_a 24.277760
_cell_length_b 9.164873
_cell_length_c 17.438500
_cell_angle_alpha 90.000000
_cell_angle_beta 128.060159
_cell_angle_gamma 90.000000
_cell_volume 3055.059585
_symmetry_space_group_name_H-M "C 2/M"
_symmetry_group_IT_number 12
_symmetry_cell_setting 'monoclinic'
loop_
_space_group_symop_operation_xyz
x,y,z
-x,y,-z
-x,-y,-z
x,-y,z
1/2+x,1/2+y,z
1/2-x,1/2+y,-z
1/2-x,1/2-y,-z
1/2+x,1/2-y,z
loop_
_atom_site_type_symbol
_atom_site_label
_atom_site_fract_x
_atom_site_fract_y
_atom_site_fract_z
Si Si1 0.184474 0.829612 0.735441
Si Si2 0.920498 0.168719 0.043907
Si Si3 0.581340 0.665555 0.218225
Si Si4 0.075945 0.327638 0.534266
Si Si5 0.101526 0.829815 0.809530
Si Si6 0.950913 0.829879 0.638212
Si Si7 0.342930 0.828283 0.843416
O O1 0.135254 0.734798 0.639865
O O2 0.166160 0.796161 0.808980
O O3 0.263590 0.779680 0.790832
O O4 0.172644 0.000000 0.706865
O O5 0.884522 0.228465 0.092138
O O6 0.003141 0.193330 0.121424
O O7 0.902352 0.000000 0.012552
O O8 0.893022 0.262585 0.950467
O O9 0.603195 0.500000 0.218864
O O10 0.587938 0.696742 0.314435
O O11 0.634794 0.771677 0.220941
O O12 0.083889 0.500000 0.537226
O O13 0.088601 0.261307 0.460884
O O14 0.000000 0.279495 0.500000
O O15 0.030043 0.766307 0.711895
O O16 0.085917 0.000000 0.807124
O O17 0.949953 0.000000 0.614598
O O18 0.350934 0.000000 0.852660
#
# Coordination Sequence:
#
# PCOD8106717 Si02
#       7
#     8   8   8   8   8   8   8
#     4  10  21  37  55  75 106 146 184 214 253 319
#     4   9  18  34  57  80 102 136 182 224 263 311
#     4   9  19  36  58  81 103 137 186 224 255 310
#     4  11  22  34  53  85 115 135 165 213 271 323
#     4   8  15  31  55  79 101 133 178 221 256 304
#     4   9  17  33  59  83 101 134 181 220 259 308
#     4  11  23  35  50  78 111 144 179 218 266 313
#
# _framework density 18.330248000000001
#
# number of rings (size 3 to 8) (size 9 to 14) (size 15 to 20)
#    0.000    2.429    1.429    3.000    0.000    5.143 
#    0.000    3.571    0.000    0.000    0.000    0.000 
#    0.000    0.000    0.000    0.000    0.000    0.000 
#
# Total GULP energy -347184.541211 kJ/mol
# GULP energy per Si atom -12399.447900 kJ/mol
# Density = 1.828853 g / cm^3
# Si number density = 18.330248 Si / 1000 Ang^3
#
#
#
# Elastic Constant Matrix: (Units=GPa)
#
#
# Indices 1 2 3 4 5 6 
#
# 1 120.5512 41.2040 31.8398 0.0000 -12.2633 0.0000
# 2 41.2040 56.8679 26.6521 0.0000 -6.0025 0.0000
# 3 31.8398 26.6521 48.3081 0.0000 -18.3850 0.0000
# 4 0.0000 0.0000 0.0000 18.7541 0.0000 4.1705
# 5 -12.2633 -6.0025 -18.3850 0.0000 22.7442 0.0000
# 6 0.0000 0.0000 0.0000 4.1705 0.0000 22.1195
#
#
#
# Elastic Compliance Matrix: (Units=1/GPa)
#
#
# Indices 1 2 3 4 5 6 
#
# 1 0.011639 -0.006709 -0.003258 0.000000 0.001872 0.000000
# 2 -0.006709 0.028213 -0.013990 0.000000 -0.007481 0.000000
# 3 -0.003258 -0.013990 0.041153 0.000000 0.027817 0.000000
# 4 0.000000 0.000000 0.000000 0.055655 0.000000 -0.010493
# 5 0.001872 -0.007481 0.027817 0.000000 0.065487 0.000000
# 6 0.000000 0.000000 0.000000 -0.010493 0.000000 0.047187
#
#
# Mechanical properties :
#
#
# Convention : Reuss Voigt Hill
#
# Bulk Modulus (GPa) = 30.21999 47.23544 38.72772
# Shear Modulus (GPa) = 16.21910 21.12566 18.67238
#
# Velocity S-wave (km/s) = 2.97783 3.39854 3.19512
# Velocity P-wave (km/s) = 5.32405 6.42068 5.89791
#
# Compressibility (1/GPa) = 0.03309068
#
# Stress axis : x y z
#
# Youngs Moduli (GPa) = 85.91718 35.44487 24.29984
#
# Poissons Ratio (x) = 0.23780 0.07916
# Poissons Ratio (y) = 0.57641 0.33996
# Poissons Ratio (z) = 0.27988 0.49589
#
# Static dielectric constant tensor:
#      x y z
#    x 3.513720 0.000000 -0.182470 
#    y 0.000000 3.167740 0.000000 
#    z -0.182470 0.000000 3.248020 
# 
# 
# High freq. dielectric constant tensor:
#      x y z
#    x 1.713180 0.000000 -0.019630 
#    y 0.000000 1.692870 0.000000 
#    z -0.019630 0.000000 1.703650 
# 
# From -- ./inp_files/288382.got.cif
#   From: 2010.06.25/outbox.cif.g09.slc.cpg/sg12_145_cif.got.tgz:288382.got - 2010.06.28 00:19:55.
