data_PCOD8106478
_publ_section_title
;
Structure prediction by ZEFSAII (Michael W. Deem and Ramdas Pophale) SiO2 
 PCOD8106478
Probable space group: C 2/M
;
_chemical_formula_sum "Si O2"
_cell_formula_units_Z 64
_cell_length_a 17.385127
_cell_length_b 19.851875
_cell_length_c 19.898253
_cell_angle_alpha 90.000000
_cell_angle_beta 150.118157
_cell_angle_gamma 90.000000
_cell_volume 3421.443713
_symmetry_space_group_name_H-M "C 2/M"
_symmetry_group_IT_number 12
_symmetry_cell_setting 'monoclinic'
loop_
_space_group_symop_operation_xyz
x,y,z
-x,y,-z
-x,-y,-z
x,-y,z
1/2+x,1/2+y,z
1/2-x,1/2+y,-z
1/2-x,1/2-y,-z
1/2+x,1/2-y,z
loop_
_atom_site_type_symbol
_atom_site_label
_atom_site_fract_x
_atom_site_fract_y
_atom_site_fract_z
Si Si1 0.362935 0.729762 0.525403
Si Si2 0.904491 0.188403 0.201904
Si Si3 0.062971 0.295716 0.977425
Si Si4 0.935218 0.351962 0.379628
Si Si5 0.580088 0.347835 0.126920
Si Si6 0.420377 0.076746 0.232934
Si Si7 0.392127 0.422260 0.082741
Si Si8 0.062562 0.315428 0.251839
O O1 0.250000 0.750000 0.500000
O O2 0.480300 0.676064 0.647760
O O3 0.459051 0.790543 0.565678
O O4 0.246837 0.698379 0.382318
O O5 0.880202 0.120387 0.141810
O O6 0.965672 0.249933 0.202465
O O7 0.746011 0.208913 0.117048
O O8 0.003400 0.221119 0.918139
O O9 0.001767 0.340541 0.868800
O O10 0.000000 0.325482 0.000000
O O11 0.758943 0.329552 0.255572
O O12 0.931593 0.410992 0.321425
O O13 0.000000 0.379155 0.500000
O O14 0.549464 0.401154 0.163486
O O15 0.500000 0.378940 0.000000
O O16 0.544129 0.124439 0.290785
O O17 0.465585 0.000000 0.252696
O O18 0.250830 0.093322 0.075209
O O19 0.400478 0.500000 0.109926
#
# Coordination Sequence:
#
# PCOD8106478 Si02
#       8
#     8   8   8   8   8   8   8   8
#     4  10  21  36  59  83 118 157 202 250 304 347
#     4  11  20  37  61  85 113 157 204 261 302 355
#     4  11  21  32  59  93 115 144 204 259 312 357
#     4  12  24  38  58  91 130 163 199 252 303 363
#     4  11  21  34  56  84 120 159 200 245 298 368
#     4  11  23  40  61  89 124 168 208 248 304 368
#     4  11  23  38  60  89 120 165 211 253 302 362
#     4  11  20  38  63  84 118 164 202 254 307 358
#
# _framework density 18.705553999999999
#
# number of rings (size 3 to 8) (size 9 to 14) (size 15 to 20)
#    0.000    1.000    6.250    3.375    1.750    1.000 
#    0.000    1.875    0.000    1.500    0.000    0.000 
#    0.000    4.000    0.000    0.000    0.000    0.000 
#
# Total GULP energy -396664.032437 kJ/mol
# GULP energy per Si atom -12395.751014 kJ/mol
# Density = 1.866298 g / cm^3
# Si number density = 18.705554 Si / 1000 Ang^3
#
#
#
# Elastic Constant Matrix: (Units=GPa)
#
#
# Indices 1 2 3 4 5 6 
#
# 1 92.6664 35.4195 56.3465 0.0008 2.4988 0.0012
# 2 35.4195 86.5679 28.1986 0.0020 4.9124 0.0021
# 3 56.3465 28.1986 140.4505 0.0097 8.0679 0.0070
# 4 0.0008 0.0020 0.0097 21.3788 0.0026 -2.1460
# 5 2.4988 4.9124 8.0679 0.0026 41.8564 0.0017
# 6 0.0012 0.0021 0.0070 -2.1460 0.0017 19.2876
#
#
#
# Elastic Compliance Matrix: (Units=1/GPa)
#
#
# Indices 1 2 3 4 5 6 
#
# 1 0.015922 -0.004771 -0.005468 0.000002 0.000663 0.000002
# 2 -0.004771 0.013830 -0.000794 -0.000001 -0.001185 -0.000001
# 3 -0.005468 -0.000794 0.009555 -0.000004 -0.001422 -0.000003
# 4 0.000002 -0.000001 -0.000004 0.047304 -0.000002 0.005263
# 5 0.000663 -0.001185 -0.001422 -0.000002 0.024265 -0.000002
# 6 0.000002 -0.000001 -0.000003 0.005263 -0.000002 0.052432
#
#
# Mechanical properties :
#
#
# Convention : Reuss Voigt Hill
#
# Bulk Modulus (GPa) = 58.00570 62.17935 60.09252
# Shear Modulus (GPa) = 26.16152 29.81924 27.99038
#
# Velocity S-wave (km/s) = 3.74384 3.99700 3.87249
# Velocity P-wave (km/s) = 7.05448 7.39017 7.22427
#
# Compressibility (1/GPa) = 0.01723968
#
# Stress axis : x y z
#
# Youngs Moduli (GPa) = 62.80677 72.30791 104.66006
#
# Poissons Ratio (x) = 0.34498 0.57226
# Poissons Ratio (y) = 0.29965 0.08315
# Poissons Ratio (z) = 0.34342 0.05745
#
# Static dielectric constant tensor:
#      x y z
#    x 3.595080 -0.000010 -0.117010 
#    y -0.000010 3.061430 -0.000010 
#    z -0.117010 -0.000010 4.139510 
# 
# 
# High freq. dielectric constant tensor:
#      x y z
#    x 1.728620 0.000000 -0.000950 
#    y 0.000000 1.680130 0.000000 
#    z -0.000950 0.000000 1.744950 
# 
# From -- ./inp_files/317816.got.cif
#   From: 2010.06.25/outbox.cif.g09.slc.cpg/sg12_159_cif.got.tgz:317816.got - 2010.06.28 00:19:55.
