data_PCOD8106566
_publ_section_title
;
Structure prediction by ZEFSAII (Michael W. Deem and Ramdas Pophale) SiO2 
 PCOD8106566
Probable space group: C 2/M
;
_chemical_formula_sum "Si O2"
_cell_formula_units_Z 56
_cell_length_a 29.169668
_cell_length_b 21.083881
_cell_length_c 11.826034
_cell_angle_alpha 90.000000
_cell_angle_beta 21.187032
_cell_angle_gamma 90.000000
_cell_volume 2628.606573
_symmetry_space_group_name_H-M "C 2/M"
_symmetry_group_IT_number 12
_symmetry_cell_setting 'monoclinic'
loop_
_space_group_symop_operation_xyz
x,y,z
-x,y,-z
-x,-y,-z
x,-y,z
1/2+x,1/2+y,z
1/2-x,1/2+y,-z
1/2-x,1/2-y,-z
1/2+x,1/2-y,z
loop_
_atom_site_type_symbol
_atom_site_label
_atom_site_fract_x
_atom_site_fract_y
_atom_site_fract_z
Si Si1 0.755415 0.383648 0.814997
Si Si2 0.844030 0.930686 0.735822
Si Si3 0.833434 0.429996 0.048617
Si Si4 0.018548 0.816735 0.324840
Si Si5 0.478885 0.177693 0.415452
Si Si6 0.642039 0.427479 0.683225
Si Si7 0.640133 0.927045 0.652734
O O1 0.836699 0.340835 0.712983
O O2 0.834808 0.421425 0.539022
O O3 0.674267 0.428626 0.085794
O O4 0.660919 0.336823 0.966008
O O5 0.706991 0.926850 0.989975
O O6 0.926250 0.872999 0.495220
O O7 0.906257 0.000000 0.565982
O O8 0.894005 0.500000 0.935091
O O9 0.705802 0.420853 0.414244
O O10 0.931453 0.374225 0.851328
O O11 0.000000 0.808210 0.500000
O O12 0.996998 0.747668 0.318845
O O13 0.500000 0.177721 0.500000
O O14 0.620078 0.500000 0.770723
O O15 0.742513 0.396786 0.543680
O O16 0.500000 0.395364 0.000000
O O17 0.632343 0.000000 0.707184
O O18 0.500000 0.896270 0.000000
#
# Coordination Sequence:
#
# PCOD8106566 Si02
#       7
#     8   8   8   8   8   8   8
#     4  11  22  37  59  89 118 158 198 243 305 362
#     4  10  21  37  59  93 127 152 188 250 311 357
#     4  10  21  36  60  91 124 156 196 250 301 350
#     4   9  23  37  57  86 120 162 200 238 296 365
#     4  11  22  38  60  85 125 164 201 240 291 375
#     4   9  19  36  58  86 118 160 209 248 295 362
#     4  10  21  37  59  86 121 159 198 249 304 361
#
# _framework density 21.304062999999999
#
# number of rings (size 3 to 8) (size 9 to 14) (size 15 to 20)
#    0.000    2.000    1.429    1.286    4.000    7.429 
#    0.000    0.000    0.000    4.286    0.000    0.000 
#    0.000    0.000    0.000    0.000    0.000    0.000 
#
# Total GULP energy -346919.083689 kJ/mol
# GULP energy per Si atom -12389.967275 kJ/mol
# Density = 2.125557 g / cm^3
# Si number density = 21.304063 Si / 1000 Ang^3
#
#
#
# Elastic Constant Matrix: (Units=GPa)
#
#
# Indices 1 2 3 4 5 6 
#
# 1 78.0223 17.0233 27.2505 0.0004 -11.0917 -0.0002
# 2 17.0233 147.6214 45.8397 0.0000 -15.2284 0.0001
# 3 27.2505 45.8397 111.5413 0.0010 -16.2364 0.0004
# 4 0.0004 0.0000 0.0010 16.8098 0.0004 -6.3356
# 5 -11.0917 -15.2284 -16.2364 0.0004 38.1644 0.0000
# 6 -0.0002 0.0001 0.0004 -6.3356 0.0000 12.8593
#
#
#
# Elastic Compliance Matrix: (Units=1/GPa)
#
#
# Indices 1 2 3 4 5 6 
#
# 1 0.014324 -0.000466 -0.002909 0.000000 0.002739 0.000000
# 2 -0.000466 0.007905 -0.002874 0.000000 0.001797 0.000000
# 3 -0.002909 -0.002874 0.011265 -0.000001 0.002800 -0.000001
# 4 0.000000 0.000000 -0.000001 0.073055 -0.000001 0.035994
# 5 0.002739 0.001797 0.002800 -0.000001 0.028907 -0.000001
# 6 0.000000 0.000000 -0.000001 0.035994 -0.000001 0.095499
#
#
# Mechanical properties :
#
#
# Convention : Reuss Voigt Hill
#
# Bulk Modulus (GPa) = 47.62642 57.49022 52.55832
# Shear Modulus (GPa) = 19.96399 30.03811 25.00105
#
# Velocity S-wave (km/s) = 3.06453 3.75903 3.42940
# Velocity P-wave (km/s) = 5.90981 6.77382 6.35651
#
# Compressibility (1/GPa) = 0.02099675
#
# Stress axis : x y z
#
# Youngs Moduli (GPa) = 69.81267 126.49526 88.77370
#
# Poissons Ratio (x) = 0.05892 0.25827
# Poissons Ratio (y) = 0.03252 0.25510
# Poissons Ratio (z) = 0.20311 0.36349
#
# Static dielectric constant tensor:
#      x y z
#    x 3.776200 0.000000 -0.288440 
#    y 0.000000 3.895980 0.000000 
#    z -0.288440 0.000000 3.800350 
# 
# 
# High freq. dielectric constant tensor:
#      x y z
#    x 1.827130 0.000000 -0.018890 
#    y 0.000000 1.804140 0.000000 
#    z -0.018890 0.000000 1.829240 
# 
# From -- ./inp_files/190391.got.cif
#   From: 2010.06.25/outbox.cif.g09.slc.cpg/sg12_96_cif.got.tgz:190391.got - 2010.06.28 00:19:55.
