data_PCOD8106165
_publ_section_title
;
Structure prediction by ZEFSAII (Michael W. Deem and Ramdas Pophale) SiO2 
 PCOD8106165
Probable space group: C 2/M
;
_chemical_formula_sum "Si O2"
_cell_formula_units_Z 44
_cell_length_a 31.795674
_cell_length_b 9.169997
_cell_length_c 26.176689
_cell_angle_alpha 90.000000
_cell_angle_beta 163.368761
_cell_angle_gamma 90.000000
_cell_volume 2184.429322
_symmetry_space_group_name_H-M "C 2/M"
_symmetry_group_IT_number 12
_symmetry_cell_setting 'monoclinic'
loop_
_space_group_symop_operation_xyz
x,y,z
-x,y,-z
-x,-y,-z
x,-y,z
1/2+x,1/2+y,z
1/2-x,1/2+y,-z
1/2-x,1/2-y,-z
1/2+x,1/2-y,z
loop_
_atom_site_type_symbol
_atom_site_label
_atom_site_fract_x
_atom_site_fract_y
_atom_site_fract_z
Si Si1 0.418729 0.830281 0.524549
Si Si2 0.891348 0.326559 0.022111
Si Si3 0.758181 0.672588 0.063452
Si Si4 0.500000 0.251639 0.000000
Si Si5 0.240869 0.338846 0.760250
Si Si6 0.323535 0.159804 0.704301
O O1 0.585978 0.790011 0.729691
O O2 0.380675 0.778776 0.421978
O O3 0.318121 0.761359 0.452429
O O4 0.386412 0.000000 0.490710
O O5 0.874896 0.500000 0.008767
O O6 0.057707 0.282493 0.199115
O O7 0.867129 0.244534 0.047311
O O8 0.766432 0.272334 0.836607
O O9 0.732181 0.500000 0.027642
O O10 0.750000 0.750000 0.000000
O O11 0.607557 0.357580 0.094172
O O12 0.590193 0.145429 0.141960
O O13 0.196791 0.500000 0.730269
O O14 0.266594 0.000000 0.622049
#
# Coordination Sequence:
#
# PCOD8106165 Si02
#       6
#     8   8   8   4   8   8
#     4   9  20  36  56  83 114 145 181 224 272 325
#     4  10  21  36  55  84 117 148 182 222 266 320
#     4  11  24  43  62  79 103 141 186 233 281 329
#     4   8  14  24  44  76 114 150 180 214 258 316
#     4   9  16  29  51  80 113 148 181 217 264 320
#     4   9  17  30  52  81 113 145 180 220 265 317
#
# _framework density 20.14256
#
# number of rings (size 3 to 8) (size 9 to 14) (size 15 to 20)
#    0.000    2.545    0.000    1.636    0.000   11.636 
#    0.000    4.545    0.000    0.000    0.000    0.000 
#    0.000    0.000    0.000    0.000    0.000    0.000 
#
# Total GULP energy -272638.696065 kJ/mol
# GULP energy per Si atom -12392.668003 kJ/mol
# Density = 2.009671 g / cm^3
# Si number density = 20.142560 Si / 1000 Ang^3
#
#
#
# Elastic Constant Matrix: (Units=GPa)
#
#
# Indices 1 2 3 4 5 6 
#
# 1 110.6073 43.8652 1.1737 0.0012 3.4728 0.0005
# 2 43.8652 86.8903 13.9948 0.0010 3.1787 0.0006
# 3 1.1737 13.9948 15.5853 0.0029 3.4964 0.0019
# 4 0.0012 0.0010 0.0029 23.7257 0.0015 0.7145
# 5 3.4728 3.1787 3.4964 0.0015 24.8982 0.0010
# 6 0.0005 0.0006 0.0019 0.7145 0.0010 33.1732
#
#
#
# Elastic Compliance Matrix: (Units=1/GPa)
#
#
# Indices 1 2 3 4 5 6 
#
# 1 0.011704 -0.006741 0.005519 -0.000001 -0.001547 0.000000
# 2 -0.006741 0.017337 -0.015255 0.000001 0.000869 0.000001
# 3 0.005519 -0.015255 0.079692 -0.000009 -0.010013 -0.000004
# 4 -0.000001 0.000001 -0.000009 0.042176 -0.000001 -0.000908
# 5 -0.001547 0.000869 -0.010013 -0.000001 0.041675 -0.000001
# 6 0.000000 0.000001 -0.000004 -0.000908 -0.000001 0.030164
#
#
# Mechanical properties :
#
#
# Convention : Reuss Voigt Hill
#
# Bulk Modulus (GPa) = 13.19634 36.79448 24.99541
# Shear Modulus (GPa) = 17.79595 26.62935 22.21265
#
# Velocity S-wave (km/s) = 2.97560 3.63994 3.32440
# Velocity P-wave (km/s) = 4.28617 5.99768 5.21265
#
# Compressibility (1/GPa) = 0.07577857
#
# Stress axis : x y z
#
# Youngs Moduli (GPa) = 85.43794 57.67968 12.54830
#
# Poissons Ratio (x) = 0.38882 -0.06925
# Poissons Ratio (y) = 0.57594 0.19143
# Poissons Ratio (z) = -0.47151 0.87991
#
# Static dielectric constant tensor:
#      x y z
#    x 3.733340 0.000000 0.069970 
#    y 0.000000 3.493780 0.000000 
#    z 0.069970 0.000000 3.613650 
# 
# 
# High freq. dielectric constant tensor:
#      x y z
#    x 1.782190 0.000000 0.014590 
#    y 0.000000 1.779590 0.000000 
#    z 0.014590 0.000000 1.765400 
# 
# From -- ./inp_files/353188.got.cif
#   From: 2010.06.25/outbox.cif.g09.slc.cpg/sg12_177_cif.got.tgz:353188.got - 2010.06.28 00:19:55.
