data_PCOD8106831
_publ_section_title
;
Structure prediction by ZEFSAII (Michael W. Deem and Ramdas Pophale) SiO2 
 PCOD8106831
Probable space group: C 2/M
;
_chemical_formula_sum "Si O2"
_cell_formula_units_Z 64
_cell_length_a 29.698217
_cell_length_b 9.092196
_cell_length_c 14.434231
_cell_angle_alpha 90.000000
_cell_angle_beta 59.806434
_cell_angle_gamma 90.000000
_cell_volume 3368.783091
_symmetry_space_group_name_H-M "C 2/M"
_symmetry_group_IT_number 12
_symmetry_cell_setting 'monoclinic'
loop_
_space_group_symop_operation_xyz
x,y,z
-x,y,-z
-x,-y,-z
x,-y,z
1/2+x,1/2+y,z
1/2-x,1/2+y,-z
1/2-x,1/2-y,-z
1/2+x,1/2-y,z
loop_
_atom_site_type_symbol
_atom_site_label
_atom_site_fract_x
_atom_site_fract_y
_atom_site_fract_z
Si Si1 0.140691 0.831723 0.427276
Si Si2 0.890550 0.670207 0.723461
Si Si3 0.246963 0.829551 0.405838
Si Si4 0.360613 0.170984 0.224852
Si Si5 0.962510 0.170258 0.784662
Si Si6 0.919117 0.168394 0.323107
Si Si7 0.122788 0.172135 0.977051
Si Si8 0.803714 0.328467 0.963271
O O1 0.118579 0.735550 0.367591
O O2 0.197589 0.771411 0.398428
O O3 0.100249 0.815116 0.552436
O O4 0.145084 0.000000 0.389372
O O5 0.902729 0.500000 0.700303
O O6 0.940756 0.742388 0.719157
O O7 0.839731 0.700430 0.837539
O O8 0.250000 0.750000 0.500000
O O9 0.298641 0.800989 0.292364
O O10 0.238796 0.000000 0.437525
O O11 0.385421 0.224404 0.294738
O O12 0.386041 0.264493 0.116050
O O13 0.373379 0.000000 0.197101
O O14 0.021181 0.220413 0.744012
O O15 0.959881 0.000000 0.760404
O O16 0.929462 0.204277 0.911077
O O17 0.912889 0.000000 0.295274
O O18 0.135666 0.000000 0.959384
O O19 0.171368 0.256590 0.971574
O O20 0.794873 0.500000 0.992036
O O21 0.750000 0.250000 0.000000
#
# Coordination Sequence:
#
# PCOD8106831 Si02
#       8
#     8   8   8   8   8   8   8   8
#     4  10  21  37  58  84 114 151 191 230 279 336
#     4  10  22  38  57  84 116 149 186 231 285 339
#     4  10  21  37  57  82 113 151 188 230 281 333
#     4  11  23  37  56  87 120 151 188 232 284 340
#     4   9  20  40  63  84 110 147 192 240 284 330
#     4  10  21  39  62  85 110 148 196 239 280 332
#     4  10  21  38  59  83 112 149 190 235 284 334
#     4  10  21  37  56  82 113 148 190 234 281 336
#
# _framework density 18.997959000000002
#
# number of rings (size 3 to 8) (size 9 to 14) (size 15 to 20)
#    0.000    2.000    1.250    1.500    1.750    5.000 
#    0.000    5.000    0.000    0.000    0.000    0.000 
#    0.000    0.000    0.000    0.000    0.000    0.000 
#
# Total GULP energy -396960.207336 kJ/mol
# GULP energy per Si atom -12405.006479 kJ/mol
# Density = 1.895472 g / cm^3
# Si number density = 18.997959 Si / 1000 Ang^3
#
#
#
# Elastic Constant Matrix: (Units=GPa)
#
#
# Indices 1 2 3 4 5 6 
#
# 1 78.6561 39.9296 38.3951 0.0000 -12.4977 0.0000
# 2 39.9296 83.2353 40.3438 0.0000 0.6105 0.0000
# 3 38.3951 40.3438 75.9542 0.0000 6.2112 0.0000
# 4 0.0000 0.0000 0.0000 33.0129 0.0000 6.9470
# 5 -12.4977 0.6105 6.2112 0.0000 33.4697 0.0000
# 6 0.0000 0.0000 0.0000 6.9470 0.0000 34.5746
#
#
#
# Elastic Compliance Matrix: (Units=1/GPa)
#
#
# Indices 1 2 3 4 5 6 
#
# 1 0.021545 -0.006388 -0.008291 0.000000 0.009700 0.000000
# 2 -0.006388 0.018131 -0.006275 0.000000 -0.001552 0.000000
# 3 -0.008291 -0.006275 0.021256 0.000000 -0.006926 0.000000
# 4 0.000000 0.000000 0.000000 0.031628 0.000000 -0.006355
# 5 0.009700 -0.001552 -0.006926 0.000000 0.034813 0.000000
# 6 0.000000 0.000000 0.000000 -0.006355 0.000000 0.030200
#
#
# Mechanical properties :
#
#
# Convention : Reuss Voigt Hill
#
# Bulk Modulus (GPa) = 52.56266 52.79804 52.68035
# Shear Modulus (GPa) = 24.29270 28.15660 26.22465
#
# Velocity S-wave (km/s) = 3.57977 3.85396 3.71940
# Velocity P-wave (km/s) = 6.69432 6.90332 6.79962
#
# Compressibility (1/GPa) = 0.01902491
#
# Stress axis : x y z
#
# Youngs Moduli (GPa) = 46.41466 55.15360 47.04503
#
# Poissons Ratio (x) = 0.35232 0.39006
# Poissons Ratio (y) = 0.29649 0.29519
# Poissons Ratio (z) = 0.38483 0.34606
#
# Static dielectric constant tensor:
#      x y z
#    x 3.616210 0.000000 -0.155500 
#    y 0.000000 3.522100 0.000000 
#    z -0.155500 0.000000 3.550450 
# 
# 
# High freq. dielectric constant tensor:
#      x y z
#    x 1.742670 0.000000 -0.001610 
#    y 0.000000 1.741820 0.000000 
#    z -0.001610 0.000000 1.740820 
# 
# From -- ./inp_files/249057.got.cif
#   From: 2010.06.25/outbox.cif.g09.slc.cpg/sg12_125_cif.got.tgz:249057.got - 2010.06.28 00:19:55.
