data_PCOD8106770
_publ_section_title
;
Structure prediction by ZEFSAII (Michael W. Deem and Ramdas Pophale) SiO2 
 PCOD8106770
Probable space group: C 2/M
;
_chemical_formula_sum "Si O2"
_cell_formula_units_Z 40
_cell_length_a 24.838028
_cell_length_b 9.279948
_cell_length_c 28.758490
_cell_angle_alpha 90.000000
_cell_angle_beta 20.309126
_cell_angle_gamma 90.000000
_cell_volume 2300.724517
_symmetry_space_group_name_H-M "C 2/M"
_symmetry_group_IT_number 12
_symmetry_cell_setting 'monoclinic'
loop_
_space_group_symop_operation_xyz
x,y,z
-x,y,-z
-x,-y,-z
x,-y,z
1/2+x,1/2+y,z
1/2-x,1/2+y,-z
1/2-x,1/2-y,-z
1/2+x,1/2-y,z
loop_
_atom_site_type_symbol
_atom_site_label
_atom_site_fract_x
_atom_site_fract_y
_atom_site_fract_z
Si Si1 0.732220 0.164192 0.403098
Si Si2 0.324440 0.666255 0.153486
Si Si3 0.939279 0.334413 0.702860
Si Si4 0.679287 0.329927 0.356121
Si Si5 0.605985 0.666177 0.637490
O O1 0.573956 0.209205 0.557468
O O2 0.759015 0.267611 0.337811
O O3 0.881178 0.180721 0.316886
O O4 0.718320 0.000000 0.396625
O O5 0.306434 0.500000 0.183476
O O6 0.226009 0.696605 0.186632
O O7 0.266664 0.767301 0.241185
O O8 0.500000 0.706860 0.000000
O O9 0.958638 0.500000 0.701956
O O10 0.952240 0.238562 0.739564
O O11 0.500000 0.282629 0.500000
O O12 0.699030 0.500000 0.340102
O O13 0.613522 0.500000 0.616334
O O14 0.750000 0.750000 0.500000
#
# Coordination Sequence:
#
# PCOD8106770 Si02
#       5
#     8   8   8   8   8
#     4   9  17  30  49  73 101 134 169 209 254 304
#     4  10  21  37  56  76 102 140 179 212 254 311
#     4   9  17  30  49  74 102 133 169 210 256 303
#     4  11  22  33  50  78 107 136 170 213 263 305
#     4   9  17  28  45  72 102 133 167 207 256 303
#
# _framework density 17.385826999999999
#
# number of rings (size 3 to 8) (size 9 to 14) (size 15 to 20)
#    0.000    2.400    2.000    2.400    0.000    6.000 
#    0.000    0.000    0.000    1.200    0.000    0.000 
#    0.000    0.000    0.000    0.000    0.000    0.000 
#
# Total GULP energy -247952.193868 kJ/mol
# GULP energy per Si atom -12397.609693 kJ/mol
# Density = 1.734626 g / cm^3
# Si number density = 17.385827 Si / 1000 Ang^3
#
#
#
# Elastic Constant Matrix: (Units=GPa)
#
#
# Indices 1 2 3 4 5 6 
#
# 1 119.6700 71.1770 50.4393 0.0158 -17.3845 -0.0072
# 2 71.1770 98.5252 40.7544 -0.0464 -3.8855 -0.0066
# 3 50.4393 40.7544 77.1031 -0.0908 -11.7965 -0.0001
# 4 0.0158 -0.0464 -0.0908 14.7593 -0.0060 -1.2291
# 5 -17.3845 -3.8855 -11.7965 -0.0060 21.3037 0.0076
# 6 -0.0072 -0.0066 -0.0001 -1.2291 0.0076 37.8230
#
#
#
# Elastic Compliance Matrix: (Units=1/GPa)
#
#
# Indices 1 2 3 4 5 6 
#
# 1 0.018290 -0.010893 -0.004619 -0.000078 0.010381 -0.000003
# 2 -0.010893 0.019526 -0.004381 0.000043 -0.007754 0.000004
# 3 -0.004619 -0.004381 0.019238 0.000112 0.006084 0.000001
# 4 -0.000078 0.000043 0.000112 0.067939 0.000024 0.002208
# 5 0.010381 -0.007754 0.006084 0.000024 0.057366 -0.000010
# 6 -0.000003 0.000004 0.000001 0.002208 -0.000010 0.026511
#
#
# Mechanical properties :
#
#
# Convention : Reuss Voigt Hill
#
# Bulk Modulus (GPa) = 57.91225 68.89331 63.40278
# Shear Modulus (GPa) = 19.65319 23.63905 21.64612
#
# Velocity S-wave (km/s) = 3.36581 3.69138 3.53235
# Velocity P-wave (km/s) = 6.96328 7.60792 7.29273
#
# Compressibility (1/GPa) = 0.01726750
#
# Stress axis : x y z
#
# Youngs Moduli (GPa) = 54.67351 51.21477 51.98074
#
# Poissons Ratio (x) = 0.55790 0.24010
# Poissons Ratio (y) = 0.59558 0.22771
# Poissons Ratio (z) = 0.25254 0.22436
#
# Static dielectric constant tensor:
#      x y z
#    x 3.637340 0.000040 -0.416050 
#    y 0.000040 3.350430 0.000080 
#    z -0.416050 0.000080 2.965770 
# 
# 
# High freq. dielectric constant tensor:
#      x y z
#    x 1.682770 0.000000 -0.024380 
#    y 0.000000 1.677720 0.000010 
#    z -0.024380 0.000010 1.621530 
# 
# From -- ./inp_files/92836.got.cif
#   From: 2010.06.25/outbox.cif.g09.slc.cpg/sg12_47_cif.got.tgz:92836.got - 2010.06.28 00:19:55.
