data_PCOD8106569
_publ_section_title
;
Structure prediction by ZEFSAII (Michael W. Deem and Ramdas Pophale) SiO2 
 PCOD8106569
Probable space group: C 2/M
;
_chemical_formula_sum "Si O2"
_cell_formula_units_Z 40
_cell_length_a 18.759438
_cell_length_b 7.457695
_cell_length_c 17.710124
_cell_angle_alpha 90.000000
_cell_angle_beta 48.628450
_cell_angle_gamma 90.000000
_cell_volume 1859.352112
_symmetry_space_group_name_H-M "C 2/M"
_symmetry_group_IT_number 12
_symmetry_cell_setting 'monoclinic'
loop_
_space_group_symop_operation_xyz
x,y,z
-x,y,-z
-x,-y,-z
x,-y,z
1/2+x,1/2+y,z
1/2-x,1/2+y,-z
1/2-x,1/2-y,-z
1/2+x,1/2-y,z
loop_
_atom_site_type_symbol
_atom_site_label
_atom_site_fract_x
_atom_site_fract_y
_atom_site_fract_z
Si Si1 0.809614 0.209635 0.304787
Si Si2 0.653685 0.793439 0.026788
Si Si3 0.971771 0.000000 0.642179
Si Si4 0.655279 0.500000 0.410734
Si Si5 0.501865 0.789940 0.744423
Si Si6 0.598831 0.700086 0.909621
O O1 0.715459 0.322097 0.388507
O O2 0.889097 0.243647 0.312846
O O3 0.847573 0.290403 0.198214
O O4 0.781814 0.000000 0.320944
O O5 0.563699 0.728774 0.139143
O O6 0.643626 0.000000 0.015438
O O7 0.750000 0.750000 0.000000
O O8 0.661571 0.693147 0.941224
O O9 0.880268 0.000000 0.651277
O O10 0.067174 0.000000 0.527826
O O11 0.968294 0.820950 0.695216
O O12 0.488674 0.000000 0.735514
O O13 0.574725 0.500000 0.898279
O O14 0.500000 0.801397 0.000000
#
# Coordination Sequence:
#
# PCOD8106569 Si02
#       6
#     8   8   4   4   8   8
#     4  11  23  42  70 103 137 177 226 286 337 402
#     4  11  25  37  59  95 135 180 221 261 322 399
#     4  11  28  50  74  93 137 181 215 298 358 395
#     4  11  28  50  71 102 127 175 238 281 354 417
#     4  11  24  44  69 103 137 177 230 278 338 410
#     4  10  21  36  60  91 131 173 212 259 317 386
#
# _framework density 21.512868999999998
#
# number of rings (size 3 to 8) (size 9 to 14) (size 15 to 20)
#    0.000    1.200    4.000    0.600    7.000    2.800 
#    0.000    2.000    0.000    0.000    0.000    0.000 
#    0.000    0.000    0.000    0.000    0.000    0.000 
#
# Total GULP energy -248019.826141 kJ/mol
# GULP energy per Si atom -12400.991307 kJ/mol
# Density = 2.146390 g / cm^3
# Si number density = 21.512869 Si / 1000 Ang^3
#
#
#
# Elastic Constant Matrix: (Units=GPa)
#
#
# Indices 1 2 3 4 5 6 
#
# 1 105.3369 25.4355 -1.1505 0.0001 -4.0537 -0.0006
# 2 25.4355 113.3485 26.3999 0.0000 -0.0820 -0.0005
# 3 -1.1505 26.3999 45.4285 -0.0001 -2.2744 -0.0004
# 4 0.0001 0.0000 -0.0001 29.1344 0.0000 0.4467
# 5 -4.0537 -0.0820 -2.2744 0.0000 39.8447 0.0001
# 6 -0.0006 -0.0005 -0.0004 0.4467 0.0001 25.1278
#
#
#
# Elastic Compliance Matrix: (Units=1/GPa)
#
#
# Indices 1 2 3 4 5 6 
#
# 1 0.010219 -0.002736 0.001906 0.000000 0.001143 0.000000
# 2 -0.002736 0.010940 -0.006458 0.000000 -0.000624 0.000000
# 3 0.001906 -0.006458 0.025897 0.000000 0.001659 0.000000
# 4 0.000000 0.000000 0.000000 0.034333 0.000000 -0.000610
# 5 0.001143 -0.000624 0.001659 0.000000 0.025307 0.000000
# 6 0.000000 0.000000 0.000000 -0.000610 0.000000 0.039807
#
#
# Mechanical properties :
#
#
# Convention : Reuss Voigt Hill
#
# Bulk Modulus (GPa) = 30.78881 40.60930 35.69906
# Shear Modulus (GPa) = 29.08559 33.04998 31.06778
#
# Velocity S-wave (km/s) = 3.68096 3.92380 3.80432
# Velocity P-wave (km/s) = 5.69287 6.28061 5.99395
#
# Compressibility (1/GPa) = 0.03247933
#
# Stress axis : x y z
#
# Youngs Moduli (GPa) = 97.85817 91.40705 38.61458
#
# Poissons Ratio (x) = 0.25011 -0.07360
# Poissons Ratio (y) = 0.26776 0.24938
# Poissons Ratio (z) = -0.18653 0.59032
#
# Static dielectric constant tensor:
#      x y z
#    x 3.884060 0.000000 0.040480 
#    y 0.000000 3.875410 0.000000 
#    z 0.040480 0.000000 3.901400 
# 
# 
# High freq. dielectric constant tensor:
#      x y z
#    x 1.851020 0.000000 0.001890 
#    y 0.000000 1.848210 0.000000 
#    z 0.001890 0.000000 1.835620 
# 
# From -- ./inp_files/273965.got.cif
#   From: 2010.06.25/outbox.cif.g09.slc.cpg/sg12_137_cif.got.tgz:273965.got - 2010.06.28 00:19:55.
