data_PCOD8106400
_publ_section_title
;
Structure prediction by ZEFSAII (Michael W. Deem and Ramdas Pophale) SiO2 
 PCOD8106400
Probable space group: C 2/M
;
_chemical_formula_sum "Si O2"
_cell_formula_units_Z 56
_cell_length_a 19.391252
_cell_length_b 8.866132
_cell_length_c 19.989785
_cell_angle_alpha 90.000000
_cell_angle_beta 123.854210
_cell_angle_gamma 90.000000
_cell_volume 2854.077192
_symmetry_space_group_name_H-M "C 2/M"
_symmetry_group_IT_number 12
_symmetry_cell_setting 'monoclinic'
loop_
_space_group_symop_operation_xyz
x,y,z
-x,y,-z
-x,-y,-z
x,-y,z
1/2+x,1/2+y,z
1/2-x,1/2+y,-z
1/2-x,1/2-y,-z
1/2+x,1/2-y,z
loop_
_atom_site_type_symbol
_atom_site_label
_atom_site_fract_x
_atom_site_fract_y
_atom_site_fract_z
Si Si1 0.031937 0.324215 0.306541
Si Si2 0.664431 0.324757 0.472716
Si Si3 0.194803 0.821487 0.144290
Si Si4 0.587346 0.674756 0.568668
Si Si5 0.938753 0.834768 0.028672
Si Si6 0.631681 0.320532 0.737793
Si Si7 0.070793 0.673466 0.177472
O O1 0.019027 0.500000 0.314418
O O2 0.088258 0.252958 0.394395
O O3 0.077007 0.299003 0.259988
O O4 0.943192 0.242077 0.257720
O O5 0.665266 0.500000 0.453890
O O6 0.750000 0.250000 0.500000
O O7 0.654658 0.301118 0.546925
O O8 0.283023 0.742084 0.187018
O O9 0.143276 0.767886 0.181380
O O10 0.205155 0.000000 0.155861
O O11 0.148140 0.776541 0.049672
O O12 0.500000 0.751716 0.500000
O O13 0.569649 0.500000 0.572855
O O14 0.621326 0.743040 0.656331
O O15 0.977976 0.720674 0.103569
O O16 0.927525 0.000000 0.056261
O O17 0.000000 0.851281 0.000000
O O18 0.633141 0.500000 0.742084
O O19 0.084473 0.500000 0.166146
#
# Coordination Sequence:
#
# PCOD8106400 Si02
#       7
#     8   8   8   8   8   8   8
#     4  11  24  41  57  82 119 154 189 237 289 335
#     4  11  23  40  61  85 115 150 189 237 287 339
#     4  10  21  37  58  87 119 148 185 236 286 338
#     4   9  18  37  60  81 109 146 186 231 281 329
#     4   8  16  33  56  82 114 148 183 231 287 336
#     4  11  22  38  61  85 112 152 194 234 285 341
#     4  10  21  36  58  85 115 151 191 236 284 335
#
# _framework density 19.621053
#
# number of rings (size 3 to 8) (size 9 to 14) (size 15 to 20)
#    0.000    2.000    1.429    3.000    2.000    5.429 
#    0.000    3.571    0.000    0.000    0.000    0.000 
#    0.000    0.000    0.000    0.000    0.000    0.000 
#
# Total GULP energy -347184.087621 kJ/mol
# GULP energy per Si atom -12399.431701 kJ/mol
# Density = 1.957639 g / cm^3
# Si number density = 19.621053 Si / 1000 Ang^3
#
#
#
# Elastic Constant Matrix: (Units=GPa)
#
#
# Indices 1 2 3 4 5 6 
#
# 1 76.7640 32.2813 12.5478 0.0000 23.0927 0.0000
# 2 32.2813 91.2970 23.2232 0.0000 6.4312 0.0000
# 3 12.5478 23.2232 52.7580 0.0000 19.4789 0.0000
# 4 0.0000 0.0000 0.0000 31.2518 0.0000 5.5675
# 5 23.0927 6.4312 19.4789 0.0000 36.4693 0.0000
# 6 0.0000 0.0000 0.0000 5.5675 0.0000 32.4396
#
#
#
# Elastic Compliance Matrix: (Units=1/GPa)
#
#
# Indices 1 2 3 4 5 6 
#
# 1 0.019093 -0.006632 0.003002 0.000000 -0.012524 0.000000
# 2 -0.006632 0.014662 -0.006817 0.000000 0.005255 0.000000
# 3 0.003002 -0.006817 0.026780 0.000000 -0.015003 0.000000
# 4 0.000000 0.000000 0.000000 0.033007 0.000000 -0.005665
# 5 -0.012524 0.005255 -0.015003 0.000000 0.042437 0.000000
# 6 0.000000 0.000000 0.000000 -0.005665 0.000000 0.031799
#
#
# Mechanical properties :
#
#
# Convention : Reuss Voigt Hill
#
# Bulk Modulus (GPa) = 25.22600 39.65814 32.44207
# Shear Modulus (GPa) = 24.76642 30.21659 27.49151
#
# Velocity S-wave (km/s) = 3.55665 3.92855 3.74722
# Velocity P-wave (km/s) = 5.45444 6.39014 5.94074
#
# Compressibility (1/GPa) = 0.03964163
#
# Stress axis : x y z
#
# Youngs Moduli (GPa) = 52.37582 68.20245 37.34080
#
# Poissons Ratio (x) = 0.45235 -0.11212
# Poissons Ratio (y) = 0.34738 0.25455
# Poissons Ratio (z) = -0.15726 0.46493
#
# Static dielectric constant tensor:
#      x y z
#    x 3.397590 0.000000 0.116590 
#    y 0.000000 3.557130 0.000000 
#    z 0.116590 0.000000 3.948490 
# 
# 
# High freq. dielectric constant tensor:
#      x y z
#    x 1.752640 0.000000 0.007580 
#    y 0.000000 1.760660 0.000000 
#    z 0.007580 0.000000 1.770990 
# 
# From -- ./inp_files/320244.got.cif
#   From: 2010.06.25/outbox.cif.g09.slc.cpg/sg12_161_cif.got.tgz:320244.got - 2010.06.28 00:19:55.
