data_PCOD8106830
_publ_section_title
;
Structure prediction by ZEFSAII (Michael W. Deem and Ramdas Pophale) SiO2 
 PCOD8106830
Probable space group: C 2/M
;
_chemical_formula_sum "Si O2"
_cell_formula_units_Z 64
_cell_length_a 31.261536
_cell_length_b 9.030427
_cell_length_c 15.006768
_cell_angle_alpha 90.000000
_cell_angle_beta 130.785993
_cell_angle_gamma 90.000000
_cell_volume 3207.675539
_symmetry_space_group_name_H-M "C 2/M"
_symmetry_group_IT_number 12
_symmetry_cell_setting 'monoclinic'
loop_
_space_group_symop_operation_xyz
x,y,z
-x,y,-z
-x,-y,-z
x,-y,z
1/2+x,1/2+y,z
1/2-x,1/2+y,-z
1/2-x,1/2-y,-z
1/2+x,1/2-y,z
loop_
_atom_site_type_symbol
_atom_site_label
_atom_site_fract_x
_atom_site_fract_y
_atom_site_fract_z
Si Si1 0.791468 0.331746 0.989439
Si Si2 0.768612 0.168924 0.278820
Si Si3 0.006463 0.824644 0.906422
Si Si4 0.504481 0.824275 0.406559
Si Si5 0.779024 0.167906 0.620602
Si Si6 0.419241 0.823266 0.138430
Si Si7 0.127536 0.326142 0.523341
Si Si8 0.387095 0.333367 0.668574
O O1 0.794577 0.500000 0.026487
O O2 0.765483 0.316959 0.857379
O O3 0.750000 0.250000 0.000000
O O4 0.855402 0.267514 0.071775
O O5 0.731852 0.249837 0.302668
O O6 0.829368 0.248068 0.349901
O O7 0.778349 0.000000 0.320670
O O8 0.057702 0.746230 0.922864
O O9 0.948817 0.776344 0.779242
O O10 0.016523 0.000000 0.917487
O O11 0.000000 0.770269 0.000000
O O12 0.500000 0.757871 0.500000
O O13 0.456403 0.766431 0.273361
O O14 0.564618 0.768255 0.454028
O O15 0.501019 0.000000 0.405498
O O16 0.750000 0.250000 0.500000
O O17 0.846764 0.168651 0.699882
O O18 0.755769 0.000000 0.594972
O O19 0.421574 0.000000 0.130696
O O20 0.133329 0.500000 0.543758
O O21 0.142139 0.275619 0.442997
O O22 0.390347 0.500000 0.633769
#
# Coordination Sequence:
#
# PCOD8106830 Si02
#       8
#     8   8   8   8   8   8   8   8
#     4  10  25  45  66  89 120 163 210 259 310 359
#     4  11  24  41  58  85 124 161 201 254 304 357
#     4  10  22  39  60  87 121 163 202 242 299 365
#     4   9  19  35  59  90 118 145 186 242 299 353
#     4  11  22  36  57  86 118 158 199 241 294 357
#     4  10  21  41  64  90 122 156 200 253 300 355
#     4  11  21  35  61  91 115 154 202 244 300 364
#     4  10  21  37  56  81 121 159 191 244 304 352
#
# _framework density 19.952141999999998
#
# number of rings (size 3 to 8) (size 9 to 14) (size 15 to 20)
#    0.000    1.750    2.500    1.125    3.500    2.250 
#    0.000    0.000    0.000    1.875    0.000    0.000 
#    0.000    0.000    0.000    0.000    0.000    0.000 
#
# Total GULP energy -396770.560223 kJ/mol
# GULP energy per Si atom -12399.080007 kJ/mol
# Density = 1.990673 g / cm^3
# Si number density = 19.952142 Si / 1000 Ang^3
#
#
#
# Elastic Constant Matrix: (Units=GPa)
#
#
# Indices 1 2 3 4 5 6 
#
# 1 149.2601 48.3470 58.6399 0.0000 9.8551 0.0000
# 2 48.3470 83.0260 37.4991 0.0000 1.6829 0.0000
# 3 58.6399 37.4991 90.1779 0.0000 13.6554 0.0000
# 4 0.0000 0.0000 0.0000 24.9029 0.0000 -0.0770
# 5 9.8551 1.6829 13.6554 0.0000 41.1831 0.0000
# 6 0.0000 0.0000 0.0000 -0.0770 0.0000 32.7052
#
#
#
# Elastic Compliance Matrix: (Units=1/GPa)
#
#
# Indices 1 2 3 4 5 6 
#
# 1 0.009759 -0.003504 -0.004798 0.000000 -0.000601 0.000000
# 2 -0.003504 0.016178 -0.004712 0.000000 0.001740 0.000000
# 3 -0.004798 -0.004712 0.016810 0.000000 -0.004233 0.000000
# 4 0.000000 0.000000 0.000000 0.040156 0.000000 0.000095
# 5 -0.000601 0.001740 -0.004233 0.000000 0.025758 0.000000
# 6 0.000000 0.000000 0.000000 0.000095 0.000000 0.030576
#
#
# Mechanical properties :
#
#
# Convention : Reuss Voigt Hill
#
# Bulk Modulus (GPa) = 59.81422 67.93734 63.87578
# Shear Modulus (GPa) = 29.26728 31.62345 30.44536
#
# Velocity S-wave (km/s) = 3.83413 3.98548 3.91054
# Velocity P-wave (km/s) = 7.04590 7.43659 7.24388
#
# Compressibility (1/GPa) = 0.01671843
#
# Stress axis : x y z
#
# Youngs Moduli (GPa) = 102.46565 61.81326 59.48870
#
# Poissons Ratio (x) = 0.21657 0.28544
# Poissons Ratio (y) = 0.35900 0.28034
# Poissons Ratio (z) = 0.49165 0.29129
#
# Static dielectric constant tensor:
#      x y z
#    x 3.961290 0.000000 0.025860 
#    y 0.000000 3.509220 0.000000 
#    z 0.025860 0.000000 3.753440 
# 
# 
# High freq. dielectric constant tensor:
#      x y z
#    x 1.790350 0.000000 0.009350 
#    y 0.000000 1.762580 0.000000 
#    z 0.009350 0.000000 1.782110 
# 
# From -- ./inp_files/250062.got.cif
#   From: 2010.06.25/outbox.cif.g09.slc.cpg/sg12_126_cif.got.tgz:250062.got - 2010.06.28 00:19:55.
