data_PCOD8106064
_publ_section_title
;
Structure prediction by ZEFSAII (Michael W. Deem and Ramdas Pophale) SiO2 
 PCOD8106064
Probable space group: C 2/M
;
_chemical_formula_sum "Si O2"
_cell_formula_units_Z 44
_cell_length_a 24.190718
_cell_length_b 16.615180
_cell_length_c 12.522751
_cell_angle_alpha 90.000000
_cell_angle_beta 26.380652
_cell_angle_gamma 90.000000
_cell_volume 2236.463501
_symmetry_space_group_name_H-M "C 2/M"
_symmetry_group_IT_number 12
_symmetry_cell_setting 'monoclinic'
loop_
_space_group_symop_operation_xyz
x,y,z
-x,y,-z
-x,-y,-z
x,-y,z
1/2+x,1/2+y,z
1/2-x,1/2+y,-z
1/2-x,1/2-y,-z
1/2+x,1/2-y,z
loop_
_atom_site_type_symbol
_atom_site_label
_atom_site_fract_x
_atom_site_fract_y
_atom_site_fract_z
Si Si1 0.000000 0.289648 0.500000
Si Si2 0.601235 0.405200 0.611936
Si Si3 0.301243 0.681555 0.748103
Si Si4 0.663127 0.666133 0.942127
Si Si5 0.199780 0.408040 0.110260
Si Si6 0.356560 0.693605 0.263149
O O1 0.925006 0.235269 0.545743
O O2 0.914609 0.349335 0.717180
O O3 0.589514 0.500000 0.619550
O O4 0.702866 0.369472 0.354305
O O5 0.634723 0.384264 0.675765
O O6 0.475608 0.361283 0.794608
O O7 0.184030 0.743018 0.949465
O O8 0.301172 0.619375 0.847167
O O9 0.751449 0.604424 0.853452
O O10 0.695369 0.663355 0.760395
O O11 0.160980 0.500000 0.160280
O O12 0.250000 0.750000 0.500000
O O13 0.500000 0.730059 0.000000
#
# Coordination Sequence:
#
# PCOD8106064 Si02
#       6
#     4   8   8   8   8   8
#     4  10  21  36  55  78 110 156 202 226 279 354
#     4  11  22  36  60  91 118 147 193 252 298 340
#     4  11  20  37  58  82 116 153 196 233 288 359
#     4  10  21  36  58  83 115 152 200 233 292 351
#     4  11  22  36  55  83 118 150 189 242 293 341
#     4  10  21  40  63  90 117 156 200 247 295 361
#
# _framework density 19.673918
#
# number of rings (size 3 to 8) (size 9 to 14) (size 15 to 20)
#    0.000    1.455    1.818    5.727    0.000    4.000 
#    0.000    2.727    0.000    0.545    0.000    0.000 
#    0.000    0.000    0.000    0.000    0.000    0.000 
#
# Total GULP energy -272637.259601 kJ/mol
# GULP energy per Si atom -12392.602709 kJ/mol
# Density = 1.962914 g / cm^3
# Si number density = 19.673918 Si / 1000 Ang^3
#
#
#
# Elastic Constant Matrix: (Units=GPa)
#
#
# Indices 1 2 3 4 5 6 
#
# 1 95.8042 55.7601 23.2489 0.0001 10.9148 -0.0001
# 2 55.7601 123.3416 52.8852 0.0000 14.3879 0.0000
# 3 23.2489 52.8852 77.6367 0.0001 3.6863 -0.0001
# 4 0.0001 0.0000 0.0001 19.0197 -0.0001 8.0967
# 5 10.9148 14.3879 3.6863 -0.0001 25.2916 0.0001
# 6 -0.0001 0.0000 -0.0001 8.0967 0.0001 15.4234
#
#
#
# Elastic Compliance Matrix: (Units=1/GPa)
#
#
# Indices 1 2 3 4 5 6 
#
# 1 0.014332 -0.006190 0.000051 0.000000 -0.002672 0.000000
# 2 -0.006190 0.014913 -0.008085 0.000000 -0.004634 0.000000
# 3 0.000051 -0.008085 0.018282 0.000000 0.001913 0.000000
# 4 0.000000 0.000000 0.000000 0.067708 0.000000 -0.035544
# 5 -0.002672 -0.004634 0.001913 0.000000 0.043049 0.000000
# 6 0.000000 0.000000 0.000000 -0.035544 0.000000 0.083496
#
#
# Mechanical properties :
#
#
# Convention : Reuss Voigt Hill
#
# Bulk Modulus (GPa) = 52.41010 62.28566 57.34788
# Shear Modulus (GPa) = 18.07748 22.93950 20.50849
#
# Velocity S-wave (km/s) = 3.03455 3.41836 3.23216
# Velocity P-wave (km/s) = 6.24301 6.87808 6.56822
#
# Compressibility (1/GPa) = 0.01908029
#
# Stress axis : x y z
#
# Youngs Moduli (GPa) = 69.77175 67.05570 54.69944
#
# Poissons Ratio (x) = 0.41506 -0.00280
# Poissons Ratio (y) = 0.43187 0.44224
# Poissons Ratio (z) = -0.00358 0.54214
#
# Static dielectric constant tensor:
#      x y z
#    x 3.682170 0.000000 0.045620 
#    y 0.000000 3.429990 0.000000 
#    z 0.045620 0.000000 3.716710 
# 
# 
# High freq. dielectric constant tensor:
#      x y z
#    x 1.768980 0.000000 0.012800 
#    y 0.000000 1.754910 0.000000 
#    z 0.012800 0.000000 1.766170 
# 
# From -- ./inp_files/177005.got.cif
#   From: 2010.06.25/outbox.cif.g09.slc.cpg/sg12_89_cif.got.tgz:177005.got - 2010.06.28 00:19:55.
