data_PCOD8106126
_publ_section_title
;
Structure prediction by ZEFSAII (Michael W. Deem and Ramdas Pophale) SiO2 
 PCOD8106126
Probable space group: C 2/M
;
_chemical_formula_sum "Si O2"
_cell_formula_units_Z 56
_cell_length_a 15.862053
_cell_length_b 9.144030
_cell_length_c 19.186387
_cell_angle_alpha 90.000000
_cell_angle_beta 90.088113
_cell_angle_gamma 90.000000
_cell_volume 2782.849537
_symmetry_space_group_name_H-M "C 2/M"
_symmetry_group_IT_number 12
_symmetry_cell_setting 'monoclinic'
loop_
_space_group_symop_operation_xyz
x,y,z
-x,y,-z
-x,-y,-z
x,-y,z
1/2+x,1/2+y,z
1/2-x,1/2+y,-z
1/2-x,1/2-y,-z
1/2+x,1/2-y,z
loop_
_atom_site_type_symbol
_atom_site_label
_atom_site_fract_x
_atom_site_fract_y
_atom_site_fract_z
Si Si1 0.596044 0.663613 0.800107
Si Si2 0.839673 0.831479 0.347420
Si Si3 0.169546 0.331331 0.921057
Si Si4 0.008196 0.673148 0.579032
Si Si5 0.343177 0.831255 0.922941
Si Si6 0.406043 0.334659 0.797063
Si Si7 0.847780 0.328944 0.667401
O O1 0.615490 0.500000 0.828388
O O2 0.655321 0.703308 0.735078
O O3 0.604655 0.781393 0.861746
O O4 0.501525 0.671773 0.770471
O O5 0.742735 0.796832 0.369526
O O6 0.904911 0.734471 0.390330
O O7 0.862623 0.000000 0.361656
O O8 0.195451 0.500000 0.910207
O O9 0.249323 0.227588 0.912987
O O10 0.127170 0.310055 0.996985
O O11 0.014428 0.500000 0.583323
O O12 0.924427 0.728668 0.619305
O O13 0.000000 0.728174 0.500000
O O14 0.404135 0.741195 0.872726
O O15 0.345075 0.000000 0.900995
O O16 0.372994 0.500000 0.804136
O O17 0.347990 0.252299 0.741444
O O18 0.857537 0.500000 0.682699
#
# Coordination Sequence:
#
# PCOD8106126 Si02
#       7
#     8   8   8   8   8   8   8
#     4  10  21  36  55  81 116 151 191 249 304 351
#     4  10  21  39  61  87 118 156 201 243 293 355
#     4  10  21  36  56  81 109 148 199 246 293 355
#     4  10  22  40  61  90 126 158 194 242 294 352
#     4  10  21  37  55  78 112 151 192 244 302 355
#     4  11  22  36  57  85 114 149 198 248 295 355
#     4  10  21  38  62  88 119 161 201 243 299 356
#
# _framework density 20.123256999999999
#
# number of rings (size 3 to 8) (size 9 to 14) (size 15 to 20)
#    0.000    1.857    1.429    2.143    0.000    6.571 
#    0.000    2.857    0.000    0.000    0.000    0.000 
#    0.000    0.000    0.000    0.000    0.000    0.000 
#
# Total GULP energy -347228.669162 kJ/mol
# GULP energy per Si atom -12401.023899 kJ/mol
# Density = 2.007746 g / cm^3
# Si number density = 20.123257 Si / 1000 Ang^3
#
#
#
# Elastic Constant Matrix: (Units=GPa)
#
#
# Indices 1 2 3 4 5 6 
#
# 1 99.4754 31.3673 43.8100 0.0000 3.6011 0.0000
# 2 31.3673 79.3121 46.8132 0.0000 2.9622 0.0000
# 3 43.8100 46.8132 105.4293 0.0000 4.3155 0.0000
# 4 0.0000 0.0000 0.0000 28.7670 0.0000 6.3107
# 5 3.6011 2.9622 4.3155 0.0000 26.9666 0.0000
# 6 0.0000 0.0000 0.0000 6.3107 0.0000 32.3571
#
#
#
# Elastic Compliance Matrix: (Units=1/GPa)
#
#
# Indices 1 2 3 4 5 6 
#
# 1 0.012698 -0.002572 -0.004104 0.000000 -0.000757 0.000000
# 2 -0.002572 0.017619 -0.006734 0.000000 -0.000514 0.000000
# 3 -0.004104 -0.006734 0.014221 0.000000 -0.000988 0.000000
# 4 0.000000 0.000000 0.000000 0.036316 0.000000 -0.007083
# 5 -0.000757 -0.000514 -0.000988 0.000000 0.037399 0.000000
# 6 0.000000 0.000000 0.000000 -0.007083 0.000000 0.032286
#
#
# Mechanical properties :
#
#
# Convention : Reuss Voigt Hill
#
# Bulk Modulus (GPa) = 56.43347 58.68866 57.56106
# Shear Modulus (GPa) = 27.28305 28.43325 27.85815
#
# Velocity S-wave (km/s) = 3.68611 3.76301 3.72476
# Velocity P-wave (km/s) = 6.79863 6.93601 6.86766
#
# Compressibility (1/GPa) = 0.01771998
#
# Stress axis : x y z
#
# Youngs Moduli (GPa) = 78.75009 56.75640 70.32000
#
# Poissons Ratio (x) = 0.14595 0.28858
# Poissons Ratio (y) = 0.20251 0.47351
# Poissons Ratio (z) = 0.32318 0.38218
#
# Static dielectric constant tensor:
#      x y z
#    x 3.575170 0.000000 -0.149350 
#    y 0.000000 3.619280 0.000000 
#    z -0.149350 0.000000 3.619340 
# 
# 
# High freq. dielectric constant tensor:
#      x y z
#    x 1.785270 0.000000 -0.005160 
#    y 0.000000 1.784120 0.000000 
#    z -0.005160 0.000000 1.780160 
# 
# From -- ./inp_files/309008.got.cif
#   From: 2010.06.25/outbox.cif.g09.slc.cpg/sg12_155_cif.got.tgz:309008.got - 2010.06.28 00:19:55.
