data_PCOD8106289
_publ_section_title
;
Structure prediction by ZEFSAII (Michael W. Deem and Ramdas Pophale) SiO2 
 PCOD8106289
Probable space group: C 2/M
;
_chemical_formula_sum "Si O2"
_cell_formula_units_Z 56
_cell_length_a 13.179555
_cell_length_b 13.811344
_cell_length_c 15.723718
_cell_angle_alpha 90.000000
_cell_angle_beta 91.609152
_cell_angle_gamma 90.000000
_cell_volume 2861.018291
_symmetry_space_group_name_H-M "C 2/M"
_symmetry_group_IT_number 12
_symmetry_cell_setting 'monoclinic'
loop_
_space_group_symop_operation_xyz
x,y,z
-x,y,-z
-x,-y,-z
x,-y,z
1/2+x,1/2+y,z
1/2-x,1/2+y,-z
1/2-x,1/2-y,-z
1/2+x,1/2-y,z
loop_
_atom_site_type_symbol
_atom_site_label
_atom_site_fract_x
_atom_site_fract_y
_atom_site_fract_z
Si Si1 0.917090 0.390515 0.066623
Si Si2 0.808315 0.109392 0.004765
Si Si3 0.107569 0.788361 0.831837
Si Si4 0.233051 0.760289 0.296718
Si Si5 0.399058 0.386663 0.829449
Si Si6 0.635557 0.888997 0.583323
Si Si7 0.593747 0.111020 0.387285
O O1 0.936124 0.500000 0.099162
O O2 0.809021 0.380697 0.019586
O O3 0.926532 0.322388 0.149924
O O4 0.000000 0.358302 0.000000
O O5 0.876196 0.142149 0.926234
O O6 0.836419 0.000000 0.031326
O O7 0.831720 0.178074 0.083659
O O8 0.178173 0.795340 0.751146
O O9 0.012448 0.855812 0.809132
O O10 0.181177 0.835788 0.232885
O O11 0.279605 0.818450 0.376875
O O12 0.152200 0.681278 0.324953
O O13 0.384869 0.500000 0.814760
O O14 0.525566 0.864129 0.620178
O O15 0.634886 0.871991 0.482800
O O16 0.663778 0.000000 0.604587
O O17 0.612650 0.000000 0.360197
#
# Coordination Sequence:
#
# PCOD8106289 Si02
#       7
#     8   8   8   8   8   8   8
#     4  10  21  36  57  82 110 147 201 257 293 335
#     4  10  21  40  59  78 108 159 209 243 286 343
#     4  12  24  36  59  82 117 155 199 245 294 341
#     4  12  23  36  60  91 123 150 188 240 298 347
#     4  11  24  41  58  82 116 157 202 244 283 342
#     4   9  19  40  66  88 115 154 192 232 283 351
#     4   9  20  40  64  90 119 150 191 233 283 352
#
# _framework density 19.573450999999999
#
# number of rings (size 3 to 8) (size 9 to 14) (size 15 to 20)
#    0.000    1.571    1.429    4.714    2.000    2.857 
#    0.000    0.714    0.000    0.000    0.000    9.000 
#    0.000    0.000    0.000    0.000    0.000    0.000 
#
# Total GULP energy -347332.325161 kJ/mol
# GULP energy per Si atom -12404.725899 kJ/mol
# Density = 1.952890 g / cm^3
# Si number density = 19.573451 Si / 1000 Ang^3
#
#
#
# Elastic Constant Matrix: (Units=GPa)
#
#
# Indices 1 2 3 4 5 6 
#
# 1 63.0060 15.9796 4.9109 0.0000 -19.4422 0.0000
# 2 15.9796 82.2789 24.0194 0.0000 -8.9445 0.0000
# 3 4.9109 24.0194 39.8417 0.0000 -9.5481 0.0000
# 4 0.0000 0.0000 0.0000 24.7583 0.0000 -4.2999
# 5 -19.4422 -8.9445 -9.5481 0.0000 33.5840 0.0000
# 6 0.0000 0.0000 0.0000 -4.2999 0.0000 27.2260
#
#
#
# Elastic Compliance Matrix: (Units=1/GPa)
#
#
# Indices 1 2 3 4 5 6 
#
# 1 0.020042 -0.003314 0.002250 0.000000 0.011360 0.000000
# 2 -0.003314 0.015369 -0.008945 0.000000 -0.000369 0.000000
# 3 0.002250 -0.008945 0.032146 0.000000 0.008060 0.000000
# 4 0.000000 0.000000 0.000000 0.041530 0.000000 0.006559
# 5 0.011360 -0.000369 0.008060 0.000000 0.038545 0.000000
# 6 0.000000 0.000000 0.000000 0.006559 0.000000 0.037765
#
#
# Mechanical properties :
#
#
# Convention : Reuss Voigt Hill
#
# Bulk Modulus (GPa) = 21.03581 30.54960 25.79270
# Shear Modulus (GPa) = 22.59758 26.46143 24.52951
#
# Velocity S-wave (km/s) = 3.40148 3.68081 3.54390
# Velocity P-wave (km/s) = 5.11832 5.80569 5.47281
#
# Compressibility (1/GPa) = 0.04753799
#
# Stress axis : x y z
#
# Youngs Moduli (GPa) = 49.89521 65.06715 31.10781
#
# Poissons Ratio (x) = 0.21566 -0.06999
# Poissons Ratio (y) = 0.16537 0.27827
# Poissons Ratio (z) = -0.11227 0.58204
#
# Static dielectric constant tensor:
#      x y z
#    x 3.599580 0.000000 -0.071880 
#    y 0.000000 3.722790 0.000000 
#    z -0.071880 0.000000 3.384510 
# 
# 
# High freq. dielectric constant tensor:
#      x y z
#    x 1.771230 0.000000 -0.001110 
#    y 0.000000 1.772600 0.000000 
#    z -0.001110 0.000000 1.749540 
# 
# From -- ./inp_files/204982.got.cif
#   From: 2010.06.25/outbox.cif.g09.slc.cpg/sg12_103_cif.got.tgz:204982.got - 2010.06.28 00:19:55.
