data_PCOD8106884
_publ_section_title
;
Structure prediction by ZEFSAII (Michael W. Deem and Ramdas Pophale) SiO2 
 PCOD8106884
Probable space group: C 2/M
;
_chemical_formula_sum "Si O2"
_cell_formula_units_Z 56
_cell_length_a 27.164599
_cell_length_b 9.255959
_cell_length_c 13.605027
_cell_angle_alpha 90.000000
_cell_angle_beta 120.170917
_cell_angle_gamma 90.000000
_cell_volume 2957.360087
_symmetry_space_group_name_H-M "C 2/M"
_symmetry_group_IT_number 12
_symmetry_cell_setting 'monoclinic'
loop_
_space_group_symop_operation_xyz
x,y,z
-x,y,-z
-x,-y,-z
x,-y,z
1/2+x,1/2+y,z
1/2-x,1/2+y,-z
1/2-x,1/2-y,-z
1/2+x,1/2-y,z
loop_
_atom_site_type_symbol
_atom_site_label
_atom_site_fract_x
_atom_site_fract_y
_atom_site_fract_z
Si Si1 0.761935 0.831016 0.112062
Si Si2 0.837170 0.669500 0.838713
Si Si3 0.306160 0.830598 0.589301
Si Si4 0.448812 0.668858 0.018522
Si Si5 0.382149 0.666874 0.320850
Si Si6 0.483548 0.666236 0.272328
Si Si7 0.092804 0.329708 0.455407
O O1 0.715405 0.785926 0.145594
O O2 0.823020 0.782858 0.214129
O O3 0.760678 0.000000 0.088131
O O4 0.750000 0.750000 0.000000
O O5 0.849049 0.500000 0.853532
O O6 0.823169 0.721829 0.714896
O O7 0.892708 0.748033 0.932313
O O8 0.250000 0.750000 0.500000
O O9 0.356805 0.786917 0.567505
O O10 0.293363 0.000000 0.574811
O O11 0.436384 0.500000 0.995023
O O12 0.464594 0.711228 0.144845
O O13 0.500000 0.719035 0.000000
O O14 0.379615 0.500000 0.351535
O O15 0.430957 0.693894 0.290871
O O16 0.394256 0.764378 0.426193
O O17 0.503705 0.500000 0.296613
O O18 0.534683 0.767557 0.355039
O O19 0.086086 0.500000 0.459369
#
# Coordination Sequence:
#
# PCOD8106884 Si02
#       7
#     8   8   8   8   8   8   8
#     4  10  21  37  58  83 111 145 183 224 271 323
#     4  10  21  37  57  82 112 146 182 221 273 331
#     4  10  22  39  58  82 111 144 183 225 272 327
#     4  10  21  37  58  84 111 142 184 229 271 320
#     4  10  21  38  58  79 109 150 188 221 266 327
#     4  10  21  37  57  81 110 147 187 223 267 326
#     4  11  23  37  56  84 113 141 180 231 279 320
#
# _framework density 18.935805999999999
#
# number of rings (size 3 to 8) (size 9 to 14) (size 15 to 20)
#    0.000    1.857    0.000    3.429    0.000    8.286 
#    0.000    0.000    0.000    0.000    0.000    0.000 
#    0.000    0.000    0.000    0.000    0.000    0.000 
#
# Total GULP energy -347355.228139 kJ/mol
# GULP energy per Si atom -12405.543862 kJ/mol
# Density = 1.889271 g / cm^3
# Si number density = 18.935806 Si / 1000 Ang^3
#
#
#
# Elastic Constant Matrix: (Units=GPa)
#
#
# Indices 1 2 3 4 5 6 
#
# 1 165.5843 70.1266 105.3510 0.0000 9.4071 0.0000
# 2 70.1266 63.3392 73.8566 0.0000 6.1596 0.0000
# 3 105.3510 73.8566 187.7281 0.0000 -2.0360 0.0000
# 4 0.0000 0.0000 0.0000 42.2417 0.0000 3.7781
# 5 9.4071 6.1596 -2.0360 0.0000 42.6089 0.0000
# 6 0.0000 0.0000 0.0000 3.7781 0.0000 34.2227
#
#
#
# Elastic Compliance Matrix: (Units=1/GPa)
#
#
# Indices 1 2 3 4 5 6 
#
# 1 0.012206 -0.009926 -0.002960 0.000000 -0.001401 0.000000
# 2 -0.009926 0.038243 -0.009516 0.000000 -0.003792 0.000000
# 3 -0.002960 -0.009516 0.010759 0.000000 0.002543 0.000000
# 4 0.000000 0.000000 0.000000 0.023909 0.000000 -0.002639
# 5 -0.001401 -0.003792 0.002543 0.000000 0.024448 0.000000
# 6 0.000000 0.000000 0.000000 -0.002639 0.000000 0.029512
#
#
# Mechanical properties :
#
#
# Convention : Reuss Voigt Hill
#
# Bulk Modulus (GPa) = 60.96211 101.70221 81.33216
# Shear Modulus (GPa) = 26.40605 34.96918 30.68762
#
# Velocity S-wave (km/s) = 3.73836 4.30201 4.03005
# Velocity P-wave (km/s) = 7.13426 8.86013 8.04362
#
# Compressibility (1/GPa) = 0.01640363
#
# Stress axis : x y z
#
# Youngs Moduli (GPa) = 81.92821 26.14837 92.94230
#
# Poissons Ratio (x) = 0.25956 0.27508
# Poissons Ratio (y) = 0.81325 0.88447
# Poissons Ratio (z) = 0.24248 0.24884
#
# Static dielectric constant tensor:
#      x y z
#    x 3.704870 0.000000 -0.105720 
#    y 0.000000 3.408210 0.000000 
#    z -0.105720 0.000000 3.626500 
# 
# 
# High freq. dielectric constant tensor:
#      x y z
#    x 1.756410 0.000000 -0.002920 
#    y 0.000000 1.729440 0.000000 
#    z -0.002920 0.000000 1.754310 
# 
# From -- ./inp_files/180707.got.cif
#   From: 2010.06.25/outbox.cif.g09.slc.cpg/sg12_91_cif.got.tgz:180707.got - 2010.06.28 00:19:55.
