data_PCOD8106356
_publ_section_title
;
Structure prediction by ZEFSAII (Michael W. Deem and Ramdas Pophale) SiO2 
 PCOD8106356
Probable space group: C 2/M
;
_chemical_formula_sum "Si O2"
_cell_formula_units_Z 44
_cell_length_a 9.294855
_cell_length_b 27.405767
_cell_length_c 8.505899
_cell_angle_alpha 90.000000
_cell_angle_beta 83.960205
_cell_angle_gamma 90.000000
_cell_volume 2154.702627
_symmetry_space_group_name_H-M "C 2/M"
_symmetry_group_IT_number 12
_symmetry_cell_setting 'monoclinic'
loop_
_space_group_symop_operation_xyz
x,y,z
-x,y,-z
-x,-y,-z
x,-y,z
1/2+x,1/2+y,z
1/2-x,1/2+y,-z
1/2-x,1/2-y,-z
1/2+x,1/2-y,z
loop_
_atom_site_type_symbol
_atom_site_label
_atom_site_fract_x
_atom_site_fract_y
_atom_site_fract_z
Si Si1 0.842766 0.443362 0.092550
Si Si2 0.746491 0.313335 0.623028
Si Si3 0.000000 0.753049 0.500000
Si Si4 0.908674 0.945722 0.368096
Si Si5 0.138224 0.121761 0.900392
Si Si6 0.843766 0.405305 0.445492
O O1 0.790575 0.500000 0.102254
O O2 0.846368 0.420761 0.265283
O O3 0.737072 0.409774 0.004040
O O4 0.000000 0.440150 0.000000
O O5 0.888048 0.279130 0.615656
O O6 0.597264 0.284737 0.607794
O O7 0.733747 0.338498 0.796039
O O8 0.766299 0.352822 0.480575
O O9 0.939319 0.914904 0.211050
O O10 0.740887 0.945265 0.440021
O O11 0.000000 0.922342 0.500000
O O12 0.962058 0.000000 0.325693
O O13 0.000000 0.147147 0.000000
O O14 0.000000 0.401815 0.500000
#
# Coordination Sequence:
#
# PCOD8106356 Si02
#       6
#     8   8   4   8   8   8
#     4  11  24  39  59  92 135 178 213 257 311 368
#     4  10  23  42  70  96 120 163 207 266 321 384
#     4  10  22  44  74  94 120 150 218 268 324 382
#     4  10  21  36  57  87 120 167 222 260 296 358
#     4  11  24  39  61  92 133 170 205 252 323 378
#     4  11  22  38  64  91 122 167 218 263 309 372
#
# _framework density 20.420451
#
# number of rings (size 3 to 8) (size 9 to 14) (size 15 to 20)
#    0.000    1.455    0.909    4.364    7.636    5.818 
#    0.000    0.909    0.000    0.000    0.000    0.000 
#    0.000    0.000    0.000    0.000    0.000    0.000 
#
# Total GULP energy -272727.848472 kJ/mol
# GULP energy per Si atom -12396.720385 kJ/mol
# Density = 2.037397 g / cm^3
# Si number density = 20.420451 Si / 1000 Ang^3
#
#
#
# Elastic Constant Matrix: (Units=GPa)
#
#
# Indices 1 2 3 4 5 6 
#
# 1 125.5083 59.1538 48.0747 0.0000 -4.0898 0.0000
# 2 59.1538 104.9415 56.5816 0.0000 2.4818 0.0000
# 3 48.0747 56.5816 129.8569 0.0000 -2.4463 0.0000
# 4 0.0000 0.0000 0.0000 -9.4820 0.0000 1.2695
# 5 -4.0898 2.4818 -2.4463 0.0000 36.7925 0.0000
# 6 0.0000 0.0000 0.0000 1.2695 0.0000 25.1961
#
#
#
# Elastic Compliance Matrix: (Units=1/GPa)
#
#
# Indices 1 2 3 4 5 6 
#
# 1 0.011251 -0.005420 -0.001775 0.000000 0.001498 0.000000
# 2 -0.005420 0.015120 -0.004618 0.000000 -0.001929 0.000000
# 3 -0.001775 -0.004618 0.010385 0.000000 0.000805 0.000000
# 4 0.000000 0.000000 0.000000 -0.104756 0.000000 0.005278
# 5 0.001498 -0.001929 0.000805 0.000000 0.027530 0.000000
# 6 0.000000 0.000000 0.000000 0.005278 0.000000 0.039423
#
#
# Mechanical properties :
#
#
# Convention : Reuss Voigt Hill
#
# Bulk Modulus (GPa) = 76.16460 76.43633 76.30046
# Shear Modulus (GPa) = 185.49131 23.60108 104.54620
#
# Velocity S-wave (km/s) = 9.54113 3.40333 7.16296
# Velocity P-wave (km/s) = 12.59987 7.27709 10.28866
#
# Compressibility (1/GPa) = 0.01312946
#
# Stress axis : x y z
#
# Youngs Moduli (GPa) = 88.88019 66.13826 96.29036
#
# Poissons Ratio (x) = 0.35849 0.17095
# Poissons Ratio (y) = 0.48176 0.44464
# Poissons Ratio (z) = 0.15779 0.30541
#
# Static dielectric constant tensor:
#      x y z
#    x 3.857860 0.000000 -0.108420 
#    y 0.000000 3.839180 0.000000 
#    z -0.108420 0.000000 3.721360 
# 
# 
# High freq. dielectric constant tensor:
#      x y z
#    x 1.816930 0.000000 -0.012320 
#    y 0.000000 1.793350 0.000000 
#    z -0.012320 0.000000 1.795670 
# 
# From -- ./inp_files/41596.got.cif
#   From: 2010.06.25/outbox.cif.g09.slc.cpg/sg12_21_cif.got.tgz:41596.got - 2010.06.28 00:19:55.
