data_PCOD8106510
_publ_section_title
;
Structure prediction by ZEFSAII (Michael W. Deem and Ramdas Pophale) SiO2 
 PCOD8106510
Probable space group: C 2/M
;
_chemical_formula_sum "Si O2"
_cell_formula_units_Z 56
_cell_length_a 22.459748
_cell_length_b 8.978432
_cell_length_c 14.058957
_cell_angle_alpha 90.000000
_cell_angle_beta 81.421661
_cell_angle_gamma 90.000000
_cell_volume 2803.319372
_symmetry_space_group_name_H-M "C 2/M"
_symmetry_group_IT_number 12
_symmetry_cell_setting 'monoclinic'
loop_
_space_group_symop_operation_xyz
x,y,z
-x,y,-z
-x,-y,-z
x,-y,z
1/2+x,1/2+y,z
1/2-x,1/2+y,-z
1/2-x,1/2-y,-z
1/2+x,1/2-y,z
loop_
_atom_site_type_symbol
_atom_site_label
_atom_site_fract_x
_atom_site_fract_y
_atom_site_fract_z
Si Si1 0.493964 0.823282 0.608030
Si Si2 0.397137 0.169787 0.293200
Si Si3 0.771115 0.176983 0.789657
Si Si4 0.769438 0.666231 0.402980
Si Si5 0.605364 0.829485 0.223929
Si Si6 0.846910 0.823809 0.122857
Si Si7 0.562871 0.170880 0.029133
O O1 0.500000 0.755505 0.500000
O O2 0.547367 0.760838 0.661546
O O3 0.430738 0.778460 0.672627
O O4 0.500567 0.000000 0.601456
O O5 0.341170 0.172898 0.378147
O O6 0.384936 0.270248 0.204665
O O7 0.409687 0.000000 0.255832
O O8 0.761005 0.234680 0.684220
O O9 0.836941 0.226169 0.806891
O O10 0.719566 0.251650 0.866605
O O11 0.763461 0.000000 0.799427
O O12 0.745672 0.500000 0.420630
O O13 0.750000 0.750000 0.500000
O O14 0.561025 0.812972 0.143940
O O15 0.626953 0.000000 0.229522
O O16 0.840064 0.000000 0.125990
O O17 0.882739 0.772581 0.021077
O O18 0.574383 0.000000 0.996003
O O19 0.500000 0.227918 0.000000
#
# Coordination Sequence:
#
# PCOD8106510 Si02
#       7
#     8   8   8   8   8   8   8
#     4   9  18  33  57  86 115 150 192 235 283 342
#     4   9  18  35  56  81 113 151 190 232 286 346
#     4  10  22  40  58  80 116 158 193 235 292 352
#     4   9  19  32  52  79 106 144 190 236 284 334
#     4  10  21  36  59  89 117 149 193 242 287 339
#     4  11  22  37  60  88 115 149 193 245 293 340
#     4  10  21  39  63  89 118 156 195 235 285 346
#
# _framework density 19.976317999999999
#
# number of rings (size 3 to 8) (size 9 to 14) (size 15 to 20)
#    0.000    2.286    0.000    3.429    2.000    6.571 
#    0.000    2.143    0.000    0.857    0.000    0.000 
#    0.000    0.000    0.000    0.000    0.000    0.000 
#
# Total GULP energy -347217.362984 kJ/mol
# GULP energy per Si atom -12400.620107 kJ/mol
# Density = 1.993085 g / cm^3
# Si number density = 19.976318 Si / 1000 Ang^3
#
#
#
# Elastic Constant Matrix: (Units=GPa)
#
#
# Indices 1 2 3 4 5 6 
#
# 1 115.5912 28.8961 35.0858 0.0000 -2.5356 0.0000
# 2 28.8961 76.3631 34.4317 0.0000 -8.1718 0.0000
# 3 35.0858 34.4317 108.8648 0.0000 -14.2384 0.0000
# 4 0.0000 0.0000 0.0000 27.5764 0.0000 -2.0833
# 5 -2.5356 -8.1718 -14.2384 0.0000 23.7019 0.0000
# 6 0.0000 0.0000 0.0000 -2.0833 0.0000 25.8858
#
#
#
# Elastic Compliance Matrix: (Units=1/GPa)
#
#
# Indices 1 2 3 4 5 6 
#
# 1 0.010100 -0.002825 -0.002548 0.000000 -0.001424 0.000000
# 2 -0.002825 0.016209 -0.003825 0.000000 0.002988 0.000000
# 3 -0.002548 -0.003825 0.011947 0.000000 0.005586 0.000000
# 4 0.000000 0.000000 0.000000 0.036485 0.000000 0.002936
# 5 -0.001424 0.002988 0.005586 0.000000 0.046424 0.000000
# 6 0.000000 0.000000 0.000000 0.002936 0.000000 0.038868
#
#
# Mechanical properties :
#
#
# Convention : Reuss Voigt Hill
#
# Bulk Modulus (GPa) = 50.35405 55.29404 52.82405
# Shear Modulus (GPa) = 27.02000 28.92652 27.97326
#
# Velocity S-wave (km/s) = 3.68176 3.80944 3.74615
# Velocity P-wave (km/s) = 6.58297 6.86214 6.72400
#
# Compressibility (1/GPa) = 0.01985937
#
# Stress axis : x y z
#
# Youngs Moduli (GPa) = 99.01456 61.69412 83.70221
#
# Poissons Ratio (x) = 0.17431 0.21324
# Poissons Ratio (y) = 0.27976 0.32017
# Poissons Ratio (z) = 0.25225 0.23599
#
# Static dielectric constant tensor:
#      x y z
#    x 3.778600 0.000000 0.044360 
#    y 0.000000 3.355620 0.000000 
#    z 0.044360 0.000000 3.687760 
# 
# 
# High freq. dielectric constant tensor:
#      x y z
#    x 1.782830 0.000000 -0.003520 
#    y 0.000000 1.749380 0.000000 
#    z -0.003520 0.000000 1.784470 
# 
# From -- ./inp_files/237327.got.cif
#   From: 2010.06.25/outbox.cif.g09.slc.cpg/sg12_119_cif.got.tgz:237327.got - 2010.06.28 00:19:55.
