data_PCOD8106459
_publ_section_title
;
Structure prediction by ZEFSAII (Michael W. Deem and Ramdas Pophale) SiO2 
 PCOD8106459
Probable space group: C 2/M
;
_chemical_formula_sum "Si O2"
_cell_formula_units_Z 56
_cell_length_a 16.555259
_cell_length_b 25.514098
_cell_length_c 8.812716
_cell_angle_alpha 90.000000
_cell_angle_beta 133.523961
_cell_angle_gamma 90.000000
_cell_volume 2699.079994
_symmetry_space_group_name_H-M "C 2/M"
_symmetry_group_IT_number 12
_symmetry_cell_setting 'monoclinic'
loop_
_space_group_symop_operation_xyz
x,y,z
-x,y,-z
-x,-y,-z
x,-y,z
1/2+x,1/2+y,z
1/2-x,1/2+y,-z
1/2-x,1/2-y,-z
1/2+x,1/2-y,z
loop_
_atom_site_type_symbol
_atom_site_label
_atom_site_fract_x
_atom_site_fract_y
_atom_site_fract_z
Si Si1 0.267254 0.059417 0.216986
Si Si2 0.000000 0.400072 0.500000
Si Si3 0.777018 0.439522 0.582748
Si Si4 0.216624 0.840380 0.977431
Si Si5 0.500000 0.107134 0.000000
Si Si6 0.987586 0.790177 0.162102
Si Si7 0.105209 0.130539 0.538574
Si Si8 0.043495 0.676182 0.792500
O O1 0.395839 0.062660 0.329193
O O2 0.255958 0.073855 0.379407
O O3 0.199219 0.101199 0.027402
O O4 0.224834 0.000000 0.129960
O O5 0.963422 0.361651 0.591012
O O6 0.761167 0.500000 0.593719
O O7 0.680233 0.413346 0.557253
O O8 0.904539 0.426479 0.793629
O O9 0.341838 0.819013 0.154046
O O10 0.182041 0.838736 0.756821
O O11 0.142184 0.799782 0.974052
O O12 0.568968 0.145341 0.979455
O O13 0.064740 0.829879 0.355275
O O14 0.016493 0.731350 0.254140
O O15 0.000000 0.797519 0.000000
O O16 0.000000 0.107557 0.500000
#
# Coordination Sequence:
#
# PCOD8106459 Si02
#       8
#     8   4   8   8   4   8   8   8
#     4  10  21  38  60  87 121 160 202 249 308 365
#     4  10  21  36  58  90 124 162 195 248 298 374
#     4  11  23  41  64  92 127 167 202 255 315 365
#     4  10  22  41  61  90 123 162 206 260 301 368
#     4  12  21  42  60  98 132 156 205 250 312 382
#     4  11  23  41  63  90 122 165 208 253 305 362
#     4  10  23  42  64  90 125 161 213 258 298 365
#     4  11  22  39  63  90 128 163 201 249 314 369
#
# _framework density 20.747810999999999
#
# number of rings (size 3 to 8) (size 9 to 14) (size 15 to 20)
#    0.000    1.429    3.571    1.714    3.000    0.857 
#    0.000    3.571    0.000    7.714    0.000    0.000 
#    0.000    0.000    0.000    0.000    0.000    0.000 
#
# Total GULP energy -347059.374675 kJ/mol
# GULP energy per Si atom -12394.977667 kJ/mol
# Density = 2.070059 g / cm^3
# Si number density = 20.747811 Si / 1000 Ang^3
#
#
#
# Elastic Constant Matrix: (Units=GPa)
#
#
# Indices 1 2 3 4 5 6 
#
# 1 97.2644 41.1784 29.8326 0.0000 -14.2295 0.0000
# 2 41.1784 94.0138 35.5928 0.0000 -13.0958 0.0000
# 3 29.8326 35.5928 82.1207 0.0000 -15.2886 0.0000
# 4 0.0000 0.0000 0.0000 24.5254 0.0000 -5.8145
# 5 -14.2295 -13.0958 -15.2886 0.0000 35.0227 0.0000
# 6 0.0000 0.0000 0.0000 -5.8145 0.0000 28.4471
#
#
#
# Elastic Compliance Matrix: (Units=1/GPa)
#
#
# Indices 1 2 3 4 5 6 
#
# 1 0.013334 -0.004573 -0.002364 0.000000 0.002676 0.000000
# 2 -0.004573 0.014507 -0.004313 0.000000 0.001684 0.000000
# 3 -0.002364 -0.004313 0.015702 0.000000 0.004281 0.000000
# 4 0.000000 0.000000 0.000000 0.042851 0.000000 0.008758
# 5 0.002676 0.001684 0.004281 0.000000 0.032139 0.000000
# 6 0.000000 0.000000 0.000000 0.008758 0.000000 0.036943
#
#
# Mechanical properties :
#
#
# Convention : Reuss Voigt Hill
#
# Bulk Modulus (GPa) = 47.51910 54.06738 50.79324
# Shear Modulus (GPa) = 27.02869 28.71872 27.87370
#
# Velocity S-wave (km/s) = 3.61324 3.72449 3.66929
# Velocity P-wave (km/s) = 6.35297 6.67920 6.51813
#
# Compressibility (1/GPa) = 0.02104417
#
# Stress axis : x y z
#
# Youngs Moduli (GPa) = 74.99872 68.93255 63.68467
#
# Poissons Ratio (x) = 0.31519 0.15054
# Poissons Ratio (y) = 0.34293 0.27467
# Poissons Ratio (z) = 0.17728 0.29731
#
# Static dielectric constant tensor:
#      x y z
#    x 3.877590 0.000000 -0.180540 
#    y 0.000000 3.647410 0.000000 
#    z -0.180540 0.000000 3.769010 
# 
# 
# High freq. dielectric constant tensor:
#      x y z
#    x 1.817290 0.000000 -0.014340 
#    y 0.000000 1.806590 0.000000 
#    z -0.014340 0.000000 1.811540 
# 
# From -- ./inp_files/66027.got.cif
#   From: 2010.06.25/outbox.cif.g09.slc.cpg/sg12_34_cif.got.tgz:66027.got - 2010.06.28 00:19:55.
