data_PCOD8106177
_publ_section_title
;
Structure prediction by ZEFSAII (Michael W. Deem and Ramdas Pophale) SiO2 
 PCOD8106177
Probable space group: C 2/M
;
_chemical_formula_sum "Si O2"
_cell_formula_units_Z 48
_cell_length_a 21.095125
_cell_length_b 12.169413
_cell_length_c 21.533660
_cell_angle_alpha 90.000000
_cell_angle_beta 150.591790
_cell_angle_gamma 90.000000
_cell_volume 2714.415716
_symmetry_space_group_name_H-M "C 2/M"
_symmetry_group_IT_number 12
_symmetry_cell_setting 'monoclinic'
loop_
_space_group_symop_operation_xyz
x,y,z
-x,y,-z
-x,-y,-z
x,-y,z
1/2+x,1/2+y,z
1/2-x,1/2+y,-z
1/2-x,1/2-y,-z
1/2+x,1/2-y,z
loop_
_atom_site_type_symbol
_atom_site_label
_atom_site_fract_x
_atom_site_fract_y
_atom_site_fract_z
Si Si1 0.290005 0.703164 0.833449
Si Si2 0.840998 0.500000 0.437701
Si Si3 0.845105 0.875059 0.522716
Si Si4 0.571052 0.371613 0.623154
Si Si5 0.357230 0.000000 0.311070
Si Si6 0.828884 0.820188 0.648845
Si Si7 0.014324 0.131427 0.102667
O O1 0.209834 0.814809 0.753967
O O2 0.188034 0.608501 0.762774
O O3 0.366524 0.672174 0.836684
O O4 0.389319 0.703420 0.976184
O O5 0.795351 0.500000 0.327509
O O6 0.790071 0.393656 0.429752
O O7 0.991927 0.500000 0.564645
O O8 0.874830 0.855203 0.620097
O O9 0.722851 0.804399 0.395052
O O10 0.976470 0.844864 0.599279
O O11 0.805290 0.000000 0.475280
O O12 0.500000 0.327456 0.500000
O O13 0.601826 0.500000 0.642530
O O14 0.953184 0.838005 0.798689
O O15 0.990721 0.000000 0.073755
#
# Coordination Sequence:
#
# PCOD8106177 Si02
#       7
#     8   4   8   8   4   8   8
#     4  11  19  33  52  80 110 140 175 212 265 321
#     4  11  20  29  52  85 109 138 169 218 274 313
#     4  10  21  36  56  78 104 141 177 227 267 313
#     4  10  22  38  55  76 106 142 183 225 268 309
#     4  11  20  28  51  86 119 130 163 227 272 309
#     4  11  19  35  56  79 107 141 179 212 269 326
#     4  11  19  34  54  80 113 145 167 212 272 329
#
# _framework density 17.683363
#
# number of rings (size 3 to 8) (size 9 to 14) (size 15 to 20)
#    0.000    1.333    5.000    2.500    2.333    0.000 
#    0.000    3.333    0.000    0.000    0.000    0.000 
#    0.000    0.000    0.000    0.000    0.000    0.000 
#
# Total GULP energy -297532.641342 kJ/mol
# GULP energy per Si atom -12397.193389 kJ/mol
# Density = 1.764312 g / cm^3
# Si number density = 17.683363 Si / 1000 Ang^3
#
#
#
# Elastic Constant Matrix: (Units=GPa)
#
#
# Indices 1 2 3 4 5 6 
#
# 1 97.7658 36.1278 53.4860 -0.0009 -7.3118 -0.0003
# 2 36.1278 86.6167 62.2507 -0.0025 3.1277 -0.0010
# 3 53.4860 62.2507 103.3122 -0.0028 -13.3748 -0.0011
# 4 -0.0009 -0.0025 -0.0028 33.7174 -0.0023 4.1273
# 5 -7.3118 3.1277 -13.3748 -0.0023 21.9123 -0.0008
# 6 -0.0003 -0.0010 -0.0011 4.1273 -0.0008 21.0793
#
#
#
# Elastic Compliance Matrix: (Units=1/GPa)
#
#
# Indices 1 2 3 4 5 6 
#
# 1 0.014353 -0.001376 -0.006467 0.000000 0.001039 0.000000
# 2 -0.001376 0.023438 -0.015096 0.000000 -0.013019 0.000000
# 3 -0.006467 -0.015096 0.024021 0.000002 0.014659 0.000001
# 4 0.000000 0.000000 0.000002 0.030387 0.000004 -0.005950
# 5 0.001039 -0.013019 0.014659 0.000004 0.056789 0.000002
# 6 0.000000 0.000000 0.000001 -0.005950 0.000002 0.048605
#
#
# Mechanical properties :
#
#
# Convention : Reuss Voigt Hill
#
# Bulk Modulus (GPa) = 62.75730 65.71373 64.23552
# Shear Modulus (GPa) = 20.09797 24.39714 22.24756
#
# Velocity S-wave (km/s) = 3.37493 3.71842 3.55083
# Velocity P-wave (km/s) = 7.12414 7.46174 7.29489
#
# Compressibility (1/GPa) = 0.01593440
#
# Stress axis : x y z
#
# Youngs Moduli (GPa) = 69.67335 42.66497 41.63033
#
# Poissons Ratio (x) = 0.05872 0.26921
# Poissons Ratio (y) = 0.09590 0.62844
# Poissons Ratio (z) = 0.45056 0.64406
#
# Static dielectric constant tensor:
#      x y z
#    x 3.256470 0.000000 -0.120300 
#    y 0.000000 3.335970 0.000000 
#    z -0.120300 0.000000 3.287750 
# 
# 
# High freq. dielectric constant tensor:
#      x y z
#    x 1.674330 0.000000 -0.003620 
#    y 0.000000 1.685150 0.000000 
#    z -0.003620 0.000000 1.679180 
# 
# From -- ./inp_files/321345.got.cif
#   From: 2010.06.25/outbox.cif.g09.slc.cpg/sg12_161_cif.got.tgz:321345.got - 2010.06.28 00:19:55.
