data_PCOD8106759
_publ_section_title
;
Structure prediction by ZEFSAII (Michael W. Deem and Ramdas Pophale) SiO2 
 PCOD8106759
Probable space group: C 2/M
;
_chemical_formula_sum "Si O2"
_cell_formula_units_Z 56
_cell_length_a 30.045548
_cell_length_b 13.375404
_cell_length_c 8.569614
_cell_angle_alpha 90.000000
_cell_angle_beta 126.709029
_cell_angle_gamma 90.000000
_cell_volume 2760.896569
_symmetry_space_group_name_H-M "C 2/M"
_symmetry_group_IT_number 12
_symmetry_cell_setting 'monoclinic'
loop_
_space_group_symop_operation_xyz
x,y,z
-x,y,-z
-x,-y,-z
x,-y,z
1/2+x,1/2+y,z
1/2-x,1/2+y,-z
1/2-x,1/2-y,-z
1/2+x,1/2-y,z
loop_
_atom_site_type_symbol
_atom_site_label
_atom_site_fract_x
_atom_site_fract_y
_atom_site_fract_z
Si Si1 0.212377 0.608904 0.098927
Si Si2 0.286205 0.691963 0.745028
Si Si3 0.614486 0.388676 0.873488
Si Si4 0.095202 0.215416 0.514156
Si Si5 0.181343 0.109761 0.503570
Si Si6 0.322304 0.115684 0.326117
Si Si7 0.005764 0.115709 0.830598
O O1 0.187687 0.500000 0.099128
O O2 0.189496 0.698441 0.157969
O O3 0.278947 0.608106 0.261513
O O4 0.200741 0.628296 0.895258
O O5 0.290965 0.681051 0.568632
O O6 0.222236 0.671625 0.657716
O O7 0.325772 0.614481 0.917738
O O8 0.605715 0.500000 0.787584
O O9 0.610463 0.312164 0.722574
O O10 0.568695 0.364218 0.909214
O O11 0.122199 0.145215 0.438781
O O12 0.117914 0.328577 0.534222
O O13 0.030277 0.195628 0.346354
O O14 0.174424 0.000000 0.414385
O O15 0.330124 0.000000 0.390815
O O16 0.988511 0.000000 0.760636
O O17 0.000000 0.141544 0.000000
#
# Coordination Sequence:
#
# PCOD8106759 Si02
#       7
#     8   8   8   8   8   8   8
#     4  10  21  37  55  80 118 157 198 242 289 348
#     4  12  21  39  56  88 122 162 197 243 297 351
#     4  11  22  36  61  89 117 154 198 242 294 357
#     4  12  22  38  60  85 121 156 196 240 297 350
#     4  11  22  34  55  85 121 161 197 237 292 353
#     4  11  23  39  59  85 120 158 201 246 291 349
#     4  10  22  41  63  90 120 150 190 243 300 356
#
# _framework density 20.283266000000001
#
# number of rings (size 3 to 8) (size 9 to 14) (size 15 to 20)
#    0.000    1.000    2.857    5.571    0.000    3.429 
#    0.000    0.000    0.000    3.000    0.000    0.000 
#    0.000    0.000    0.000    0.000    0.000    0.000 
#
# Total GULP energy -347154.952895 kJ/mol
# GULP energy per Si atom -12398.391175 kJ/mol
# Density = 2.023710 g / cm^3
# Si number density = 20.283266 Si / 1000 Ang^3
#
#
#
# Elastic Constant Matrix: (Units=GPa)
#
#
# Indices 1 2 3 4 5 6 
#
# 1 71.5787 37.4075 3.8379 0.0000 -9.0599 0.0000
# 2 37.4075 122.3212 19.6227 0.0000 -7.0914 0.0000
# 3 3.8379 19.6227 62.0492 0.0000 -1.7379 0.0000
# 4 0.0000 0.0000 0.0000 30.4430 0.0000 0.0784
# 5 -9.0599 -7.0914 -1.7379 0.0000 33.2737 0.0000
# 6 0.0000 0.0000 0.0000 0.0784 0.0000 26.7181
#
#
#
# Elastic Compliance Matrix: (Units=1/GPa)
#
#
# Indices 1 2 3 4 5 6 
#
# 1 0.017063 -0.005116 0.000663 0.000000 0.003590 0.000000
# 2 -0.005116 0.010243 -0.002905 0.000000 0.000638 0.000000
# 3 0.000663 -0.002905 0.017006 0.000000 0.000450 0.000000
# 4 0.000000 0.000000 0.000000 0.032849 0.000000 -0.000096
# 5 0.003590 0.000638 0.000450 0.000000 0.031191 0.000000
# 6 0.000000 0.000000 0.000000 -0.000096 0.000000 0.037428
#
#
# Mechanical properties :
#
#
# Convention : Reuss Voigt Hill
#
# Bulk Modulus (GPa) = 33.78790 41.96505 37.87648
# Shear Modulus (GPa) = 29.34925 31.09235 30.22080
#
# Velocity S-wave (km/s) = 3.80803 3.91948 3.86416
# Velocity P-wave (km/s) = 6.00241 6.42009 6.21476
#
# Compressibility (1/GPa) = 0.02959639
#
# Stress axis : x y z
#
# Youngs Moduli (GPa) = 58.60491 97.62868 58.80113
#
# Poissons Ratio (x) = 0.49952 -0.03900
# Poissons Ratio (y) = 0.29985 0.17081
# Poissons Ratio (z) = -0.03887 0.28360
#
# Static dielectric constant tensor:
#      x y z
#    x 3.547650 0.000000 -0.039680 
#    y 0.000000 3.895960 0.000000 
#    z -0.039680 0.000000 3.562760 
# 
# 
# High freq. dielectric constant tensor:
#      x y z
#    x 1.777680 0.000000 -0.015460 
#    y 0.000000 1.790260 0.000000 
#    z -0.015460 0.000000 1.790000 
# 
# From -- ./inp_files/96982.got.cif
#   From: 2010.06.25/outbox.cif.g09.slc.cpg/sg12_49_cif.got.tgz:96982.got - 2010.06.28 00:19:55.
