data_PCOD8106947
_publ_section_title
;
Structure prediction by ZEFSAII (Michael W. Deem and Ramdas Pophale) SiO2 
 PCOD8106947
Probable space group: C 2/M
;
_chemical_formula_sum "Si O2"
_cell_formula_units_Z 48
_cell_length_a 10.026768
_cell_length_b 9.014451
_cell_length_c 26.399764
_cell_angle_alpha 90.000000
_cell_angle_beta 90.129914
_cell_angle_gamma 90.000000
_cell_volume 2386.157888
_symmetry_space_group_name_H-M "C 2/M"
_symmetry_group_IT_number 12
_symmetry_cell_setting 'monoclinic'
loop_
_space_group_symop_operation_xyz
x,y,z
-x,y,-z
-x,-y,-z
x,-y,z
1/2+x,1/2+y,z
1/2-x,1/2+y,-z
1/2-x,1/2-y,-z
1/2+x,1/2-y,z
loop_
_atom_site_type_symbol
_atom_site_label
_atom_site_fract_x
_atom_site_fract_y
_atom_site_fract_z
Si Si1 0.525106 0.671359 0.715510
Si Si2 0.763722 0.672250 0.553533
Si Si3 0.032911 0.672048 0.612094
Si Si4 0.769978 0.174076 0.888334
Si Si5 0.465254 0.325863 0.055896
Si Si6 0.757030 0.828470 0.773352
O O1 0.543661 0.500000 0.700983
O O2 0.487019 0.761641 0.665399
O O3 0.662260 0.729432 0.738898
O O4 0.408494 0.694709 0.755937
O O5 0.727991 0.500000 0.547743
O O6 0.750000 0.750000 0.500000
O O7 0.664504 0.744483 0.593693
O O8 0.914653 0.694748 0.571998
O O9 0.068359 0.500000 0.618989
O O10 0.669655 0.250853 0.926406
O O11 0.918474 0.218856 0.905106
O O12 0.747289 0.228309 0.830959
O O13 0.748569 0.000000 0.892920
O O14 0.440230 0.500000 0.054764
O O15 0.500000 0.266692 0.000000
O O16 0.714381 0.000000 0.768288
#
# Coordination Sequence:
#
# PCOD8106947 Si02
#       6
#     8   8   8   8   8   8
#     4  11  23  39  61  87 115 151 193 236 287 344
#     4  11  24  41  63  91 121 156 197 239 287 342
#     4  11  24  41  61  88 121 155 195 241 287 340
#     4  10  21  37  57  83 114 149 191 235 283 342
#     4  10  21  37  57  83 115 149 188 236 286 338
#     4  10  22  39  58  83 116 151 189 237 288 340
#
# _framework density 20.116019000000001
#
# number of rings (size 3 to 8) (size 9 to 14) (size 15 to 20)
#    0.000    1.500    0.000    4.500    0.000   11.667 
#    0.000    0.000    0.000    0.000    0.000    0.000 
#    0.000    0.000    0.000    0.000    0.000    0.000 
#
# Total GULP energy -297766.982793 kJ/mol
# GULP energy per Si atom -12406.957616 kJ/mol
# Density = 2.007023 g / cm^3
# Si number density = 20.116019 Si / 1000 Ang^3
#
#
#
# Elastic Constant Matrix: (Units=GPa)
#
#
# Indices 1 2 3 4 5 6 
#
# 1 67.3209 40.0969 6.4808 0.0000 -4.0309 0.0000
# 2 40.0969 90.9095 36.6439 0.0000 3.7253 0.0000
# 3 6.4808 36.6439 103.8855 0.0000 0.6813 0.0000
# 4 0.0000 0.0000 0.0000 31.8563 0.0000 -6.3993
# 5 -4.0309 3.7253 0.6813 0.0000 38.7372 0.0000
# 6 0.0000 0.0000 0.0000 -6.3993 0.0000 30.3425
#
#
#
# Elastic Compliance Matrix: (Units=1/GPa)
#
#
# Indices 1 2 3 4 5 6 
#
# 1 0.020954 -0.010300 0.002305 0.000000 0.003130 0.000000
# 2 -0.010300 0.017938 -0.005667 0.000000 -0.002697 0.000000
# 3 0.002305 -0.005667 0.011477 0.000000 0.000583 0.000000
# 4 0.000000 0.000000 0.000000 0.032780 0.000000 0.006913
# 5 0.003130 -0.002697 0.000583 0.000000 0.026390 0.000000
# 6 0.000000 0.000000 0.000000 0.006913 0.000000 0.034415
#
#
# Mechanical properties :
#
#
# Convention : Reuss Voigt Hill
#
# Bulk Modulus (GPa) = 43.39062 47.61767 45.50414
# Shear Modulus (GPa) = 27.93940 32.11348 30.02644
#
# Velocity S-wave (km/s) = 3.73086 3.99985 3.86769
# Velocity P-wave (km/s) = 6.33846 6.71227 6.52804
#
# Compressibility (1/GPa) = 0.02304646
#
# Stress axis : x y z
#
# Youngs Moduli (GPa) = 47.72280 55.74898 87.12871
#
# Poissons Ratio (x) = 0.57420 -0.20086
# Poissons Ratio (y) = 0.49153 0.49375
# Poissons Ratio (z) = -0.11002 0.31593
#
# Static dielectric constant tensor:
#      x y z
#    x 3.638260 0.000000 -0.028250 
#    y 0.000000 3.691300 0.000000 
#    z -0.028250 0.000000 3.933880 
# 
# 
# High freq. dielectric constant tensor:
#      x y z
#    x 1.794950 0.000000 0.000010 
#    y 0.000000 1.786600 0.000000 
#    z 0.000010 0.000000 1.802390 
# 
# From -- ./inp_files/371858.got.cif
#   From: 2010.06.25/outbox.cif.g09.slc.cpg/sg12_186_cif.got.tgz:371858.got - 2010.06.28 00:19:55.
