data_PCOD8106197
_publ_section_title
;
Structure prediction by ZEFSAII (Michael W. Deem and Ramdas Pophale) SiO2 
 PCOD8106197
Probable space group: C 2/M
;
_chemical_formula_sum "Si O2"
_cell_formula_units_Z 48
_cell_length_a 11.895733
_cell_length_b 14.089362
_cell_length_c 13.169047
_cell_angle_alpha 90.000000
_cell_angle_beta 85.141820
_cell_angle_gamma 90.000000
_cell_volume 2199.246032
_symmetry_space_group_name_H-M "C 2/M"
_symmetry_group_IT_number 12
_symmetry_cell_setting 'monoclinic'
loop_
_space_group_symop_operation_xyz
x,y,z
-x,y,-z
-x,-y,-z
x,-y,z
1/2+x,1/2+y,z
1/2-x,1/2+y,-z
1/2-x,1/2-y,-z
1/2+x,1/2-y,z
loop_
_atom_site_type_symbol
_atom_site_label
_atom_site_fract_x
_atom_site_fract_y
_atom_site_fract_z
Si Si1 0.047013 0.609432 0.812363
Si Si2 0.287208 0.102084 0.839425
Si Si3 0.925027 0.106608 0.409664
Si Si4 0.255589 0.148853 0.052166
Si Si5 0.303771 0.751810 0.307093
Si Si6 0.130628 0.892749 0.261180
O O1 0.061397 0.500000 0.777408
O O2 0.123395 0.628951 0.905452
O O3 0.088840 0.680316 0.720477
O O4 0.917242 0.634441 0.841223
O O5 0.218750 0.184442 0.788475
O O6 0.276851 0.000000 0.782101
O O7 0.239968 0.081080 0.956334
O O8 0.825129 0.183838 0.403082
O O9 0.000000 0.134572 0.500000
O O10 0.998963 0.113422 0.300035
O O11 0.876265 0.000000 0.427319
O O12 0.154990 0.133991 0.141891
O O13 0.250000 0.250000 0.000000
O O14 0.197116 0.821213 0.331921
O O15 0.174103 0.000000 0.278004
#
# Coordination Sequence:
#
# PCOD8106197 Si02
#       6
#     8   8   8   8   8   8
#     4  10  21  36  56  81 119 159 192 227 279 335
#     4  11  21  34  53  82 116 154 194 233 274 329
#     4  10  23  43  64  85 113 150 191 241 303 356
#     4  11  19  34  55  84 116 159 193 229 268 343
#     4  11  20  36  61  88 114 147 192 245 283 338
#     4  10  21  39  60  84 117 156 195 233 286 346
#
# _framework density 21.825662000000001
#
# number of rings (size 3 to 8) (size 9 to 14) (size 15 to 20)
#    0.000    1.500    3.333    5.000    0.000    2.000 
#    0.000    0.833    0.000    5.000    0.000    0.000 
#    0.000    0.000    0.000    0.000    0.000    0.000 
#
# Total GULP energy -297339.241327 kJ/mol
# GULP energy per Si atom -12389.135055 kJ/mol
# Density = 2.177599 g / cm^3
# Si number density = 21.825662 Si / 1000 Ang^3
#
#
#
# Elastic Constant Matrix: (Units=GPa)
#
#
# Indices 1 2 3 4 5 6 
#
# 1 37.7474 25.4648 3.4720 0.0000 0.8841 0.0000
# 2 25.4648 154.6686 19.4131 0.0000 19.7660 0.0000
# 3 3.4720 19.4131 38.8817 0.0000 15.8885 0.0000
# 4 0.0000 0.0000 0.0000 27.2831 0.0000 9.2505
# 5 0.8841 19.7660 15.8885 0.0000 30.7244 0.0000
# 6 0.0000 0.0000 0.0000 9.2505 0.0000 29.8313
#
#
#
# Elastic Compliance Matrix: (Units=1/GPa)
#
#
# Indices 1 2 3 4 5 6 
#
# 1 0.030039 -0.005178 -0.001401 0.000000 0.003191 0.000000
# 2 -0.005178 0.008076 -0.001912 0.000000 -0.004058 0.000000
# 3 -0.001401 -0.001912 0.033321 0.000000 -0.015961 0.000000
# 4 0.000000 0.000000 0.000000 0.040959 0.000000 -0.012701
# 5 0.003191 -0.004058 -0.015961 0.000000 0.043320 0.000000
# 6 0.000000 0.000000 0.000000 -0.012701 0.000000 0.037460
#
#
# Mechanical properties :
#
#
# Convention : Reuss Voigt Hill
#
# Bulk Modulus (GPa) = 18.36374 36.44414 27.40394
# Shear Modulus (GPa) = 21.90014 29.76429 25.83221
#
# Velocity S-wave (km/s) = 3.17111 3.69688 3.44404
# Velocity P-wave (km/s) = 4.67333 5.91241 5.32901
#
# Compressibility (1/GPa) = 0.05445513
#
# Stress axis : x y z
#
# Youngs Moduli (GPa) = 33.29018 123.81678 30.01110
#
# Poissons Ratio (x) = 0.64107 0.04205
# Poissons Ratio (y) = 0.17236 0.05738
# Poissons Ratio (z) = 0.04665 0.23671
#
# Static dielectric constant tensor:
#      x y z
#    x 3.884200 0.000000 -0.109440 
#    y 0.000000 4.455460 0.000000 
#    z -0.109440 0.000000 3.840620 
# 
# 
# High freq. dielectric constant tensor:
#      x y z
#    x 1.834390 0.000000 0.000000 
#    y 0.000000 1.893560 0.000000 
#    z 0.000000 0.000000 1.824660 
# 
# From -- ./inp_files/204451.got.cif
#   From: 2010.06.25/outbox.cif.g09.slc.cpg/sg12_103_cif.got.tgz:204451.got - 2010.06.28 00:19:55.
