data_PCOD8106407
_publ_section_title
;
Structure prediction by ZEFSAII (Michael W. Deem and Ramdas Pophale) SiO2 
 PCOD8106407
Probable space group: C 2/M
;
_chemical_formula_sum "Si O2"
_cell_formula_units_Z 40
_cell_length_a 26.695113
_cell_length_b 18.554286
_cell_length_c 9.191116
_cell_angle_alpha 90.000000
_cell_angle_beta 28.058606
_cell_angle_gamma 90.000000
_cell_volume 2141.351619
_symmetry_space_group_name_H-M "C 2/M"
_symmetry_group_IT_number 12
_symmetry_cell_setting 'monoclinic'
loop_
_space_group_symop_operation_xyz
x,y,z
-x,y,-z
-x,-y,-z
x,-y,z
1/2+x,1/2+y,z
1/2-x,1/2+y,-z
1/2-x,1/2-y,-z
1/2+x,1/2-y,z
loop_
_atom_site_type_symbol
_atom_site_label
_atom_site_fract_x
_atom_site_fract_y
_atom_site_fract_z
Si Si1 0.338230 0.500000 0.993981
Si Si2 0.244118 0.646561 0.166461
Si Si3 0.646629 0.645265 0.424432
Si Si4 0.476118 0.211574 0.229348
Si Si5 0.300948 0.223413 0.220903
Si Si6 0.949404 0.000000 0.397865
O O1 0.397209 0.500000 0.689472
O O2 0.423154 0.500000 0.908086
O O3 0.265639 0.571154 0.192818
O O4 0.117256 0.657693 0.482194
O O5 0.300723 0.711054 0.107788
O O6 0.290763 0.647292 0.886570
O O7 0.556244 0.706033 0.659697
O O8 0.731087 0.657400 0.337790
O O9 0.587496 0.569476 0.598952
O O10 0.500000 0.198352 0.000000
O O11 0.579821 0.194820 0.060048
O O12 0.250000 0.250000 0.500000
#
# Coordination Sequence:
#
# PCOD8106407 Si02
#       6
#     4   8   8   8   8   4
#     4   9  18  36  59  83 114 147 182 230 285 330
#     4  10  21  36  58  86 110 144 192 231 272 338
#     4  10  21  36  58  87 111 141 191 234 274 335
#     4  11  20  35  57  79 113 150 184 225 282 330
#     4  11  20  35  57  79 116 148 182 232 279 323
#     4   9  18  36  59  84 114 144 181 237 284 324
#
# _framework density 18.679791000000002
#
# number of rings (size 3 to 8) (size 9 to 14) (size 15 to 20)
#    0.000    1.800    4.000    3.600    0.000    4.800 
#    0.000    3.000    0.000    3.600    0.000    0.000 
#    0.000    0.000    0.000    0.000    0.000    0.000 
#
# Total GULP energy -248021.225817 kJ/mol
# GULP energy per Si atom -12401.061291 kJ/mol
# Density = 1.863727 g / cm^3
# Si number density = 18.679791 Si / 1000 Ang^3
#
#
#
# Elastic Constant Matrix: (Units=GPa)
#
#
# Indices 1 2 3 4 5 6 
#
# 1 137.5610 46.6379 30.8119 0.0000 -34.7809 0.0000
# 2 46.6379 84.3438 -23.9143 0.0000 -21.0733 0.0000
# 3 30.8119 -23.9143 10.7469 0.0000 -12.7678 0.0000
# 4 0.0000 0.0000 0.0000 7.0040 0.0000 -4.6461
# 5 -34.7809 -21.0733 -12.7678 0.0000 46.3220 0.0000
# 6 0.0000 0.0000 0.0000 -4.6461 0.0000 25.0205
#
#
#
# Elastic Compliance Matrix: (Units=1/GPa)
#
#
# Indices 1 2 3 4 5 6 
#
# 1 0.002916 0.007255 0.021270 0.000000 0.011353 0.000000
# 2 0.007255 -0.003017 -0.033711 0.000000 -0.005217 0.000000
# 3 0.021270 -0.033711 -0.062737 0.000000 -0.016658 0.000000
# 4 0.000000 0.000000 0.000000 0.162835 0.000000 0.030237
# 5 0.011353 -0.005217 -0.016658 0.000000 0.023147 0.000000
# 6 0.000000 0.000000 0.000000 0.030237 0.000000 0.045582
#
#
# Mechanical properties :
#
#
# Convention : Reuss Voigt Hill
#
# Bulk Modulus (GPa) = -13.65901 37.74695 12.04397
# Shear Modulus (GPa) = 32.32147 27.61038 29.96593
#
# Velocity S-wave (km/s) = 4.16419 3.84876 4.00958
# Velocity P-wave (km/s) = 3.97399 6.32470 5.28178
#
# Compressibility (1/GPa) = -0.07321175
#
# Stress axis : x y z
#
# Youngs Moduli (GPa) = 342.91300 -331.45256 -15.93955
#
# Poissons Ratio (x) = 2.40456 0.33903
# Poissons Ratio (y) = -2.48770 -0.53734
# Poissons Ratio (z) = -7.29365 -11.17367
#
# Static dielectric constant tensor:
#      x y z
#    x 3.381600 0.000000 0.020550 
#    y 0.000000 3.545180 0.000000 
#    z 0.020550 0.000000 3.309740 
# 
# 
# High freq. dielectric constant tensor:
#      x y z
#    x 1.731630 0.000000 -0.007110 
#    y 0.000000 1.711050 0.000000 
#    z -0.007110 0.000000 1.725120 
# 
# From -- ./inp_files/63845.got.cif
#   From: 2010.06.25/outbox.cif.g09.slc.cpg/sg12_32_cif.got.tgz:63845.got - 2010.06.28 00:19:55.
