data_PCOD8106172
_publ_section_title
;
Structure prediction by ZEFSAII (Michael W. Deem and Ramdas Pophale) SiO2 
 PCOD8106172
Probable space group: C 2/M
;
_chemical_formula_sum "Si O2"
_cell_formula_units_Z 64
_cell_length_a 19.611784
_cell_length_b 15.776406
_cell_length_c 10.268397
_cell_angle_alpha 90.000000
_cell_angle_beta 94.184345
_cell_angle_gamma 90.000000
_cell_volume 3168.608974
_symmetry_space_group_name_H-M "C 2/M"
_symmetry_group_IT_number 12
_symmetry_cell_setting 'monoclinic'
loop_
_space_group_symop_operation_xyz
x,y,z
-x,y,-z
-x,-y,-z
x,-y,z
1/2+x,1/2+y,z
1/2-x,1/2+y,-z
1/2-x,1/2-y,-z
1/2+x,1/2-y,z
loop_
_atom_site_type_symbol
_atom_site_label
_atom_site_fract_x
_atom_site_fract_y
_atom_site_fract_z
Si Si1 0.579955 0.095964 0.509831
Si Si2 0.686509 0.095286 0.311877
Si Si3 0.387680 0.599584 0.754415
Si Si4 0.374098 0.246924 0.311921
Si Si5 0.256947 0.288886 0.141532
Si Si6 0.356704 0.594347 0.027844
Si Si7 0.829102 0.902576 0.467307
Si Si8 0.519873 0.315203 0.864871
O O1 0.500000 0.115301 0.500000
O O2 0.613571 0.108052 0.371756
O O3 0.615556 0.163038 0.605608
O O4 0.594252 0.000000 0.561163
O O5 0.690446 0.167024 0.197921
O O6 0.748904 0.109308 0.423071
O O7 0.690306 0.000000 0.253971
O O8 0.405357 0.500000 0.769792
O O9 0.345873 0.630854 0.878035
O O10 0.342032 0.618477 0.621563
O O11 0.458118 0.653061 0.764290
O O12 0.298290 0.227015 0.243258
O O13 0.374816 0.334860 0.394568
O O14 0.433360 0.250774 0.211106
O O15 0.250000 0.250000 0.000000
O O16 0.311188 0.364648 0.132671
O O17 0.331936 0.500000 0.022512
O O18 0.435606 0.603756 0.081179
O O19 0.852492 0.000000 0.440458
O O20 0.500000 0.269312 0.000000
#
# Coordination Sequence:
#
# PCOD8106172 Si02
#       8
#     8   8   8   8   8   8   8   8
#     4  10  23  43  64  84 107 147 207 263 304 341
#     4   9  19  39  62  83 114 152 187 237 300 353
#     4   9  17  28  47  80 116 151 187 218 257 327
#     4  10  22  37  57  83 113 150 190 237 296 344
#     4  10  21  36  55  86 117 146 186 231 288 359
#     4   9  17  31  50  73 109 154 191 222 262 328
#     4   9  19  33  54  89 125 150 179 223 287 365
#     4   9  18  32  49  75 112 154 187 220 265 335
#
# _framework density 20.198139000000001
#
# number of rings (size 3 to 8) (size 9 to 14) (size 15 to 20)
#    0.000    2.625    0.000    0.750    1.750    9.000 
#    4.500    3.750    0.000    0.375    0.000    0.000 
#    0.000    0.000    0.000    0.000    0.000    0.000 
#
# Total GULP energy -396454.381732 kJ/mol
# GULP energy per Si atom -12389.199429 kJ/mol
# Density = 2.015217 g / cm^3
# Si number density = 20.198139 Si / 1000 Ang^3
#
#
#
# Elastic Constant Matrix: (Units=GPa)
#
#
# Indices 1 2 3 4 5 6 
#
# 1 74.2390 25.9790 29.0649 0.0000 -16.1422 0.0000
# 2 25.9790 72.9448 44.0526 0.0000 -0.7921 0.0000
# 3 29.0649 44.0526 97.1813 0.0000 1.5857 0.0000
# 4 0.0000 0.0000 0.0000 34.9595 0.0000 -3.4031
# 5 -16.1422 -0.7921 1.5857 0.0000 34.1244 0.0000
# 6 0.0000 0.0000 0.0000 -3.4031 0.0000 10.8411
#
#
#
# Elastic Compliance Matrix: (Units=1/GPa)
#
#
# Indices 1 2 3 4 5 6 
#
# 1 0.018283 -0.004170 -0.003720 0.000000 0.008725 0.000000
# 2 -0.004170 0.019852 -0.007733 0.000000 -0.001152 0.000000
# 3 -0.003720 -0.007733 0.014951 0.000000 -0.002634 0.000000
# 4 0.000000 0.000000 0.000000 0.029506 0.000000 0.009262
# 5 0.008725 -0.001152 -0.002634 0.000000 0.033527 0.000000
# 6 0.000000 0.000000 0.000000 0.009262 0.000000 0.095149
#
#
# Mechanical properties :
#
#
# Convention : Reuss Voigt Hill
#
# Bulk Modulus (GPa) = 45.78865 49.17312 47.48089
# Shear Modulus (GPa) = 20.01660 25.66958 22.84309
#
# Velocity S-wave (km/s) = 3.15145 3.56882 3.36661
# Velocity P-wave (km/s) = 5.99676 6.43274 6.21857
#
# Compressibility (1/GPa) = 0.02183947
#
# Stress axis : x y z
#
# Youngs Moduli (GPa) = 54.69658 50.37378 66.88548
#
# Poissons Ratio (x) = 0.21006 0.24882
# Poissons Ratio (y) = 0.22808 0.51721
# Poissons Ratio (z) = 0.20347 0.38953
#
# Static dielectric constant tensor:
#      x y z
#    x 3.692680 0.000000 -0.187200 
#    y 0.000000 3.577290 0.000000 
#    z -0.187200 0.000000 3.862130 
# 
# 
# High freq. dielectric constant tensor:
#      x y z
#    x 1.777680 0.000000 -0.013010 
#    y 0.000000 1.773670 0.000000 
#    z -0.013010 0.000000 1.793090 
# 
# From -- ./inp_files/87973.got.cif
#   From: 2010.06.25/outbox.cif.g09.slc.cpg/sg12_44_cif.got.tgz:87973.got - 2010.06.28 00:19:55.
