data_PCOD8106549
_publ_section_title
;
Structure prediction by ZEFSAII (Michael W. Deem and Ramdas Pophale) SiO2 
 PCOD8106549
Probable space group: C 2/M
;
_chemical_formula_sum "Si O2"
_cell_formula_units_Z 48
_cell_length_a 6.542150
_cell_length_b 27.376315
_cell_length_c 14.118808
_cell_angle_alpha 90.000000
_cell_angle_beta 54.934011
_cell_angle_gamma 90.000000
_cell_volume 2069.699877
_symmetry_space_group_name_H-M "C 2/M"
_symmetry_group_IT_number 12
_symmetry_cell_setting 'monoclinic'
loop_
_space_group_symop_operation_xyz
x,y,z
-x,y,-z
-x,-y,-z
x,-y,z
1/2+x,1/2+y,z
1/2-x,1/2+y,-z
1/2-x,1/2-y,-z
1/2+x,1/2-y,z
loop_
_atom_site_type_symbol
_atom_site_label
_atom_site_fract_x
_atom_site_fract_y
_atom_site_fract_z
Si Si1 0.142340 0.445249 0.875940
Si Si2 0.415823 0.056252 0.316116
Si Si3 0.892370 0.852849 0.623608
Si Si4 0.029205 0.700753 0.851251
Si Si5 0.080148 0.190120 0.094170
Si Si6 0.635572 0.613320 0.733533
O O1 0.193736 0.500000 0.895339
O O2 0.985821 0.442598 0.819493
O O3 0.407655 0.422975 0.787726
O O4 0.000000 0.417746 0.000000
O O5 0.175939 0.091339 0.387280
O O6 0.620704 0.079777 0.330887
O O7 0.354360 0.000000 0.362290
O O8 0.641019 0.823666 0.725838
O O9 0.000000 0.826973 0.500000
O O10 0.112347 0.853194 0.644536
O O11 0.194969 0.679623 0.891929
O O12 0.058612 0.759149 0.844891
O O13 0.725732 0.689721 0.951313
O O14 0.880014 0.147121 0.167542
#
# Coordination Sequence:
#
# PCOD8106549 Si02
#       6
#     8   8   8   8   8   8
#     4   9  19  35  54  83 126 160 188 240 306 371
#     4  10  22  39  62  90 118 161 212 251 305 365
#     4  10  23  42  62  84 122 162 205 258 311 358
#     4   9  19  37  57  86 119 153 200 244 300 368
#     4   9  19  34  60  87 117 156 192 245 305 365
#     4  10  21  36  60  87 121 154 203 252 305 365
#
# _framework density 23.191769000000001
#
# number of rings (size 3 to 8) (size 9 to 14) (size 15 to 20)
#    0.000    2.500    0.000    0.500    9.333    2.333 
#    0.000    6.667    0.000    0.000    0.000    0.000 
#    0.000    0.000    0.000    0.000    0.000    0.000 
#
# Total GULP energy -297373.667914 kJ/mol
# GULP energy per Si atom -12390.569496 kJ/mol
# Density = 2.313898 g / cm^3
# Si number density = 23.191769 Si / 1000 Ang^3
#
#
#
# Elastic Constant Matrix: (Units=GPa)
#
#
# Indices 1 2 3 4 5 6 
#
# 1 48.0346 14.9986 18.8333 0.0000 2.9285 0.0000
# 2 14.9986 105.0905 40.4842 0.0000 -3.7416 0.0000
# 3 18.8333 40.4842 135.1840 0.0000 13.2067 0.0000
# 4 0.0000 0.0000 0.0000 16.2455 0.0000 -5.8385
# 5 2.9285 -3.7416 13.2067 0.0000 22.3718 0.0000
# 6 0.0000 0.0000 0.0000 -5.8385 0.0000 29.8275
#
#
#
# Elastic Compliance Matrix: (Units=1/GPa)
#
#
# Indices 1 2 3 4 5 6 
#
# 1 0.022574 -0.002443 -0.002212 0.000000 -0.002058 0.000000
# 2 -0.002443 0.011356 -0.003478 0.000000 0.004272 0.000000
# 3 -0.002212 -0.003478 0.009313 0.000000 -0.005790 0.000000
# 4 0.000000 0.000000 0.000000 0.066213 0.000000 0.012961
# 5 -0.002058 0.004272 -0.005790 0.000000 0.049101 0.000000
# 6 0.000000 0.000000 0.000000 0.012961 0.000000 0.036063
#
#
# Mechanical properties :
#
#
# Convention : Reuss Voigt Hill
#
# Bulk Modulus (GPa) = 37.06902 48.54904 42.80903
# Shear Modulus (GPa) = 22.73987 27.95519 25.34753
#
# Velocity S-wave (km/s) = 3.13471 3.47564 3.30957
# Velocity P-wave (km/s) = 5.39632 6.08983 5.75353
#
# Compressibility (1/GPa) = 0.02697670
#
# Stress axis : x y z
#
# Youngs Moduli (GPa) = 44.29889 88.05804 107.38014
#
# Poissons Ratio (x) = 0.21510 0.23756
# Poissons Ratio (y) = 0.10821 0.37346
# Poissons Ratio (z) = 0.09801 0.30626
#
# Static dielectric constant tensor:
#      x y z
#    x 4.523010 0.000000 0.467400 
#    y 0.000000 4.162310 0.000000 
#    z 0.467400 0.000000 4.326160 
# 
# 
# High freq. dielectric constant tensor:
#      x y z
#    x 1.920550 0.000000 0.012400 
#    y 0.000000 1.914980 0.000000 
#    z 0.012400 0.000000 1.892790 
# 
# From -- ./inp_files/192419.got.cif
#   From: 2010.06.25/outbox.cif.g09.slc.cpg/sg12_97_cif.got.tgz:192419.got - 2010.06.28 00:19:55.
