data_PCOD8106775
_publ_section_title
;
Structure prediction by ZEFSAII (Michael W. Deem and Ramdas Pophale) SiO2 
 PCOD8106775
Probable space group: C 2/M
;
_chemical_formula_sum "Si O2"
_cell_formula_units_Z 52
_cell_length_a 11.844982
_cell_length_b 26.889696
_cell_length_c 17.414015
_cell_angle_alpha 90.000000
_cell_angle_beta 30.774445
_cell_angle_gamma 90.000000
_cell_volume 2837.921805
_symmetry_space_group_name_H-M "C 2/M"
_symmetry_group_IT_number 12
_symmetry_cell_setting 'monoclinic'
loop_
_space_group_symop_operation_xyz
x,y,z
-x,y,-z
-x,-y,-z
x,-y,z
1/2+x,1/2+y,z
1/2-x,1/2+y,-z
1/2-x,1/2-y,-z
1/2+x,1/2-y,z
loop_
_atom_site_type_symbol
_atom_site_label
_atom_site_fract_x
_atom_site_fract_y
_atom_site_fract_z
Si Si1 0.761212 0.441692 0.045239
Si Si2 0.439077 0.175485 0.270653
Si Si3 0.000000 0.882530 0.500000
Si Si4 0.099863 0.134462 0.026482
Si Si5 0.660138 0.718817 0.733689
Si Si6 0.098526 0.290304 0.550449
Si Si7 0.267806 0.558169 0.762524
O O1 0.719908 0.500000 0.057948
O O2 0.590076 0.413891 0.087288
O O3 0.703139 0.424921 0.166045
O O4 0.019673 0.429033 0.878591
O O5 0.208153 0.153185 0.381798
O O6 0.465145 0.232029 0.223205
O O7 0.455288 0.169320 0.353569
O O8 0.640747 0.143930 0.122918
O O9 0.957101 0.916044 0.600331
O O10 0.989869 0.182952 0.128070
O O11 0.000000 0.123869 0.000000
O O12 0.764362 0.687236 0.601513
O O13 0.869812 0.736442 0.660977
O O14 0.250000 0.250000 0.500000
O O15 0.308708 0.500000 0.731975
#
# Coordination Sequence:
#
# PCOD8106775 Si02
#       7
#     8   8   4   8   8   8   8
#     4   9  20  41  61  84 117 152 194 243 301 356
#     4  11  22  37  52  87 119 151 196 243 284 341
#     4  12  21  34  62  94 120 146 195 246 296 350
#     4  12  23  39  58  85 117 158 201 237 288 347
#     4  10  21  37  56  77 113 159 197 234 285 338
#     4   9  18  36  55  75 108 155 191 232 289 332
#     4   9  19  38  63  89 118 148 187 248 306 350
#
# _framework density 18.323267000000001
#
# number of rings (size 3 to 8) (size 9 to 14) (size 15 to 20)
#    0.000    1.846    3.077    3.462    2.154    0.308 
#    0.000    0.000    0.000    0.000    0.000    4.308 
#    0.000    0.000    0.000    0.000    0.000    0.000 
#
# Total GULP energy -322095.407170 kJ/mol
# GULP energy per Si atom -12388.284891 kJ/mol
# Density = 1.828156 g / cm^3
# Si number density = 18.323267 Si / 1000 Ang^3
#
#
#
# Elastic Constant Matrix: (Units=GPa)
#
#
# Indices 1 2 3 4 5 6 
#
# 1 118.6037 48.0854 40.4246 0.0024 5.9801 -0.0005
# 2 48.0854 71.3961 33.8317 0.0047 6.0965 0.0000
# 3 40.4246 33.8317 93.2679 0.0168 5.0223 -0.0041
# 4 0.0024 0.0047 0.0168 14.3905 0.0070 8.4199
# 5 5.9801 6.0965 5.0223 0.0070 29.2851 -0.0001
# 6 -0.0005 0.0000 -0.0041 8.4199 -0.0001 28.4838
#
#
#
# Elastic Compliance Matrix: (Units=1/GPa)
#
#
# Indices 1 2 3 4 5 6 
#
# 1 0.012177 -0.006841 -0.002765 0.000005 -0.000588 -0.000002
# 2 -0.006841 0.020939 -0.004512 0.000001 -0.002188 -0.000001
# 3 -0.002765 -0.004512 0.013602 -0.000018 -0.000829 0.000007
# 4 0.000005 0.000001 -0.000018 0.084023 -0.000018 -0.024837
# 5 -0.000588 -0.002188 -0.000829 -0.000018 0.034865 0.000005
# 6 -0.000002 -0.000001 0.000007 -0.024837 0.000005 0.042450
#
#
# Mechanical properties :
#
#
# Convention : Reuss Voigt Hill
#
# Bulk Modulus (GPa) = 54.10874 58.66122 56.38498
# Shear Modulus (GPa) = 20.62272 25.16027 22.89149
#
# Velocity S-wave (km/s) = 3.35848 3.70960 3.53840
# Velocity P-wave (km/s) = 6.68082 7.10157 6.89440
#
# Compressibility (1/GPa) = 0.01848130
#
# Stress axis : x y z
#
# Youngs Moduli (GPa) = 82.12283 47.75818 73.52115
#
# Poissons Ratio (x) = 0.32671 0.20326
# Poissons Ratio (y) = 0.56179 0.33176
# Poissons Ratio (z) = 0.22704 0.21551
#
# Static dielectric constant tensor:
#      x y z
#    x 3.346430 -0.000150 0.141940 
#    y -0.000150 3.280900 -0.000040 
#    z 0.141940 -0.000040 3.489340 
# 
# 
# High freq. dielectric constant tensor:
#      x y z
#    x 1.718020 0.000000 0.011460 
#    y 0.000000 1.685300 0.000000 
#    z 0.011460 0.000000 1.716250 
# 
# From -- ./inp_files/53768.got.cif
#   From: 2010.06.25/outbox.cif.g09.slc.cpg/sg12_27_cif.got.tgz:53768.got - 2010.06.28 00:19:55.
