data_PCOD8106704
_publ_section_title
;
Structure prediction by ZEFSAII (Michael W. Deem and Ramdas Pophale) SiO2 
 PCOD8106704
Probable space group: C 2/M
;
_chemical_formula_sum "Si O2"
_cell_formula_units_Z 64
_cell_length_a 9.466979
_cell_length_b 17.696458
_cell_length_c 29.879903
_cell_angle_alpha 90.000000
_cell_angle_beta 143.079408
_cell_angle_gamma 90.000000
_cell_volume 3007.045970
_symmetry_space_group_name_H-M "C 2/M"
_symmetry_group_IT_number 12
_symmetry_cell_setting 'monoclinic'
loop_
_space_group_symop_operation_xyz
x,y,z
-x,y,-z
-x,-y,-z
x,-y,z
1/2+x,1/2+y,z
1/2-x,1/2+y,-z
1/2-x,1/2-y,-z
1/2+x,1/2-y,z
loop_
_atom_site_type_symbol
_atom_site_label
_atom_site_fract_x
_atom_site_fract_y
_atom_site_fract_z
Si Si1 0.735425 0.692471 0.083921
Si Si2 0.420061 0.212629 0.674847
Si Si3 0.031289 0.084159 0.104178
Si Si4 0.536425 0.416485 0.813422
Si Si5 0.461086 0.807225 0.542485
Si Si6 0.721175 0.088209 0.428806
Si Si7 0.590316 0.261705 0.235373
Si Si8 0.072007 0.416299 0.939853
O O1 0.673339 0.642321 0.110624
O O2 0.910984 0.755960 0.147588
O O3 0.887415 0.644301 0.088331
O O4 0.500000 0.725554 0.000000
O O5 0.374558 0.132976 0.638889
O O6 0.474582 0.202920 0.741573
O O7 0.641216 0.255395 0.709324
O O8 0.200475 0.268929 0.618532
O O9 0.094066 0.094144 0.172085
O O10 0.101061 0.000000 0.106103
O O11 0.752201 0.097390 0.026117
O O12 0.480208 0.500000 0.778930
O O13 0.435567 0.350325 0.755830
O O14 0.811715 0.407150 0.892429
O O15 0.500000 0.827604 0.500000
O O16 0.250000 0.750000 0.500000
O O17 0.402307 0.881857 0.556854
O O18 0.000000 0.102133 0.500000
O O19 0.659657 0.000000 0.407782
O O20 0.109489 0.500000 0.928738
#
# Coordination Sequence:
#
# PCOD8106704 Si02
#       8
#     8   8   8   8   8   8   8   8
#     4  10  21  37  56  81 114 155 216 287 339 388
#     4  12  23  42  66  96 135 181 221 265 319 403
#     4   9  17  32  56  81 104 140 194 263 342 409
#     4  10  21  37  54  77 112 152 202 265 329 397
#     4  12  20  41  76 108 138 183 227 262 317 398
#     4  11  24  44  74 112 147 178 219 273 325 387
#     4  12  25  39  60  89 123 175 228 271 336 403
#     4   9  17  32  55  79 105 141 192 262 342 408
#
# _framework density 21.283345000000001
#
# number of rings (size 3 to 8) (size 9 to 14) (size 15 to 20)
#    0.000    1.375    3.750    2.250    0.000    4.750 
#    0.000    4.375    0.000    1.500    0.000    0.000 
#    0.000    0.000    0.000    0.000    0.000    0.000 
#
# Total GULP energy -396585.174490 kJ/mol
# GULP energy per Si atom -12393.286703 kJ/mol
# Density = 2.123490 g / cm^3
# Si number density = 21.283345 Si / 1000 Ang^3
#
#
#
# Elastic Constant Matrix: (Units=GPa)
#
#
# Indices 1 2 3 4 5 6 
#
# 1 108.7801 51.7520 36.6579 0.0001 -4.6404 0.0000
# 2 51.7520 108.3837 46.8707 0.0000 -4.1996 0.0000
# 3 36.6579 46.8707 87.3347 0.0007 -8.3236 0.0000
# 4 0.0001 0.0000 0.0007 31.0040 0.0001 -1.5878
# 5 -4.6404 -4.1996 -8.3236 0.0001 31.7248 0.0000
# 6 0.0000 0.0000 0.0000 -1.5878 0.0000 29.9880
#
#
#
# Elastic Compliance Matrix: (Units=1/GPa)
#
#
# Indices 1 2 3 4 5 6 
#
# 1 0.012349 -0.004761 -0.002581 0.000000 0.000499 0.000000
# 2 -0.004761 0.013851 -0.005463 0.000000 -0.000296 0.000000
# 3 -0.002581 -0.005463 0.015754 0.000000 0.003033 0.000000
# 4 0.000000 0.000000 0.000000 0.032342 0.000000 0.001712
# 5 0.000499 -0.000296 0.003033 0.000000 0.032351 0.000000
# 6 0.000000 0.000000 0.000000 0.001712 0.000000 0.033437
#
#
# Mechanical properties :
#
#
# Convention : Reuss Voigt Hill
#
# Bulk Modulus (GPa) = 61.18352 63.89554 62.53953
# Shear Modulus (GPa) = 29.21548 29.82455 29.52002
#
# Velocity S-wave (km/s) = 3.70901 3.74747 3.72829
# Velocity P-wave (km/s) = 6.86672 6.98650 6.92687
#
# Compressibility (1/GPa) = 0.01634427
#
# Stress axis : x y z
#
# Youngs Moduli (GPa) = 80.97904 72.19675 63.47399
#
# Poissons Ratio (x) = 0.34374 0.16380
# Poissons Ratio (y) = 0.38555 0.34678
# Poissons Ratio (z) = 0.20897 0.39444
#
# Static dielectric constant tensor:
#      x y z
#    x 4.118200 0.000000 0.025620 
#    y 0.000000 3.011450 0.000000 
#    z 0.025620 0.000000 3.859580 
# 
# 
# High freq. dielectric constant tensor:
#      x y z
#    x 1.840010 0.000000 0.010930 
#    y 0.000000 1.826980 0.000000 
#    z 0.010930 0.000000 1.832060 
# 
# From -- ./inp_files/372988.got.cif
#   From: 2010.06.25/outbox.cif.g09.slc.cpg/sg12_187_cif.got.tgz:372988.got - 2010.06.28 00:19:55.
