data_PCOD8106837
_publ_section_title
;
Structure prediction by ZEFSAII (Michael W. Deem and Ramdas Pophale) SiO2 
 PCOD8106837
Probable space group: C 2/M
;
_chemical_formula_sum "Si O2"
_cell_formula_units_Z 64
_cell_length_a 27.996476
_cell_length_b 9.023711
_cell_length_c 12.859923
_cell_angle_alpha 90.000000
_cell_angle_beta 90.144906
_cell_angle_gamma 90.000000
_cell_volume 3248.819072
_symmetry_space_group_name_H-M "C 2/M"
_symmetry_group_IT_number 12
_symmetry_cell_setting 'monoclinic'
loop_
_space_group_symop_operation_xyz
x,y,z
-x,y,-z
-x,-y,-z
x,-y,z
1/2+x,1/2+y,z
1/2-x,1/2+y,-z
1/2-x,1/2-y,-z
1/2+x,1/2-y,z
loop_
_atom_site_type_symbol
_atom_site_label
_atom_site_fract_x
_atom_site_fract_y
_atom_site_fract_z
Si Si1 0.050875 0.326005 0.618239
Si Si2 0.307741 0.675737 0.288017
Si Si3 0.556925 0.174307 0.387805
Si Si4 0.390012 0.176537 0.187189
Si Si5 0.302272 0.830851 0.722379
Si Si6 0.800187 0.328266 0.490646
Si Si7 0.888702 0.826632 0.794382
Si Si8 0.055834 0.173266 0.998524
O O1 0.047975 0.500000 0.632425
O O2 0.074214 0.290440 0.505907
O O3 0.081655 0.259874 0.712392
O O4 0.997024 0.265544 0.624778
O O5 0.313703 0.500000 0.292645
O O6 0.338001 0.745631 0.193099
O O7 0.252591 0.723041 0.271339
O O8 0.327922 0.746742 0.396537
O O9 0.588778 0.264518 0.309632
O O10 0.561189 0.000000 0.363800
O O11 0.384280 0.000000 0.185971
O O12 0.418066 0.227769 0.086243
O O13 0.324102 0.813666 0.604968
O O14 0.334849 0.737657 0.802375
O O15 0.305046 0.000000 0.758230
O O16 0.794009 0.500000 0.460683
O O17 0.750000 0.250000 0.500000
O O18 0.920926 0.779834 0.892105
O O19 0.884547 0.000000 0.785597
O O20 0.063501 0.000000 0.974074
O O21 0.000000 0.213971 0.000000
#
# Coordination Sequence:
#
# PCOD8106837 Si02
#       8
#     8   8   8   8   8   8   8   8
#     4   8  17  33  54  82 113 147 184 226 279 343
#     4  10  21  37  56  82 117 157 196 234 286 345
#     4   9  17  34  57  79 112 152 184 221 282 350
#     4  11  22  36  59  89 116 147 196 244 287 343
#     4   9  20  37  56  79 113 156 196 234 281 340
#     4   9  17  31  52  79 112 152 194 235 280 332
#     4  11  23  36  56  86 114 144 192 242 288 342
#     4  10  23  44  64  83 114 153 191 239 297 349
#
# _framework density 19.699466999999999
#
# number of rings (size 3 to 8) (size 9 to 14) (size 15 to 20)
#    0.000    2.375    0.000    3.750    1.750    4.250 
#    0.000    3.125    0.000    0.000    0.000    0.000 
#    0.000    0.000    0.000    0.000    0.000    0.000 
#
# Total GULP energy -396690.254307 kJ/mol
# GULP energy per Si atom -12396.570447 kJ/mol
# Density = 1.965463 g / cm^3
# Si number density = 19.699467 Si / 1000 Ang^3
#
#
#
# Elastic Constant Matrix: (Units=GPa)
#
#
# Indices 1 2 3 4 5 6 
#
# 1 106.4925 51.1092 66.1747 0.0000 2.1304 0.0000
# 2 51.1092 81.8173 50.1714 0.0000 1.2422 0.0000
# 3 66.1747 50.1714 97.2992 0.0000 1.3995 0.0000
# 4 0.0000 0.0000 0.0000 31.9649 0.0000 -3.6260
# 5 2.1304 1.2422 1.3995 0.0000 34.9544 0.0000
# 6 0.0000 0.0000 0.0000 -3.6260 0.0000 28.1497
#
#
#
# Elastic Compliance Matrix: (Units=1/GPa)
#
#
# Indices 1 2 3 4 5 6 
#
# 1 0.017762 -0.005388 -0.009295 0.000000 -0.000519 0.000000
# 2 -0.005388 0.019511 -0.006395 0.000000 -0.000109 0.000000
# 3 -0.009295 -0.006395 0.019896 0.000000 -0.000003 0.000000
# 4 0.000000 0.000000 0.000000 0.031748 0.000000 0.004090
# 5 -0.000519 -0.000109 -0.000003 0.000000 0.028644 0.000000
# 6 0.000000 0.000000 0.000000 0.004090 0.000000 0.036051
#
#
# Mechanical properties :
#
#
# Convention : Reuss Voigt Hill
#
# Bulk Modulus (GPa) = 66.59992 68.94664 67.77328
# Shear Modulus (GPa) = 24.90371 26.89073 25.89722
#
# Velocity S-wave (km/s) = 3.55939 3.69866 3.62970
# Velocity P-wave (km/s) = 7.12557 7.30174 7.21419
#
# Compressibility (1/GPa) = 0.01501503
#
# Stress axis : x y z
#
# Youngs Moduli (GPa) = 56.29864 51.25275 50.26058
#
# Poissons Ratio (x) = 0.27616 0.46715
# Poissons Ratio (y) = 0.30335 0.32139
# Poissons Ratio (z) = 0.52327 0.32774
#
# Static dielectric constant tensor:
#      x y z
#    x 3.826070 0.000000 0.184760 
#    y 0.000000 3.418400 0.000000 
#    z 0.184760 0.000000 3.745380 
# 
# 
# High freq. dielectric constant tensor:
#      x y z
#    x 1.776880 0.000000 -0.000750 
#    y 0.000000 1.755220 0.000000 
#    z -0.000750 0.000000 1.754850 
# 
# From -- ./inp_files/187632.got.cif
#   From: 2010.06.25/outbox.cif.g09.slc.cpg/sg12_94_cif.got.tgz:187632.got - 2010.06.28 00:19:55.
