data_PCOD8106600
_publ_section_title
;
Structure prediction by ZEFSAII (Michael W. Deem and Ramdas Pophale) SiO2 
 PCOD8106600
Probable space group: C 2/M
;
_chemical_formula_sum "Si O2"
_cell_formula_units_Z 48
_cell_length_a 24.869081
_cell_length_b 9.762121
_cell_length_c 12.047615
_cell_angle_alpha 90.000000
_cell_angle_beta 59.073849
_cell_angle_gamma 90.000000
_cell_volume 2509.033439
_symmetry_space_group_name_H-M "C 2/M"
_symmetry_group_IT_number 12
_symmetry_cell_setting 'monoclinic'
loop_
_space_group_symop_operation_xyz
x,y,z
-x,y,-z
-x,-y,-z
x,-y,z
1/2+x,1/2+y,z
1/2-x,1/2+y,-z
1/2-x,1/2-y,-z
1/2+x,1/2-y,z
loop_
_atom_site_type_symbol
_atom_site_label
_atom_site_fract_x
_atom_site_fract_y
_atom_site_fract_z
Si Si1 0.031765 0.347000 0.167447
Si Si2 0.203129 0.653378 0.749498
Si Si3 0.396662 0.747871 0.296503
Si Si4 0.892443 0.845682 0.067856
Si Si5 0.065179 0.342171 0.380524
Si Si6 0.654128 0.345116 0.422141
O O1 0.047085 0.500000 0.106385
O O2 0.065838 0.322329 0.248014
O O3 0.957053 0.337945 0.263556
O O4 0.054737 0.233246 0.057267
O O5 0.201552 0.500000 0.800954
O O6 0.161492 0.656021 0.680490
O O7 0.172996 0.759697 0.871046
O O8 0.273406 0.699194 0.646874
O O9 0.413691 0.647935 0.174713
O O10 0.376672 0.661337 0.424149
O O11 0.883797 0.000000 0.031345
O O12 0.075150 0.500000 0.404206
O O13 0.121860 0.254840 0.368974
O O14 0.000000 0.287189 0.500000
O O15 0.647147 0.500000 0.385838
#
# Coordination Sequence:
#
# PCOD8106600 Si02
#       6
#     8   8   8   8   8   8
#     4  11  22  39  63  86 116 156 201 241 288 348
#     4   9  21  38  59  87 120 156 197 236 288 352
#     4  10  21  36  61  88 122 151 195 234 297 345
#     4  10  23  38  57  88 125 156 192 239 295 348
#     4  10  22  41  60  86 116 152 198 244 288 346
#     4  11  22  39  61  90 121 154 194 244 293 345
#
# _framework density 19.130873000000001
#
# number of rings (size 3 to 8) (size 9 to 14) (size 15 to 20)
#    1.000    0.833    1.667    2.500    0.000    5.000 
#    0.000    0.833    0.000    0.000    0.000    0.000 
#    0.000    0.000    0.000    0.000    0.000    0.000 
#
# Total GULP energy -297484.643218 kJ/mol
# GULP energy per Si atom -12395.193467 kJ/mol
# Density = 1.908733 g / cm^3
# Si number density = 19.130873 Si / 1000 Ang^3
#
#
#
# Elastic Constant Matrix: (Units=GPa)
#
#
# Indices 1 2 3 4 5 6 
#
# 1 126.5180 62.1558 54.9094 0.0000 -7.5474 0.0000
# 2 62.1558 124.6418 41.0854 0.0000 -11.1140 0.0000
# 3 54.9094 41.0854 69.9526 0.0000 -13.8990 0.0000
# 4 0.0000 0.0000 0.0000 24.3456 0.0000 -5.0129
# 5 -7.5474 -11.1140 -13.8990 0.0000 22.1970 0.0000
# 6 0.0000 0.0000 0.0000 -5.0129 0.0000 28.6948
#
#
#
# Elastic Compliance Matrix: (Units=1/GPa)
#
#
# Indices 1 2 3 4 5 6 
#
# 1 0.013589 -0.004131 -0.008832 0.000000 -0.002978 0.000000
# 2 -0.004131 0.011249 -0.002883 0.000000 0.002423 0.000000
# 3 -0.008832 -0.002883 0.025170 0.000000 0.011314 0.000000
# 4 0.000000 0.000000 0.000000 0.042608 0.000000 0.007443
# 5 -0.002978 0.002423 0.011314 0.000000 0.052336 0.000000
# 6 0.000000 0.000000 0.000000 0.007443 0.000000 0.036150
#
#
# Mechanical properties :
#
#
# Convention : Reuss Voigt Hill
#
# Bulk Modulus (GPa) = 54.59927 70.82375 62.71151
# Shear Modulus (GPa) = 22.84157 25.91159 24.37658
#
# Velocity S-wave (km/s) = 3.45913 3.68426 3.57347
# Velocity P-wave (km/s) = 6.67502 7.42963 7.06241
#
# Compressibility (1/GPa) = 0.01831526
#
# Stress axis : x y z
#
# Youngs Moduli (GPa) = 73.58937 88.89447 39.73021
#
# Poissons Ratio (x) = 0.36719 0.35091
# Poissons Ratio (y) = 0.30397 0.11456
# Poissons Ratio (z) = 0.64997 0.25632
#
# Static dielectric constant tensor:
#      x y z
#    x 3.380380 0.000000 -0.095070 
#    y 0.000000 3.327560 0.000000 
#    z -0.095070 0.000000 3.316990 
# 
# 
# High freq. dielectric constant tensor:
#      x y z
#    x 1.734250 0.000000 -0.011820 
#    y 0.000000 1.741140 0.000000 
#    z -0.011820 0.000000 1.734370 
# 
# From -- ./inp_files/172931.got.cif
#   From: 2010.06.25/outbox.cif.g09.slc.cpg/sg12_87_cif.got.tgz:172931.got - 2010.06.28 00:19:55.
