data_PCOD8106303
_publ_section_title
;
Structure prediction by ZEFSAII (Michael W. Deem and Ramdas Pophale) SiO2 
 PCOD8106303
Probable space group: C 2/M
;
_chemical_formula_sum "Si O2"
_cell_formula_units_Z 64
_cell_length_a 24.194684
_cell_length_b 9.171045
_cell_length_c 30.964920
_cell_angle_alpha 90.000000
_cell_angle_beta 151.222964
_cell_angle_gamma 90.000000
_cell_volume 3307.630628
_symmetry_space_group_name_H-M "C 2/M"
_symmetry_group_IT_number 12
_symmetry_cell_setting 'monoclinic'
loop_
_space_group_symop_operation_xyz
x,y,z
-x,y,-z
-x,-y,-z
x,-y,z
1/2+x,1/2+y,z
1/2-x,1/2+y,-z
1/2-x,1/2-y,-z
1/2+x,1/2-y,z
loop_
_atom_site_type_symbol
_atom_site_label
_atom_site_fract_x
_atom_site_fract_y
_atom_site_fract_z
Si Si1 0.411635 0.332086 0.501234
Si Si2 0.743631 0.669868 0.082492
Si Si3 0.155663 0.832155 0.186217
Si Si4 0.002796 0.671225 0.770808
Si Si5 0.368544 0.828218 0.914366
Si Si6 0.652855 0.330464 0.640494
Si Si7 0.542344 0.667263 0.885534
Si Si8 0.223540 0.674450 0.436682
O O1 0.401063 0.500000 0.504543
O O2 0.545126 0.286085 0.597609
O O3 0.376595 0.300894 0.428804
O O4 0.323627 0.258644 0.474453
O O5 0.731944 0.500000 0.086365
O O6 0.875825 0.716626 0.167137
O O7 0.692384 0.763178 0.085921
O O8 0.673172 0.703338 0.989868
O O9 0.188925 0.734371 0.167943
O O10 0.246574 0.783634 0.283912
O O11 0.031392 0.800247 0.121723
O O12 0.169198 0.000000 0.182645
O O13 0.994866 0.500000 0.772826
O O14 0.996455 0.739008 0.814217
O O15 0.899092 0.722784 0.668392
O O16 0.354054 0.000000 0.906256
O O17 0.500000 0.778387 0.000000
O O18 0.687710 0.500000 0.671748
O O19 0.529379 0.500000 0.862437
O O20 0.225681 0.500000 0.443846
O O21 0.250000 0.750000 0.500000
#
# Coordination Sequence:
#
# PCOD8106303 Si02
#       8
#     8   8   8   8   8   8   8   8
#     4   8  16  33  57  80 108 142 178 227 287 332
#     4  10  21  39  59  83 118 155 185 227 284 337
#     4  11  22  35  54  82 116 153 185 225 283 337
#     4  10  22  38  60  87 113 145 191 237 278 329
#     4  11  23  38  57  81 107 144 193 234 267 319
#     4   9  17  33  57  83 107 139 184 233 279 332
#     4  10  21  36  57  83 116 154 188 223 280 340
#     4  10  21  38  57  80 109 145 185 228 278 333
#
# _framework density 19.349198999999999
#
# number of rings (size 3 to 8) (size 9 to 14) (size 15 to 20)
#    0.000    2.125    1.250    2.625    0.000    5.000 
#    0.000    5.000    0.000    0.000    0.000    0.000 
#    0.000    0.000    0.000    0.000    0.000    0.000 
#
# Total GULP energy -396621.896884 kJ/mol
# GULP energy per Si atom -12394.434278 kJ/mol
# Density = 1.930516 g / cm^3
# Si number density = 19.349199 Si / 1000 Ang^3
#
#
#
# Elastic Constant Matrix: (Units=GPa)
#
#
# Indices 1 2 3 4 5 6 
#
# 1 120.8609 44.2537 49.9050 0.0002 1.5137 -0.0004
# 2 44.2537 38.7640 29.9428 0.0009 0.7967 -0.0028
# 3 49.9050 29.9428 100.1460 0.0011 5.1233 -0.0002
# 4 0.0002 0.0009 0.0011 27.5497 0.0002 -6.6287
# 5 1.5137 0.7967 5.1233 0.0002 32.7758 0.0000
# 6 -0.0004 -0.0028 -0.0002 -6.6287 0.0000 32.1481
#
#
#
# Elastic Compliance Matrix: (Units=1/GPa)
#
#
# Indices 1 2 3 4 5 6 
#
# 1 0.014897 -0.014654 -0.003049 0.000000 0.000145 -0.000001
# 2 -0.014654 0.047978 -0.007074 0.000000 0.000616 0.000004
# 3 -0.003049 -0.007074 0.013714 0.000000 -0.001831 -0.000001
# 4 0.000000 0.000000 0.000000 0.038193 0.000000 0.007875
# 5 0.000145 0.000616 -0.001831 0.000000 0.030775 0.000000
# 6 -0.000001 0.000004 -0.000001 0.007875 0.000000 0.032730
#
#
# Mechanical properties :
#
#
# Convention : Reuss Voigt Hill
#
# Bulk Modulus (GPa) = 36.99099 56.44152 46.71626
# Shear Modulus (GPa) = 21.11013 27.53935 24.32474
#
# Velocity S-wave (km/s) = 3.30662 3.77673 3.54947
# Velocity P-wave (km/s) = 5.80839 6.94633 6.40269
#
# Compressibility (1/GPa) = 0.02703361
#
# Stress axis : x y z
#
# Youngs Moduli (GPa) = 67.12765 20.84278 72.91921
#
# Poissons Ratio (x) = 0.30543 0.22236
# Poissons Ratio (y) = 0.98370 0.51584
# Poissons Ratio (z) = 0.20470 0.14744
#
# Static dielectric constant tensor:
#      x y z
#    x 3.608600 0.000000 0.216100 
#    y 0.000000 3.299070 0.000000 
#    z 0.216100 0.000000 3.693020 
# 
# 
# High freq. dielectric constant tensor:
#      x y z
#    x 1.758460 0.000000 0.007300 
#    y 0.000000 1.732960 0.000000 
#    z 0.007300 0.000000 1.760510 
# 
# From -- ./inp_files/382537.got.cif
#   From: 2010.06.25/outbox.cif.g09.slc.cpg/sg12_192_cif.got.tgz:382537.got - 2010.06.28 00:19:55.
