data_PCOD8106781
_publ_section_title
;
Structure prediction by ZEFSAII (Michael W. Deem and Ramdas Pophale) SiO2 
 PCOD8106781
Probable space group: C 2/M
;
_chemical_formula_sum "Si O2"
_cell_formula_units_Z 40
_cell_length_a 14.538619
_cell_length_b 8.702434
_cell_length_c 27.467150
_cell_angle_alpha 90.000000
_cell_angle_beta 143.142833
_cell_angle_gamma 90.000000
_cell_volume 2084.491130
_symmetry_space_group_name_H-M "C 2/M"
_symmetry_group_IT_number 12
_symmetry_cell_setting 'monoclinic'
loop_
_space_group_symop_operation_xyz
x,y,z
-x,y,-z
-x,-y,-z
x,-y,z
1/2+x,1/2+y,z
1/2-x,1/2+y,-z
1/2-x,1/2-y,-z
1/2+x,1/2-y,z
loop_
_atom_site_type_symbol
_atom_site_label
_atom_site_fract_x
_atom_site_fract_y
_atom_site_fract_z
Si Si1 0.435618 0.179998 0.620060
Si Si2 0.212997 0.175740 0.907421
Si Si3 0.213149 0.678156 0.806299
Si Si4 0.976690 0.323568 0.091406
Si Si5 0.906800 0.818233 0.506918
O O1 0.559977 0.225465 0.712940
O O2 0.270370 0.237826 0.569885
O O3 0.481996 0.259116 0.588835
O O4 0.430638 0.000000 0.608207
O O5 0.186581 0.289820 0.851671
O O6 0.083724 0.211778 0.892344
O O7 0.195605 0.000000 0.882765
O O8 0.380974 0.204770 0.001408
O O9 0.254420 0.500000 0.816165
O O10 0.347847 0.784997 0.843713
O O11 0.960024 0.500000 0.101119
O O12 0.000000 0.750316 0.500000
O O13 0.918029 0.000000 0.510957
#
# Coordination Sequence:
#
# PCOD8106781 Si02
#       5
#     8   8   8   8   8
#     4   9  20  36  52  78 110 136 171 216 261 314
#     4  10  21  37  56  79 107 141 183 227 272 322
#     4  11  22  35  53  79 113 147 179 221 269 318
#     4  10  21  37  56  78 106 142 185 229 270 317
#     4   9  18  35  58  79 102 136 174 213 261 315
#
# _framework density 19.189336000000001
#
# number of rings (size 3 to 8) (size 9 to 14) (size 15 to 20)
#    0.000    2.200    0.000    2.400    0.000    8.400 
#    0.000    2.000    0.000    0.000    0.000    0.000 
#    0.000    0.000    0.000    0.000    0.000    0.000 
#
# Total GULP energy -248063.940630 kJ/mol
# GULP energy per Si atom -12403.197031 kJ/mol
# Density = 1.914566 g / cm^3
# Si number density = 19.189336 Si / 1000 Ang^3
#
#
#
# Elastic Constant Matrix: (Units=GPa)
#
#
# Indices 1 2 3 4 5 6 
#
# 1 -19.0574 10.2096 -19.9734 0.0000 147.3799 0.0000
# 2 10.2096 36.9375 26.2303 0.0000 12.0373 0.0000
# 3 -19.9734 26.2303 75.1398 0.0000 78.7146 0.0000
# 4 0.0000 0.0000 0.0000 24.3665 0.0000 -3.4710
# 5 147.3799 12.0373 78.7146 0.0000 -143.6269 0.0000
# 6 0.0000 0.0000 0.0000 -3.4710 0.0000 34.5116
#
#
#
# Elastic Compliance Matrix: (Units=1/GPa)
#
#
# Indices 1 2 3 4 5 6 
#
# 1 0.010020 -0.001976 -0.004602 0.000000 0.007594 0.000000
# 2 -0.001976 0.035069 -0.008717 0.000000 -0.003866 0.000000
# 3 -0.004602 -0.008717 0.013240 0.000000 0.001803 0.000000
# 4 0.000000 0.000000 0.000000 0.041637 0.000000 0.004188
# 5 0.007594 -0.003866 0.001803 0.000000 0.001494 0.000000
# 6 0.000000 0.000000 0.000000 0.004188 0.000000 0.029397
#
#
# Mechanical properties :
#
#
# Convention : Reuss Voigt Hill
#
# Bulk Modulus (GPa) = 36.05210 13.99478 25.02344
# Shear Modulus (GPa) = 29.29223 -11.84622 8.72300
#
# Velocity S-wave (km/s) = 3.91126 -2.48732 2.13439
# Velocity P-wave (km/s) = 6.26304 0.96961 4.37524
#
# Compressibility (1/GPa) = 0.02773763
#
# Stress axis : x y z
#
# Youngs Moduli (GPa) = 99.80027 28.51489 75.53154
#
# Poissons Ratio (x) = 0.05635 0.34760
# Poissons Ratio (y) = 0.19724 0.65843
# Poissons Ratio (z) = 0.45928 0.24857
#
# Static dielectric constant tensor:
#      x y z
#    x 3.524280 0.000000 0.047030 
#    y 0.000000 3.399830 0.000000 
#    z 0.047030 0.000000 3.546510 
# 
# 
# High freq. dielectric constant tensor:
#      x y z
#    x 1.749640 0.000000 0.000480 
#    y 0.000000 1.745970 0.000000 
#    z 0.000480 0.000000 1.742190 
# 
# From -- ./inp_files/211204.got.cif
#   From: 2010.06.25/outbox.cif.g09.slc.cpg/sg12_106_cif.got.tgz:211204.got - 2010.06.28 00:19:55.
