data_PCOD8106862
_publ_section_title
;
Structure prediction by ZEFSAII (Michael W. Deem and Ramdas Pophale) SiO2 
 PCOD8106862
Probable space group: C 2/M
;
_chemical_formula_sum "Si O2"
_cell_formula_units_Z 48
_cell_length_a 14.245997
_cell_length_b 23.533224
_cell_length_c 16.284753
_cell_angle_alpha 90.000000
_cell_angle_beta 153.234239
_cell_angle_gamma 90.000000
_cell_volume 2458.668049
_symmetry_space_group_name_H-M "C 2/M"
_symmetry_group_IT_number 12
_symmetry_cell_setting 'monoclinic'
loop_
_space_group_symop_operation_xyz
x,y,z
-x,y,-z
-x,-y,-z
x,-y,z
1/2+x,1/2+y,z
1/2-x,1/2+y,-z
1/2-x,1/2-y,-z
1/2+x,1/2-y,z
loop_
_atom_site_type_symbol
_atom_site_label
_atom_site_fract_x
_atom_site_fract_y
_atom_site_fract_z
Si Si1 0.879668 0.000000 0.097748
Si Si2 0.532914 0.622242 0.847784
Si Si3 0.076078 0.000000 0.411096
Si Si4 0.578195 0.875887 0.742014
Si Si5 0.970648 0.500000 0.292924
Si Si6 0.500000 0.707642 0.500000
Si Si7 0.383757 0.376307 0.552340
Si Si8 0.701920 0.302458 0.213096
O O1 0.002452 0.055376 0.160217
O O2 0.877634 0.000000 0.195361
O O3 0.635917 0.000000 0.881429
O O4 0.525415 0.632295 0.744048
O O5 0.354910 0.657760 0.754401
O O6 0.759999 0.639212 0.058968
O O7 0.281565 0.000000 0.514630
O O8 0.080485 0.060589 0.462026
O O9 0.353941 0.867289 0.606936
O O10 0.616469 0.833262 0.696828
O O11 0.605317 0.940380 0.726180
O O12 0.549978 0.670037 0.460583
O O13 0.295144 0.744250 0.320304
O O14 0.500000 0.289739 0.000000
#
# Coordination Sequence:
#
# PCOD8106862 Si02
#       8
#     4   8   4   8   4   4   8   8
#     4   8  14  27  51  81 108 133 163 201 253 317
#     4   9  18  34  56  81 109 138 168 209 261 313
#     4   8  16  33  54  77 100 124 166 219 266 311
#     4   9  18  34  56  81 109 138 168 209 261 313
#     4   8  14  27  51  81 108 133 163 201 253 317
#     4  12  26  39  52  73 102 140 188 228 254 294
#     4  10  21  37  57  78 102 135 173 218 268 310
#     4  10  22  37  53  79 111 140 175 213 249 305
#
# _framework density 19.522765
#
# number of rings (size 3 to 8) (size 9 to 14) (size 15 to 20)
#    0.000    2.667    0.000    1.000    0.000    5.000 
#    0.000    6.667    0.000    7.000    0.000   12.833 
#    0.000    0.000    0.000    0.000    0.000    0.000 
#
# Total GULP energy -297322.032588 kJ/mol
# GULP energy per Si atom -12388.418025 kJ/mol
# Density = 1.947833 g / cm^3
# Si number density = 19.522765 Si / 1000 Ang^3
#
#
#
# Elastic Constant Matrix: (Units=GPa)
#
#
# Indices 1 2 3 4 5 6 
#
# 1 62.2111 44.2130 13.3292 -0.0031 -15.0211 -0.0056
# 2 44.2130 119.5696 23.2564 -0.0013 -16.5797 -0.0024
# 3 13.3292 23.2564 56.6378 -0.0028 -8.9076 -0.0056
# 4 -0.0031 -0.0013 -0.0028 31.0809 -0.0026 2.8646
# 5 -15.0211 -16.5797 -8.9076 -0.0026 20.8377 -0.0050
# 6 -0.0056 -0.0024 -0.0056 2.8646 -0.0050 49.5544
#
#
#
# Elastic Compliance Matrix: (Units=1/GPa)
#
#
# Indices 1 2 3 4 5 6 
#
# 1 0.024085 -0.007159 -0.000958 0.000003 0.011257 0.000003
# 2 -0.007159 0.011987 -0.002733 0.000000 0.003209 0.000000
# 3 -0.000958 -0.002733 0.019890 0.000002 0.005638 0.000002
# 4 0.000003 0.000000 0.000002 0.032346 0.000006 -0.001870
# 5 0.011257 0.003209 0.005638 0.000006 0.061067 0.000008
# 6 0.000003 0.000000 0.000002 -0.001870 0.000008 0.020288
#
#
# Mechanical properties :
#
#
# Convention : Reuss Voigt Hill
#
# Bulk Modulus (GPa) = 29.18604 44.44619 36.81612
# Shear Modulus (GPa) = 24.65672 30.80259 27.72965
#
# Velocity S-wave (km/s) = 3.55769 3.97643 3.77288
# Velocity P-wave (km/s) = 5.64432 6.62559 6.15455
#
# Compressibility (1/GPa) = 0.03426295
#
# Stress axis : x y z
#
# Youngs Moduli (GPa) = 41.51922 83.42492 50.27579
#
# Poissons Ratio (x) = 0.59721 0.04819
# Poissons Ratio (y) = 0.29722 0.13738
# Poissons Ratio (z) = 0.03979 0.22796
#
# Static dielectric constant tensor:
#      x y z
#    x 3.030490 0.000000 -0.037180 
#    y 0.000000 3.825470 0.000000 
#    z -0.037180 0.000000 3.764280 
# 
# 
# High freq. dielectric constant tensor:
#      x y z
#    x 1.706140 0.000000 -0.000180 
#    y 0.000000 1.771730 0.000000 
#    z -0.000180 0.000000 1.780340 
# 
# From -- ./inp_files/209520.got.cif
#   From: 2010.06.25/outbox.cif.g09.slc.cpg/sg12_105_cif.got.tgz:209520.got - 2010.06.28 00:19:55.
