data_PCOD8106517
_publ_section_title
;
Structure prediction by ZEFSAII (Michael W. Deem and Ramdas Pophale) SiO2 
 PCOD8106517
Probable space group: C 2/M
;
_chemical_formula_sum "Si O2"
_cell_formula_units_Z 48
_cell_length_a 17.392359
_cell_length_b 14.380523
_cell_length_c 17.793991
_cell_angle_alpha 90.000000
_cell_angle_beta 33.566784
_cell_angle_gamma 90.000000
_cell_volume 2460.706829
_symmetry_space_group_name_H-M "C 2/M"
_symmetry_group_IT_number 12
_symmetry_cell_setting 'monoclinic'
loop_
_space_group_symop_operation_xyz
x,y,z
-x,y,-z
-x,-y,-z
x,-y,z
1/2+x,1/2+y,z
1/2-x,1/2+y,-z
1/2-x,1/2-y,-z
1/2+x,1/2-y,z
loop_
_atom_site_type_symbol
_atom_site_label
_atom_site_fract_x
_atom_site_fract_y
_atom_site_fract_z
Si Si1 0.157129 0.242432 0.187145
Si Si2 0.352978 0.747587 0.157984
Si Si3 0.866445 0.678164 0.425821
Si Si4 0.064545 0.397564 0.788517
Si Si5 0.758073 0.393685 0.992164
Si Si6 0.346863 0.893495 0.601736
O O1 0.250846 0.207248 0.179623
O O2 0.225490 0.337938 0.099152
O O3 0.002096 0.263709 0.339733
O O4 0.144965 0.161011 0.134448
O O5 0.368637 0.822115 0.211524
O O6 0.277533 0.657534 0.253161
O O7 0.500000 0.720796 0.000000
O O8 0.750000 0.750000 0.500000
O O9 0.890424 0.613240 0.334539
O O10 0.822612 0.615864 0.532294
O O11 0.111298 0.500000 0.777653
O O12 0.898551 0.389113 0.926604
O O13 0.711886 0.500000 0.013261
O O14 0.500000 0.855149 0.500000
O O15 0.334803 0.000000 0.635922
#
# Coordination Sequence:
#
# PCOD8106517 Si02
#       6
#     8   8   8   8   8   8
#     4  10  21  36  59  90 123 160 204 250 307 361
#     4  12  23  39  62  94 131 158 199 256 310 363
#     4  11  21  40  66  85 119 162 209 255 301 359
#     4  10  21  37  63  92 119 160 207 248 296 365
#     4   9  19  37  60  88 121 161 204 245 299 364
#     4  11  24  42  65  90 121 167 210 248 304 370
#
# _framework density 19.506589000000002
#
# number of rings (size 3 to 8) (size 9 to 14) (size 15 to 20)
#    0.000    1.500    5.000    0.500    0.000    2.667 
#    0.000    3.333    0.000    1.500    0.000    0.000 
#    0.000    0.000    0.000    0.000    0.000    0.000 
#
# Total GULP energy -297579.529879 kJ/mol
# GULP energy per Si atom -12399.147078 kJ/mol
# Density = 1.946219 g / cm^3
# Si number density = 19.506589 Si / 1000 Ang^3
#
#
#
# Elastic Constant Matrix: (Units=GPa)
#
#
# Indices 1 2 3 4 5 6 
#
# 1 97.4739 23.4518 28.7634 0.0004 5.5430 -0.0002
# 2 23.4518 103.0697 30.6207 0.0008 4.8229 -0.0005
# 3 28.7634 30.6207 101.0090 0.0021 5.0060 -0.0014
# 4 0.0004 0.0008 0.0021 22.1627 -0.0010 -3.5061
# 5 5.5430 4.8229 5.0060 -0.0010 29.0502 0.0006
# 6 -0.0002 -0.0005 -0.0014 -3.5061 0.0006 23.9633
#
#
#
# Elastic Compliance Matrix: (Units=1/GPa)
#
#
# Indices 1 2 3 4 5 6 
#
# 1 0.011558 -0.001765 -0.002685 0.000000 -0.001450 0.000000
# 2 -0.001765 0.010975 -0.002775 0.000000 -0.001007 0.000000
# 3 -0.002685 -0.002775 0.011556 -0.000001 -0.001018 0.000000
# 4 0.000000 0.000000 -0.000001 0.046190 0.000002 0.006758
# 5 -0.001450 -0.001007 -0.001018 0.000002 0.035043 -0.000001
# 6 0.000000 0.000000 0.000000 0.006758 -0.000001 0.042719
#
#
# Mechanical properties :
#
#
# Convention : Reuss Voigt Hill
#
# Bulk Modulus (GPa) = 50.91123 51.91381 51.41252
# Shear Modulus (GPa) = 27.92729 29.61636 28.77182
#
# Velocity S-wave (km/s) = 3.78787 3.90073 3.84471
# Velocity P-wave (km/s) = 6.72954 6.85265 6.79138
#
# Compressibility (1/GPa) = 0.01964203
#
# Stress axis : x y z
#
# Youngs Moduli (GPa) = 86.51769 91.11514 86.53364
#
# Poissons Ratio (x) = 0.16077 0.23231
# Poissons Ratio (y) = 0.15266 0.24011
# Poissons Ratio (z) = 0.23227 0.25282
#
# Static dielectric constant tensor:
#      x y z
#    x 3.585140 0.000060 -0.060480 
#    y 0.000060 1.407490 0.000220 
#    z -0.060480 0.000220 3.066840 
# 
# 
# High freq. dielectric constant tensor:
#      x y z
#    x 1.761580 0.000000 0.010250 
#    y 0.000000 1.750210 0.000000 
#    z 0.010250 0.000000 1.758020 
# 
# From -- ./inp_files/105045.got.cif
#   From: 2010.06.25/outbox.cif.g09.slc.cpg/sg12_53_cif.got.tgz:105045.got - 2010.06.28 00:19:55.
