data_PCOD8106106
_publ_section_title
;
Structure prediction by ZEFSAII (Michael W. Deem and Ramdas Pophale) SiO2 
 PCOD8106106
Probable space group: C 2/M
;
_chemical_formula_sum "Si O2"
_cell_formula_units_Z 64
_cell_length_a 10.132682
_cell_length_b 9.165835
_cell_length_c 35.315739
_cell_angle_alpha 90.000000
_cell_angle_beta 90.182419
_cell_angle_gamma 90.000000
_cell_volume 3279.914671
_symmetry_space_group_name_H-M "C 2/M"
_symmetry_group_IT_number 12
_symmetry_cell_setting 'monoclinic'
loop_
_space_group_symop_operation_xyz
x,y,z
-x,y,-z
-x,-y,-z
x,-y,z
1/2+x,1/2+y,z
1/2-x,1/2+y,-z
1/2-x,1/2-y,-z
1/2+x,1/2-y,z
loop_
_atom_site_type_symbol
_atom_site_label
_atom_site_fract_x
_atom_site_fract_y
_atom_site_fract_z
Si Si1 0.838944 0.831019 0.106750
Si Si2 0.131474 0.829874 0.980198
Si Si3 0.410344 0.329687 0.353259
Si Si4 0.889728 0.171523 0.852311
Si Si5 0.636536 0.668453 0.733024
Si Si6 0.144588 0.328424 0.392987
Si Si7 0.594475 0.170128 0.225720
Si Si8 0.367202 0.828804 0.520963
O O1 0.877084 0.792173 0.063999
O O2 0.716227 0.731127 0.118001
O O3 0.963811 0.793406 0.133004
O O4 0.798748 0.000000 0.111124
O O5 0.150215 0.000000 0.987382
O O6 0.250000 0.750000 0.000000
O O7 0.000000 0.771233 0.000000
O O8 0.438565 0.500000 0.357143
O O9 0.375433 0.285514 0.310539
O O10 0.290265 0.281350 0.380115
O O11 0.540405 0.245797 0.365469
O O12 0.866132 0.250976 0.812776
O O13 0.867646 0.000000 0.847243
O O14 0.597954 0.500000 0.739574
O O15 0.540423 0.766081 0.758025
O O16 0.787451 0.697648 0.744665
O O17 0.123971 0.500000 0.388995
O O18 0.123753 0.274374 0.435842
O O19 0.573618 0.000000 0.217515
O O20 0.500000 0.783244 0.500000
O O21 0.250000 0.750000 0.500000
O O22 0.340456 0.000000 0.519138
#
# Coordination Sequence:
#
# PCOD8106106 Si02
#       8
#     8   8   8   8   8   8   8   8
#     4  10  22  39  58  83 116 151 188 233 282 332
#     4  10  21  38  59  84 115 150 189 233 281 333
#     4  10  21  37  57  81 109 144 185 227 274 330
#     4  11  23  39  60  85 114 149 189 232 278 331
#     4  10  22  39  57  81 113 145 182 228 275 328
#     4  10  21  37  56  81 113 146 184 231 279 329
#     4  11  23  39  60  85 114 148 185 228 279 331
#     4  10  21  36  55  81 112 146 186 231 278 330
#
# _framework density 19.512702000000001
#
# number of rings (size 3 to 8) (size 9 to 14) (size 15 to 20)
#    0.000    1.750    0.000    3.750    0.000    9.500 
#    0.000    0.000    0.000    0.000    0.000    0.000 
#    0.000    0.000    0.000    0.000    0.000    0.000 
#
# Total GULP energy -396997.181269 kJ/mol
# GULP energy per Si atom -12406.161915 kJ/mol
# Density = 1.946829 g / cm^3
# Si number density = 19.512702 Si / 1000 Ang^3
#
#
#
# Elastic Constant Matrix: (Units=GPa)
#
#
# Indices 1 2 3 4 5 6 
#
# 1 90.5593 40.7723 22.1688 0.0000 -2.1200 0.0000
# 2 40.7723 60.8720 34.2986 0.0000 0.3007 0.0000
# 3 22.1688 34.2986 99.7622 0.0000 -1.2980 0.0000
# 4 0.0000 0.0000 0.0000 28.7280 0.0000 7.8383
# 5 -2.1200 0.3007 -1.2980 0.0000 43.4700 0.0000
# 6 0.0000 0.0000 0.0000 7.8383 0.0000 29.0993
#
#
#
# Elastic Compliance Matrix: (Units=1/GPa)
#
#
# Indices 1 2 3 4 5 6 
#
# 1 0.015844 -0.010714 0.000174 0.000000 0.000852 0.000000
# 2 -0.010714 0.027626 -0.007129 0.000000 -0.000926 0.000000
# 3 0.000174 -0.007129 0.012442 0.000000 0.000429 0.000000
# 4 0.000000 0.000000 0.000000 0.037570 0.000000 -0.010120
# 5 0.000852 -0.000926 0.000429 0.000000 0.023065 0.000000
# 6 0.000000 0.000000 0.000000 -0.010120 0.000000 0.037091
#
#
# Mechanical properties :
#
#
# Convention : Reuss Voigt Hill
#
# Bulk Modulus (GPa) = 48.60858 49.51921 49.06390
# Shear Modulus (GPa) = 25.53175 30.52306 28.02740
#
# Velocity S-wave (km/s) = 3.62120 3.95937 3.79406
# Velocity P-wave (km/s) = 6.51532 6.80700 6.66276
#
# Compressibility (1/GPa) = 0.02057250
#
# Stress axis : x y z
#
# Youngs Moduli (GPa) = 63.11624 36.19784 80.37466
#
# Poissons Ratio (x) = 0.38784 -0.01399
# Poissons Ratio (y) = 0.67626 0.57299
# Poissons Ratio (z) = -0.01098 0.25806
#
# Static dielectric constant tensor:
#      x y z
#    x 3.582990 0.000000 -0.053510 
#    y 0.000000 3.500500 0.000000 
#    z -0.053510 0.000000 3.733560 
# 
# 
# High freq. dielectric constant tensor:
#      x y z
#    x 1.772070 0.000000 -0.001630 
#    y 0.000000 1.755520 0.000000 
#    z -0.001630 0.000000 1.778280 
# 
# From -- ./inp_files/373614.got.cif
#   From: 2010.06.25/outbox.cif.g09.slc.cpg/sg12_187_cif.got.tgz:373614.got - 2010.06.28 00:19:55.
