data_PCOD8106825
_publ_section_title
;
Structure prediction by ZEFSAII (Michael W. Deem and Ramdas Pophale) SiO2 
 PCOD8106825
Probable space group: C 2/M
;
_chemical_formula_sum "Si O2"
_cell_formula_units_Z 56
_cell_length_a 20.648697
_cell_length_b 9.093663
_cell_length_c 14.655706
_cell_angle_alpha 90.000000
_cell_angle_beta 90.894575
_cell_angle_gamma 90.000000
_cell_volume 2751.600086
_symmetry_space_group_name_H-M "C 2/M"
_symmetry_group_IT_number 12
_symmetry_cell_setting 'monoclinic'
loop_
_space_group_symop_operation_xyz
x,y,z
-x,y,-z
-x,-y,-z
x,-y,z
1/2+x,1/2+y,z
1/2-x,1/2+y,-z
1/2-x,1/2-y,-z
1/2+x,1/2-y,z
loop_
_atom_site_type_symbol
_atom_site_label
_atom_site_fract_x
_atom_site_fract_y
_atom_site_fract_z
Si Si1 0.927492 0.670022 0.229051
Si Si2 0.243287 0.668072 0.594014
Si Si3 0.822426 0.328062 0.908626
Si Si4 0.175047 0.171488 0.901037
Si Si5 0.071233 0.332486 0.230504
Si Si6 0.112931 0.165871 0.398915
Si Si7 0.620466 0.325421 0.608299
O O1 0.908935 0.500000 0.243477
O O2 0.873844 0.744151 0.165287
O O3 0.932585 0.753903 0.326693
O O4 0.999182 0.684429 0.186002
O O5 0.220955 0.500000 0.578986
O O6 0.250000 0.750000 0.500000
O O7 0.314136 0.673909 0.640785
O O8 0.188605 0.757685 0.647967
O O9 0.833942 0.500000 0.931790
O O10 0.749328 0.302377 0.870388
O O11 0.874511 0.267533 0.836361
O O12 0.834741 0.232760 0.998218
O O13 0.157460 0.000000 0.899375
O O14 0.089348 0.500000 0.249192
O O15 0.069223 0.257787 0.329657
O O16 0.107850 0.224079 0.503303
O O17 0.086881 0.000000 0.398024
O O18 0.622869 0.500000 0.617945
#
# Coordination Sequence:
#
# PCOD8106825 Si02
#       7
#     8   8   8   8   8   8   8
#     4  11  24  40  58  85 121 159 200 245 296 354
#     4   9  17  31  51  80 111 146 191 241 296 347
#     4   9  20  41  65  90 118 151 192 238 293 356
#     4  10  21  39  65  94 119 149 191 241 298 356
#     4  10  23  40  59  85 118 160 202 242 292 352
#     4   9  20  36  55  82 116 154 197 247 296 343
#     4  10  21  37  56  81 116 158 202 249 299 351
#
# _framework density 20.351796
#
# number of rings (size 3 to 8) (size 9 to 14) (size 15 to 20)
#    0.000    2.286    0.000    2.571    2.000    6.857 
#    0.000    5.714    0.000    0.000    0.000    0.000 
#    0.000    0.000    0.000    0.000    0.000    0.000 
#
# Total GULP energy -347056.578437 kJ/mol
# GULP energy per Si atom -12394.877801 kJ/mol
# Density = 2.030547 g / cm^3
# Si number density = 20.351796 Si / 1000 Ang^3
#
#
#
# Elastic Constant Matrix: (Units=GPa)
#
#
# Indices 1 2 3 4 5 6 
#
# 1 111.8355 53.7652 63.1910 0.0000 -5.8951 0.0000
# 2 53.7652 106.6662 48.9236 0.0000 1.9178 0.0000
# 3 63.1910 48.9236 98.9996 0.0000 -1.2346 0.0000
# 4 0.0000 0.0000 0.0000 35.4751 0.0000 2.9258
# 5 -5.8951 1.9178 -1.2346 0.0000 24.0763 0.0000
# 6 0.0000 0.0000 0.0000 2.9258 0.0000 29.8800
#
#
#
# Elastic Compliance Matrix: (Units=1/GPa)
#
#
# Indices 1 2 3 4 5 6 
#
# 1 0.015639 -0.004389 -0.007766 0.000000 0.003781 0.000000
# 2 -0.004389 0.013394 -0.003847 0.000000 -0.002339 0.000000
# 3 -0.007766 -0.003847 0.016950 0.000000 -0.000726 0.000000
# 4 0.000000 0.000000 0.000000 0.028418 0.000000 -0.002783
# 5 0.003781 -0.002339 -0.000726 0.000000 0.042609 0.000000
# 6 0.000000 0.000000 0.000000 -0.002783 0.000000 0.033740
#
#
# Mechanical properties :
#
#
# Convention : Reuss Voigt Hill
#
# Bulk Modulus (GPa) = 71.53464 72.14012 71.83738
# Shear Modulus (GPa) = 26.67890 27.99437 27.33663
#
# Velocity S-wave (km/s) = 3.62454 3.71283 3.66895
# Velocity P-wave (km/s) = 7.26235 7.34191 7.30224
#
# Compressibility (1/GPa) = 0.01397924
#
# Stress axis : x y z
#
# Youngs Moduli (GPa) = 63.94172 74.66265 58.99620
#
# Poissons Ratio (x) = 0.32768 0.45819
# Poissons Ratio (y) = 0.28063 0.22694
# Poissons Ratio (z) = 0.49660 0.28720
#
# Static dielectric constant tensor:
#      x y z
#    x 3.994810 0.000000 -0.183180 
#    y 0.000000 3.749690 0.000000 
#    z -0.183180 0.000000 3.508520 
# 
# 
# High freq. dielectric constant tensor:
#      x y z
#    x 1.801180 0.000000 -0.006850 
#    y 0.000000 1.798500 0.000000 
#    z -0.006850 0.000000 1.777290 
# 
# From -- ./inp_files/231070.got.cif
#   From: 2010.06.25/outbox.cif.g09.slc.cpg/sg12_116_cif.got.tgz:231070.got - 2010.06.28 00:19:55.
