data_PCOD8106938
_publ_section_title
;
Structure prediction by ZEFSAII (Michael W. Deem and Ramdas Pophale) SiO2 
 PCOD8106938
Probable space group: C 2/M
;
_chemical_formula_sum "Si O2"
_cell_formula_units_Z 48
_cell_length_a 14.223225
_cell_length_b 9.239664
_cell_length_c 28.679477
_cell_angle_alpha 90.000000
_cell_angle_beta 41.224760
_cell_angle_gamma 90.000000
_cell_volume 2483.822112
_symmetry_space_group_name_H-M "C 2/M"
_symmetry_group_IT_number 12
_symmetry_cell_setting 'monoclinic'
loop_
_space_group_symop_operation_xyz
x,y,z
-x,y,-z
-x,-y,-z
x,-y,z
1/2+x,1/2+y,z
1/2-x,1/2+y,-z
1/2-x,1/2-y,-z
1/2+x,1/2-y,z
loop_
_atom_site_type_symbol
_atom_site_label
_atom_site_fract_x
_atom_site_fract_y
_atom_site_fract_z
Si Si1 0.588914 0.167563 0.511775
Si Si2 0.634391 0.166468 0.013261
Si Si3 0.835522 0.835065 0.858673
Si Si4 0.056122 0.835928 0.856801
Si Si5 0.128136 0.666689 0.248005
Si Si6 0.579951 0.668335 0.608236
O O1 0.500000 0.219583 0.500000
O O2 0.536823 0.259177 0.575421
O O3 0.755363 0.195537 0.440452
O O4 0.557984 0.000000 0.534336
O O5 0.481968 0.236331 0.083833
O O6 0.632415 0.000000 0.028975
O O7 0.750000 0.250000 0.000000
O O8 0.680247 0.181223 0.941847
O O9 0.849627 0.720324 0.812663
O O10 0.962241 0.795452 0.847115
O O11 0.853130 0.000000 0.833791
O O12 0.221383 0.814158 0.781465
O O13 0.025324 0.000000 0.883672
O O14 0.078945 0.500000 0.265692
O O15 0.008969 0.761488 0.317226
O O16 0.543490 0.500000 0.618337
#
# Coordination Sequence:
#
# PCOD8106938 Si02
#       6
#     8   8   8   8   8   8
#     4   9  19  38  63  86 109 142 178 211 257 315
#     4   9  17  31  53  77 103 137 179 229 277 322
#     4   9  19  36  54  74 103 139 180 224 272 322
#     4   9  20  37  54  74 104 143 183 224 272 324
#     4  11  23  37  54  78 110 146 181 219 266 320
#     4  10  21  37  57  83 114 142 174 219 262 309
#
# _framework density 19.325054000000002
#
# number of rings (size 3 to 8) (size 9 to 14) (size 15 to 20)
#    0.000    2.500    0.000    2.500    0.000    7.667 
#    0.000   10.000    0.000    0.000    0.000    0.000 
#    0.000    0.000    0.000    0.000    0.000    0.000 
#
# Total GULP energy -297568.701800 kJ/mol
# GULP energy per Si atom -12398.695908 kJ/mol
# Density = 1.928107 g / cm^3
# Si number density = 19.325054 Si / 1000 Ang^3
#
#
#
# Elastic Constant Matrix: (Units=GPa)
#
#
# Indices 1 2 3 4 5 6 
#
# 1 67.9970 29.1431 19.6162 0.0000 7.5285 0.0000
# 2 29.1431 100.4229 51.7243 -0.0001 8.1078 -0.0001
# 3 19.6162 51.7243 95.6320 0.0000 6.6319 0.0001
# 4 0.0000 -0.0001 0.0000 41.8211 0.0000 4.9638
# 5 7.5285 8.1078 6.6319 0.0000 20.2004 0.0000
# 6 0.0000 -0.0001 0.0001 4.9638 0.0000 28.7318
#
#
#
# Elastic Compliance Matrix: (Units=1/GPa)
#
#
# Indices 1 2 3 4 5 6 
#
# 1 0.017259 -0.004138 -0.000994 0.000000 -0.004445 0.000000
# 2 -0.004138 0.014995 -0.007113 0.000000 -0.002141 0.000000
# 3 -0.000994 -0.007113 0.014617 0.000000 -0.001573 0.000000
# 4 0.000000 0.000000 0.000000 0.024412 0.000000 -0.004218
# 5 -0.004445 -0.002141 -0.001573 0.000000 0.052537 0.000000
# 6 0.000000 0.000000 0.000000 -0.004218 0.000000 0.035533
#
#
# Mechanical properties :
#
#
# Convention : Reuss Voigt Hill
#
# Bulk Modulus (GPa) = 44.68003 51.66879 48.17441
# Shear Modulus (GPa) = 26.13650 29.05523 27.59586
#
# Velocity S-wave (km/s) = 3.68158 3.88171 3.78297
# Velocity P-wave (km/s) = 6.42203 6.84726 6.63805
#
# Compressibility (1/GPa) = 0.02238137
#
# Stress axis : x y z
#
# Youngs Moduli (GPa) = 57.94135 66.68731 68.41314
#
# Poissons Ratio (x) = 0.27594 0.06800
# Poissons Ratio (y) = 0.23975 0.48664
# Poissons Ratio (z) = 0.05759 0.47437
#
# Static dielectric constant tensor:
#      x y z
#    x 3.531450 0.000000 -0.173650 
#    y 0.000000 3.698400 0.000000 
#    z -0.173650 0.000000 3.726660 
# 
# 
# High freq. dielectric constant tensor:
#      x y z
#    x 1.743190 0.000000 -0.005140 
#    y 0.000000 1.759370 0.000000 
#    z -0.005140 0.000000 1.750520 
# 
# From -- ./inp_files/337549.got.cif
#   From: 2010.06.25/outbox.cif.g09.slc.cpg/sg12_169_cif.got.tgz:337549.got - 2010.06.28 00:19:55.
