data_PCOD8106416
_publ_section_title
;
Structure prediction by ZEFSAII (Michael W. Deem and Ramdas Pophale) SiO2 
 PCOD8106416
Probable space group: C 2/M
;
_chemical_formula_sum "Si O2"
_cell_formula_units_Z 44
_cell_length_a 13.317870
_cell_length_b 23.265065
_cell_length_c 8.888023
_cell_angle_alpha 90.000000
_cell_angle_beta 127.054075
_cell_angle_gamma 90.000000
_cell_volume 2197.777164
_symmetry_space_group_name_H-M "C 2/M"
_symmetry_group_IT_number 12
_symmetry_cell_setting 'monoclinic'
loop_
_space_group_symop_operation_xyz
x,y,z
-x,y,-z
-x,-y,-z
x,-y,z
1/2+x,1/2+y,z
1/2-x,1/2+y,-z
1/2-x,1/2-y,-z
1/2+x,1/2-y,z
loop_
_atom_site_type_symbol
_atom_site_label
_atom_site_fract_x
_atom_site_fract_y
_atom_site_fract_z
Si Si1 0.336100 0.062545 0.205496
Si Si2 0.500000 0.147256 0.500000
Si Si3 0.131348 0.852169 0.047457
Si Si4 0.644420 0.936519 0.120104
Si Si5 0.210657 0.733711 0.631154
Si Si6 0.632754 0.646478 0.688556
O O1 0.455180 0.104659 0.327522
O O2 0.219259 0.094908 0.177729
O O3 0.354707 0.000000 0.300257
O O4 0.313305 0.053393 0.010935
O O5 0.605302 0.185454 0.517841
O O6 0.178292 0.791884 0.163083
O O7 0.125830 0.850215 0.862375
O O8 0.000000 0.867834 0.000000
O O9 0.751042 0.891737 0.275252
O O10 0.651158 0.000000 0.206963
O O11 0.500000 0.912704 0.000000
O O12 0.250000 0.750000 0.500000
O O13 0.153207 0.788552 0.658825
O O14 0.500000 0.623611 0.500000
#
# Coordination Sequence:
#
# PCOD8106416 Si02
#       6
#     8   4   8   8   8   8
#     4   9  19  37  60  84 116 153 195 249 303 359
#     4  10  21  36  58  86 121 148 202 246 296 360
#     4  10  22  39  59  86 121 161 202 248 306 366
#     4   9  20  38  60  87 118 156 202 250 306 370
#     4  11  23  38  59  86 123 161 202 253 304 363
#     4  11  22  39  62  88 124 160 206 253 309 364
#
# _framework density 20.020230000000002
#
# number of rings (size 3 to 8) (size 9 to 14) (size 15 to 20)
#    0.000    2.000    0.909    1.909    2.545    1.455 
#    0.000    0.000    0.000    0.000    0.000    0.000 
#    0.000    0.000    0.000    0.000    0.000    0.000 
#
# Total GULP energy -272581.885597 kJ/mol
# GULP energy per Si atom -12390.085709 kJ/mol
# Density = 1.997466 g / cm^3
# Si number density = 20.020230 Si / 1000 Ang^3
#
#
#
# Elastic Constant Matrix: (Units=GPa)
#
#
# Indices 1 2 3 4 5 6 
#
# 1 113.8148 51.8379 40.6271 0.0000 19.6046 0.0000
# 2 51.8379 141.8364 50.0779 0.0000 20.7475 0.0000
# 3 40.6271 50.0779 93.9582 0.0000 13.7387 0.0000
# 4 0.0000 0.0000 0.0000 12.0306 0.0000 -9.1132
# 5 19.6046 20.7475 13.7387 0.0000 42.2607 0.0000
# 6 0.0000 0.0000 0.0000 -9.1132 0.0000 8.5858
#
#
#
# Elastic Compliance Matrix: (Units=1/GPa)
#
#
# Indices 1 2 3 4 5 6 
#
# 1 0.011672 -0.002703 -0.003159 0.000000 -0.003061 0.000000
# 2 -0.002703 0.009662 -0.003644 0.000000 -0.002305 0.000000
# 3 -0.003159 -0.003644 0.014148 0.000000 -0.001345 0.000000
# 4 0.000000 0.000000 0.000000 0.424132 0.000000 0.450181
# 5 -0.003061 -0.002305 -0.001345 0.000000 0.026651 0.000000
# 6 0.000000 0.000000 0.000000 0.450181 0.000000 0.594302
#
#
# Mechanical properties :
#
#
# Convention : Reuss Voigt Hill
#
# Bulk Modulus (GPa) = 60.71454 70.52169 65.61811
# Shear Modulus (GPa) = 4.52461 26.37987 15.45224
#
# Velocity S-wave (km/s) = 1.50497 3.63390 2.78120
# Velocity P-wave (km/s) = 5.78034 7.27383 6.56966
#
# Compressibility (1/GPa) = 0.01647052
#
# Stress axis : x y z
#
# Youngs Moduli (GPa) = 85.67498 103.49924 70.68302
#
# Poissons Ratio (x) = 0.27974 0.22327
# Poissons Ratio (y) = 0.23157 0.25756
# Poissons Ratio (z) = 0.27063 0.37714
#
# Static dielectric constant tensor:
#      x y z
#    x 3.193720 0.000000 0.878150 
#    y 0.000000 4.175740 0.000000 
#    z 0.878150 0.000000 2.708650 
# 
# 
# High freq. dielectric constant tensor:
#      x y z
#    x 1.779930 0.000000 0.012260 
#    y 0.000000 1.793850 0.000000 
#    z 0.012260 0.000000 1.771070 
# 
# From -- ./inp_files/51543.got.cif
#   From: 2010.06.25/outbox.cif.g09.slc.cpg/sg12_26_cif.got.tgz:51543.got - 2010.06.28 00:19:55.
