data_PCOD8106944
_publ_section_title
;
Structure prediction by ZEFSAII (Michael W. Deem and Ramdas Pophale) SiO2 
 PCOD8106944
Probable space group: C 2/M
;
_chemical_formula_sum "Si O2"
_cell_formula_units_Z 48
_cell_length_a 10.003669
_cell_length_b 9.154026
_cell_length_c 26.853326
_cell_angle_alpha 90.000000
_cell_angle_beta 79.374685
_cell_angle_gamma 90.000000
_cell_volume 2416.899206
_symmetry_space_group_name_H-M "C 2/M"
_symmetry_group_IT_number 12
_symmetry_cell_setting 'monoclinic'
loop_
_space_group_symop_operation_xyz
x,y,z
-x,y,-z
-x,-y,-z
x,-y,z
1/2+x,1/2+y,z
1/2-x,1/2+y,-z
1/2-x,1/2-y,-z
1/2+x,1/2-y,z
loop_
_atom_site_type_symbol
_atom_site_label
_atom_site_fract_x
_atom_site_fract_y
_atom_site_fract_z
Si Si1 0.389653 0.169085 0.783294
Si Si2 0.214233 0.170802 0.611056
Si Si3 0.340709 0.330671 0.885788
Si Si4 0.957297 0.668563 0.057567
Si Si5 0.508932 0.170864 0.555873
Si Si6 0.147695 0.168742 0.726307
O O1 0.323581 0.250755 0.834484
O O2 0.292016 0.191581 0.742977
O O3 0.536642 0.233521 0.761051
O O4 0.408003 0.000000 0.795759
O O5 0.372269 0.211024 0.594850
O O6 0.133811 0.251163 0.573462
O O7 0.164292 0.223090 0.668595
O O8 0.190951 0.000000 0.605503
O O9 0.370851 0.500000 0.873816
O O10 0.466978 0.265214 0.906959
O O11 0.203560 0.307319 0.926487
O O12 0.997941 0.500000 0.063172
O O13 0.000000 0.722484 0.000000
O O14 0.500000 0.228086 0.500000
O O15 0.539425 0.000000 0.554700
O O16 0.102333 0.000000 0.731980
#
# Coordination Sequence:
#
# PCOD8106944 Si02
#       6
#     8   8   8   8   8   8
#     4  11  23  39  60  84 113 150 189 232 283 336
#     4  10  21  37  57  83 114 147 187 233 280 334
#     4  11  23  38  59  87 117 151 191 233 280 334
#     4  10  22  40  61  87 118 151 190 234 279 332
#     4  10  21  37  57  83 115 149 187 231 278 332
#     4  10  22  39  58  83 114 147 187 235 283 334
#
# _framework density 19.860158999999999
#
# number of rings (size 3 to 8) (size 9 to 14) (size 15 to 20)
#    0.000    1.667    0.000    4.000    0.000    8.667 
#    0.000    0.000    0.000    0.000    0.000    0.000 
#    0.000    0.000    0.000    0.000    0.000    0.000 
#
# Total GULP energy -297766.692933 kJ/mol
# GULP energy per Si atom -12406.945539 kJ/mol
# Density = 1.981496 g / cm^3
# Si number density = 19.860159 Si / 1000 Ang^3
#
#
#
# Elastic Constant Matrix: (Units=GPa)
#
#
# Indices 1 2 3 4 5 6 
#
# 1 62.7704 34.1027 7.4682 0.0000 2.4876 0.0000
# 2 34.1027 77.0097 32.8290 0.0000 2.7679 0.0000
# 3 7.4682 32.8290 98.8311 0.0000 -1.5725 0.0000
# 4 0.0000 0.0000 0.0000 26.1145 0.0000 2.6961
# 5 2.4876 2.7679 -1.5725 0.0000 39.8452 0.0000
# 6 0.0000 0.0000 0.0000 2.6961 0.0000 17.3042
#
#
#
# Elastic Compliance Matrix: (Units=1/GPa)
#
#
# Indices 1 2 3 4 5 6 
#
# 1 0.021253 -0.010139 0.001753 0.000000 -0.000553 0.000000
# 2 -0.010139 0.020027 -0.005902 0.000000 -0.000991 0.000000
# 3 0.001753 -0.005902 0.011959 0.000000 0.000772 0.000000
# 4 0.000000 0.000000 0.000000 0.038919 0.000000 -0.006064
# 5 -0.000553 -0.000991 0.000772 0.000000 0.025231 0.000000
# 6 0.000000 0.000000 0.000000 -0.006064 0.000000 0.058734
#
#
# Mechanical properties :
#
#
# Convention : Reuss Voigt Hill
#
# Bulk Modulus (GPa) = 40.54726 43.04566 41.79646
# Shear Modulus (GPa) = 23.48307 27.60018 25.54162
#
# Velocity S-wave (km/s) = 3.44237 3.73195 3.59008
# Velocity P-wave (km/s) = 6.02167 6.34755 6.18676
#
# Compressibility (1/GPa) = 0.02466258
#
# Stress axis : x y z
#
# Youngs Moduli (GPa) = 47.05237 49.93267 83.62199
#
# Poissons Ratio (x) = 0.50627 -0.14660
# Poissons Ratio (y) = 0.47707 0.49354
# Poissons Ratio (z) = -0.08249 0.29470
#
# Static dielectric constant tensor:
#      x y z
#    x 3.506190 0.000000 -0.084500 
#    y 0.000000 3.603390 0.000000 
#    z -0.084500 0.000000 3.841140 
# 
# 
# High freq. dielectric constant tensor:
#      x y z
#    x 1.782450 0.000000 -0.003110 
#    y 0.000000 1.772060 0.000000 
#    z -0.003110 0.000000 1.790590 
# 
# From -- ./inp_files/371854.got.cif
#   From: 2010.06.25/outbox.cif.g09.slc.cpg/sg12_186_cif.got.tgz:371854.got - 2010.06.28 00:19:55.
