data_PCOD8106087
_publ_section_title
;
Structure prediction by ZEFSAII (Michael W. Deem and Ramdas Pophale) SiO2 
 PCOD8106087
Probable space group: C 2/M
;
_chemical_formula_sum "Si O2"
_cell_formula_units_Z 40
_cell_length_a 26.511317
_cell_length_b 9.036145
_cell_length_c 19.032872
_cell_angle_alpha 90.000000
_cell_angle_beta 28.272711
_cell_angle_gamma 90.000000
_cell_volume 2159.700850
_symmetry_space_group_name_H-M "C 2/M"
_symmetry_group_IT_number 12
_symmetry_cell_setting 'monoclinic'
loop_
_space_group_symop_operation_xyz
x,y,z
-x,y,-z
-x,-y,-z
x,-y,z
1/2+x,1/2+y,z
1/2-x,1/2+y,-z
1/2-x,1/2-y,-z
1/2+x,1/2-y,z
loop_
_atom_site_type_symbol
_atom_site_label
_atom_site_fract_x
_atom_site_fract_y
_atom_site_fract_z
Si Si1 0.053345 0.826705 0.565373
Si Si2 0.830746 0.325105 0.847125
Si Si3 0.194742 0.329748 0.282012
Si Si4 0.379152 0.330046 0.159947
Si Si5 0.743774 0.329052 0.434440
O O1 0.103340 0.767754 0.431127
O O2 0.133362 0.793532 0.530988
O O3 0.947491 0.740149 0.716108
O O4 0.029521 0.000000 0.585777
O O5 0.831972 0.500000 0.859077
O O6 0.794513 0.285888 0.812468
O O7 0.750000 0.250000 0.000000
O O8 0.159671 0.500000 0.333819
O O9 0.310224 0.300006 0.174438
O O10 0.368397 0.500000 0.196871
O O11 0.341444 0.226574 0.268556
O O12 0.500000 0.284617 0.000000
O O13 0.758753 0.500000 0.429828
O O14 0.750000 0.250000 0.500000
#
# Coordination Sequence:
#
# PCOD8106087 Si02
#       5
#     8   8   8   8   8
#     4  10  21  37  57  80 106 139 181 224 266 318
#     4  11  23  37  54  79 111 144 179 222 271 319
#     4   9  19  36  56  78 106 141 180 219 263 319
#     4   9  18  34  56  80 107 141 178 217 265 319
#     4  10  21  36  55  80 109 141 178 221 267 318
#
# _framework density 18.521083000000001
#
# number of rings (size 3 to 8) (size 9 to 14) (size 15 to 20)
#    0.000    2.200    0.000    2.400    0.000    8.400 
#    0.000    4.000    0.000    0.000    0.000    0.000 
#    0.000    0.000    0.000    0.000    0.000    0.000 
#
# Total GULP energy -248057.917080 kJ/mol
# GULP energy per Si atom -12402.895854 kJ/mol
# Density = 1.847893 g / cm^3
# Si number density = 18.521083 Si / 1000 Ang^3
#
#
#
# Elastic Constant Matrix: (Units=GPa)
#
#
# Indices 1 2 3 4 5 6 
#
# 1 115.8874 75.0499 90.2934 -0.0029 16.6407 0.0004
# 2 75.0499 108.8418 87.1632 -0.0061 8.0117 0.0026
# 3 90.2934 87.1632 165.2094 -0.0093 -2.2947 0.0040
# 4 -0.0029 -0.0061 -0.0093 39.6527 0.0036 2.8688
# 5 16.6407 8.0117 -2.2947 0.0036 34.2294 -0.0007
# 6 0.0004 0.0026 0.0040 2.8688 -0.0007 30.6345
#
#
#
# Elastic Compliance Matrix: (Units=1/GPa)
#
#
# Indices 1 2 3 4 5 6 
#
# 1 0.020524 -0.007679 -0.007286 -0.000001 -0.008669 0.000001
# 2 -0.007679 0.019438 -0.006076 0.000001 -0.001224 -0.000001
# 3 -0.007286 -0.006076 0.013322 0.000001 0.005857 -0.000001
# 4 -0.000001 0.000001 0.000001 0.025391 -0.000003 -0.002378
# 5 -0.008669 -0.001224 0.005857 -0.000003 0.034108 0.000000
# 6 0.000001 -0.000001 -0.000001 -0.002378 0.000000 0.032866
#
#
# Mechanical properties :
#
#
# Convention : Reuss Voigt Hill
#
# Bulk Modulus (GPa) = 89.26518 99.43907 94.35212
# Shear Modulus (GPa) = 26.11467 30.06547 28.09007
#
# Velocity S-wave (km/s) = 3.75907 4.03340 3.89865
# Velocity P-wave (km/s) = 8.19402 8.68892 8.44510
#
# Compressibility (1/GPa) = 0.01120258
#
# Stress axis : x y z
#
# Youngs Moduli (GPa) = 48.72428 51.44594 75.06427
#
# Poissons Ratio (x) = 0.39503 0.54693
# Poissons Ratio (y) = 0.37414 0.45606
# Poissons Ratio (z) = 0.35502 0.31256
#
# Static dielectric constant tensor:
#      x y z
#    x 3.511340 0.000090 -0.077910 
#    y 0.000090 4.131940 0.000250 
#    z -0.077910 0.000250 3.359750 
# 
# 
# High freq. dielectric constant tensor:
#      x y z
#    x 1.727200 0.000000 -0.003290 
#    y 0.000000 1.727300 0.000000 
#    z -0.003290 0.000000 1.716720 
# 
# From -- ./inp_files/151973.got.cif
#   From: 2010.06.25/outbox.cif.g09.slc.cpg/sg12_76_cif.got.tgz:151973.got - 2010.06.28 00:19:55.
