data_PCOD8106593
_publ_section_title
;
Structure prediction by ZEFSAII (Michael W. Deem and Ramdas Pophale) SiO2 
 PCOD8106593
Probable space group: C 2/M
;
_chemical_formula_sum "Si O2"
_cell_formula_units_Z 60
_cell_length_a 17.083344
_cell_length_b 17.069517
_cell_length_c 12.162677
_cell_angle_alpha 90.000000
_cell_angle_beta 61.204910
_cell_angle_gamma 90.000000
_cell_volume 3108.134991
_symmetry_space_group_name_H-M "C 2/M"
_symmetry_group_IT_number 12
_symmetry_cell_setting 'monoclinic'
loop_
_space_group_symop_operation_xyz
x,y,z
-x,y,-z
-x,-y,-z
x,-y,z
1/2+x,1/2+y,z
1/2-x,1/2+y,-z
1/2-x,1/2-y,-z
1/2+x,1/2-y,z
loop_
_atom_site_type_symbol
_atom_site_label
_atom_site_fract_x
_atom_site_fract_y
_atom_site_fract_z
Si Si1 0.930123 0.409468 0.267946
Si Si2 0.500000 0.306021 0.500000
Si Si3 0.167410 0.280924 0.297739
Si Si4 0.338480 0.190367 0.163804
Si Si5 0.599433 0.590086 0.613041
Si Si6 0.400625 0.803821 0.882722
Si Si7 0.974666 0.173468 0.133922
Si Si8 0.203853 0.590823 0.450854
O O1 0.952414 0.500000 0.246028
O O2 0.866356 0.387712 0.209260
O O3 0.879224 0.388078 0.415034
O O4 0.022522 0.364499 0.200523
O O5 0.430811 0.249539 0.607562
O O6 0.447736 0.357999 0.447101
O O7 0.237311 0.210376 0.264876
O O8 0.170437 0.305863 0.167893
O O9 0.196102 0.356075 0.348592
O O10 0.399993 0.261482 0.161868
O O11 0.349833 0.170946 0.027677
O O12 0.581493 0.500000 0.596124
O O13 0.559302 0.607143 0.760708
O O14 0.704848 0.609271 0.545001
O O15 0.439947 0.716463 0.870610
O O16 0.000000 0.133426 0.000000
O O17 0.202223 0.500000 0.415206
#
# Coordination Sequence:
#
# PCOD8106593 Si02
#       8
#     8   4   8   8   8   8   8   8
#     4  10  21  39  60  86 119 153 193 242 293 345
#     4  12  25  36  59  90 116 154 194 236 295 348
#     4  12  22  37  61  85 121 154 192 239 290 349
#     4  10  21  36  61  85 112 155 197 239 286 344
#     4  11  22  40  59  83 118 151 195 243 290 346
#     4  10  21  37  57  87 117 148 194 242 287 345
#     4   9  18  37  59  83 112 147 198 242 285 342
#     4  10  23  39  60  88 119 156 195 238 291 351
#
# _framework density 19.304181
#
# number of rings (size 3 to 8) (size 9 to 14) (size 15 to 20)
#    0.000    1.600    2.667    3.400    1.867    2.933 
#    0.000    2.333    0.000    0.000    0.000    0.000 
#    0.000    0.000    0.000    0.000    0.000    0.000 
#
# Total GULP energy -372058.221397 kJ/mol
# GULP energy per Si atom -12401.940713 kJ/mol
# Density = 1.926024 g / cm^3
# Si number density = 19.304181 Si / 1000 Ang^3
#
#
#
# Elastic Constant Matrix: (Units=GPa)
#
#
# Indices 1 2 3 4 5 6 
#
# 1 76.5478 23.8366 19.9048 0.0000 13.4503 0.0000
# 2 23.8366 52.7403 20.1157 0.0000 8.5017 0.0000
# 3 19.9048 20.1157 77.7991 0.0000 10.8385 0.0000
# 4 0.0000 0.0000 0.0000 25.4592 0.0000 -0.3909
# 5 13.4503 8.5017 10.8385 0.0000 38.0699 0.0000
# 6 0.0000 0.0000 0.0000 -0.3909 0.0000 24.1037
#
#
#
# Elastic Compliance Matrix: (Units=1/GPa)
#
#
# Indices 1 2 3 4 5 6 
#
# 1 0.016097 -0.005875 -0.002072 0.000000 -0.003785 0.000000
# 2 -0.005875 0.023580 -0.004321 0.000000 -0.001960 0.000000
# 3 -0.002072 -0.004321 0.014854 0.000000 -0.002532 0.000000
# 4 0.000000 0.000000 0.000000 0.039288 0.000000 0.000637
# 5 -0.003785 -0.001960 -0.002532 0.000000 0.028763 0.000000
# 6 0.000000 0.000000 0.000000 0.000637 0.000000 0.041498
#
#
# Mechanical properties :
#
#
# Convention : Reuss Voigt Hill
#
# Bulk Modulus (GPa) = 33.33831 37.20018 35.26925
# Shear Modulus (GPa) = 25.17452 27.07524 26.12488
#
# Velocity S-wave (km/s) = 3.61515 3.74914 3.68275
# Velocity P-wave (km/s) = 5.89349 6.16877 6.03270
#
# Compressibility (1/GPa) = 0.02999552
#
# Stress axis : x y z
#
# Youngs Moduli (GPa) = 62.12331 42.40897 67.32357
#
# Poissons Ratio (x) = 0.24914 0.13950
# Poissons Ratio (y) = 0.36496 0.29088
# Poissons Ratio (z) = 0.12873 0.18324
#
# Static dielectric constant tensor:
#      x y z
#    x 3.580760 0.000000 0.016040 
#    y 0.000000 3.317110 0.000000 
#    z 0.016040 0.000000 3.678540 
# 
# 
# High freq. dielectric constant tensor:
#      x y z
#    x 1.754530 0.000000 0.002060 
#    y 0.000000 1.732990 0.000000 
#    z 0.002060 0.000000 1.765260 
# 
# From -- ./inp_files/158280.got.cif
#   From: 2010.06.25/outbox.cif.g09.slc.cpg/sg12_80_cif.got.tgz:158280.got - 2010.06.28 00:19:55.
