data_PCOD8106140
_publ_section_title
;
Structure prediction by ZEFSAII (Michael W. Deem and Ramdas Pophale) SiO2 
 PCOD8106140
Probable space group: C 2/M
;
_chemical_formula_sum "Si O2"
_cell_formula_units_Z 56
_cell_length_a 29.188403
_cell_length_b 8.684969
_cell_length_c 11.346128
_cell_angle_alpha 90.000000
_cell_angle_beta 76.723778
_cell_angle_gamma 90.000000
_cell_volume 2799.377859
_symmetry_space_group_name_H-M "C 2/M"
_symmetry_group_IT_number 12
_symmetry_cell_setting 'monoclinic'
loop_
_space_group_symop_operation_xyz
x,y,z
-x,y,-z
-x,-y,-z
x,-y,z
1/2+x,1/2+y,z
1/2-x,1/2+y,-z
1/2-x,1/2-y,-z
1/2+x,1/2-y,z
loop_
_atom_site_type_symbol
_atom_site_label
_atom_site_fract_x
_atom_site_fract_y
_atom_site_fract_z
Si Si1 0.235478 0.180976 0.133126
Si Si2 0.557986 0.818764 0.203004
Si Si3 0.860925 0.317218 0.432139
Si Si4 0.685285 0.318976 0.760114
Si Si5 0.455285 0.176369 0.267197
Si Si6 0.646750 0.180059 0.295616
Si Si7 0.097768 0.677652 0.935227
O O1 0.266690 0.247229 0.220369
O O2 0.181655 0.223822 0.192980
O O3 0.241515 0.000000 0.122220
O O4 0.250000 0.250000 0.000000
O O5 0.506380 0.745124 0.260725
O O6 0.593348 0.780808 0.288496
O O7 0.551231 0.000000 0.188133
O O8 0.578876 0.752586 0.068703
O O9 0.860422 0.500000 0.412783
O O10 0.822876 0.243632 0.367022
O O11 0.913034 0.249989 0.369721
O O12 0.847604 0.270071 0.572148
O O13 0.691466 0.500000 0.751389
O O14 0.643014 0.275551 0.872095
O O15 0.443541 0.194060 0.136080
O O16 0.458756 0.000000 0.303745
O O17 0.657386 0.000000 0.271679
O O18 0.113932 0.500000 0.937692
#
# Coordination Sequence:
#
# PCOD8106140 Si02
#       7
#     8   8   8   8   8   8   8
#     4  12  25  42  63  86 113 143 177 220 273 332
#     4   9  16  27  49  80 112 146 184 229 276 321
#     4   9  19  36  56  80 112 148 189 233 274 322
#     4  11  22  37  59  83 109 144 185 230 280 332
#     4   8  14  26  48  79 111 146 187 229 273 320
#     4  10  21  36  55  82 114 148 188 232 276 325
#     4   9  16  29  51  80 113 146 183 229 280 333
#
# _framework density 20.004446000000002
#
# number of rings (size 3 to 8) (size 9 to 14) (size 15 to 20)
#    0.000    2.286    0.000    4.714    0.000    4.571 
#    0.000    2.857    0.000   10.286    0.000    5.000 
#    0.000    0.000    0.000    0.000    0.000    0.000 
#
# Total GULP energy -347180.127324 kJ/mol
# GULP energy per Si atom -12399.290262 kJ/mol
# Density = 1.995891 g / cm^3
# Si number density = 20.004446 Si / 1000 Ang^3
#
#
#
# Elastic Constant Matrix: (Units=GPa)
#
#
# Indices 1 2 3 4 5 6 
#
# 1 106.3634 29.7306 32.2612 0.0000 7.7496 0.0000
# 2 29.7306 75.0948 33.7501 0.0000 5.9272 0.0000
# 3 32.2612 33.7501 111.1825 0.0000 8.9245 0.0000
# 4 0.0000 0.0000 0.0000 21.3856 0.0000 0.1467
# 5 7.7496 5.9272 8.9245 0.0000 23.9695 0.0000
# 6 0.0000 0.0000 0.0000 0.1467 0.0000 19.5166
#
#
#
# Elastic Compliance Matrix: (Units=1/GPa)
#
#
# Indices 1 2 3 4 5 6 
#
# 1 0.011096 -0.003312 -0.002054 0.000000 -0.002004 0.000000
# 2 -0.003312 0.016515 -0.003928 0.000000 -0.001551 0.000000
# 3 -0.002054 -0.003928 0.010979 0.000000 -0.002453 0.000000
# 4 0.000000 0.000000 0.000000 0.046763 0.000000 -0.000352
# 5 -0.002004 -0.001551 -0.002453 0.000000 0.043664 0.000000
# 6 0.000000 0.000000 0.000000 -0.000352 0.000000 0.051241
#
#
# Mechanical properties :
#
#
# Convention : Reuss Voigt Hill
#
# Bulk Modulus (GPa) = 49.98931 53.79161 51.89046
# Shear Modulus (GPa) = 24.32921 26.10092 25.21506
#
# Velocity S-wave (km/s) = 3.49117 3.61606 3.55417
# Velocity P-wave (km/s) = 6.42607 6.66204 6.54512
#
# Compressibility (1/GPa) = 0.02000428
#
# Stress axis : x y z
#
# Youngs Moduli (GPa) = 90.11950 60.54931 91.08070
#
# Poissons Ratio (x) = 0.20054 0.18704
# Poissons Ratio (y) = 0.29848 0.35775
# Poissons Ratio (z) = 0.18506 0.23783
#
# Static dielectric constant tensor:
#      x y z
#    x 3.831560 0.000000 -0.027060 
#    y 0.000000 3.235120 0.000000 
#    z -0.027060 0.000000 3.667960 
# 
# 
# High freq. dielectric constant tensor:
#      x y z
#    x 1.792410 0.000000 0.000780 
#    y 0.000000 1.736180 0.000000 
#    z 0.000780 0.000000 1.781460 
# 
# From -- ./inp_files/180712.got.cif
#   From: 2010.06.25/outbox.cif.g09.slc.cpg/sg12_91_cif.got.tgz:180712.got - 2010.06.28 00:19:55.
