data_PCOD8106765
_publ_section_title
;
Structure prediction by ZEFSAII (Michael W. Deem and Ramdas Pophale) SiO2 
 PCOD8106765
Probable space group: C 2/M
;
_chemical_formula_sum "Si O2"
_cell_formula_units_Z 40
_cell_length_a 13.124401
_cell_length_b 24.452302
_cell_length_c 10.018931
_cell_angle_alpha 90.000000
_cell_angle_beta 37.565429
_cell_angle_gamma 90.000000
_cell_volume 1960.258375
_symmetry_space_group_name_H-M "C 2/M"
_symmetry_group_IT_number 12
_symmetry_cell_setting 'monoclinic'
loop_
_space_group_symop_operation_xyz
x,y,z
-x,y,-z
-x,-y,-z
x,-y,z
1/2+x,1/2+y,z
1/2-x,1/2+y,-z
1/2-x,1/2-y,-z
1/2+x,1/2-y,z
loop_
_atom_site_type_symbol
_atom_site_label
_atom_site_fract_x
_atom_site_fract_y
_atom_site_fract_z
Si Si1 0.551376 0.666751 0.313426
Si Si2 0.123953 0.134598 0.755573
Si Si3 0.556623 0.063069 0.592798
Si Si4 0.432669 0.148524 0.919194
Si Si5 0.402327 0.214302 0.474874
O O1 0.500000 0.633383 0.500000
O O2 0.498008 0.632487 0.243244
O O3 0.436557 0.721568 0.438631
O O4 0.749682 0.675894 0.108482
O O5 0.259424 0.088099 0.588800
O O6 0.209167 0.194620 0.693185
O O7 0.000000 0.117488 0.000000
O O8 0.500000 0.071940 0.500000
O O9 0.437295 0.092554 0.826803
O O10 0.560978 0.000000 0.628364
O O11 0.545832 0.191954 0.723747
O O12 0.500000 0.139283 0.000000
O O13 0.500000 0.187273 0.500000
#
# Coordination Sequence:
#
# PCOD8106765 Si02
#       5
#     8   8   8   8   8
#     4  11  22  36  55  85 120 156 194 234 281 337
#     4  11  21  36  59  87 118 149 190 240 287 338
#     4  10  22  42  64  85 112 149 192 239 294 348
#     4  11  22  39  61  85 116 154 195 239 288 341
#     4  10  21  37  55  83 120 159 196 229 276 337
#
# _framework density 20.405474000000002
#
# number of rings (size 3 to 8) (size 9 to 14) (size 15 to 20)
#    0.000    1.400    0.000    8.400    0.000    4.800 
#    0.000    1.000    0.000    2.400    0.000    0.000 
#    0.000    0.000    0.000    0.000    0.000    0.000 
#
# Total GULP energy -247807.679685 kJ/mol
# GULP energy per Si atom -12390.383984 kJ/mol
# Density = 2.035903 g / cm^3
# Si number density = 20.405474 Si / 1000 Ang^3
#
#
#
# Elastic Constant Matrix: (Units=GPa)
#
#
# Indices 1 2 3 4 5 6 
#
# 1 131.6456 16.1994 17.9235 0.0000 26.9396 0.0000
# 2 16.1994 67.8631 8.1034 0.0000 7.2422 0.0000
# 3 17.9235 8.1034 74.7385 0.0000 18.7068 0.0000
# 4 0.0000 0.0000 0.0000 19.0800 0.0000 -2.3607
# 5 26.9396 7.2422 18.7068 0.0000 47.8071 0.0000
# 6 0.0000 0.0000 0.0000 -2.3607 0.0000 -130.3568
#
#
#
# Elastic Compliance Matrix: (Units=1/GPa)
#
#
# Indices 1 2 3 4 5 6 
#
# 1 0.008799 -0.001530 -0.000844 0.000000 -0.004396 0.000000
# 2 -0.001530 0.015337 -0.001031 0.000000 -0.001057 0.000000
# 3 -0.000844 -0.001031 0.015006 0.000000 -0.005240 0.000000
# 4 0.000000 0.000000 0.000000 0.052294 0.000000 -0.000947
# 5 -0.004396 -0.001057 -0.005240 0.000000 0.025605 0.000000
# 6 0.000000 0.000000 0.000000 -0.000947 0.000000 -0.007654
#
#
# Mechanical properties :
#
#
# Convention : Reuss Voigt Hill
#
# Bulk Modulus (GPa) = 30.93043 39.85553 35.39298
# Shear Modulus (GPa) = 39.37809 2.77414 21.07611
#
# Velocity S-wave (km/s) = 4.39769 1.16724 3.21731
# Velocity P-wave (km/s) = 6.40133 4.62502 5.58426
#
# Compressibility (1/GPa) = 0.03233062
#
# Stress axis : x y z
#
# Youngs Moduli (GPa) = 113.64914 65.20237 66.64138
#
# Poissons Ratio (x) = 0.09979 0.05623
# Poissons Ratio (y) = 0.17394 0.06872
# Poissons Ratio (z) = 0.09590 0.06724
#
# Static dielectric constant tensor:
#      x y z
#    x 4.179010 0.000000 0.222630 
#    y 0.000000 3.475510 0.000000 
#    z 0.222630 0.000000 3.862510 
# 
# 
# High freq. dielectric constant tensor:
#      x y z
#    x 1.821580 0.000000 0.010780 
#    y 0.000000 1.759560 0.000000 
#    z 0.010780 0.000000 1.808500 
# 
# From -- ./inp_files/52872.got.cif
#   From: 2010.06.25/outbox.cif.g09.slc.cpg/sg12_27_cif.got.tgz:52872.got - 2010.06.28 00:19:55.
