data_PCOD8106773
_publ_section_title
;
Structure prediction by ZEFSAII (Michael W. Deem and Ramdas Pophale) SiO2 
 PCOD8106773
Probable space group: C 2/M
;
_chemical_formula_sum "Si O2"
_cell_formula_units_Z 56
_cell_length_a 18.202025
_cell_length_b 8.920728
_cell_length_c 20.059751
_cell_angle_alpha 90.000000
_cell_angle_beta 63.289022
_cell_angle_gamma 90.000000
_cell_volume 2909.616294
_symmetry_space_group_name_H-M "C 2/M"
_symmetry_group_IT_number 12
_symmetry_cell_setting 'monoclinic'
loop_
_space_group_symop_operation_xyz
x,y,z
-x,y,-z
-x,-y,-z
x,-y,z
1/2+x,1/2+y,z
1/2-x,1/2+y,-z
1/2-x,1/2-y,-z
1/2+x,1/2-y,z
loop_
_atom_site_type_symbol
_atom_site_label
_atom_site_fract_x
_atom_site_fract_y
_atom_site_fract_z
Si Si1 0.028193 0.321581 0.274559
Si Si2 0.867222 0.676696 0.412390
Si Si3 0.210345 0.675866 0.420647
Si Si4 0.350886 0.672838 0.145079
Si Si5 0.187731 0.322539 0.281944
Si Si6 0.670868 0.326989 0.001064
Si Si7 0.486500 0.822328 0.870765
O O1 0.030411 0.500000 0.275709
O O2 0.113208 0.254090 0.268823
O O3 0.015046 0.264739 0.204779
O O4 0.954533 0.261039 0.351395
O O5 0.862686 0.500000 0.405617
O O6 0.853668 0.723729 0.495219
O O7 0.797252 0.744867 0.394475
O O8 0.227229 0.500000 0.415959
O O9 0.173835 0.725517 0.364376
O O10 0.371270 0.500000 0.153700
O O11 0.275322 0.736662 0.219837
O O12 0.429773 0.772521 0.128393
O O13 0.324130 0.690920 0.079970
O O14 0.186904 0.500000 0.274190
O O15 0.669616 0.500000 0.022936
O O16 0.588774 0.248925 0.059608
O O17 0.750000 0.250000 0.000000
O O18 0.478632 0.000000 0.878018
#
# Coordination Sequence:
#
# PCOD8106773 Si02
#       7
#     8   8   8   8   8   8   8
#     4   9  18  32  50  74 104 136 170 212 261 306
#     4   9  17  30  49  73 101 132 167 209 255 304
#     4   9  17  29  49  75  99 129 169 210 253 303
#     4  10  21  37  56  77 104 139 175 213 261 313
#     4   9  17  31  51  74 101 132 169 213 258 306
#     4  11  23  39  59  82 109 140 173 212 261 312
#     4  11  22  36  56  80 106 139 178 217 258 306
#
# _framework density 19.246525999999999
#
# number of rings (size 3 to 8) (size 9 to 14) (size 15 to 20)
#    0.000    2.286    0.000    3.000    0.000    5.714 
#    0.000    3.571    0.000    3.429    0.000    4.000 
#    0.000    0.000    0.000    0.000    0.000    0.000 
#
# Total GULP energy -347214.423989 kJ/mol
# GULP energy per Si atom -12400.515142 kJ/mol
# Density = 1.920272 g / cm^3
# Si number density = 19.246526 Si / 1000 Ang^3
#
#
#
# Elastic Constant Matrix: (Units=GPa)
#
#
# Indices 1 2 3 4 5 6 
#
# 1 103.7748 28.9534 30.1277 -0.0001 2.0852 -0.0002
# 2 28.9534 45.5236 24.2502 -0.0002 3.4013 -0.0006
# 3 30.1277 24.2502 91.0621 0.0000 -2.0855 -0.0001
# 4 -0.0001 -0.0002 0.0000 20.7332 0.0000 1.1032
# 5 2.0852 3.4013 -2.0855 0.0000 35.3270 -0.0001
# 6 -0.0002 -0.0006 -0.0001 1.1032 -0.0001 26.9398
#
#
#
# Elastic Compliance Matrix: (Units=1/GPa)
#
#
# Indices 1 2 3 4 5 6 
#
# 1 0.012109 -0.006465 -0.002290 0.000000 -0.000228 0.000000
# 2 -0.006465 0.029343 -0.005739 0.000000 -0.002782 0.000001
# 3 -0.002290 -0.005739 0.013301 0.000000 0.001473 0.000000
# 4 0.000000 0.000000 0.000000 0.048337 0.000000 -0.001979
# 5 -0.000228 -0.002782 0.001473 0.000000 0.028675 0.000000
# 6 0.000000 0.000001 0.000000 -0.001979 0.000000 0.037201
#
#
# Mechanical properties :
#
#
# Convention : Reuss Voigt Hill
#
# Bulk Modulus (GPa) = 38.81052 45.22479 42.01766
# Shear Modulus (GPa) = 24.20795 27.06861 25.63828
#
# Velocity S-wave (km/s) = 3.55037 3.75429 3.65375
# Velocity P-wave (km/s) = 6.08404 6.50704 6.29909
#
# Compressibility (1/GPa) = 0.02576621
#
# Stress axis : x y z
#
# Youngs Moduli (GPa) = 82.58092 34.07919 75.18097
#
# Poissons Ratio (x) = 0.22032 0.17216
# Poissons Ratio (y) = 0.53387 0.43147
# Poissons Ratio (z) = 0.18911 0.19559
#
# Static dielectric constant tensor:
#      x y z
#    x 3.353360 0.000000 0.110690 
#    y 0.000000 3.235740 0.000000 
#    z 0.110690 0.000000 3.802020 
# 
# 
# High freq. dielectric constant tensor:
#      x y z
#    x 1.755340 0.000000 -0.001470 
#    y 0.000000 1.716580 0.000000 
#    z -0.001470 0.000000 1.768120 
# 
# From -- ./inp_files/275259.got.cif
#   From: 2010.06.25/outbox.cif.g09.slc.cpg/sg12_138_cif.got.tgz:275259.got - 2010.06.28 00:19:55.
