data_PCOD8106878
_publ_section_title
;
Structure prediction by ZEFSAII (Michael W. Deem and Ramdas Pophale) SiO2 
 PCOD8106878
Probable space group: C 2/M
;
_chemical_formula_sum "Si O2"
_cell_formula_units_Z 64
_cell_length_a 26.285369
_cell_length_b 14.566388
_cell_length_c 9.203256
_cell_angle_alpha 90.000000
_cell_angle_beta 76.585886
_cell_angle_gamma 90.000000
_cell_volume 3427.636406
_symmetry_space_group_name_H-M "C 2/M"
_symmetry_group_IT_number 12
_symmetry_cell_setting 'monoclinic'
loop_
_space_group_symop_operation_xyz
x,y,z
-x,y,-z
-x,-y,-z
x,-y,z
1/2+x,1/2+y,z
1/2-x,1/2+y,-z
1/2-x,1/2-y,-z
1/2+x,1/2-y,z
loop_
_atom_site_type_symbol
_atom_site_label
_atom_site_fract_x
_atom_site_fract_y
_atom_site_fract_z
Si Si1 0.796936 0.600720 0.660159
Si Si2 0.977871 0.603946 0.664347
Si Si3 0.624314 0.212929 0.224710
Si Si4 0.326683 0.397011 0.761432
Si Si5 0.695703 0.603371 0.899529
Si Si6 0.851388 0.284873 0.112361
Si Si7 0.950322 0.396869 0.125567
Si Si8 0.262559 0.162462 0.391869
O O1 0.810479 0.500000 0.709984
O O2 0.845993 0.665409 0.660845
O O3 0.747226 0.639352 0.782129
O O4 0.786095 0.592217 0.494506
O O5 0.954398 0.500000 0.671842
O O6 0.934557 0.675546 0.749232
O O7 0.000000 0.640736 0.500000
O O8 0.030384 0.603626 0.723400
O O9 0.626164 0.322563 0.257277
O O10 0.653404 0.187106 0.054324
O O11 0.350034 0.500000 0.725886
O O12 0.289927 0.374884 0.648313
O O13 0.294032 0.392533 0.933988
O O14 0.680625 0.500000 0.859849
O O15 0.649540 0.673162 0.881174
O O16 0.905146 0.322284 0.141174
O O17 0.803819 0.325161 0.235661
O O18 0.931554 0.500000 0.090944
O O19 0.000000 0.365552 0.000000
O O20 0.250000 0.250000 0.500000
#
# Coordination Sequence:
#
# PCOD8106878 Si02
#       8
#     8   8   8   8   8   8   8   8
#     4  11  22  35  53  80 116 149 184 232 281 335
#     4  10  22  39  59  83 113 145 182 236 294 343
#     4  11  21  37  59  83 108 150 196 232 276 342
#     4  10  21  37  57  80 113 151 189 229 277 333
#     4   9  19  37  57  80 111 151 191 229 276 335
#     4  11  22  36  60  82 113 153 193 234 282 339
#     4  10  21  38  57  82 113 146 187 235 290 344
#     4  12  22  36  53  84 120 150 189 235 282 338
#
# _framework density 18.671759000000002
#
# number of rings (size 3 to 8) (size 9 to 14) (size 15 to 20)
#    0.000    1.500    3.750    1.500    1.750    3.500 
#    0.000    0.000    0.000    1.500    0.000    0.000 
#    0.000    0.000    0.000    0.000    0.000    0.000 
#
# Total GULP energy -396589.550541 kJ/mol
# GULP energy per Si atom -12393.423454 kJ/mol
# Density = 1.862926 g / cm^3
# Si number density = 18.671759 Si / 1000 Ang^3
#
#
#
# Elastic Constant Matrix: (Units=GPa)
#
#
# Indices 1 2 3 4 5 6 
#
# 1 74.7526 54.1221 15.4416 0.0000 4.7675 0.0000
# 2 54.1221 106.0402 25.0778 0.0000 -2.6139 0.0000
# 3 15.4416 25.0778 82.3281 0.0000 6.7172 0.0000
# 4 0.0000 0.0000 0.0000 23.3773 0.0000 2.5578
# 5 4.7675 -2.6139 6.7172 0.0000 22.1252 0.0000
# 6 0.0000 0.0000 0.0000 2.5578 0.0000 28.9543
#
#
#
# Elastic Compliance Matrix: (Units=1/GPa)
#
#
# Indices 1 2 3 4 5 6 
#
# 1 0.022009 -0.011339 -0.000182 0.000000 -0.006027 0.000000
# 2 -0.011339 0.016109 -0.003214 0.000000 0.005322 0.000000
# 3 -0.000182 -0.003214 0.013523 0.000000 -0.004446 0.000000
# 4 0.000000 0.000000 0.000000 0.043194 0.000000 -0.003816
# 5 -0.006027 0.005322 -0.004446 0.000000 0.048475 0.000000
# 6 0.000000 0.000000 0.000000 -0.003816 0.000000 0.034874
#
#
# Mechanical properties :
#
#
# Convention : Reuss Voigt Hill
#
# Bulk Modulus (GPa) = 45.10729 50.26708 47.68719
# Shear Modulus (GPa) = 23.25106 26.12331 24.68718
#
# Velocity S-wave (km/s) = 3.53264 3.74449 3.64011
# Velocity P-wave (km/s) = 6.39139 6.75831 6.57741
#
# Compressibility (1/GPa) = 0.02216937
#
# Stress axis : x y z
#
# Youngs Moduli (GPa) = 45.43635 62.07754 73.95001
#
# Poissons Ratio (x) = 0.70387 0.01350
# Poissons Ratio (y) = 0.51518 0.23771
# Poissons Ratio (z) = 0.00829 0.19955
#
# Static dielectric constant tensor:
#      x y z
#    x 3.383270 0.000000 0.230640 
#    y 0.000000 3.635280 0.000000 
#    z 0.230640 0.000000 3.698970 
# 
# 
# High freq. dielectric constant tensor:
#      x y z
#    x 1.690290 0.000000 0.016320 
#    y 0.000000 1.726250 0.000000 
#    z 0.016320 0.000000 1.737840 
# 
# From -- ./inp_files/104531.got.cif
#   From: 2010.06.25/outbox.cif.g09.slc.cpg/sg12_53_cif.got.tgz:104531.got - 2010.06.28 00:19:55.
