data_PCOD8106935
_publ_section_title
;
Structure prediction by ZEFSAII (Michael W. Deem and Ramdas Pophale) SiO2 
 PCOD8106935
Probable space group: C 2/M
;
_chemical_formula_sum "Si O2"
_cell_formula_units_Z 56
_cell_length_a 17.931712
_cell_length_b 13.489816
_cell_length_c 13.813642
_cell_angle_alpha 90.000000
_cell_angle_beta 126.988670
_cell_angle_gamma 90.000000
_cell_volume 2669.004437
_symmetry_space_group_name_H-M "C 2/M"
_symmetry_group_IT_number 12
_symmetry_cell_setting 'monoclinic'
loop_
_space_group_symop_operation_xyz
x,y,z
-x,y,-z
-x,-y,-z
x,-y,z
1/2+x,1/2+y,z
1/2-x,1/2+y,-z
1/2-x,1/2-y,-z
1/2+x,1/2-y,z
loop_
_atom_site_type_symbol
_atom_site_label
_atom_site_fract_x
_atom_site_fract_y
_atom_site_fract_z
Si Si1 0.132358 0.198924 0.491595
Si Si2 0.401371 0.891191 0.976812
Si Si3 0.464512 0.388389 0.271706
Si Si4 0.237069 0.108979 0.192441
Si Si5 0.206661 0.821738 0.756935
Si Si6 0.436572 0.316060 0.045250
Si Si7 0.243572 0.610056 0.575124
O O1 0.164808 0.154885 0.619068
O O2 0.156106 0.315096 0.500589
O O3 0.180127 0.135665 0.444624
O O4 0.021911 0.183747 0.388878
O O5 0.312861 0.863556 0.838581
O O6 0.383020 0.000000 0.011230
O O7 0.500000 0.898566 0.000000
O O8 0.407282 0.797137 0.053995
O O9 0.496975 0.500000 0.316331
O O10 0.354696 0.376479 0.209501
O O11 0.485735 0.363792 0.176136
O O12 0.302440 0.204191 0.224605
O O13 0.205971 0.117198 0.280841
O O14 0.284773 0.000000 0.212098
O O15 0.150109 0.115575 0.052141
O O16 0.500000 0.309852 0.000000
O O17 0.203574 0.500000 0.525590
#
# Coordination Sequence:
#
# PCOD8106935 Si02
#       7
#     8   8   8   8   8   8   8
#     4  10  21  37  57  84 118 153 192 236 282 338
#     4   9  19  37  61  86 113 148 189 233 284 340
#     4  12  25  38  56  84 116 152 193 235 286 347
#     4   9  18  35  58  81 108 144 185 234 288 335
#     4  10  22  39  57  82 118 153 190 237 286 342
#     4  10  21  37  57  83 113 144 186 239 287 338
#     4   9  18  34  58  85 111 145 193 244 288 332
#
# _framework density 20.981607
#
# number of rings (size 3 to 8) (size 9 to 14) (size 15 to 20)
#    0.000    2.143    0.000    2.571    0.000   10.857 
#    0.000    5.000    0.000    3.429    0.000    0.000 
#    0.000    0.000    0.000    0.000    0.000    0.000 
#
# Total GULP energy -346921.871912 kJ/mol
# GULP energy per Si atom -12390.066854 kJ/mol
# Density = 2.093385 g / cm^3
# Si number density = 20.981607 Si / 1000 Ang^3
#
#
#
# Elastic Constant Matrix: (Units=GPa)
#
#
# Indices 1 2 3 4 5 6 
#
# 1 67.4823 27.9941 32.2316 0.0000 10.2669 0.0000
# 2 27.9941 157.1647 31.0930 0.0000 5.6165 0.0000
# 3 32.2316 31.0930 95.8263 0.0000 15.4873 0.0000
# 4 0.0000 0.0000 0.0000 23.2034 0.0000 0.5632
# 5 10.2669 5.6165 15.4873 0.0000 27.6511 0.0000
# 6 0.0000 0.0000 0.0000 0.5632 0.0000 22.3463
#
#
#
# Elastic Compliance Matrix: (Units=1/GPa)
#
#
# Indices 1 2 3 4 5 6 
#
# 1 0.018670 -0.002211 -0.004964 0.000000 -0.003703 0.000000
# 2 -0.002211 0.007062 -0.001593 0.000000 0.000279 0.000000
# 3 -0.004964 -0.001593 0.013493 0.000000 -0.005391 0.000000
# 4 0.000000 0.000000 0.000000 0.043124 0.000000 -0.001087
# 5 -0.003703 0.000279 -0.005391 0.000000 0.040503 0.000000
# 6 0.000000 0.000000 0.000000 -0.001087 0.000000 0.044778
#
#
# Mechanical properties :
#
#
# Convention : Reuss Voigt Hill
#
# Bulk Modulus (GPa) = 46.10462 55.90117 51.00290
# Shear Modulus (GPa) = 25.98830 29.91713 27.95271
#
# Velocity S-wave (km/s) = 3.52323 3.78017 3.65396
# Velocity P-wave (km/s) = 6.21066 6.76415 6.49331
#
# Compressibility (1/GPa) = 0.02168980
#
# Stress axis : x y z
#
# Youngs Moduli (GPa) = 53.56115 141.60844 74.11135
#
# Poissons Ratio (x) = 0.31312 0.36788
# Poissons Ratio (y) = 0.11843 0.11803
# Poissons Ratio (z) = 0.26587 0.22553
#
# Static dielectric constant tensor:
#      x y z
#    x 3.497730 0.000000 0.081480 
#    y 0.000000 4.276440 0.000000 
#    z 0.081480 0.000000 3.701590 
# 
# 
# High freq. dielectric constant tensor:
#      x y z
#    x 1.791440 0.000000 0.004210 
#    y 0.000000 1.841890 0.000000 
#    z 0.004210 0.000000 1.812860 
# 
# From -- ./inp_files/156762.got.cif
#   From: 2010.06.25/outbox.cif.g09.slc.cpg/sg12_79_cif.got.tgz:156762.got - 2010.06.28 00:19:55.
