data_PCOD8106735
_publ_section_title
;
Structure prediction by ZEFSAII (Michael W. Deem and Ramdas Pophale) SiO2 
 PCOD8106735
Probable space group: C 2/M
;
_chemical_formula_sum "Si O2"
_cell_formula_units_Z 56
_cell_length_a 15.707834
_cell_length_b 9.272166
_cell_length_c 23.034607
_cell_angle_alpha 90.000000
_cell_angle_beta 59.256403
_cell_angle_gamma 90.000000
_cell_volume 2883.405806
_symmetry_space_group_name_H-M "C 2/M"
_symmetry_group_IT_number 12
_symmetry_cell_setting 'monoclinic'
loop_
_space_group_symop_operation_xyz
x,y,z
-x,y,-z
-x,-y,-z
x,-y,z
1/2+x,1/2+y,z
1/2-x,1/2+y,-z
1/2-x,1/2-y,-z
1/2+x,1/2-y,z
loop_
_atom_site_type_symbol
_atom_site_label
_atom_site_fract_x
_atom_site_fract_y
_atom_site_fract_z
Si Si1 0.054588 0.167480 0.421179
Si Si2 0.280931 0.831715 0.335232
Si Si3 0.259764 0.331146 0.936569
Si Si4 0.572574 0.659734 0.208111
Si Si5 0.474738 0.828577 0.338517
Si Si6 0.100943 0.838055 0.930447
Si Si7 0.373672 0.656502 0.208681
O O1 0.169415 0.213780 0.391673
O O2 0.996039 0.260310 0.393749
O O3 0.000000 0.198442 0.500000
O O4 0.048170 0.000000 0.405159
O O5 0.364154 0.782506 0.353901
O O6 0.298163 0.766625 0.264973
O O7 0.291236 0.000000 0.323669
O O8 0.267038 0.500000 0.946886
O O9 0.352810 0.276813 0.866072
O O10 0.164621 0.291361 0.933034
O O11 0.250000 0.250000 0.000000
O O12 0.608438 0.500000 0.216817
O O13 0.561594 0.768970 0.265844
O O14 0.467420 0.644122 0.216265
O O15 0.484288 0.000000 0.339166
O O16 0.088422 0.795273 0.867638
O O17 0.147006 0.000000 0.920955
O O18 0.000000 0.834813 0.000000
O O19 0.321086 0.500000 0.223359
#
# Coordination Sequence:
#
# PCOD8106735 Si02
#       7
#     8   8   8   8   8   8   8
#     4  10  22  40  61  85 117 158 197 234 287 357
#     4   9  20  38  58  83 117 152 189 238 291 340
#     4  11  23  37  55  79 109 146 189 236 286 341
#     4   9  19  37  58  80 109 147 187 228 280 342
#     4  10  21  37  59  88 119 150 190 243 294 339
#     4  10  21  37  55  77 110 148 186 233 284 337
#     4   9  18  34  57  81 106 142 186 229 278 337
#
# _framework density 19.421476999999999
#
# number of rings (size 3 to 8) (size 9 to 14) (size 15 to 20)
#    0.000    2.286    0.000    1.714    2.000    6.286 
#    0.000    2.857    0.000    0.000    0.000    0.000 
#    0.000    0.000    0.000    0.000    0.000    0.000 
#
# Total GULP energy -347015.663133 kJ/mol
# GULP energy per Si atom -12393.416540 kJ/mol
# Density = 1.937727 g / cm^3
# Si number density = 19.421477 Si / 1000 Ang^3
#
#
#
# Elastic Constant Matrix: (Units=GPa)
#
#
# Indices 1 2 3 4 5 6 
#
# 1 75.9511 48.8433 60.7659 0.0000 0.1569 0.0000
# 2 48.8433 64.6323 59.4551 0.0000 4.7704 0.0001
# 3 60.7659 59.4551 160.4575 0.0000 -0.0014 0.0000
# 4 0.0000 0.0000 0.0000 33.6444 0.0000 4.0052
# 5 0.1569 4.7704 -0.0014 0.0000 33.3139 0.0000
# 6 0.0000 0.0001 0.0000 4.0052 0.0000 29.3990
#
#
#
# Elastic Compliance Matrix: (Units=1/GPa)
#
#
# Indices 1 2 3 4 5 6 
#
# 1 0.027449 -0.017225 -0.004013 0.000000 0.002337 0.000000
# 2 -0.017225 0.034664 -0.006321 0.000000 -0.004883 0.000000
# 3 -0.004013 -0.006321 0.010094 0.000000 0.000924 0.000000
# 4 0.000000 0.000000 0.000000 0.030213 0.000000 -0.004116
# 5 0.002337 -0.004883 0.000924 0.000000 0.030706 0.000000
# 6 0.000000 0.000000 0.000000 -0.004116 0.000000 0.034576
#
#
# Mechanical properties :
#
#
# Convention : Reuss Voigt Hill
#
# Bulk Modulus (GPa) = 58.51368 71.01884 64.76626
# Shear Modulus (GPa) = 21.88036 28.06989 24.97512
#
# Velocity S-wave (km/s) = 3.36014 3.80584 3.58991
# Velocity P-wave (km/s) = 6.72665 7.48058 7.11361
#
# Compressibility (1/GPa) = 0.01709002
#
# Stress axis : x y z
#
# Youngs Moduli (GPa) = 36.43131 28.84800 99.06794
#
# Poissons Ratio (x) = 0.49690 0.39753
# Poissons Ratio (y) = 0.62752 0.62624
# Poissons Ratio (z) = 0.14619 0.18236
#
# Static dielectric constant tensor:
#      x y z
#    x 3.596890 0.000000 -0.082120 
#    y 0.000000 3.812150 0.000000 
#    z -0.082120 0.000000 3.550020 
# 
# 
# High freq. dielectric constant tensor:
#      x y z
#    x 1.751530 0.000000 0.001890 
#    y 0.000000 1.752240 0.000000 
#    z 0.001890 0.000000 1.762370 
# 
# From -- ./inp_files/338541.got.cif
#   From: 2010.06.25/outbox.cif.g09.slc.cpg/sg12_170_cif.got.tgz:338541.got - 2010.06.28 00:19:55.
