data_PCOD8106246
_publ_section_title
;
Structure prediction by ZEFSAII (Michael W. Deem and Ramdas Pophale) SiO2 
 PCOD8106246
Probable space group: C 2/M
;
_chemical_formula_sum "Si O2"
_cell_formula_units_Z 52
_cell_length_a 14.393763
_cell_length_b 9.793837
_cell_length_c 25.162377
_cell_angle_alpha 90.000000
_cell_angle_beta 138.504257
_cell_angle_gamma 90.000000
_cell_volume 2350.211687
_symmetry_space_group_name_H-M "C 2/M"
_symmetry_group_IT_number 12
_symmetry_cell_setting 'monoclinic'
loop_
_space_group_symop_operation_xyz
x,y,z
-x,y,-z
-x,-y,-z
x,-y,z
1/2+x,1/2+y,z
1/2-x,1/2+y,-z
1/2-x,1/2-y,-z
1/2+x,1/2-y,z
loop_
_atom_site_type_symbol
_atom_site_label
_atom_site_fract_x
_atom_site_fract_y
_atom_site_fract_z
Si Si1 0.000000 0.751435 0.000000
Si Si2 0.804482 0.847613 0.120696
Si Si3 0.908367 0.348725 0.411271
Si Si4 0.470559 0.346810 0.871149
Si Si5 0.197863 0.348604 0.266790
Si Si6 0.475116 0.850683 0.256173
Si Si7 0.641385 0.150296 0.426188
O O1 0.863786 0.659930 0.954950
O O2 0.987801 0.843609 0.942078
O O3 0.848599 0.751589 0.189254
O O4 0.884583 0.811060 0.099184
O O5 0.846732 0.000000 0.155114
O O6 0.842211 0.500000 0.395908
O O7 0.796969 0.232430 0.350037
O O8 0.000000 0.295638 0.500000
O O9 0.004989 0.365619 0.402407
O O10 0.424129 0.500000 0.835622
O O11 0.342299 0.244092 0.801313
O O12 0.258603 0.500000 0.276871
O O13 0.053340 0.372430 0.234621
O O14 0.584479 0.788865 0.346154
O O15 0.418627 0.000000 0.251434
O O16 0.750000 0.250000 0.500000
O O17 0.710957 0.000000 0.447574
#
# Coordination Sequence:
#
# PCOD8106246 Si02
#       7
#     4   8   8   8   8   8   8
#     4  12  24  40  66  98 124 160 214 266 316 378
#     4  10  23  42  64  92 127 164 205 260 319 373
#     4  10  21  36  56  85 121 159 201 248 301 363
#     4  10  23  43  65  91 124 166 211 255 314 383
#     4  10  21  38  61  87 118 156 199 254 313 362
#     4   9  20  39  60  84 118 157 201 250 303 364
#     4  10  21  36  56  84 116 155 198 246 296 355
#
# _framework density 22.125665999999999
#
# number of rings (size 3 to 8) (size 9 to 14) (size 15 to 20)
#    0.000    2.000    0.000    2.308    2.154    4.615 
#    0.000    3.077    0.000    0.000    0.000    0.000 
#    0.000    0.000    0.000    0.000    0.000    0.000 
#
# Total GULP energy -322128.816712 kJ/mol
# GULP energy per Si atom -12389.569874 kJ/mol
# Density = 2.207531 g / cm^3
# Si number density = 22.125666 Si / 1000 Ang^3
#
#
#
# Elastic Constant Matrix: (Units=GPa)
#
#
# Indices 1 2 3 4 5 6 
#
# 1 68.2267 30.0424 33.0580 0.0000 -7.9907 0.0000
# 2 30.0424 150.8339 85.7487 0.0000 2.8982 0.0000
# 3 33.0580 85.7487 149.2461 0.0000 -11.8699 0.0000
# 4 0.0000 0.0000 0.0000 45.7386 0.0000 0.4265
# 5 -7.9907 2.8982 -11.8699 0.0000 34.7439 0.0000
# 6 0.0000 0.0000 0.0000 0.4265 0.0000 15.0344
#
#
#
# Elastic Compliance Matrix: (Units=1/GPa)
#
#
# Indices 1 2 3 4 5 6 
#
# 1 0.017109 -0.002181 -0.002271 0.000000 0.003341 0.000000
# 2 -0.002181 0.010402 -0.005759 0.000000 -0.003337 0.000000
# 3 -0.002271 -0.005759 0.010802 0.000000 0.003649 0.000000
# 4 0.000000 0.000000 0.000000 0.021869 0.000000 -0.000620
# 5 0.003341 -0.003337 0.003649 0.000000 0.031075 0.000000
# 6 0.000000 0.000000 0.000000 -0.000620 0.000000 0.066532
#
#
# Mechanical properties :
#
#
# Convention : Reuss Voigt Hill
#
# Bulk Modulus (GPa) = 55.89051 74.00056 64.94553
# Shear Modulus (GPa) = 27.14810 33.73388 30.44099
#
# Velocity S-wave (km/s) = 3.50665 3.90891 3.71323
# Velocity P-wave (km/s) = 6.45839 7.34105 6.91382
#
# Compressibility (1/GPa) = 0.01789213
#
# Stress axis : x y z
#
# Youngs Moduli (GPa) = 58.44897 96.13370 92.57341
#
# Poissons Ratio (x) = 0.20966 0.21023
# Poissons Ratio (y) = 0.12747 0.53312
# Poissons Ratio (z) = 0.13273 0.55362
#
# Static dielectric constant tensor:
#      x y z
#    x 3.947310 0.000000 -0.133580 
#    y 0.000000 4.510720 0.000000 
#    z -0.133580 0.000000 2.834820 
# 
# 
# High freq. dielectric constant tensor:
#      x y z
#    x 1.864430 0.000000 -0.012880 
#    y 0.000000 1.871750 0.000000 
#    z -0.012880 0.000000 1.863880 
# 
# From -- ./inp_files/339641.got.cif
#   From: 2010.06.25/outbox.cif.g09.slc.cpg/sg12_170_cif.got.tgz:339641.got - 2010.06.28 00:19:55.
