data_PCOD8106193
_publ_section_title
;
Structure prediction by ZEFSAII (Michael W. Deem and Ramdas Pophale) SiO2 
 PCOD8106193
Probable space group: C 2/M
;
_chemical_formula_sum "Si O2"
_cell_formula_units_Z 56
_cell_length_a 19.299861
_cell_length_b 9.217000
_cell_length_c 17.585976
_cell_angle_alpha 90.000000
_cell_angle_beta 61.275677
_cell_angle_gamma 90.000000
_cell_volume 2743.350040
_symmetry_space_group_name_H-M "C 2/M"
_symmetry_group_IT_number 12
_symmetry_cell_setting 'monoclinic'
loop_
_space_group_symop_operation_xyz
x,y,z
-x,y,-z
-x,-y,-z
x,-y,z
1/2+x,1/2+y,z
1/2-x,1/2+y,-z
1/2-x,1/2-y,-z
1/2+x,1/2-y,z
loop_
_atom_site_type_symbol
_atom_site_label
_atom_site_fract_x
_atom_site_fract_y
_atom_site_fract_z
Si Si1 0.321064 0.336751 0.553210
Si Si2 0.144016 0.663487 0.612594
Si Si3 0.581832 0.328025 0.923196
Si Si4 0.572454 0.166496 0.405170
Si Si5 0.262487 0.329934 0.072827
Si Si6 0.037679 0.829058 0.781486
Si Si7 0.093842 0.334345 0.221110
O O1 0.351330 0.500000 0.519777
O O2 0.227361 0.336699 0.611109
O O3 0.349149 0.223041 0.475545
O O4 0.356339 0.275536 0.612708
O O5 0.108996 0.500000 0.627035
O O6 0.087309 0.770930 0.685564
O O7 0.582727 0.500000 0.930123
O O8 0.659274 0.266938 0.925799
O O9 0.581601 0.279742 0.835289
O O10 0.500000 0.265229 0.000000
O O11 0.500000 0.203652 0.500000
O O12 0.556253 0.196837 0.324604
O O13 0.599181 0.000000 0.401935
O O14 0.272455 0.500000 0.050797
O O15 0.187485 0.300491 0.167624
O O16 0.250000 0.250000 0.000000
O O17 0.949799 0.763235 0.819395
O O18 0.029532 0.000000 0.781642
O O19 0.078343 0.500000 0.206586
#
# Coordination Sequence:
#
# PCOD8106193 Si02
#       7
#     8   8   8   8   8   8   8
#     4  10  21  36  56  83 113 151 199 249 295 346
#     4  10  21  37  56  81 117 156 192 242 301 355
#     4   9  19  36  59  87 118 152 192 239 293 351
#     4  10  21  36  56  81 114 159 202 243 299 358
#     4  10  21  39  62  88 119 157 198 244 299 359
#     4  11  22  36  61  89 115 152 199 248 293 349
#     4  10  22  38  58  85 121 162 200 244 303 364
#
# _framework density 20.412998999999999
#
# number of rings (size 3 to 8) (size 9 to 14) (size 15 to 20)
#    0.000    2.000    0.000    3.000    2.000    5.429 
#    0.000    1.429    0.000    3.857    0.000    0.000 
#    0.000    0.000    0.000    0.000    0.000    0.000 
#
# Total GULP energy -347151.714622 kJ/mol
# GULP energy per Si atom -12398.275522 kJ/mol
# Density = 2.036654 g / cm^3
# Si number density = 20.412999 Si / 1000 Ang^3
#
#
#
# Elastic Constant Matrix: (Units=GPa)
#
#
# Indices 1 2 3 4 5 6 
#
# 1 152.6211 57.0038 48.9505 0.0000 11.1495 0.0000
# 2 57.0038 75.3913 27.1617 0.0000 9.4691 0.0001
# 3 48.9505 27.1617 80.3144 0.0000 -7.2573 0.0000
# 4 0.0000 0.0000 0.0000 23.3038 0.0000 4.7923
# 5 11.1495 9.4691 -7.2573 0.0000 27.0498 0.0000
# 6 0.0000 0.0001 0.0000 4.7923 0.0000 33.1391
#
#
#
# Elastic Compliance Matrix: (Units=1/GPa)
#
#
# Indices 1 2 3 4 5 6 
#
# 1 0.010500 -0.005769 -0.004773 0.000000 -0.003589 0.000000
# 2 -0.005769 0.019611 -0.003610 0.000000 -0.005456 0.000000
# 3 -0.004773 -0.003610 0.017292 0.000000 0.007870 0.000000
# 4 0.000000 0.000000 0.000000 0.044227 0.000000 -0.006396
# 5 -0.003589 -0.005456 0.007870 0.000000 0.042470 0.000000
# 6 0.000000 0.000000 0.000000 -0.006396 0.000000 0.031101
#
#
# Mechanical properties :
#
#
# Convention : Reuss Voigt Hill
#
# Bulk Modulus (GPa) = 52.35293 63.83987 58.09640
# Shear Modulus (GPa) = 25.01636 28.37926 26.69781
#
# Velocity S-wave (km/s) = 3.50453 3.73266 3.62039
# Velocity P-wave (km/s) = 6.48677 7.06534 6.78222
#
# Compressibility (1/GPa) = 0.01910113
#
# Stress axis : x y z
#
# Youngs Moduli (GPa) = 95.24061 50.99051 57.83049
#
# Poissons Ratio (x) = 0.29414 0.27602
# Poissons Ratio (y) = 0.54940 0.20874
# Poissons Ratio (z) = 0.45457 0.18405
#
# Static dielectric constant tensor:
#      x y z
#    x 4.034270 0.000000 -0.023310 
#    y 0.000000 3.549120 0.000000 
#    z -0.023310 0.000000 3.644630 
# 
# 
# High freq. dielectric constant tensor:
#      x y z
#    x 1.812440 0.000000 -0.000920 
#    y 0.000000 1.781860 0.000000 
#    z -0.000920 0.000000 1.792180 
# 
# From -- ./inp_files/280852.got.cif
#   From: 2010.06.25/outbox.cif.g09.slc.cpg/sg12_141_cif.got.tgz:280852.got - 2010.06.28 00:19:55.
