data_PCOD8106555
_publ_section_title
;
Structure prediction by ZEFSAII (Michael W. Deem and Ramdas Pophale) SiO2 
 PCOD8106555
Probable space group: C 2/M
;
_chemical_formula_sum "Si O2"
_cell_formula_units_Z 40
_cell_length_a 27.776065
_cell_length_b 8.524584
_cell_length_c 22.336671
_cell_angle_alpha 90.000000
_cell_angle_beta 159.114440
_cell_angle_gamma 90.000000
_cell_volume 1885.493311
_symmetry_space_group_name_H-M "C 2/M"
_symmetry_group_IT_number 12
_symmetry_cell_setting 'monoclinic'
loop_
_space_group_symop_operation_xyz
x,y,z
-x,y,-z
-x,-y,-z
x,-y,z
1/2+x,1/2+y,z
1/2-x,1/2+y,-z
1/2-x,1/2-y,-z
1/2+x,1/2-y,z
loop_
_atom_site_type_symbol
_atom_site_label
_atom_site_fract_x
_atom_site_fract_y
_atom_site_fract_z
Si Si1 0.897375 0.319768 0.107176
Si Si2 0.858579 0.813111 0.810132
Si Si3 0.858220 0.814093 0.673224
Si Si4 0.592327 0.323068 0.753998
Si Si5 0.586756 0.818927 0.547577
O O1 0.928808 0.500000 0.160512
O O2 0.919278 0.209964 0.189564
O O3 0.995242 0.258635 0.169280
O O4 0.744524 0.300478 0.906695
O O5 0.827089 0.760494 0.705169
O O6 0.736958 0.747991 0.711203
O O7 0.862213 0.000000 0.816514
O O8 0.000000 0.744694 0.000000
O O9 0.750000 0.750000 0.500000
O O10 0.863053 0.000000 0.673175
O O11 0.542650 0.500000 0.684191
O O12 0.497041 0.200100 0.610428
O O13 0.500000 0.735134 0.500000
O O14 0.603971 0.000000 0.583476
#
# Coordination Sequence:
#
# PCOD8106555 Si02
#       5
#     8   8   8   8   8
#     4  10  21  37  58  85 118 152 195 248 300 360
#     4   9  20  38  58  85 120 156 197 245 295 353
#     4  11  22  36  61  88 119 160 202 249 305 364
#     4  10  21  37  58  85 118 154 194 246 305 360
#     4  10  21  36  60  88 115 153 200 247 294 354
#
# _framework density 21.214607000000001
#
# number of rings (size 3 to 8) (size 9 to 14) (size 15 to 20)
#    0.000    2.000    0.000    3.000    2.800    4.400 
#    0.000    1.000    0.000    3.000    0.000    0.000 
#    0.000    0.000    0.000    0.000    0.000    0.000 
#
# Total GULP energy -247949.952389 kJ/mol
# GULP energy per Si atom -12397.497619 kJ/mol
# Density = 2.116632 g / cm^3
# Si number density = 21.214607 Si / 1000 Ang^3
#
#
#
# Elastic Constant Matrix: (Units=GPa)
#
#
# Indices 1 2 3 4 5 6 
#
# 1 137.1855 20.2156 77.3175 0.0000 30.2227 0.0000
# 2 20.2156 39.4836 21.5560 0.0000 9.5181 0.0000
# 3 77.3175 21.5560 135.5594 0.0000 14.2689 0.0000
# 4 0.0000 0.0000 0.0000 25.0756 0.0000 -0.2587
# 5 30.2227 9.5181 14.2689 0.0000 41.9359 0.0000
# 6 0.0000 0.0000 0.0000 -0.2587 0.0000 24.7368
#
#
#
# Elastic Compliance Matrix: (Units=1/GPa)
#
#
# Indices 1 2 3 4 5 6 
#
# 1 0.012411 -0.001415 -0.006167 0.000000 -0.006525 0.000000
# 2 -0.001415 0.028933 -0.003329 0.000000 -0.004415 0.000000
# 3 -0.006167 -0.003329 0.011280 0.000000 0.001362 0.000000
# 4 0.000000 0.000000 0.000000 0.039884 0.000000 0.000417
# 5 -0.006525 -0.004415 0.001362 0.000000 0.029087 0.000000
# 6 0.000000 0.000000 0.000000 0.000417 0.000000 0.040430
#
#
# Mechanical properties :
#
#
# Convention : Reuss Voigt Hill
#
# Bulk Modulus (GPa) = 32.46472 61.15628 46.81050
# Shear Modulus (GPa) = 25.75799 31.22561 28.49180
#
# Velocity S-wave (km/s) = 3.48826 3.84069 3.66871
# Velocity P-wave (km/s) = 5.61785 6.96835 6.32922
#
# Compressibility (1/GPa) = 0.03080267
#
# Stress axis : x y z
#
# Youngs Moduli (GPa) = 80.57320 34.56251 88.65024
#
# Poissons Ratio (x) = 0.04889 0.54671
# Poissons Ratio (y) = 0.11398 0.29514
# Poissons Ratio (z) = 0.49689 0.11507
#
# Static dielectric constant tensor:
#      x y z
#    x 4.048760 0.000000 0.315190 
#    y 0.000000 3.513400 0.000000 
#    z 0.315190 0.000000 3.998620 
# 
# 
# High freq. dielectric constant tensor:
#      x y z
#    x 1.837590 0.000000 0.015970 
#    y 0.000000 1.804470 0.000000 
#    z 0.015970 0.000000 1.838060 
# 
# From -- ./inp_files/92830.got.cif
#   From: 2010.06.25/outbox.cif.g09.slc.cpg/sg12_47_cif.got.tgz:92830.got - 2010.06.28 00:19:55.
