data_PCOD8106022
_publ_section_title
;
Structure prediction by ZEFSAII (Michael W. Deem and Ramdas Pophale) SiO2 
 PCOD8106022
Probable space group: C 2/M
;
_chemical_formula_sum "Si O2"
_cell_formula_units_Z 64
_cell_length_a 15.411257
_cell_length_b 9.108986
_cell_length_c 23.733150
_cell_angle_alpha 90.000000
_cell_angle_beta 89.283943
_cell_angle_gamma 90.000000
_cell_volume 3331.421350
_symmetry_space_group_name_H-M "C 2/M"
_symmetry_group_IT_number 12
_symmetry_cell_setting 'monoclinic'
loop_
_space_group_symop_operation_xyz
x,y,z
-x,y,-z
-x,-y,-z
x,-y,z
1/2+x,1/2+y,z
1/2-x,1/2+y,-z
1/2-x,1/2-y,-z
1/2+x,1/2-y,z
loop_
_atom_site_type_symbol
_atom_site_label
_atom_site_fract_x
_atom_site_fract_y
_atom_site_fract_z
Si Si1 0.158143 0.172936 0.867588
Si Si2 0.756252 0.172701 0.559288
Si Si3 0.407809 0.172855 0.365912
Si Si4 0.491029 0.173637 0.064534
Si Si5 0.354968 0.832241 0.735116
Si Si6 0.647865 0.174198 0.139170
Si Si7 0.921944 0.826765 0.628872
Si Si8 0.651528 0.666229 0.739221
O O1 0.256153 0.231386 0.878413
O O2 0.131190 0.210711 0.803708
O O3 0.095835 0.256045 0.910703
O O4 0.151448 0.000000 0.878476
O O5 0.750000 0.250000 0.500000
O O6 0.676277 0.223012 0.598655
O O7 0.844406 0.223752 0.588785
O O8 0.754882 0.000000 0.549594
O O9 0.490479 0.250313 0.394247
O O10 0.400009 0.224737 0.301251
O O11 0.421110 0.000000 0.366793
O O12 0.575922 0.234357 0.096500
O O13 0.483540 0.000000 0.071378
O O14 0.500000 0.221828 0.000000
O O15 0.377902 0.775345 0.797662
O O16 0.404484 0.725787 0.692435
O O17 0.252914 0.819413 0.726032
O O18 0.385902 0.000000 0.725364
O O19 0.652850 0.000000 0.139147
O O20 0.933695 0.000000 0.628619
O O21 0.620629 0.500000 0.727610
#
# Coordination Sequence:
#
# PCOD8106022 Si02
#       8
#     8   8   8   8   8   8   8   8
#     4   9  19  36  56  79 109 146 188 233 283 341
#     4  10  24  44  64  85 117 156 196 240 285 334
#     4  11  23  39  59  88 119 153 193 233 284 347
#     4  10  21  36  54  79 112 150 193 238 284 337
#     4   9  17  33  58  84 112 151 192 230 286 352
#     4   8  17  35  55  77 110 149 185 228 285 343
#     4  11  23  39  58  88 122 152 190 240 289 334
#     4   9  18  34  57  85 116 148 186 236 292 346
#
# _framework density 19.211019
#
# number of rings (size 3 to 8) (size 9 to 14) (size 15 to 20)
#    0.000    2.375    1.250    2.250    1.750    3.750 
#    0.000    5.000    0.000    0.000    0.000    0.000 
#    0.000    0.000    0.000    0.000    0.000    0.000 
#
# Total GULP energy -396835.261392 kJ/mol
# GULP energy per Si atom -12401.101918 kJ/mol
# Density = 1.916729 g / cm^3
# Si number density = 19.211019 Si / 1000 Ang^3
#
#
#
# Elastic Constant Matrix: (Units=GPa)
#
#
# Indices 1 2 3 4 5 6 
#
# 1 121.7984 41.2939 65.5034 0.0000 18.2569 0.0000
# 2 41.2939 53.1756 39.8219 0.0000 2.6726 0.0000
# 3 65.5034 39.8219 122.5813 0.0000 13.8461 0.0000
# 4 0.0000 0.0000 0.0000 30.0672 0.0000 -4.9364
# 5 18.2569 2.6726 13.8461 0.0000 25.4022 0.0000
# 6 0.0000 0.0000 0.0000 -4.9364 0.0000 30.9963
#
#
#
# Elastic Compliance Matrix: (Units=1/GPa)
#
#
# Indices 1 2 3 4 5 6 
#
# 1 0.014082 -0.007321 -0.004359 0.000000 -0.006975 0.000000
# 2 -0.007321 0.028744 -0.006051 0.000000 0.005536 0.000000
# 3 -0.004359 -0.006051 0.012816 0.000000 -0.003216 0.000000
# 4 0.000000 0.000000 0.000000 0.034152 0.000000 0.005439
# 5 -0.006975 0.005536 -0.003216 0.000000 0.045550 0.000000
# 6 0.000000 0.000000 0.000000 0.005439 0.000000 0.033128
#
#
# Mechanical properties :
#
#
# Convention : Reuss Voigt Hill
#
# Bulk Modulus (GPa) = 49.55244 65.64374 57.59809
# Shear Modulus (GPa) = 23.73491 27.35555 25.54523
#
# Velocity S-wave (km/s) = 3.51876 3.77762 3.65049
# Velocity P-wave (km/s) = 6.50835 7.29872 6.91484
#
# Compressibility (1/GPa) = 0.02018064
#
# Stress axis : x y z
#
# Youngs Moduli (GPa) = 71.01312 34.79013 78.02634
#
# Poissons Ratio (x) = 0.25468 0.34011
# Poissons Ratio (y) = 0.51986 0.47215
# Poissons Ratio (z) = 0.30954 0.21052
#
# Static dielectric constant tensor:
#      x y z
#    x 3.758310 0.000000 0.082990 
#    y 0.000000 3.262100 0.000000 
#    z 0.082990 0.000000 3.533770 
# 
# 
# High freq. dielectric constant tensor:
#      x y z
#    x 1.759530 0.000000 0.002250 
#    y 0.000000 1.728030 0.000000 
#    z 0.002250 0.000000 1.743150 
# 
# From -- ./inp_files/338866.got.cif
#   From: 2010.06.25/outbox.cif.g09.slc.cpg/sg12_170_cif.got.tgz:338866.got - 2010.06.28 00:19:55.
