data_PCOD8106362
_publ_section_title
;
Structure prediction by ZEFSAII (Michael W. Deem and Ramdas Pophale) SiO2 
 PCOD8106362
Probable space group: C 2/M
;
_chemical_formula_sum "Si O2"
_cell_formula_units_Z 56
_cell_length_a 15.750920
_cell_length_b 14.400270
_cell_length_c 14.350041
_cell_angle_alpha 90.000000
_cell_angle_beta 126.862772
_cell_angle_gamma 90.000000
_cell_volume 2604.115203
_symmetry_space_group_name_H-M "C 2/M"
_symmetry_group_IT_number 12
_symmetry_cell_setting 'monoclinic'
loop_
_space_group_symop_operation_xyz
x,y,z
-x,y,-z
-x,-y,-z
x,-y,z
1/2+x,1/2+y,z
1/2-x,1/2+y,-z
1/2-x,1/2-y,-z
1/2+x,1/2-y,z
loop_
_atom_site_type_symbol
_atom_site_label
_atom_site_fract_x
_atom_site_fract_y
_atom_site_fract_z
Si Si1 0.518039 0.898959 0.109737
Si Si2 0.732337 0.711225 0.301071
Si Si3 0.620131 0.604862 0.067303
Si Si4 0.319532 0.331515 0.088957
Si Si5 0.412118 0.895900 0.519829
Si Si6 0.977548 0.731109 0.732282
Si Si7 0.259008 0.399216 0.241212
O O1 0.467702 0.840153 0.159145
O O2 0.642597 0.908462 0.207386
O O3 0.462079 0.000000 0.071155
O O4 0.500000 0.846297 0.000000
O O5 0.698303 0.670339 0.178370
O O6 0.803263 0.638746 0.403278
O O7 0.628877 0.724089 0.296885
O O8 0.799910 0.806695 0.323464
O O9 0.630242 0.500000 0.112215
O O10 0.500000 0.641455 0.000000
O O11 0.650175 0.603831 0.978066
O O12 0.427944 0.304865 0.217161
O O13 0.253833 0.385729 0.125558
O O14 0.250000 0.250000 0.000000
O O15 0.500000 0.901646 0.500000
O O16 0.451060 0.822702 0.621133
O O17 0.394270 0.000000 0.550172
O O18 0.316465 0.500000 0.300609
#
# Coordination Sequence:
#
# PCOD8106362 Si02
#       7
#     8   8   8   8   8   8   8
#     4   9  18  33  55  84 118 154 200 251 302 366
#     4  11  22  43  67  88 125 168 217 266 318 381
#     4  11  23  40  63  92 129 173 217 261 317 388
#     4  12  22  36  61  92 132 174 207 260 317 384
#     4  11  25  45  66  94 128 164 214 272 324 384
#     4  11  23  38  64  90 123 170 212 257 316 379
#     4  10  21  36  57  87 122 159 203 258 316 367
#
# _framework density 21.504425000000001
#
# number of rings (size 3 to 8) (size 9 to 14) (size 15 to 20)
#    0.000    1.286    2.857    3.429    2.000    0.571 
#    0.000    1.429    0.000    4.714    0.000    0.000 
#    0.000    0.000    0.000    0.000    0.000    0.000 
#
# Total GULP energy -346984.674318 kJ/mol
# GULP energy per Si atom -12392.309797 kJ/mol
# Density = 2.145548 g / cm^3
# Si number density = 21.504425 Si / 1000 Ang^3
#
#
#
# Elastic Constant Matrix: (Units=GPa)
#
#
# Indices 1 2 3 4 5 6 
#
# 1 52.0578 19.0100 4.3410 0.0000 -2.7702 0.0000
# 2 19.0100 104.4539 34.6173 0.0000 6.5907 0.0000
# 3 4.3410 34.6173 94.5033 0.0000 1.6431 0.0000
# 4 0.0000 0.0000 0.0000 32.4146 0.0000 -9.3741
# 5 -2.7702 6.5907 1.6431 0.0000 27.0141 0.0000
# 6 0.0000 0.0000 0.0000 -9.3741 0.0000 41.7163
#
#
#
# Elastic Compliance Matrix: (Units=1/GPa)
#
#
# Indices 1 2 3 4 5 6 
#
# 1 0.020853 -0.004162 0.000512 0.000000 0.003123 0.000000
# 2 -0.004162 0.011887 -0.004110 0.000000 -0.003077 0.000000
# 3 0.000512 -0.004110 0.012058 0.000000 0.000322 0.000000
# 4 0.000000 0.000000 0.000000 0.032994 0.000000 0.007414
# 5 0.003123 -0.003077 0.000322 0.000000 0.038069 0.000000
# 6 0.000000 0.000000 0.000000 0.007414 0.000000 0.025638
#
#
# Mechanical properties :
#
#
# Convention : Reuss Voigt Hill
#
# Bulk Modulus (GPa) = 34.15375 40.77240 37.46308
# Shear Modulus (GPa) = 29.98013 33.09876 31.53945
#
# Velocity S-wave (km/s) = 3.73787 3.92747 3.83384
# Velocity P-wave (km/s) = 5.87755 6.29030 6.08742
#
# Compressibility (1/GPa) = 0.02927936
#
# Stress axis : x y z
#
# Youngs Moduli (GPa) = 47.95548 84.12413 82.93300
#
# Poissons Ratio (x) = 0.35012 -0.04249
# Poissons Ratio (y) = 0.19959 0.34083
# Poissons Ratio (z) = -0.02457 0.34573
#
# Static dielectric constant tensor:
#      x y z
#    x 3.912480 0.000000 -0.123190 
#    y 0.000000 4.513060 0.000000 
#    z -0.123190 0.000000 3.707710 
# 
# 
# High freq. dielectric constant tensor:
#      x y z
#    x 1.846950 0.000000 -0.010910 
#    y 0.000000 1.854700 0.000000 
#    z -0.010910 0.000000 1.817150 
# 
# From -- ./inp_files/225394.got.cif
#   From: 2010.06.25/outbox.cif.g09.slc.cpg/sg12_113_cif.got.tgz:225394.got - 2010.06.28 00:19:55.
