data_PCOD8106214
_publ_section_title
;
Structure prediction by ZEFSAII (Michael W. Deem and Ramdas Pophale) SiO2 
 PCOD8106214
Probable space group: C 2/M
;
_chemical_formula_sum "Si O2"
_cell_formula_units_Z 48
_cell_length_a 24.007860
_cell_length_b 9.207712
_cell_length_c 16.786542
_cell_angle_alpha 90.000000
_cell_angle_beta 135.318942
_cell_angle_gamma 90.000000
_cell_volume 2609.278130
_symmetry_space_group_name_H-M "C 2/M"
_symmetry_group_IT_number 12
_symmetry_cell_setting 'monoclinic'
loop_
_space_group_symop_operation_xyz
x,y,z
-x,y,-z
-x,-y,-z
x,-y,z
1/2+x,1/2+y,z
1/2-x,1/2+y,-z
1/2-x,1/2-y,-z
1/2+x,1/2-y,z
loop_
_atom_site_type_symbol
_atom_site_label
_atom_site_fract_x
_atom_site_fract_y
_atom_site_fract_z
Si Si1 0.192676 0.331687 0.546952
Si Si2 0.002766 0.672633 0.913844
Si Si3 0.351998 0.830667 0.043438
Si Si4 0.654386 0.170549 0.330360
Si Si5 0.673264 0.330205 0.823811
Si Si6 0.591491 0.169275 0.596575
O O1 0.215197 0.500000 0.571329
O O2 0.273222 0.243451 0.643339
O O3 0.154707 0.287249 0.423745
O O4 0.129196 0.292226 0.549698
O O5 0.001407 0.500000 0.915350
O O6 0.927187 0.731397 0.788564
O O7 0.082749 0.725975 0.952487
O O8 0.000000 0.737644 0.000000
O O9 0.365302 0.742932 0.138091
O O10 0.362650 0.000000 0.074630
O O11 0.267059 0.798766 0.917874
O O12 0.662376 0.000000 0.325072
O O13 0.654548 0.500000 0.807083
O O14 0.635844 0.262569 0.707419
O O15 0.500000 0.214740 0.500000
O O16 0.601035 0.000000 0.627485
#
# Coordination Sequence:
#
# PCOD8106214 Si02
#       6
#     8   8   8   8   8   8
#     4   9  19  35  53  78 106 138 177 217 266 318
#     4   9  18  31  54  84 107 135 180 222 256 308
#     4   9  19  36  58  80 108 146 182 218 264 322
#     4   9  18  33  56  79 104 139 177 218 262 312
#     4  10  21  36  56  83 111 140 178 224 276 321
#     4  10  22  37  57  80 106 143 186 224 264 321
#
# _framework density 18.395893000000001
#
# number of rings (size 3 to 8) (size 9 to 14) (size 15 to 20)
#    0.000    2.667    0.000    0.500    4.667    1.667 
#    0.000    0.833    0.000    1.000    0.000    0.000 
#    0.000    0.000    0.000    0.000    0.000    0.000 
#
# Total GULP energy -297653.846029 kJ/mol
# GULP energy per Si atom -12402.243585 kJ/mol
# Density = 1.835402 g / cm^3
# Si number density = 18.395893 Si / 1000 Ang^3
#
#
#
# Elastic Constant Matrix: (Units=GPa)
#
#
# Indices 1 2 3 4 5 6 
#
# 1 175.4735 45.0722 77.5341 0.0000 3.0774 0.0000
# 2 45.0722 47.8277 43.1677 0.0000 -2.3448 0.0000
# 3 77.5341 43.1677 127.3813 0.0000 0.6129 0.0000
# 4 0.0000 0.0000 0.0000 29.0267 0.0000 -0.0910
# 5 3.0774 -2.3448 0.6129 0.0000 24.9461 0.0000
# 6 0.0000 0.0000 0.0000 -0.0910 0.0000 22.1839
#
#
#
# Elastic Compliance Matrix: (Units=1/GPa)
#
#
# Indices 1 2 3 4 5 6 
#
# 1 0.008551 -0.004952 -0.003520 0.000000 -0.001434 0.000000
# 2 -0.004952 0.033228 -0.008265 0.000000 0.003937 0.000000
# 3 -0.003520 -0.008265 0.012797 0.000000 -0.000657 0.000000
# 4 0.000000 0.000000 0.000000 0.034452 0.000000 0.000141
# 5 -0.001434 0.003937 -0.000657 0.000000 0.040650 0.000000
# 6 0.000000 0.000000 0.000000 0.000141 0.000000 0.045078
#
#
# Mechanical properties :
#
#
# Convention : Reuss Voigt Hill
#
# Bulk Modulus (GPa) = 47.38872 75.80340 61.59606
# Shear Modulus (GPa) = 23.22726 27.55856 25.39291
#
# Velocity S-wave (km/s) = 3.55721 3.87471 3.71935
# Velocity P-wave (km/s) = 6.53361 7.83032 7.21117
#
# Compressibility (1/GPa) = 0.02110207
#
# Stress axis : x y z
#
# Youngs Moduli (GPa) = 116.94166 30.09504 78.14260
#
# Poissons Ratio (x) = 0.14903 0.27506
# Poissons Ratio (y) = 0.57909 0.64587
# Poissons Ratio (z) = 0.41163 0.24875
#
# Static dielectric constant tensor:
#      x y z
#    x 3.587590 0.000000 0.005530 
#    y 0.000000 3.184200 0.000000 
#    z 0.005530 0.000000 3.468370 
# 
# 
# High freq. dielectric constant tensor:
#      x y z
#    x 1.723010 0.000000 0.000070 
#    y 0.000000 1.690290 0.000000 
#    z 0.000070 0.000000 1.718880 
# 
# From -- ./inp_files/287962.got.cif
#   From: 2010.06.25/outbox.cif.g09.slc.cpg/sg12_144_cif.got.tgz:287962.got - 2010.06.28 00:19:55.
