data_PCOD8106185
_publ_section_title
;
Structure prediction by ZEFSAII (Michael W. Deem and Ramdas Pophale) SiO2 
 PCOD8106185
Probable space group: C 2/M
;
_chemical_formula_sum "Si O2"
_cell_formula_units_Z 48
_cell_length_a 19.925629
_cell_length_b 8.910441
_cell_length_c 28.756376
_cell_angle_alpha 90.000000
_cell_angle_beta 30.630807
_cell_angle_gamma 90.000000
_cell_volume 2601.316030
_symmetry_space_group_name_H-M "C 2/M"
_symmetry_group_IT_number 12
_symmetry_cell_setting 'monoclinic'
loop_
_space_group_symop_operation_xyz
x,y,z
-x,y,-z
-x,-y,-z
x,-y,z
1/2+x,1/2+y,z
1/2-x,1/2+y,-z
1/2-x,1/2-y,-z
1/2+x,1/2-y,z
loop_
_atom_site_type_symbol
_atom_site_label
_atom_site_fract_x
_atom_site_fract_y
_atom_site_fract_z
Si Si1 0.638360 0.829400 0.227101
Si Si2 0.547076 0.174111 0.104698
Si Si3 0.318169 0.326606 0.893657
Si Si4 0.617497 0.173852 0.562590
Si Si5 0.780665 0.824781 0.236442
Si Si6 0.461536 0.674963 0.575521
O O1 0.668445 0.715553 0.167943
O O2 0.490192 0.803082 0.332984
O O3 0.739590 0.791702 0.207986
O O4 0.657381 0.000000 0.198430
O O5 0.579896 0.228558 0.137160
O O6 0.427817 0.268158 0.155129
O O7 0.509082 0.000000 0.129183
O O8 0.669595 0.206913 0.998000
O O9 0.353994 0.500000 0.879512
O O10 0.750000 0.250000 0.500000
O O11 0.569775 0.246697 0.543182
O O12 0.643047 0.000000 0.537549
O O13 0.683986 0.739717 0.329342
O O14 0.770339 0.000000 0.253840
O O15 0.500000 0.708756 0.500000
O O16 0.460860 0.500000 0.587532
#
# Coordination Sequence:
#
# PCOD8106185 Si02
#       6
#     8   8   8   8   8   8
#     4   9  20  37  55  78 109 142 176 219 269 318
#     4  10  21  37  56  79 109 142 178 222 268 316
#     4  10  21  36  56  81 107 140 181 222 266 317
#     4  10  21  37  57  81 109 143 182 222 267 318
#     4  10  21  37  57  81 109 142 180 220 265 318
#     4  10  21  37  57  81 110 143 178 220 270 319
#
# _framework density 18.452199
#
# number of rings (size 3 to 8) (size 9 to 14) (size 15 to 20)
#    0.000    2.167    0.000    3.500    0.000    9.333 
#    0.000    5.000    0.000    0.000    0.000    0.000 
#    0.000    0.000    0.000    0.000    0.000    0.000 
#
# Total GULP energy -297716.978428 kJ/mol
# GULP energy per Si atom -12404.874101 kJ/mol
# Density = 1.841020 g / cm^3
# Si number density = 18.452199 Si / 1000 Ang^3
#
#
#
# Elastic Constant Matrix: (Units=GPa)
#
#
# Indices 1 2 3 4 5 6 
#
# 1 106.5039 63.4474 69.9383 0.0029 -3.0097 -0.0108
# 2 63.4474 100.8296 54.3510 0.0052 7.6471 -0.0120
# 3 69.9383 54.3510 83.4190 -0.0014 -5.5577 0.0018
# 4 0.0029 0.0052 -0.0014 34.6192 -0.0022 -3.0878
# 5 -3.0097 7.6471 -5.5577 -0.0022 33.9318 0.0069
# 6 -0.0108 -0.0120 0.0018 -3.0878 0.0069 38.0224
#
#
#
# Elastic Compliance Matrix: (Units=1/GPa)
#
#
# Indices 1 2 3 4 5 6 
#
# 1 0.023301 -0.006550 -0.015198 -0.000001 0.001054 0.000005
# 2 -0.006550 0.018066 -0.006662 -0.000002 -0.005744 0.000005
# 3 -0.015198 -0.006662 0.029401 0.000003 0.004969 -0.000008
# 4 -0.000001 -0.000002 0.000003 0.029096 0.000002 0.002363
# 5 0.001054 -0.005744 0.004969 0.000002 0.031673 -0.000007
# 6 0.000005 0.000005 -0.000008 0.002363 -0.000007 0.026492
#
#
# Mechanical properties :
#
#
# Convention : Reuss Voigt Hill
#
# Bulk Modulus (GPa) = 71.69119 74.02512 72.85815
# Shear Modulus (GPa) = 22.77919 28.18239 25.48079
#
# Velocity S-wave (km/s) = 3.51735 3.91233 3.72009
# Velocity P-wave (km/s) = 7.44530 7.78542 7.61726
#
# Compressibility (1/GPa) = 0.01394872
#
# Stress axis : x y z
#
# Youngs Moduli (GPa) = 42.91623 55.35267 34.01236
#
# Poissons Ratio (x) = 0.36256 0.51691
# Poissons Ratio (y) = 0.28110 0.22659
# Poissons Ratio (z) = 0.65223 0.36875
#
# Static dielectric constant tensor:
#      x y z
#    x 3.351300 0.000000 -0.062760 
#    y 0.000000 3.516520 0.000000 
#    z -0.062760 0.000000 3.341770 
# 
# 
# High freq. dielectric constant tensor:
#      x y z
#    x 1.718820 0.000000 -0.003610 
#    y 0.000000 1.732470 0.000000 
#    z -0.003610 0.000000 1.714580 
# 
# From -- ./inp_files/230419.got.cif
#   From: 2010.06.25/outbox.cif.g09.slc.cpg/sg12_116_cif.got.tgz:230419.got - 2010.06.28 00:19:55.
