data_PCOD8106667
_publ_section_title
;
Structure prediction by ZEFSAII (Michael W. Deem and Ramdas Pophale) SiO2 
 PCOD8106667
Probable space group: C 2/M
;
_chemical_formula_sum "Si O2"
_cell_formula_units_Z 48
_cell_length_a 19.974693
_cell_length_b 9.574592
_cell_length_c 16.535114
_cell_angle_alpha 90.000000
_cell_angle_beta 116.468718
_cell_angle_gamma 90.000000
_cell_volume 2830.850316
_symmetry_space_group_name_H-M "C 2/M"
_symmetry_group_IT_number 12
_symmetry_cell_setting 'monoclinic'
loop_
_space_group_symop_operation_xyz
x,y,z
-x,y,-z
-x,-y,-z
x,-y,z
1/2+x,1/2+y,z
1/2-x,1/2+y,-z
1/2-x,1/2-y,-z
1/2+x,1/2-y,z
loop_
_atom_site_type_symbol
_atom_site_label
_atom_site_fract_x
_atom_site_fract_y
_atom_site_fract_z
Si Si1 0.616831 0.842506 0.597139
Si Si2 0.206220 0.664382 0.044105
Si Si3 0.040757 0.657613 0.398602
Si Si4 0.940544 0.840046 0.037904
Si Si5 0.476004 0.339891 0.236190
Si Si6 0.675708 0.658879 0.758761
O O1 0.538644 0.832551 0.600842
O O2 0.604092 0.792790 0.497233
O O3 0.676972 0.747719 0.676500
O O4 0.647360 0.000000 0.614365
O O5 0.201717 0.500000 0.018039
O O6 0.247919 0.683731 0.151897
O O7 0.250000 0.750000 0.000000
O O8 0.124853 0.729559 0.011665
O O9 0.057461 0.500000 0.380007
O O10 0.039665 0.753273 0.318155
O O11 0.981940 0.806961 0.144528
O O12 0.909522 0.000000 0.022488
O O13 0.000000 0.817977 0.000000
O O14 0.492676 0.500000 0.264531
O O15 0.392625 0.297151 0.219489
O O16 0.666655 0.500000 0.726588
#
# Coordination Sequence:
#
# PCOD8106667 Si02
#       6
#     8   8   8   8   8   8
#     4   8  14  24  38  60  91 122 153 189 233 287
#     4  11  21  34  52  74 101 131 168 208 248 297
#     4   8  14  24  38  60  90 122 154 190 234 284
#     4  10  21  37  53  71 100 134 169 209 250 294
#     4   9  16  28  44  65  92 124 161 196 238 289
#     4   9  17  28  43  66  95 123 156 197 239 287
#
# _framework density 16.956036000000001
#
# number of rings (size 3 to 8) (size 9 to 14) (size 15 to 20)
#    0.000    2.833    1.667    1.500    0.000    3.000 
#    0.000    3.333    0.000    0.000    0.000    1.167 
#    0.000    0.000    0.000    0.000    0.000    0.000 
#
# Total GULP energy -297484.277711 kJ/mol
# GULP energy per Si atom -12395.178238 kJ/mol
# Density = 1.691744 g / cm^3
# Si number density = 16.956036 Si / 1000 Ang^3
#
#
#
# Elastic Constant Matrix: (Units=GPa)
#
#
# Indices 1 2 3 4 5 6 
#
# 1 40.9252 36.3532 38.7992 0.0000 -4.7415 0.0000
# 2 36.3532 105.0510 87.8397 0.0000 0.5367 0.0000
# 3 38.7992 87.8397 156.3830 0.0000 -8.6455 0.0000
# 4 0.0000 0.0000 0.0000 38.5052 0.0000 2.9323
# 5 -4.7415 0.5367 -8.6455 0.0000 13.4678 0.0000
# 6 0.0000 0.0000 0.0000 2.9323 0.0000 15.8812
#
#
#
# Elastic Compliance Matrix: (Units=1/GPa)
#
#
# Indices 1 2 3 4 5 6 
#
# 1 0.038158 -0.011159 -0.002521 0.000000 0.012260 0.000000
# 2 -0.011159 0.021964 -0.010196 0.000000 -0.011349 0.000000
# 3 -0.002521 -0.010196 0.013189 0.000000 0.007985 0.000000
# 4 0.000000 0.000000 0.000000 0.026341 0.000000 -0.004864
# 5 0.012260 -0.011349 0.007985 0.000000 0.084146 0.000000
# 6 0.000000 0.000000 0.000000 -0.004864 0.000000 0.063865
#
#
# Mechanical properties :
#
#
# Convention : Reuss Voigt Hill
#
# Bulk Modulus (GPa) = 39.12664 69.81593 54.47129
# Shear Modulus (GPa) = 16.45082 22.86197 19.65640
#
# Velocity S-wave (km/s) = 3.11819 3.67592 3.40848
# Velocity P-wave (km/s) = 6.00746 7.69939 6.90544
#
# Compressibility (1/GPa) = 0.02555803
#
# Stress axis : x y z
#
# Youngs Moduli (GPa) = 26.20677 45.52806 75.82234
#
# Poissons Ratio (x) = 0.50805 0.19117
# Poissons Ratio (y) = 0.29244 0.77310
# Poissons Ratio (z) = 0.06608 0.46421
#
# Static dielectric constant tensor:
#      x y z
#    x 2.716670 0.000000 0.046490 
#    y 0.000000 3.328910 0.000000 
#    z 0.046490 0.000000 3.616990 
# 
# 
# High freq. dielectric constant tensor:
#      x y z
#    x 1.586720 0.000000 -0.002550 
#    y 0.000000 1.657690 0.000000 
#    z -0.002550 0.000000 1.671220 
# 
# From -- ./inp_files/249364.got.cif
#   From: 2010.06.25/outbox.cif.g09.slc.cpg/sg12_125_cif.got.tgz:249364.got - 2010.06.28 00:19:55.
