data_PCOD8106043
_publ_section_title
;
Structure prediction by ZEFSAII (Michael W. Deem and Ramdas Pophale) SiO2 
 PCOD8106043
Probable space group: C 2/M
;
_chemical_formula_sum "Si O2"
_cell_formula_units_Z 60
_cell_length_a 10.387143
_cell_length_b 26.536186
_cell_length_c 14.641607
_cell_angle_alpha 90.000000
_cell_angle_beta 125.636335
_cell_angle_gamma 90.000000
_cell_volume 3279.974119
_symmetry_space_group_name_H-M "C 2/M"
_symmetry_group_IT_number 12
_symmetry_cell_setting 'monoclinic'
loop_
_space_group_symop_operation_xyz
x,y,z
-x,y,-z
-x,-y,-z
x,-y,z
1/2+x,1/2+y,z
1/2-x,1/2+y,-z
1/2-x,1/2-y,-z
1/2+x,1/2-y,z
loop_
_atom_site_type_symbol
_atom_site_label
_atom_site_fract_x
_atom_site_fract_y
_atom_site_fract_z
Si Si1 0.426008 0.792072 0.058475
Si Si2 0.747803 0.801172 0.392517
Si Si3 0.816112 0.555074 0.898845
Si Si4 0.602802 0.879749 0.221677
Si Si5 0.898701 0.813247 0.124726
Si Si6 0.713209 0.059410 0.912504
Si Si7 0.500000 0.375810 0.000000
Si Si8 0.489310 0.282413 0.642977
O O1 0.553186 0.827003 0.158073
O O2 0.382175 0.747498 0.108708
O O3 0.500000 0.765954 0.000000
O O4 0.283051 0.829906 0.968827
O O5 0.700243 0.859479 0.349244
O O6 0.588309 0.769178 0.349182
O O7 0.853595 0.808466 0.526397
O O8 0.852779 0.774168 0.354745
O O9 0.765814 0.500000 0.842780
O O10 0.778031 0.593573 0.801350
O O11 0.730943 0.567944 0.958859
O O12 0.000000 0.556324 0.000000
O O13 0.457254 0.916942 0.185014
O O14 0.002016 0.841016 0.091148
O O15 0.965811 0.820576 0.254895
O O16 0.849356 0.088906 0.915497
O O17 0.707227 0.000000 0.885900
#
# Coordination Sequence:
#
# PCOD8106043 Si02
#       8
#     8   8   8   8   8   8   4   8
#     4  11  20  31  47  78 111 145 179 219 272 332
#     4  10  22  37  58  79 110 158 204 237 283 328
#     4   8  16  30  50  77 106 134 174 229 283 334
#     4  11  18  32  57  82 106 144 190 235 281 336
#     4  11  23  33  50  77 117 150 184 222 276 344
#     4  10  21  36  54  82 116 147 187 235 294 358
#     4  12  23  36  50  84 114 160 185 220 294 366
#     4  10  22  39  54  79 116 158 198 241 275 333
#
# _framework density 18.292826999999999
#
# number of rings (size 3 to 8) (size 9 to 14) (size 15 to 20)
#    0.000    1.733    3.333    3.400    1.867    1.067 
#    0.000    0.000    0.000    0.000    0.000   12.133 
#    0.000    0.000    0.000    0.000    0.000    0.000 
#
# Total GULP energy -371656.076139 kJ/mol
# GULP energy per Si atom -12388.535871 kJ/mol
# Density = 1.825119 g / cm^3
# Si number density = 18.292827 Si / 1000 Ang^3
#
#
#
# Elastic Constant Matrix: (Units=GPa)
#
#
# Indices 1 2 3 4 5 6 
#
# 1 85.1990 29.1789 26.2668 0.0000 -4.9272 0.0000
# 2 29.1789 90.3830 36.5421 0.0000 -3.4482 0.0000
# 3 26.2668 36.5421 91.8569 0.0000 -10.2268 0.0000
# 4 0.0000 0.0000 0.0000 24.2349 0.0000 0.5386
# 5 -4.9272 -3.4482 -10.2268 0.0000 21.8152 0.0000
# 6 0.0000 0.0000 0.0000 0.5386 0.0000 26.3246
#
#
#
# Elastic Compliance Matrix: (Units=1/GPa)
#
#
# Indices 1 2 3 4 5 6 
#
# 1 0.013729 -0.003402 -0.002413 0.000000 0.001432 0.000000
# 2 -0.003402 0.014031 -0.004692 0.000000 -0.000750 0.000000
# 3 -0.002413 -0.004692 0.014032 0.000000 0.005292 0.000000
# 4 0.000000 0.000000 0.000000 0.041282 0.000000 -0.000845
# 5 0.001432 -0.000750 0.005292 0.000000 0.048525 0.000000
# 6 0.000000 0.000000 0.000000 -0.000845 0.000000 0.038005
#
#
# Mechanical properties :
#
#
# Convention : Reuss Voigt Hill
#
# Bulk Modulus (GPa) = 48.12946 50.15717 49.14332
# Shear Modulus (GPa) = 25.31076 26.17167 25.74122
#
# Velocity S-wave (km/s) = 3.72377 3.78657 3.75530
# Velocity P-wave (km/s) = 6.69749 6.82613 6.76211
#
# Compressibility (1/GPa) = 0.02077730
#
# Stress axis : x y z
#
# Youngs Moduli (GPa) = 72.83794 71.27150 71.26375
#
# Poissons Ratio (x) = 0.24247 0.17197
# Poissons Ratio (y) = 0.24780 0.33440
# Poissons Ratio (z) = 0.17577 0.33444
#
# Static dielectric constant tensor:
#      x y z
#    x 3.590220 0.000000 -0.095690 
#    y 0.000000 3.344550 0.000000 
#    z -0.095690 0.000000 3.363760 
# 
# 
# High freq. dielectric constant tensor:
#      x y z
#    x 1.712820 0.000000 -0.003510 
#    y 0.000000 1.700020 0.000000 
#    z -0.003510 0.000000 1.680360 
# 
# From -- ./inp_files/208975.got.cif
#   From: 2010.06.25/outbox.cif.g09.slc.cpg/sg12_105_cif.got.tgz:208975.got - 2010.06.28 00:19:55.
