data_PCOD8106353
_publ_section_title
;
Structure prediction by ZEFSAII (Michael W. Deem and Ramdas Pophale) SiO2 
 PCOD8106353
Probable space group: C 2/M
;
_chemical_formula_sum "Si O2"
_cell_formula_units_Z 60
_cell_length_a 23.955737
_cell_length_b 13.311855
_cell_length_c 17.718608
_cell_angle_alpha 90.000000
_cell_angle_beta 29.511816
_cell_angle_gamma 90.000000
_cell_volume 2783.394751
_symmetry_space_group_name_H-M "C 2/M"
_symmetry_group_IT_number 12
_symmetry_cell_setting 'monoclinic'
loop_
_space_group_symop_operation_xyz
x,y,z
-x,y,-z
-x,-y,-z
x,-y,z
1/2+x,1/2+y,z
1/2-x,1/2+y,-z
1/2-x,1/2-y,-z
1/2+x,1/2-y,z
loop_
_atom_site_type_symbol
_atom_site_label
_atom_site_fract_x
_atom_site_fract_y
_atom_site_fract_z
Si Si1 0.860618 0.203919 0.525015
Si Si2 0.042378 0.384267 0.657469
Si Si3 0.557182 0.614653 0.801951
Si Si4 0.500000 0.763045 0.000000
Si Si5 0.706746 0.119575 0.826767
Si Si6 0.569136 0.382364 0.196594
Si Si7 0.230356 0.388791 0.550183
Si Si8 0.200715 0.619736 0.007308
O O1 0.895482 0.321709 0.481945
O O2 0.817413 0.169655 0.657529
O O3 0.759561 0.187473 0.582771
O O4 0.971985 0.141848 0.371533
O O5 0.044120 0.500000 0.630467
O O6 0.105809 0.367216 0.663164
O O7 0.916486 0.338701 0.818438
O O8 0.530084 0.500000 0.859383
O O9 0.467243 0.651514 0.844349
O O10 0.682827 0.619896 0.620791
O O11 0.554062 0.690155 0.874691
O O12 0.405836 0.835993 0.077288
O O13 0.713009 0.151965 0.906168
O O14 0.708239 0.000000 0.813637
O O15 0.584701 0.500000 0.181176
O O16 0.691947 0.335165 0.072925
O O17 0.235166 0.500000 0.580342
O O18 0.192838 0.500000 0.021469
#
# Coordination Sequence:
#
# PCOD8106353 Si02
#       8
#     8   8   8   4   8   8   8   8
#     4  11  21  35  59  86 115 158 203 247 295 359
#     4  10  21  36  57  87 118 155 201 252 301 355
#     4   9  19  37  61  91 121 158 203 253 299 351
#     4  12  24  36  56  88 128 166 196 242 312 372
#     4  11  25  40  56  87 128 165 197 243 308 367
#     4   9  19  39  65  89 117 155 206 255 294 348
#     4   9  18  33  56  83 115 151 200 249 292 351
#     4   9  21  40  61  89 125 160 197 248 306 358
#
# _framework density 21.556411000000001
#
# number of rings (size 3 to 8) (size 9 to 14) (size 15 to 20)
#    0.000    2.133    0.000    3.600    5.600    1.067 
#    0.000    2.667    0.000    0.000    0.000    1.867 
#    0.000    0.667    0.000    0.000    0.000    0.000 
#
# Total GULP energy -371972.909082 kJ/mol
# GULP energy per Si atom -12399.096969 kJ/mol
# Density = 2.150735 g / cm^3
# Si number density = 21.556411 Si / 1000 Ang^3
#
#
#
# Elastic Constant Matrix: (Units=GPa)
#
#
# Indices 1 2 3 4 5 6 
#
# 1 78.1345 20.7956 21.7373 0.0000 -20.9683 0.0000
# 2 20.7956 73.0498 18.0921 0.0000 2.5206 0.0000
# 3 21.7373 18.0921 56.3344 0.0000 -12.8486 0.0000
# 4 0.0000 0.0000 0.0000 35.2460 0.0000 -6.0314
# 5 -20.9683 2.5206 -12.8486 0.0000 40.0450 0.0000
# 6 0.0000 0.0000 0.0000 -6.0314 0.0000 6.3902
#
#
#
# Elastic Compliance Matrix: (Units=1/GPa)
#
#
# Indices 1 2 3 4 5 6 
#
# 1 0.017057 -0.004308 -0.003344 0.000000 0.008130 0.000000
# 2 -0.004308 0.016228 -0.004636 0.000000 -0.004765 0.000000
# 3 -0.003344 -0.004636 0.021792 0.000000 0.005533 0.000000
# 4 0.000000 0.000000 0.000000 0.033837 0.000000 0.031937
# 5 0.008130 -0.004765 0.005533 0.000000 0.031304 0.000000
# 6 0.000000 0.000000 0.000000 0.031937 0.000000 0.186634
#
#
# Mechanical properties :
#
#
# Convention : Reuss Voigt Hill
#
# Bulk Modulus (GPa) = 32.78555 36.52985 34.65770
# Shear Modulus (GPa) = 14.63718 26.12916 20.38317
#
# Velocity S-wave (km/s) = 2.60862 3.48534 3.07835
# Velocity P-wave (km/s) = 4.93107 5.76019 5.36168
#
# Compressibility (1/GPa) = 0.03050125
#
# Stress axis : x y z
#
# Youngs Moduli (GPa) = 58.62687 61.62048 45.88766
#
# Poissons Ratio (x) = 0.26547 0.15344
# Poissons Ratio (y) = 0.25257 0.21275
# Poissons Ratio (z) = 0.19604 0.28569
#
# Static dielectric constant tensor:
#      x y z
#    x 3.901720 0.000000 -0.320770 
#    y 0.000000 4.071640 0.000000 
#    z -0.320770 0.000000 3.994140 
# 
# 
# High freq. dielectric constant tensor:
#      x y z
#    x 1.821030 0.000000 -0.021660 
#    y 0.000000 1.868460 0.000000 
#    z -0.021660 0.000000 1.844220 
# 
# From -- ./inp_files/289886.got.cif
#   From: 2010.06.25/outbox.cif.g09.slc.cpg/sg12_145_cif.got.tgz:289886.got - 2010.06.28 00:19:55.
