data_PCOD8106313
_publ_section_title
;
Structure prediction by ZEFSAII (Michael W. Deem and Ramdas Pophale) SiO2 
 PCOD8106313
Probable space group: C 2/M
;
_chemical_formula_sum "Si O2"
_cell_formula_units_Z 64
_cell_length_a 19.915067
_cell_length_b 9.236818
_cell_length_c 21.624530
_cell_angle_alpha 90.000000
_cell_angle_beta 120.168942
_cell_angle_gamma 90.000000
_cell_volume 3439.058919
_symmetry_space_group_name_H-M "C 2/M"
_symmetry_group_IT_number 12
_symmetry_cell_setting 'monoclinic'
loop_
_space_group_symop_operation_xyz
x,y,z
-x,y,-z
-x,-y,-z
x,-y,z
1/2+x,1/2+y,z
1/2-x,1/2+y,-z
1/2-x,1/2-y,-z
1/2+x,1/2-y,z
loop_
_atom_site_type_symbol
_atom_site_label
_atom_site_fract_x
_atom_site_fract_y
_atom_site_fract_z
Si Si1 0.449024 0.167139 0.190086
Si Si2 0.885181 0.168110 0.908919
Si Si3 0.277504 0.833905 0.773357
Si Si4 0.871988 0.333049 0.698750
Si Si5 0.481622 0.669629 0.558618
Si Si6 0.398775 0.331859 0.285124
Si Si7 0.327200 0.329923 0.556010
Si Si8 0.450460 0.668941 0.068984
O O1 0.540546 0.189698 0.239152
O O2 0.403662 0.243529 0.224369
O O3 0.420996 0.238591 0.113258
O O4 0.425343 0.000000 0.178526
O O5 0.810868 0.250296 0.847888
O O6 0.963054 0.218857 0.909897
O O7 0.872080 0.000000 0.891430
O O8 0.892506 0.201017 0.985251
O O9 0.315793 0.779350 0.727453
O O10 0.185914 0.809334 0.725063
O O11 0.299315 0.000000 0.793907
O O12 0.855329 0.500000 0.672695
O O13 0.856578 0.228976 0.634560
O O14 0.500000 0.739723 0.500000
O O15 0.498569 0.500000 0.563320
O O16 0.539494 0.733961 0.637326
O O17 0.392748 0.702835 0.534984
O O18 0.416104 0.500000 0.278837
O O19 0.311107 0.500000 0.554391
O O20 0.250000 0.250000 0.500000
O O21 0.449794 0.500000 0.085902
#
# Coordination Sequence:
#
# PCOD8106313 Si02
#       8
#     8   8   8   8   8   8   8   8
#     4  11  21  35  57  84 114 147 184 234 283 326
#     4   9  18  33  54  82 115 147 184 235 282 331
#     4  10  21  36  57  84 114 149 187 234 281 328
#     4  10  21  37  57  83 115 146 184 230 277 328
#     4   9  19  36  59  82 105 143 189 224 263 323
#     4  10  21  38  59  81 110 148 191 228 270 337
#     4  11  23  38  60  86 113 145 183 231 281 327
#     4   9  18  33  55  82 112 149 189 228 279 337
#
# _framework density 18.609742000000001
#
# number of rings (size 3 to 8) (size 9 to 14) (size 15 to 20)
#    0.000    2.125    2.500    1.500    1.750    2.000 
#    0.000    1.875    0.000    1.875    0.000    0.000 
#    0.000    0.000    0.000    0.000    0.000    0.000 
#
# Total GULP energy -396881.326567 kJ/mol
# GULP energy per Si atom -12402.541455 kJ/mol
# Density = 1.856739 g / cm^3
# Si number density = 18.609742 Si / 1000 Ang^3
#
#
#
# Elastic Constant Matrix: (Units=GPa)
#
#
# Indices 1 2 3 4 5 6 
#
# 1 86.8741 38.6616 35.9546 0.0000 -16.1798 0.0000
# 2 38.6616 70.8139 47.8531 0.0000 -9.4114 0.0000
# 3 35.9546 47.8531 100.3613 0.0000 -19.5089 0.0000
# 4 0.0000 0.0000 0.0000 31.7835 0.0000 3.0502
# 5 -16.1798 -9.4114 -19.5089 0.0000 33.6730 0.0000
# 6 0.0000 0.0000 0.0000 3.0502 0.0000 24.3496
#
#
#
# Elastic Compliance Matrix: (Units=1/GPa)
#
#
# Indices 1 2 3 4 5 6 
#
# 1 0.016247 -0.007273 -0.001387 0.000000 0.004971 0.000000
# 2 -0.007273 0.024090 -0.009299 0.000000 -0.002149 0.000000
# 3 -0.001387 -0.009299 0.016069 0.000000 0.006045 0.000000
# 4 0.000000 0.000000 0.000000 0.031846 0.000000 -0.003989
# 5 0.004971 -0.002149 0.006045 0.000000 0.034987 0.000000
# 6 0.000000 0.000000 0.000000 -0.003989 0.000000 0.041568
#
#
# Mechanical properties :
#
#
# Convention : Reuss Voigt Hill
#
# Bulk Modulus (GPa) = 48.80219 55.88753 52.34486
# Shear Modulus (GPa) = 24.09011 26.99989 25.54500
#
# Velocity S-wave (km/s) = 3.60180 3.81313 3.70897
# Velocity P-wave (km/s) = 6.60138 7.03443 6.82134
#
# Compressibility (1/GPa) = 0.02049088
#
# Stress axis : x y z
#
# Youngs Moduli (GPa) = 61.54950 41.51085 62.22974
#
# Poissons Ratio (x) = 0.30189 0.08630
# Poissons Ratio (y) = 0.44762 0.57865
# Poissons Ratio (z) = 0.08535 0.38599
#
# Static dielectric constant tensor:
#      x y z
#    x 3.371710 0.000000 -0.075520 
#    y 0.000000 3.283210 0.000000 
#    z -0.075520 0.000000 3.650760 
# 
# 
# High freq. dielectric constant tensor:
#      x y z
#    x 1.717410 0.000000 -0.006090 
#    y 0.000000 1.707090 0.000000 
#    z -0.006090 0.000000 1.729500 
# 
# From -- ./inp_files/320093.got.cif
#   From: 2010.06.25/outbox.cif.g09.slc.cpg/sg12_161_cif.got.tgz:320093.got - 2010.06.28 00:19:55.
