data_PCOD8106580
_publ_section_title
;
Structure prediction by ZEFSAII (Michael W. Deem and Ramdas Pophale) SiO2 
 PCOD8106580
Probable space group: C 2/M
;
_chemical_formula_sum "Si O2"
_cell_formula_units_Z 32
_cell_length_a 16.987118
_cell_length_b 17.621184
_cell_length_c 5.010682
_cell_angle_alpha 90.000000
_cell_angle_beta 90.210386
_cell_angle_gamma 90.000000
_cell_volume 1499.853025
_symmetry_space_group_name_H-M "C 2/M"
_symmetry_group_IT_number 12
_symmetry_cell_setting 'monoclinic'
loop_
_space_group_symop_operation_xyz
x,y,z
-x,y,-z
-x,-y,-z
x,-y,z
1/2+x,1/2+y,z
1/2-x,1/2+y,-z
1/2-x,1/2-y,-z
1/2+x,1/2-y,z
loop_
_atom_site_type_symbol
_atom_site_label
_atom_site_fract_x
_atom_site_fract_y
_atom_site_fract_z
Si Si1 0.279171 0.414713 0.393562
Si Si2 0.548963 0.619972 0.749397
Si Si3 0.277703 0.832304 0.101221
Si Si4 0.049372 0.700433 0.752934
O O1 0.253872 0.500000 0.471461
O O2 0.365110 0.416054 0.261280
O O3 0.279030 0.362875 0.661970
O O4 0.221079 0.384762 0.161303
O O5 0.500000 0.590812 0.500000
O O6 0.559028 0.709787 0.755027
O O7 0.500000 0.589837 0.000000
O O8 0.363654 0.834201 0.235151
O O9 0.250000 0.750000 0.000000
O O10 0.000000 0.671438 0.500000
O O11 0.000000 0.670524 0.000000
#
# Coordination Sequence:
#
# PCOD8106580 Si02
#       4
#     8   8   8   8
#     4  12  26  42  64  97 138 177 215 268 329 386
#     4  10  21  36  60  93 132 172 210 254 316 393
#     4  12  24  42  70  96 127 175 225 272 318 384
#     4  10  21  37  63  97 125 159 213 279 322 370
#
# _framework density 21.335422000000001
#
# number of rings (size 3 to 8) (size 9 to 14) (size 15 to 20)
#    0.000    1.000    2.500    4.500    7.000    1.000 
#    0.000    0.000    0.000   15.000    0.000    0.000 
#    0.000    0.000    0.000    0.000    0.000    0.000 
#
# Total GULP energy -198417.513239 kJ/mol
# GULP energy per Si atom -12401.094577 kJ/mol
# Density = 2.128686 g / cm^3
# Si number density = 21.335422 Si / 1000 Ang^3
#
#
#
# Elastic Constant Matrix: (Units=GPa)
#
#
# Indices 1 2 3 4 5 6 
#
# 1 119.1535 38.6927 49.1873 0.0000 11.6755 0.0000
# 2 38.6927 93.7333 56.4694 0.0000 -1.1688 0.0000
# 3 49.1873 56.4694 183.0577 0.0000 1.8126 0.0000
# 4 0.0000 0.0000 0.0000 69.5903 0.0000 -17.6064
# 5 11.6755 -1.1688 1.8126 0.0000 45.8945 0.0000
# 6 0.0000 0.0000 0.0000 -17.6064 0.0000 24.2602
#
#
#
# Elastic Compliance Matrix: (Units=1/GPa)
#
#
# Indices 1 2 3 4 5 6 
#
# 1 0.010450 -0.003281 -0.001769 0.000000 -0.002672 0.000000
# 2 -0.003281 0.014145 -0.003495 0.000000 0.001333 0.000000
# 3 -0.001769 -0.003495 0.007015 0.000000 0.000084 0.000000
# 4 0.000000 0.000000 0.000000 0.017602 0.000000 0.012774
# 5 -0.002672 0.001333 0.000084 0.000000 0.022500 0.000000
# 6 0.000000 0.000000 0.000000 0.012774 0.000000 0.050490
#
#
# Mechanical properties :
#
#
# Convention : Reuss Voigt Hill
#
# Bulk Modulus (GPa) = 68.87138 76.07147 72.47142
# Shear Modulus (GPa) = 34.69006 44.72201 39.70603
#
# Velocity S-wave (km/s) = 4.03667 4.58333 4.31866
# Velocity P-wave (km/s) = 7.35368 7.98383 7.67523
#
# Compressibility (1/GPa) = 0.01451982
#
# Stress axis : x y z
#
# Youngs Moduli (GPa) = 95.69122 70.69516 142.54175
#
# Poissons Ratio (x) = 0.23197 0.25220
# Poissons Ratio (y) = 0.31398 0.49819
# Poissons Ratio (z) = 0.16931 0.24708
#
# Static dielectric constant tensor:
#      x y z
#    x 3.971000 0.000000 0.080140 
#    y 0.000000 3.632630 0.000000 
#    z 0.080140 0.000000 4.131000 
# 
# 
# High freq. dielectric constant tensor:
#      x y z
#    x 1.839040 0.000000 0.004260 
#    y 0.000000 1.809040 0.000000 
#    z 0.004260 0.000000 1.859400 
# 
# From -- ./inp_files/264.got.cif
#   From: 2010.06.25/outbox.cif.g09.slc.cpg/sg12_1_cif.got.tgz:264.got - 2010.06.28 00:19:55.
