data_PCOD8106135
_publ_section_title
;
Structure prediction by ZEFSAII (Michael W. Deem and Ramdas Pophale) SiO2 
 PCOD8106135
Probable space group: C 2/M
;
_chemical_formula_sum "Si O2"
_cell_formula_units_Z 40
_cell_length_a 10.012884
_cell_length_b 9.065999
_cell_length_c 22.167677
_cell_angle_alpha 90.000000
_cell_angle_beta 95.972559
_cell_angle_gamma 90.000000
_cell_volume 2001.387563
_symmetry_space_group_name_H-M "C 2/M"
_symmetry_group_IT_number 12
_symmetry_cell_setting 'monoclinic'
loop_
_space_group_symop_operation_xyz
x,y,z
-x,y,-z
-x,-y,-z
x,-y,z
1/2+x,1/2+y,z
1/2-x,1/2+y,-z
1/2-x,1/2-y,-z
1/2+x,1/2-y,z
loop_
_atom_site_type_symbol
_atom_site_label
_atom_site_fract_x
_atom_site_fract_y
_atom_site_fract_z
Si Si1 0.197786 0.327818 0.366622
Si Si2 0.553706 0.172392 0.566386
Si Si3 0.873298 0.329457 0.036645
Si Si4 0.797235 0.329265 0.769896
Si Si5 0.455497 0.670970 0.161540
O O1 0.229079 0.500000 0.370522
O O2 0.307019 0.249649 0.412890
O O3 0.203104 0.269448 0.298421
O O4 0.052010 0.289777 0.386136
O O5 0.500000 0.232744 0.500000
O O6 0.582418 0.000000 0.563269
O O7 0.837853 0.500000 0.045024
O O8 0.899770 0.256339 0.101779
O O9 0.750000 0.250000 0.000000
O O10 0.000000 0.309044 0.000000
O O11 0.841816 0.500000 0.775104
O O12 0.648234 0.306600 0.788606
O O13 0.900671 0.234729 0.813672
O O14 0.472210 0.500000 0.145550
#
# Coordination Sequence:
#
# PCOD8106135 Si02
#       5
#     8   8   8   8   8
#     4  10  21  37  57  81 111 148 187 229 279 332
#     4  10  21  36  55  82 113 145 186 233 279 331
#     4  11  24  41  61  86 116 149 186 229 276 328
#     4  10  22  39  57  82 115 147 185 232 278 329
#     4  11  23  38  59  86 113 146 188 229 275 332
#
# _framework density 19.986132999999999
#
# number of rings (size 3 to 8) (size 9 to 14) (size 15 to 20)
#    0.000    1.600    0.000    4.200    0.000   10.000 
#    0.000    0.000    0.000    0.000    0.000    0.000 
#    0.000    0.000    0.000    0.000    0.000    0.000 
#
# Total GULP energy -248131.133920 kJ/mol
# GULP energy per Si atom -12406.556696 kJ/mol
# Density = 1.994064 g / cm^3
# Si number density = 19.986133 Si / 1000 Ang^3
#
#
#
# Elastic Constant Matrix: (Units=GPa)
#
#
# Indices 1 2 3 4 5 6 
#
# 1 57.8556 35.5480 0.6760 0.0000 15.3371 0.0000
# 2 35.5480 81.8363 29.4051 0.0000 7.2155 0.0000
# 3 0.6760 29.4051 96.8822 0.0000 5.1149 0.0000
# 4 0.0000 0.0000 0.0000 29.9568 0.0000 7.1961
# 5 15.3371 7.2155 5.1149 0.0000 41.6652 0.0000
# 6 0.0000 0.0000 0.0000 7.1961 0.0000 34.9878
#
#
#
# Elastic Compliance Matrix: (Units=1/GPa)
#
#
# Indices 1 2 3 4 5 6 
#
# 1 0.027123 -0.012502 0.004044 0.000000 -0.008315 0.000000
# 2 -0.012502 0.019625 -0.005971 0.000000 0.001936 0.000000
# 3 0.004044 -0.005971 0.012209 0.000000 -0.001953 0.000000
# 4 0.000000 0.000000 0.000000 0.035116 0.000000 -0.007222
# 5 -0.008315 0.001936 -0.001953 0.000000 0.026966 0.000000
# 6 0.000000 0.000000 0.000000 -0.007222 0.000000 0.030067
#
#
# Mechanical properties :
#
#
# Convention : Reuss Voigt Hill
#
# Bulk Modulus (GPa) = 33.22351 40.87026 37.04688
# Shear Modulus (GPa) = 26.31625 32.71831 29.51728
#
# Velocity S-wave (km/s) = 3.63261 4.05044 3.84720
# Velocity P-wave (km/s) = 5.85268 6.50910 6.18960
#
# Compressibility (1/GPa) = 0.03009917
#
# Stress axis : x y z
#
# Youngs Moduli (GPa) = 36.86941 50.95592 81.90590
#
# Poissons Ratio (x) = 0.63703 -0.33124
# Poissons Ratio (y) = 0.46092 0.48909
# Poissons Ratio (z) = -0.14911 0.30428
#
# Static dielectric constant tensor:
#      x y z
#    x 0.928230 0.000000 -6.884970 
#    y 0.000000 3.653510 0.000000 
#    z -6.884970 0.000000 -12.972430 
# 
# 
# High freq. dielectric constant tensor:
#      x y z
#    x 1.791180 0.000000 -0.003830 
#    y 0.000000 1.778860 0.000000 
#    z -0.003830 0.000000 1.796920 
# 
# From -- ./inp_files/261083.got.cif
#   From: 2010.06.25/outbox.cif.g09.slc.cpg/sg12_131_cif.got.tgz:261083.got - 2010.06.28 00:19:55.
