data_PCOD8106603
_publ_section_title
;
Structure prediction by ZEFSAII (Michael W. Deem and Ramdas Pophale) SiO2 
 PCOD8106603
Probable space group: C 2/M
;
_chemical_formula_sum "Si O2"
_cell_formula_units_Z 56
_cell_length_a 18.952776
_cell_length_b 17.010296
_cell_length_c 9.187000
_cell_angle_alpha 90.000000
_cell_angle_beta 73.267419
_cell_angle_gamma 90.000000
_cell_volume 2836.411787
_symmetry_space_group_name_H-M "C 2/M"
_symmetry_group_IT_number 12
_symmetry_cell_setting 'monoclinic'
loop_
_space_group_symop_operation_xyz
x,y,z
-x,y,-z
-x,-y,-z
x,-y,z
1/2+x,1/2+y,z
1/2-x,1/2+y,-z
1/2-x,1/2-y,-z
1/2+x,1/2-y,z
loop_
_atom_site_type_symbol
_atom_site_label
_atom_site_fract_x
_atom_site_fract_y
_atom_site_fract_z
Si Si1 0.984709 0.370220 0.181457
Si Si2 0.526461 0.702476 0.145974
Si Si3 0.819912 0.251954 0.857337
Si Si4 0.348643 0.843285 0.431349
Si Si5 0.952094 0.909145 0.399489
Si Si6 0.187749 0.176518 0.451016
Si Si7 0.617404 0.911908 0.279354
O O1 0.897390 0.379368 0.269072
O O2 0.002676 0.283827 0.233797
O O3 0.036925 0.423897 0.251708
O O4 0.000000 0.384688 0.000000
O O5 0.615096 0.699398 0.109103
O O6 0.482062 0.629623 0.235809
O O7 0.500000 0.707598 0.000000
O O8 0.800326 0.210855 0.716854
O O9 0.837957 0.345184 0.835527
O O10 0.750000 0.250000 0.000000
O O11 0.262687 0.864226 0.463501
O O12 0.346365 0.747689 0.432487
O O13 0.384898 0.881384 0.553398
O O14 0.868331 0.894710 0.495203
O O15 0.000000 0.872122 0.500000
O O16 0.966197 0.000000 0.369497
O O17 0.653696 0.000000 0.252737
#
# Coordination Sequence:
#
# PCOD8106603 Si02
#       7
#     8   8   8   8   8   8   8
#     4  10  21  36  63  91 119 161 203 246 297 359
#     4  10  21  36  61  89 122 155 205 253 296 359
#     4  10  22  39  65  90 121 163 203 248 302 366
#     4  10  21  36  62  88 118 158 203 248 294 361
#     4  11  22  39  61  86 119 159 203 253 306 354
#     4  10  21  37  61  88 119 156 206 250 301 352
#     4  10  23  41  60  90 124 159 198 248 303 358
#
# _framework density 19.743252999999999
#
# number of rings (size 3 to 8) (size 9 to 14) (size 15 to 20)
#    0.000    1.857    2.857    0.429    6.000    3.429 
#    0.000    1.429    0.000    0.000    0.000    0.000 
#    0.000    0.000    0.000    0.000    0.000    0.000 
#
# Total GULP energy -346891.718751 kJ/mol
# GULP energy per Si atom -12388.989955 kJ/mol
# Density = 1.969832 g / cm^3
# Si number density = 19.743253 Si / 1000 Ang^3
#
#
#
# Elastic Constant Matrix: (Units=GPa)
#
#
# Indices 1 2 3 4 5 6 
#
# 1 126.5271 23.2433 56.0558 0.0000 -3.3217 0.0000
# 2 23.2433 74.8437 27.5867 0.0000 -5.9852 0.0000
# 3 56.0558 27.5867 87.8437 0.0000 -12.4034 0.0000
# 4 0.0000 0.0000 0.0000 -50.6092 0.0000 -10.7689
# 5 -3.3217 -5.9852 -12.4034 0.0000 39.5526 0.0000
# 6 0.0000 0.0000 0.0000 -10.7689 0.0000 18.0183
#
#
#
# Elastic Compliance Matrix: (Units=1/GPa)
#
#
# Indices 1 2 3 4 5 6 
#
# 1 0.011152 -0.000995 -0.007003 0.000000 -0.001410 0.000000
# 2 -0.000995 0.015225 -0.004011 0.000000 0.000963 0.000000
# 3 -0.007003 -0.004011 0.017728 0.000000 0.004364 0.000000
# 4 0.000000 0.000000 0.000000 -0.017530 0.000000 -0.010477
# 5 -0.001410 0.000963 0.004364 0.000000 0.026679 0.000000
# 6 0.000000 0.000000 0.000000 -0.010477 0.000000 0.049237
#
#
# Mechanical properties :
#
#
# Convention : Reuss Voigt Hill
#
# Bulk Modulus (GPa) = 49.77924 55.88733 52.83329
# Shear Modulus (GPa) = 37.53622 13.54762 25.54192
#
# Velocity S-wave (km/s) = 4.36503 2.62236 3.60071
# Velocity P-wave (km/s) = 7.11847 6.12679 6.64117
#
# Compressibility (1/GPa) = 0.02008869
#
# Stress axis : x y z
#
# Youngs Moduli (GPa) = 89.67238 65.67973 56.40659
#
# Poissons Ratio (x) = 0.06534 0.39501
# Poissons Ratio (y) = 0.08921 0.22623
# Poissons Ratio (z) = 0.62797 0.26342
#
# Static dielectric constant tensor:
#      x y z
#    x 3.746600 0.000000 0.136190 
#    y 0.000000 3.495700 0.000000 
#    z 0.136190 0.000000 3.399350 
# 
# 
# High freq. dielectric constant tensor:
#      x y z
#    x 1.777710 0.000000 0.006990 
#    y 0.000000 1.754970 0.000000 
#    z 0.006990 0.000000 1.763690 
# 
# From -- ./inp_files/87228.got.cif
#   From: 2010.06.25/outbox.cif.g09.slc.cpg/sg12_44_cif.got.tgz:87228.got - 2010.06.28 00:19:55.
