data_PCOD8106737
_publ_section_title
;
Structure prediction by ZEFSAII (Michael W. Deem and Ramdas Pophale) SiO2 
 PCOD8106737
Probable space group: C 2/M
;
_chemical_formula_sum "Si O2"
_cell_formula_units_Z 64
_cell_length_a 15.335906
_cell_length_b 9.227050
_cell_length_c 24.269964
_cell_angle_alpha 90.000000
_cell_angle_beta 81.992586
_cell_angle_gamma 90.000000
_cell_volume 3400.840922
_symmetry_space_group_name_H-M "C 2/M"
_symmetry_group_IT_number 12
_symmetry_cell_setting 'monoclinic'
loop_
_space_group_symop_operation_xyz
x,y,z
-x,y,-z
-x,-y,-z
x,-y,z
1/2+x,1/2+y,z
1/2-x,1/2+y,-z
1/2-x,1/2-y,-z
1/2+x,1/2-y,z
loop_
_atom_site_type_symbol
_atom_site_label
_atom_site_fract_x
_atom_site_fract_y
_atom_site_fract_z
Si Si1 0.328415 0.331665 0.059192
Si Si2 0.973267 0.169587 0.135821
Si Si3 0.460820 0.341529 0.557011
Si Si4 0.768125 0.671992 0.326990
Si Si5 0.241905 0.157488 0.446735
Si Si6 0.556847 0.827161 0.749500
Si Si7 0.428403 0.326029 0.678323
Si Si8 0.157106 0.169145 0.067186
O O1 0.306244 0.500000 0.063525
O O2 0.408637 0.291394 0.091607
O O3 0.240702 0.249028 0.086548
O O4 0.355869 0.283525 0.995219
O O5 0.946261 0.270594 0.188416
O O6 0.071140 0.213040 0.108841
O O7 0.967249 0.000000 0.152323
O O8 0.500000 0.253631 0.500000
O O9 0.507485 0.500000 0.553343
O O10 0.358450 0.362714 0.559633
O O11 0.474124 0.271364 0.616536
O O12 0.765080 0.500000 0.331812
O O13 0.785156 0.730722 0.388263
O O14 0.848702 0.724932 0.282337
O O15 0.674246 0.724151 0.310427
O O16 0.250000 0.250000 0.500000
O O17 0.284481 0.000000 0.455196
O O18 0.477459 0.753991 0.723247
O O19 0.546644 0.000000 0.748482
O O20 0.436416 0.500000 0.683583
O O21 0.175234 0.000000 0.069930
#
# Coordination Sequence:
#
# PCOD8106737 Si02
#       8
#     8   8   8   8   8   8   8   8
#     4   9  18  34  57  84 113 144 179 219 262 310
#     4  10  21  37  55  78 108 143 185 222 259 313
#     4   8  15  28  48  74  99 124 159 203 251 306
#     4   8  18  37  54  70 101 141 171 205 262 325
#     4   9  17  30  49  73  99 126 158 200 254 311
#     4  11  23  37  54  76 105 141 180 223 272 314
#     4   9  18  36  58  75  98 136 179 215 256 318
#     4   9  18  34  57  83 112 146 178 215 267 319
#
# _framework density 18.818874000000001
#
# number of rings (size 3 to 8) (size 9 to 14) (size 15 to 20)
#    0.000    2.875    0.000    2.250    1.750    3.500 
#    0.000    8.125    0.000    4.500    0.000    0.000 
#    0.000    0.000    0.000    0.000    0.000    0.000 
#
# Total GULP energy -396541.657568 kJ/mol
# GULP energy per Si atom -12391.926799 kJ/mol
# Density = 1.877604 g / cm^3
# Si number density = 18.818874 Si / 1000 Ang^3
#
#
#
# Elastic Constant Matrix: (Units=GPa)
#
#
# Indices 1 2 3 4 5 6 
#
# 1 82.5245 28.2998 35.5479 0.0000 -18.8684 0.0000
# 2 28.2998 42.8615 31.6162 0.0000 -4.3776 0.0000
# 3 35.5479 31.6162 93.8858 0.0000 -21.7867 0.0000
# 4 0.0000 0.0000 0.0000 19.3678 0.0000 -5.2469
# 5 -18.8684 -4.3776 -21.7867 0.0000 28.2547 0.0000
# 6 0.0000 0.0000 0.0000 -5.2469 0.0000 21.4256
#
#
#
# Elastic Compliance Matrix: (Units=1/GPa)
#
#
# Indices 1 2 3 4 5 6 
#
# 1 0.018388 -0.010214 -0.001267 0.000000 0.009720 0.000000
# 2 -0.010214 0.037083 -0.010803 0.000000 -0.009405 0.000000
# 3 -0.001267 -0.010803 0.017275 0.000000 0.010801 0.000000
# 4 0.000000 0.000000 0.000000 0.055301 0.000000 0.013543
# 5 0.009720 -0.009405 0.010801 0.000000 0.048754 0.000000
# 6 0.000000 0.000000 0.000000 0.013543 0.000000 0.049990
#
#
# Mechanical properties :
#
#
# Convention : Reuss Voigt Hill
#
# Bulk Modulus (GPa) = 35.48794 45.57771 40.53282
# Shear Modulus (GPa) = 17.80931 22.06348 19.93639
#
# Velocity S-wave (km/s) = 3.07962 3.42777 3.25835
# Velocity P-wave (km/s) = 5.61641 6.31964 5.97837
#
# Compressibility (1/GPa) = 0.02817859
#
# Stress axis : x y z
#
# Youngs Moduli (GPa) = 54.38201 26.96679 57.88583
#
# Poissons Ratio (x) = 0.27543 0.07336
# Poissons Ratio (y) = 0.55543 0.62534
# Poissons Ratio (z) = 0.06892 0.29132
#
# Static dielectric constant tensor:
#      x y z
#    x 3.418540 0.000000 -0.288590 
#    y 0.000000 3.121540 0.000000 
#    z -0.288590 0.000000 3.294590 
# 
# 
# High freq. dielectric constant tensor:
#      x y z
#    x 1.731550 0.000000 -0.004050 
#    y 0.000000 1.696340 0.000000 
#    z -0.004050 0.000000 1.740220 
# 
# From -- ./inp_files/359861.got.cif
#   From: 2010.06.25/outbox.cif.g09.slc.cpg/sg12_180_cif.got.tgz:359861.got - 2010.06.28 00:19:55.
