data_PCOD8106004
_publ_section_title
;
Structure prediction by ZEFSAII (Michael W. Deem and Ramdas Pophale) SiO2 
 PCOD8106004
Probable space group: C 2/M
;
_chemical_formula_sum "Si O2"
_cell_formula_units_Z 64
_cell_length_a 28.607546
_cell_length_b 9.194880
_cell_length_c 12.703189
_cell_angle_alpha 90.000000
_cell_angle_beta 90.000062
_cell_angle_gamma 90.000000
_cell_volume 3341.484342
_symmetry_space_group_name_H-M "C 2/M"
_symmetry_group_IT_number 12
_symmetry_cell_setting 'monoclinic'
loop_
_space_group_symop_operation_xyz
x,y,z
-x,y,-z
-x,-y,-z
x,-y,z
1/2+x,1/2+y,z
1/2-x,1/2+y,-z
1/2-x,1/2-y,-z
1/2+x,1/2-y,z
loop_
_atom_site_type_symbol
_atom_site_label
_atom_site_fract_x
_atom_site_fract_y
_atom_site_fract_z
Si Si1 0.853297 0.167561 0.708167
Si Si2 0.146703 0.832438 0.708166
Si Si3 0.052020 0.833358 0.795996
Si Si4 0.700376 0.671620 0.500000
Si Si5 0.202117 0.331129 0.879657
Si Si6 0.447980 0.666642 0.795996
Si Si7 0.055257 0.338901 1.000000
Si Si8 0.702116 0.168871 0.120342
O O1 0.829691 0.221773 0.600617
O O2 0.909962 0.186247 0.702155
O O3 0.836924 0.265914 0.804498
O O4 0.839971 0.000000 0.729923
O O5 0.090037 0.813750 0.702155
O O6 0.170308 0.778228 0.600616
O O7 0.163076 0.734085 0.804497
O O8 0.160028 0.000000 0.729923
O O9 1.000000 0.781975 0.758656
O O10 0.049666 0.000000 0.832421
O O11 0.071276 0.743827 0.895416
O O12 0.709072 0.500000 0.500000
O O13 0.750000 0.750000 0.500000
O O14 0.209598 0.500000 0.854644
O O15 0.250000 0.249999 0.854649
O O16 0.186094 0.305978 1.000000
O O17 0.450334 0.500000 0.832423
O O18 0.428724 0.756174 0.895416
O O19 0.078134 0.500000 1.000000
O O20 0.000000 0.349689 0.000000
O O21 0.709596 0.000000 0.145355
#
# Coordination Sequence:
#
# PCOD8106004 Si02
#       8
#     8   8   8   8   8   8   8   8
#     4  10  21  36  56  80 108 143 183 226 272 324
#     4  10  21  36  56  80 108 143 183 226 272 324
#     4   9  18  33  52  76 108 146 185 222 265 319
#     4  10  22  40  59  81 107 137 180 230 279 328
#     4  10  21  36  54  79 110 141 175 220 273 332
#     4   9  18  33  52  76 108 146 185 222 265 319
#     4   9  17  29  47  73 106 143 180 221 265 309
#     4  10  21  36  54  79 110 141 175 220 273 332
#
# _framework density 19.153165000000001
#
# number of rings (size 3 to 8) (size 9 to 14) (size 15 to 20)
#    0.000    2.375    0.000    1.875    1.750    7.000 
#    0.000    0.625    0.000    3.750    0.000    0.000 
#    0.000    7.000    0.000    0.000    0.000    0.000 
#
# Total GULP energy -396710.697384 kJ/mol
# GULP energy per Si atom -12397.209293 kJ/mol
# Density = 1.910957 g / cm^3
# Si number density = 19.153165 Si / 1000 Ang^3
#
#
#
# Elastic Constant Matrix: (Units=GPa)
#
#
# Indices 1 2 3 4 5 6 
#
# 1 133.6833 46.4147 81.1486 0.0000 -0.0004 0.0000
# 2 46.4147 78.1372 41.2368 0.0000 0.0000 0.0000
# 3 81.1486 41.2368 98.8210 0.0000 -0.0002 0.0000
# 4 0.0000 0.0000 0.0000 19.9299 0.0000 0.0002
# 5 -0.0004 0.0000 -0.0002 0.0000 33.6592 0.0000
# 6 0.0000 0.0000 0.0000 0.0002 0.0000 24.2302
#
#
#
# Elastic Compliance Matrix: (Units=1/GPa)
#
#
# Indices 1 2 3 4 5 6 
#
# 1 0.015513 -0.003196 -0.011405 0.000000 0.000000 0.000000
# 2 -0.003196 0.017071 -0.004499 0.000000 0.000000 0.000000
# 3 -0.011405 -0.004499 0.021362 0.000000 0.000000 0.000000
# 4 0.000000 0.000000 0.000000 0.050176 0.000000 0.000000
# 5 0.000000 0.000000 0.000000 0.000000 0.029710 0.000000
# 6 0.000000 0.000000 0.000000 0.000000 0.000000 0.041271
#
#
# Mechanical properties :
#
#
# Convention : Reuss Voigt Hill
#
# Bulk Modulus (GPa) = 63.50900 72.02685 67.76792
# Shear Modulus (GPa) = 22.87784 25.01997 23.94891
#
# Velocity S-wave (km/s) = 3.45986 3.61821 3.53992
# Velocity P-wave (km/s) = 7.01365 7.42581 7.22267
#
# Compressibility (1/GPa) = 0.01574580
#
# Stress axis : x y z
#
# Youngs Moduli (GPa) = 64.46067 58.57954 46.81110
#
# Poissons Ratio (x) = 0.18722 0.53390
# Poissons Ratio (y) = 0.20601 0.21060
# Poissons Ratio (z) = 0.73520 0.26355
#
# Static dielectric constant tensor:
#      x y z
#    x 3.629470 0.000000 0.000000 
#    y 0.000000 3.581370 0.000000 
#    z 0.000000 0.000000 3.366540 
# 
# 
# High freq. dielectric constant tensor:
#      x y z
#    x 1.757060 0.000000 0.000000 
#    y 0.000000 1.743330 0.000000 
#    z 0.000000 0.000000 1.718120 
# 
# From -- ./inp_files/125761.got.cif
#   From: 2010.06.25/outbox.cif.g09.slc.cpg/sg12_63_cif.got.tgz:125761.got - 2010.06.28 00:19:55.
