data_PCOD8106404
_publ_section_title
;
Structure prediction by ZEFSAII (Michael W. Deem and Ramdas Pophale) SiO2 
 PCOD8106404
Probable space group: C 2/M
;
_chemical_formula_sum "Si O2"
_cell_formula_units_Z 48
_cell_length_a 18.804890
_cell_length_b 9.180968
_cell_length_c 25.433893
_cell_angle_alpha 90.000000
_cell_angle_beta 145.259424
_cell_angle_gamma 90.000000
_cell_volume 2502.312308
_symmetry_space_group_name_H-M "C 2/M"
_symmetry_group_IT_number 12
_symmetry_cell_setting 'monoclinic'
loop_
_space_group_symop_operation_xyz
x,y,z
-x,y,-z
-x,-y,-z
x,-y,z
1/2+x,1/2+y,z
1/2-x,1/2+y,-z
1/2-x,1/2-y,-z
1/2+x,1/2-y,z
loop_
_atom_site_type_symbol
_atom_site_label
_atom_site_fract_x
_atom_site_fract_y
_atom_site_fract_z
Si Si1 0.117362 0.826714 0.418172
Si Si2 0.964630 0.662220 0.038316
Si Si3 0.745218 0.835269 0.943592
Si Si4 0.447877 0.673146 0.412899
Si Si5 0.467971 0.166132 0.734107
Si Si6 0.668142 0.827344 0.243315
O O1 0.250000 0.750000 0.500000
O O2 0.036993 0.774573 0.419731
O O3 0.047633 0.775341 0.323575
O O4 0.133876 0.000000 0.427793
O O5 0.932280 0.500000 0.040593
O O6 0.075703 0.730952 0.141447
O O7 0.844616 0.764418 0.965070
O O8 0.000000 0.650310 0.000000
O O9 0.610755 0.824298 0.836560
O O10 0.784023 0.000000 0.978208
O O11 0.750000 0.750000 0.000000
O O12 0.500000 0.733728 0.500000
O O13 0.443624 0.500000 0.411904
O O14 0.307607 0.735720 0.319284
O O15 0.381960 0.221076 0.729979
O O16 0.431543 0.000000 0.696443
O O17 0.672010 0.000000 0.242309
#
# Coordination Sequence:
#
# PCOD8106404 Si02
#       6
#     8   8   8   8   8   8
#     4  11  23  38  61  90 116 146 188 237 289 348
#     4  10  21  36  58  85 117 157 202 249 293 348
#     4  11  22  38  60  86 120 160 203 247 297 353
#     4   9  18  33  57  84 108 142 187 232 277 334
#     4  10  21  38  60  84 116 154 190 238 293 346
#     4   9  17  34  56  81 112 148 192 238 286 334
#
# _framework density 19.182257
#
# number of rings (size 3 to 8) (size 9 to 14) (size 15 to 20)
#    0.000    2.000    1.667    2.000    2.333    4.333 
#    0.000    0.000    0.000    9.000    0.000    0.000 
#    0.000    0.000    0.000    0.000    0.000    0.000 
#
# Total GULP energy -297589.276571 kJ/mol
# GULP energy per Si atom -12399.553190 kJ/mol
# Density = 1.913860 g / cm^3
# Si number density = 19.182257 Si / 1000 Ang^3
#
#
#
# Elastic Constant Matrix: (Units=GPa)
#
#
# Indices 1 2 3 4 5 6 
#
# 1 151.0972 46.5749 70.5919 0.0000 7.8993 0.0000
# 2 46.5749 76.4374 40.1444 0.0000 4.5284 0.0000
# 3 70.5919 40.1444 99.1788 0.0000 5.5369 0.0000
# 4 0.0000 0.0000 0.0000 29.4000 0.0000 0.2347
# 5 7.8993 4.5284 5.5369 0.0000 42.3253 0.0000
# 6 0.0000 0.0000 0.0000 0.2347 0.0000 25.6501
#
#
#
# Elastic Compliance Matrix: (Units=1/GPa)
#
#
# Indices 1 2 3 4 5 6 
#
# 1 0.010503 -0.003110 -0.006171 0.000000 -0.000820 0.000000
# 2 -0.003110 0.017570 -0.004861 0.000000 -0.000663 0.000000
# 3 -0.006171 -0.004861 0.016470 0.000000 -0.000483 0.000000
# 4 0.000000 0.000000 0.000000 0.034016 0.000000 -0.000311
# 5 -0.000820 -0.000663 -0.000483 0.000000 0.023914 0.000000
# 6 0.000000 0.000000 0.000000 -0.000311 0.000000 0.038989
#
#
# Mechanical properties :
#
#
# Convention : Reuss Voigt Hill
#
# Bulk Modulus (GPa) = 61.50716 71.25953 66.38334
# Shear Modulus (GPa) = 28.54455 30.76853 29.65654
#
# Velocity S-wave (km/s) = 3.86174 4.00935 3.93624
# Velocity P-wave (km/s) = 7.21237 7.65915 7.43911
#
# Compressibility (1/GPa) = 0.01625827
#
# Stress axis : x y z
#
# Youngs Moduli (GPa) = 95.21266 56.91535 60.71808
#
# Poissons Ratio (x) = 0.17701 0.37468
# Poissons Ratio (y) = 0.29612 0.29515
# Poissons Ratio (z) = 0.58754 0.27667
#
# Static dielectric constant tensor:
#      x y z
#    x 3.620860 0.000000 0.155000 
#    y 0.000000 3.733090 0.000000 
#    z 0.155000 0.000000 3.592110 
# 
# 
# High freq. dielectric constant tensor:
#      x y z
#    x 1.758490 0.000000 0.003350 
#    y 0.000000 1.709490 0.000000 
#    z 0.003350 0.000000 1.760980 
# 
# From -- ./inp_files/365539.got.cif
#   From: 2010.06.25/outbox.cif.g09.slc.cpg/sg12_183_cif.got.tgz:365539.got - 2010.06.28 00:19:55.
