data_PCOD8106262
_publ_section_title
;
Structure prediction by ZEFSAII (Michael W. Deem and Ramdas Pophale) SiO2 
 PCOD8106262
Probable space group: C 2/M
;
_chemical_formula_sum "Si O2"
_cell_formula_units_Z 56
_cell_length_a 8.927876
_cell_length_b 12.504144
_cell_length_c 23.035002
_cell_angle_alpha 90.000000
_cell_angle_beta 120.475741
_cell_angle_gamma 90.000000
_cell_volume 2216.251386
_symmetry_space_group_name_H-M "C 2/M"
_symmetry_group_IT_number 12
_symmetry_cell_setting 'monoclinic'
loop_
_space_group_symop_operation_xyz
x,y,z
-x,y,-z
-x,-y,-z
x,-y,z
1/2+x,1/2+y,z
1/2-x,1/2+y,-z
1/2-x,1/2-y,-z
1/2+x,1/2-y,z
loop_
_atom_site_type_symbol
_atom_site_label
_atom_site_fract_x
_atom_site_fract_y
_atom_site_fract_z
Si Si1 0.688418 0.872593 0.520228
Si Si2 0.968826 0.127130 0.353253
Si Si3 0.557459 0.790935 0.952244
Si Si4 0.460296 0.624662 0.221696
Si Si5 0.207313 0.310715 0.866918
Si Si6 0.310692 0.128215 0.610422
Si Si7 0.163793 0.621091 0.732341
O O1 0.500000 0.826638 0.500000
O O2 0.738718 0.835375 0.464686
O O3 0.835700 0.828371 0.594128
O O4 0.684073 0.000000 0.521621
O O5 0.834313 0.171788 0.374096
O O6 0.901308 0.155904 0.275263
O O7 0.982282 0.000000 0.360508
O O8 0.416751 0.692413 0.918386
O O9 0.586761 0.855055 0.897020
O O10 0.500000 0.856145 0.000000
O O11 0.750000 0.750000 0.000000
O O12 0.447885 0.500000 0.204975
O O13 0.335707 0.684896 0.152198
O O14 0.654903 0.671489 0.252325
O O15 0.149081 0.377612 0.799467
O O16 0.499846 0.177411 0.667389
O O17 0.321889 0.000000 0.616480
O O18 0.162533 0.500000 0.710586
#
# Coordination Sequence:
#
# PCOD8106262 Si02
#       7
#     8   8   8   8   8   8   8
#     4   9  15  25  43  66 101 150 196 237 291 344
#     4   9  17  28  45  73 108 146 192 246 289 332
#     4   9  20  38  64  90 117 151 190 226 277 339
#     4  10  21  36  56  85 120 153 193 239 286 341
#     4  11  20  38  64  89 115 156 188 229 287 338
#     4   9  17  28  45  73 108 146 193 245 288 334
#     4  10  21  36  56  85 119 154 194 237 285 344
#
# _framework density 25.267893000000001
#
# number of rings (size 3 to 8) (size 9 to 14) (size 15 to 20)
#    0.000    2.429    1.429    1.286    2.000    5.143 
#    0.000    0.000    0.000   18.000    0.000    0.000 
#    0.000    0.000    0.000    0.000    0.000    0.000 
#
# Total GULP energy -347026.770070 kJ/mol
# GULP energy per Si atom -12393.813217 kJ/mol
# Density = 2.521038 g / cm^3
# Si number density = 25.267893 Si / 1000 Ang^3
#
#
#
# Elastic Constant Matrix: (Units=GPa)
#
#
# Indices 1 2 3 4 5 6 
#
# 1 173.9642 -1.4006 64.4962 0.0000 -18.5293 0.0000
# 2 -1.4006 39.3217 8.0157 0.0000 8.5837 0.0000
# 3 64.4962 8.0157 138.1640 0.0000 -0.6407 0.0000
# 4 0.0000 0.0000 0.0000 19.3724 0.0000 -2.6957
# 5 -18.5293 8.5837 -0.6407 0.0000 52.4688 0.0000
# 6 0.0000 0.0000 0.0000 -2.6957 0.0000 22.3876
#
#
#
# Elastic Compliance Matrix: (Units=1/GPa)
#
#
# Indices 1 2 3 4 5 6 
#
# 1 0.007278 0.000417 -0.003410 0.000000 0.002460 0.000000
# 2 0.000417 0.026733 -0.001765 0.000000 -0.004248 0.000000
# 3 -0.003410 -0.001765 0.008928 0.000000 -0.000806 0.000000
# 4 0.000000 0.000000 0.000000 0.052500 0.000000 0.006322
# 5 0.002460 -0.004248 -0.000806 0.000000 0.020613 0.000000
# 6 0.000000 0.000000 0.000000 0.006322 0.000000 0.045429
#
#
# Mechanical properties :
#
#
# Convention : Reuss Voigt Hill
#
# Bulk Modulus (GPa) = 29.91961 54.85252 42.38606
# Shear Modulus (GPa) = 27.45163 37.53501 32.49332
#
# Velocity S-wave (km/s) = 3.29967 3.85838 3.58991
# Velocity P-wave (km/s) = 5.13651 6.45019 5.83047
#
# Compressibility (1/GPa) = 0.03342290
#
# Stress axis : x y z
#
# Youngs Moduli (GPa) = 137.39930 37.40665 112.00215
#
# Poissons Ratio (x) = -0.01561 0.38196
# Poissons Ratio (y) = -0.05734 0.19774
# Poissons Ratio (z) = 0.46857 0.06604
#
# Static dielectric constant tensor:
#      x y z
#    x 5.145800 0.000000 -0.226660 
#    y 0.000000 4.322120 0.000000 
#    z -0.226660 0.000000 5.049630 
# 
# 
# High freq. dielectric constant tensor:
#      x y z
#    x 2.021760 0.000000 -0.003300 
#    y 0.000000 1.994710 0.000000 
#    z -0.003300 0.000000 2.020740 
# 
# From -- ./inp_files/300669.got.cif
#   From: 2010.06.25/outbox.cif.g09.slc.cpg/sg12_151_cif.got.tgz:300669.got - 2010.06.28 00:19:55.
