data_PCOD8106493
_publ_section_title
;
Structure prediction by ZEFSAII (Michael W. Deem and Ramdas Pophale) SiO2 
 PCOD8106493
Probable space group: C 2/M
;
_chemical_formula_sum "Si O2"
_cell_formula_units_Z 48
_cell_length_a 20.714575
_cell_length_b 14.892760
_cell_length_c 11.637357
_cell_angle_alpha 90.000000
_cell_angle_beta 41.347249
_cell_angle_gamma 90.000000
_cell_volume 2371.690060
_symmetry_space_group_name_H-M "C 2/M"
_symmetry_group_IT_number 12
_symmetry_cell_setting 'monoclinic'
loop_
_space_group_symop_operation_xyz
x,y,z
-x,y,-z
-x,-y,-z
x,-y,z
1/2+x,1/2+y,z
1/2-x,1/2+y,-z
1/2-x,1/2-y,-z
1/2+x,1/2-y,z
loop_
_atom_site_type_symbol
_atom_site_label
_atom_site_fract_x
_atom_site_fract_y
_atom_site_fract_z
Si Si1 0.387431 0.734262 0.669541
Si Si2 0.640083 0.183243 0.529105
Si Si3 0.072900 0.718592 0.137675
Si Si4 0.730441 0.100159 0.812855
Si Si5 0.705053 0.372425 0.523763
Si Si6 0.996276 0.902087 0.873601
O O1 0.500000 0.707284 0.500000
O O2 0.351139 0.804474 0.620279
O O3 0.371957 0.781023 0.813111
O O4 0.326616 0.642407 0.742648
O O5 0.528357 0.163743 0.714407
O O6 0.672317 0.270645 0.554514
O O7 0.717154 0.110294 0.475145
O O8 0.058468 0.823112 0.122507
O O9 0.138058 0.664618 0.960092
O O10 0.743691 0.091228 0.659070
O O11 0.713858 0.000000 0.885714
O O12 0.605296 0.423536 0.683474
O O13 0.942224 0.000000 0.933941
O O14 0.000000 0.869713 0.000000
#
# Coordination Sequence:
#
# PCOD8106493 Si02
#       6
#     8   8   8   8   8   8
#     4   9  19  37  59  84 106 153 202 233 286 340
#     4   8  17  33  58  82 109 151 190 231 275 342
#     4  10  21  36  59  86 119 155 190 231 292 345
#     4  11  23  36  56  87 122 153 189 236 284 347
#     4   9  18  34  57  82 112 151 185 230 294 332
#     4  10  22  37  58  88 117 147 194 246 289 337
#
# _framework density 20.238733
#
# number of rings (size 3 to 8) (size 9 to 14) (size 15 to 20)
#    0.000    2.500    0.000    2.000    9.333    1.000 
#    0.000    2.500    0.000    5.500    0.000    0.000 
#    0.000    0.000    0.000    0.000    0.000    0.000 
#
# Total GULP energy -297396.783041 kJ/mol
# GULP energy per Si atom -12391.532627 kJ/mol
# Density = 2.019267 g / cm^3
# Si number density = 20.238733 Si / 1000 Ang^3
#
#
#
# Elastic Constant Matrix: (Units=GPa)
#
#
# Indices 1 2 3 4 5 6 
#
# 1 119.1298 25.8627 42.6586 0.0000 5.8012 0.0000
# 2 25.8627 74.3779 40.9504 0.0000 -8.7570 0.0000
# 3 42.6586 40.9504 112.1882 0.0000 8.8233 0.0000
# 4 0.0000 0.0000 0.0000 -15.5044 0.0000 -14.3000
# 5 5.8012 -8.7570 8.8233 0.0000 30.0575 0.0000
# 6 0.0000 0.0000 0.0000 -14.3000 0.0000 7.2403
#
#
#
# Elastic Compliance Matrix: (Units=1/GPa)
#
#
# Indices 1 2 3 4 5 6 
#
# 1 0.009963 -0.002062 -0.002904 0.000000 -0.001671 0.000000
# 2 -0.002062 0.018760 -0.006679 0.000000 0.007824 0.000000
# 3 -0.002904 -0.006679 0.012862 0.000000 -0.005161 0.000000
# 4 0.000000 0.000000 0.000000 -0.022858 0.000000 -0.045146
# 5 -0.001671 0.007824 -0.005161 0.000000 0.037387 0.000000
# 6 0.000000 0.000000 0.000000 -0.045146 0.000000 0.048949
#
#
# Mechanical properties :
#
#
# Convention : Reuss Voigt Hill
#
# Bulk Modulus (GPa) = 54.66155 58.29327 56.47741
# Shear Modulus (GPa) = 37.18798 17.44028 27.31413
#
# Velocity S-wave (km/s) = 4.29122 2.93870 3.67767
# Velocity P-wave (km/s) = 7.18469 6.35453 6.78232
#
# Compressibility (1/GPa) = 0.01829440
#
# Stress axis : x y z
#
# Youngs Moduli (GPa) = 100.36879 53.30366 77.74965
#
# Poissons Ratio (x) = 0.10992 0.22581
# Poissons Ratio (y) = 0.20698 0.51930
# Poissons Ratio (z) = 0.29150 0.35602
#
# Static dielectric constant tensor:
#      x y z
#    x 3.900590 0.000000 -0.084440 
#    y 0.000000 3.410800 0.000000 
#    z -0.084440 0.000000 3.769600 
# 
# 
# High freq. dielectric constant tensor:
#      x y z
#    x 1.789780 0.000000 0.001050 
#    y 0.000000 1.760730 0.000000 
#    z 0.001050 0.000000 1.795800 
# 
# From -- ./inp_files/167524.got.cif
#   From: 2010.06.25/outbox.cif.g09.slc.cpg/sg12_84_cif.got.tgz:167524.got - 2010.06.28 00:19:55.
