data_PCOD8106189
_publ_section_title
;
Structure prediction by ZEFSAII (Michael W. Deem and Ramdas Pophale) SiO2 
 PCOD8106189
Probable space group: C 2/M
;
_chemical_formula_sum "Si O2"
_cell_formula_units_Z 56
_cell_length_a 15.391454
_cell_length_b 9.084416
_cell_length_c 22.530719
_cell_angle_alpha 90.000000
_cell_angle_beta 110.853384
_cell_angle_gamma 90.000000
_cell_volume 2943.936379
_symmetry_space_group_name_H-M "C 2/M"
_symmetry_group_IT_number 12
_symmetry_cell_setting 'monoclinic'
loop_
_space_group_symop_operation_xyz
x,y,z
-x,y,-z
-x,-y,-z
x,-y,z
1/2+x,1/2+y,z
1/2-x,1/2+y,-z
1/2-x,1/2-y,-z
1/2+x,1/2-y,z
loop_
_atom_site_type_symbol
_atom_site_label
_atom_site_fract_x
_atom_site_fract_y
_atom_site_fract_z
Si Si1 0.578602 0.325370 0.653194
Si Si2 0.350001 0.326998 0.877800
Si Si3 0.159508 0.328706 0.002649
Si Si4 0.126580 0.173033 0.425779
Si Si5 0.356781 0.171698 0.213379
Si Si6 0.485894 0.169533 0.136030
Si Si7 0.697479 0.672938 0.571108
O O1 0.580612 0.500000 0.656498
O O2 0.473713 0.268366 0.618812
O O3 0.621272 0.262341 0.723035
O O4 0.638949 0.268188 0.612474
O O5 0.362133 0.500000 0.891113
O O6 0.372796 0.242237 0.943821
O O7 0.246556 0.287406 0.832207
O O8 0.422315 0.270352 0.845694
O O9 0.182283 0.500000 0.017251
O O10 0.250000 0.250000 0.000000
O O11 0.076155 0.305489 0.936886
O O12 0.202330 0.250323 0.402577
O O13 0.141810 0.216811 0.498114
O O14 0.135924 0.000000 0.419028
O O15 0.428133 0.219781 0.179486
O O16 0.365341 0.000000 0.229597
O O17 0.516351 0.000000 0.148994
O O18 0.713788 0.500000 0.578556
#
# Coordination Sequence:
#
# PCOD8106189 Si02
#       7
#     8   8   8   8   8   8   8
#     4  10  21  36  56  81 109 145 190 227 270 330
#     4  11  23  40  60  86 114 146 189 234 282 337
#     4  11  21  37  62  88 117 148 183 231 286 337
#     4   9  18  34  56  82 112 143 179 227 277 326
#     4  10  23  42  57  76 114 153 186 230 280 328
#     4  10  22  41  60  82 113 149 185 228 284 338
#     4   9  18  34  56  82 112 144 179 225 278 330
#
# _framework density 19.022148999999999
#
# number of rings (size 3 to 8) (size 9 to 14) (size 15 to 20)
#    0.000    2.000    1.429    1.714    0.000    8.571 
#    0.000    5.714    0.000    4.286    0.000    0.000 
#    0.000    0.000    0.000    0.000    0.000    0.000 
#
# Total GULP energy -347315.218143 kJ/mol
# GULP energy per Si atom -12404.114934 kJ/mol
# Density = 1.897885 g / cm^3
# Si number density = 19.022149 Si / 1000 Ang^3
#
#
#
# Elastic Constant Matrix: (Units=GPa)
#
#
# Indices 1 2 3 4 5 6 
#
# 1 125.9723 40.6332 29.9801 0.0000 -6.0937 0.0000
# 2 40.6332 52.0658 27.5157 0.0000 -2.8247 0.0000
# 3 29.9801 27.5157 69.9755 0.0000 -12.7022 0.0000
# 4 0.0000 0.0000 0.0000 32.8172 0.0000 -0.4004
# 5 -6.0937 -2.8247 -12.7022 0.0000 13.1816 0.0000
# 6 0.0000 0.0000 0.0000 -0.4004 0.0000 38.2933
#
#
#
# Elastic Compliance Matrix: (Units=1/GPa)
#
#
# Indices 1 2 3 4 5 6 
#
# 1 0.010809 -0.007673 -0.001218 0.000000 0.002179 0.000000
# 2 -0.007673 0.029949 -0.009657 0.000000 -0.006435 0.000000
# 3 -0.001218 -0.009657 0.021976 0.000000 0.018544 0.000000
# 4 0.000000 0.000000 0.000000 0.030476 0.000000 0.000319
# 5 0.002179 -0.006435 0.018544 0.000000 0.093361 0.000000
# 6 0.000000 0.000000 0.000000 0.000319 0.000000 0.026118
#
#
# Mechanical properties :
#
#
# Convention : Reuss Voigt Hill
#
# Bulk Modulus (GPa) = 39.00627 49.36350 44.18489
# Shear Modulus (GPa) = 19.35494 26.85074 23.10284
#
# Velocity S-wave (km/s) = 3.19328 3.76114 3.48878
# Velocity P-wave (km/s) = 5.84348 6.69839 6.28549
#
# Compressibility (1/GPa) = 0.02563690
#
# Stress axis : x y z
#
# Youngs Moduli (GPa) = 92.51879 33.38962 45.50371
#
# Poissons Ratio (x) = 0.25621 0.05542
# Poissons Ratio (y) = 0.70993 0.43944
# Poissons Ratio (z) = 0.11269 0.32245
#
# Static dielectric constant tensor:
#      x y z
#    x 3.768760 0.000000 0.014880 
#    y 0.000000 3.396460 0.000000 
#    z 0.014880 0.000000 3.472490 
# 
# 
# High freq. dielectric constant tensor:
#      x y z
#    x 1.756890 0.000000 -0.000470 
#    y 0.000000 1.733750 0.000000 
#    z -0.000470 0.000000 1.734720 
# 
# From -- ./inp_files/338571.got.cif
#   From: 2010.06.25/outbox.cif.g09.slc.cpg/sg12_170_cif.got.tgz:338571.got - 2010.06.28 00:19:55.
