data_PCOD8106728
_publ_section_title
;
Structure prediction by ZEFSAII (Michael W. Deem and Ramdas Pophale) SiO2 
 PCOD8106728
Probable space group: C 2/M
;
_chemical_formula_sum "Si O2"
_cell_formula_units_Z 64
_cell_length_a 32.864481
_cell_length_b 9.075247
_cell_length_c 20.126585
_cell_angle_alpha 90.000000
_cell_angle_beta 147.866573
_cell_angle_gamma 90.000000
_cell_volume 3192.856218
_symmetry_space_group_name_H-M "C 2/M"
_symmetry_group_IT_number 12
_symmetry_cell_setting 'monoclinic'
loop_
_space_group_symop_operation_xyz
x,y,z
-x,y,-z
-x,-y,-z
x,-y,z
1/2+x,1/2+y,z
1/2-x,1/2+y,-z
1/2-x,1/2-y,-z
1/2+x,1/2-y,z
loop_
_atom_site_type_symbol
_atom_site_label
_atom_site_fract_x
_atom_site_fract_y
_atom_site_fract_z
Si Si1 0.951252 0.673430 0.040697
Si Si2 0.589053 0.825121 0.634613
Si Si3 0.426934 0.663833 0.135069
Si Si4 0.830763 0.824086 0.128357
Si Si5 0.108806 0.831096 0.266519
Si Si6 0.172796 0.673434 0.617733
Si Si7 0.334422 0.670235 0.793416
Si Si8 0.105827 0.162252 0.406427
O O1 0.948798 0.500000 0.036298
O O2 0.908550 0.729798 0.048164
O O3 0.037894 0.725340 0.154636
O O4 0.906513 0.735542 0.915698
O O5 0.500000 0.781722 0.500000
O O6 0.627449 0.741616 0.749199
O O7 0.636462 0.768879 0.635927
O O8 0.596790 0.000000 0.656541
O O9 0.397742 0.500000 0.076197
O O10 0.384071 0.720901 0.140768
O O11 0.515960 0.663158 0.272050
O O12 0.821709 0.000000 0.124343
O O13 0.750000 0.750000 0.000000
O O14 0.171728 0.809865 0.295348
O O15 0.144545 0.794701 0.388742
O O16 0.078373 0.000000 0.225518
O O17 0.172720 0.500000 0.617865
O O18 0.258629 0.733117 0.724613
O O19 0.122585 0.720674 0.485889
O O20 0.347508 0.500000 0.830123
O O21 0.133889 0.000000 0.468017
#
# Coordination Sequence:
#
# PCOD8106728 Si02
#       8
#     8   8   8   8   8   8   8   8
#     4  11  22  34  55  86 115 143 186 241 288 335
#     4  10  22  41  63  88 122 162 205 254 305 362
#     4   9  20  39  60  81 111 153 191 227 282 353
#     4  11  24  40  62  91 123 158 200 250 306 366
#     4   9  19  37  58  79 108 152 195 230 280 346
#     4  10  22  37  56  83 113 150 191 235 290 345
#     4  10  21  37  55  76 111 156 195 229 279 351
#     4   9  18  35  58  82 107 141 190 238 281 335
#
# _framework density 20.044750000000001
#
# number of rings (size 3 to 8) (size 9 to 14) (size 15 to 20)
#    0.000    2.125    0.000    3.375    1.750    6.750 
#    0.000    0.000    0.000    0.000    0.000    0.000 
#    0.000    0.000    0.000    0.000    0.000    0.000 
#
# Total GULP energy -396702.833772 kJ/mol
# GULP energy per Si atom -12396.963555 kJ/mol
# Density = 1.999913 g / cm^3
# Si number density = 20.044750 Si / 1000 Ang^3
#
#
#
# Elastic Constant Matrix: (Units=GPa)
#
#
# Indices 1 2 3 4 5 6 
#
# 1 152.5387 38.1988 39.3873 0.0000 -13.4738 0.0000
# 2 38.1988 65.3800 32.8021 0.0000 -6.1509 0.0000
# 3 39.3873 32.8021 80.8122 0.0000 -14.0905 0.0000
# 4 0.0000 0.0000 0.0000 32.1025 0.0000 -7.8361
# 5 -13.4738 -6.1509 -14.0905 0.0000 24.8576 0.0000
# 6 0.0000 0.0000 0.0000 -7.8361 0.0000 18.5021
#
#
#
# Elastic Compliance Matrix: (Units=1/GPa)
#
#
# Indices 1 2 3 4 5 6 
#
# 1 0.008195 -0.003477 -0.002173 0.000000 0.002350 0.000000
# 2 -0.003477 0.020684 -0.006811 0.000000 -0.000627 0.000000
# 3 -0.002173 -0.006811 0.017421 0.000000 0.007012 0.000000
# 4 0.000000 0.000000 0.000000 0.034742 0.000000 0.014714
# 5 0.002350 -0.000627 0.007012 0.000000 0.045322 0.000000
# 6 0.000000 0.000000 0.000000 0.014714 0.000000 0.060279
#
#
# Mechanical properties :
#
#
# Convention : Reuss Voigt Hill
#
# Bulk Modulus (GPa) = 46.77513 57.72304 52.24909
# Shear Modulus (GPa) = 22.86325 27.64862 25.25594
#
# Velocity S-wave (km/s) = 3.38096 3.71798 3.55347
# Velocity P-wave (km/s) = 6.21508 6.87683 6.55431
#
# Compressibility (1/GPa) = 0.02137888
#
# Stress axis : x y z
#
# Youngs Moduli (GPa) = 122.02476 48.34540 57.40286
#
# Poissons Ratio (x) = 0.16808 0.12476
# Poissons Ratio (y) = 0.42423 0.39096
# Poissons Ratio (z) = 0.26520 0.32927
#
# Static dielectric constant tensor:
#      x y z
#    x 4.161430 0.000000 -0.141420 
#    y 0.000000 3.637960 0.000000 
#    z -0.141420 0.000000 3.502280 
# 
# 
# High freq. dielectric constant tensor:
#      x y z
#    x 1.801830 0.000000 -0.010460 
#    y 0.000000 1.770650 0.000000 
#    z -0.010460 0.000000 1.771870 
# 
# From -- ./inp_files/295810.got.cif
#   From: 2010.06.25/outbox.cif.g09.slc.cpg/sg12_148_cif.got.tgz:295810.got - 2010.06.28 00:19:55.
