data_PCOD8106520
_publ_section_title
;
Structure prediction by ZEFSAII (Michael W. Deem and Ramdas Pophale) SiO2 
 PCOD8106520
Probable space group: C 2/M
;
_chemical_formula_sum "Si O2"
_cell_formula_units_Z 64
_cell_length_a 14.730444
_cell_length_b 26.143124
_cell_length_c 12.113569
_cell_angle_alpha 90.000000
_cell_angle_beta 40.185593
_cell_angle_gamma 90.000000
_cell_volume 3010.121031
_symmetry_space_group_name_H-M "C 2/M"
_symmetry_group_IT_number 12
_symmetry_cell_setting 'monoclinic'
loop_
_space_group_symop_operation_xyz
x,y,z
-x,y,-z
-x,-y,-z
x,-y,z
1/2+x,1/2+y,z
1/2-x,1/2+y,-z
1/2-x,1/2-y,-z
1/2+x,1/2-y,z
loop_
_atom_site_type_symbol
_atom_site_label
_atom_site_fract_x
_atom_site_fract_y
_atom_site_fract_z
Si Si1 0.347008 0.698564 0.106126
Si Si2 0.164945 0.395868 0.336603
Si Si3 0.265943 0.060534 0.494086
Si Si4 0.665042 0.185203 0.851480
Si Si5 0.101267 0.868406 0.502737
Si Si6 0.729878 0.556946 0.979878
Si Si7 0.861624 0.838961 0.861657
Si Si8 0.492239 0.942514 0.885881
O O1 0.229734 0.660066 0.259110
O O2 0.312574 0.754308 0.185444
O O3 0.500000 0.678725 0.000000
O O4 0.345612 0.701672 0.974369
O O5 0.232466 0.419723 0.382866
O O6 0.194036 0.434004 0.207874
O O7 0.000000 0.388785 0.500000
O O8 0.134028 0.083630 0.550677
O O9 0.403549 0.081757 0.301432
O O10 0.253196 0.000000 0.508307
O O11 0.755394 0.158333 0.671056
O O12 0.722358 0.165952 0.916047
O O13 0.500000 0.171361 0.000000
O O14 0.000000 0.889550 0.500000
O O15 0.004858 0.827662 0.660539
O O16 0.659361 0.500000 0.042075
O O17 0.836362 0.558822 0.983548
O O18 0.622657 0.603325 0.102135
O O19 0.546990 0.000000 0.853482
O O20 0.500000 0.914809 0.000000
#
# Coordination Sequence:
#
# PCOD8106520 Si02
#       8
#     8   8   8   8   8   8   8   8
#     4  10  22  43  65  89 121 161 206 255 315 380
#     4  11  22  38  63  96 126 161 212 263 314 367
#     4  11  23  38  60  88 127 169 208 256 306 363
#     4  10  23  42  66  91 119 158 208 261 317 378
#     4  10  24  41  60  91 128 162 204 260 316 377
#     4  10  21  36  59  90 127 168 207 253 303 362
#     4  10  22  40  62  91 125 162 201 257 310 375
#     4   9  19  32  52  83 119 161 203 248 296 348
#
# _framework density 21.261603999999998
#
# number of rings (size 3 to 8) (size 9 to 14) (size 15 to 20)
#    0.000    1.875    1.250    1.500    5.250    2.750 
#    0.000    5.625    0.000    4.125    0.000    0.000 
#    0.000    0.000    0.000    0.000    0.000    0.000 
#
# Total GULP energy -396689.794266 kJ/mol
# GULP energy per Si atom -12396.556071 kJ/mol
# Density = 2.121321 g / cm^3
# Si number density = 21.261604 Si / 1000 Ang^3
#
#
#
# Elastic Constant Matrix: (Units=GPa)
#
#
# Indices 1 2 3 4 5 6 
#
# 1 122.1062 41.5414 59.6222 0.0000 15.3929 0.0000
# 2 41.5414 95.9314 23.4662 0.0000 -1.9844 0.0000
# 3 59.6222 23.4662 111.3714 0.0000 5.2952 0.0000
# 4 0.0000 0.0000 0.0000 21.0796 0.0000 0.6434
# 5 15.3929 -1.9844 5.2952 0.0000 39.4709 0.0000
# 6 0.0000 0.0000 0.0000 0.6434 0.0000 28.7873
#
#
#
# Elastic Compliance Matrix: (Units=1/GPa)
#
#
# Indices 1 2 3 4 5 6 
#
# 1 0.013112 -0.004331 -0.005891 0.000000 -0.004541 0.000000
# 2 -0.004331 0.012451 -0.000418 0.000000 0.002371 0.000000
# 3 -0.005891 -0.000418 0.012190 0.000000 0.000641 0.000000
# 4 0.000000 0.000000 0.000000 0.047472 0.000000 -0.001061
# 5 -0.004541 0.002371 0.000641 0.000000 0.027139 0.000000
# 6 0.000000 0.000000 0.000000 -0.001061 0.000000 0.034761
#
#
# Mechanical properties :
#
#
# Convention : Reuss Voigt Hill
#
# Bulk Modulus (GPa) = 60.70196 64.29651 62.49923
# Shear Modulus (GPa) = 28.75303 31.51950 30.13627
#
# Velocity S-wave (km/s) = 3.68141 3.85445 3.76893
# Velocity P-wave (km/s) = 6.83245 7.07922 6.95693
#
# Compressibility (1/GPa) = 0.01647393
#
# Stress axis : x y z
#
# Youngs Moduli (GPa) = 76.26714 80.31694 82.03324
#
# Poissons Ratio (x) = 0.34783 0.48325
# Poissons Ratio (y) = 0.33029 0.03426
# Poissons Ratio (z) = 0.44929 0.03355
#
# Static dielectric constant tensor:
#      x y z
#    x 3.909520 0.000000 0.198810 
#    y 0.000000 3.746020 0.000000 
#    z 0.198810 0.000000 3.921870 
# 
# 
# High freq. dielectric constant tensor:
#      x y z
#    x 1.839460 0.000000 0.009790 
#    y 0.000000 1.826480 0.000000 
#    z 0.009790 0.000000 1.835740 
# 
# From -- ./inp_files/149751.got.cif
#   From: 2010.06.25/outbox.cif.g09.slc.cpg/sg12_75_cif.got.tgz:149751.got - 2010.06.28 00:19:55.
