data_PCOD8106227
_publ_section_title
;
Structure prediction by ZEFSAII (Michael W. Deem and Ramdas Pophale) SiO2 
 PCOD8106227
Probable space group: C 2/M
;
_chemical_formula_sum "Si O2"
_cell_formula_units_Z 56
_cell_length_a 18.119990
_cell_length_b 8.622634
_cell_length_c 32.496997
_cell_angle_alpha 90.000000
_cell_angle_beta 146.934740
_cell_angle_gamma 90.000000
_cell_volume 2770.197068
_symmetry_space_group_name_H-M "C 2/M"
_symmetry_group_IT_number 12
_symmetry_cell_setting 'monoclinic'
loop_
_space_group_symop_operation_xyz
x,y,z
-x,y,-z
-x,-y,-z
x,-y,z
1/2+x,1/2+y,z
1/2-x,1/2+y,-z
1/2-x,1/2-y,-z
1/2+x,1/2-y,z
loop_
_atom_site_type_symbol
_atom_site_label
_atom_site_fract_x
_atom_site_fract_y
_atom_site_fract_z
Si Si1 0.693375 0.818366 0.015373
Si Si2 0.798137 0.681273 0.147042
Si Si3 0.761690 0.816974 0.728211
Si Si4 0.961998 0.317410 0.590584
Si Si5 0.212565 0.179219 0.423096
Si Si6 0.378729 0.820618 0.864689
Si Si7 0.083696 0.819397 0.278855
O O1 0.770179 0.730126 0.087411
O O2 0.726224 0.000000 0.033327
O O3 0.750000 0.750000 0.000000
O O4 0.535108 0.784171 0.945268
O O5 0.772749 0.500000 0.141468
O O6 0.699557 0.774861 0.130822
O O7 0.952433 0.721607 0.229702
O O8 0.611030 0.743916 0.654118
O O9 0.827541 0.777155 0.802328
O O10 0.853749 0.752044 0.734116
O O11 0.753645 0.000000 0.719914
O O12 0.976610 0.500000 0.596355
O O13 0.906103 0.269172 0.608904
O O14 0.860024 0.259556 0.506843
O O15 0.196339 0.205528 0.366894
O O16 0.197549 0.000000 0.428163
O O17 0.353911 0.000000 0.843372
O O18 0.043419 0.000000 0.256172
#
# Coordination Sequence:
#
# PCOD8106227 Si02
#       7
#     8   8   8   8   8   8   8
#     4  11  24  42  64  90 120 152 187 230 280 333
#     4  12  25  40  61  87 115 150 191 235 282 333
#     4  10  21  36  56  83 114 149 188 233 284 336
#     4   9  18  33  53  79 110 144 187 235 280 332
#     4   9  18  33  54  79 108 146 189 232 281 335
#     4  11  24  41  61  85 114 149 189 233 280 333
#     4  10  21  37  57  82 114 151 190 234 285 339
#
# _framework density 20.215168999999999
#
# number of rings (size 3 to 8) (size 9 to 14) (size 15 to 20)
#    0.000    1.714    0.000    4.286    0.000   10.857 
#    0.000    2.857    0.000    0.000    0.000    6.000 
#    0.000    0.000    0.000    0.000    0.000    0.000 
#
# Total GULP energy -347293.666731 kJ/mol
# GULP energy per Si atom -12403.345240 kJ/mol
# Density = 2.016916 g / cm^3
# Si number density = 20.215169 Si / 1000 Ang^3
#
#
#
# Elastic Constant Matrix: (Units=GPa)
#
#
# Indices 1 2 3 4 5 6 
#
# 1 93.5962 10.4675 23.2476 0.0001 -6.7291 -0.0001
# 2 10.4675 24.4323 15.4316 0.0001 12.4015 -0.0005
# 3 23.2476 15.4316 89.9167 0.0000 -6.6127 0.0000
# 4 0.0001 0.0001 0.0000 28.4710 0.0000 -1.0680
# 5 -6.7291 12.4015 -6.6127 0.0000 36.3953 0.0000
# 6 -0.0001 -0.0005 0.0000 -1.0680 0.0000 28.6472
#
#
#
# Elastic Compliance Matrix: (Units=1/GPa)
#
#
# Indices 1 2 3 4 5 6 
#
# 1 0.012094 -0.006068 -0.001793 0.000000 0.003978 0.000000
# 2 -0.006068 0.062993 -0.011051 0.000000 -0.024594 0.000001
# 3 -0.001793 -0.011051 0.013920 0.000000 0.005963 0.000000
# 4 0.000000 0.000000 0.000000 0.035173 0.000000 0.001311
# 5 0.003978 -0.024594 0.005963 0.000000 0.037675 0.000000
# 6 0.000000 0.000001 0.000000 0.001311 0.000000 0.034956
#
#
# Mechanical properties :
#
#
# Convention : Reuss Voigt Hill
#
# Bulk Modulus (GPa) = 19.53770 34.02651 26.78211
# Shear Modulus (GPa) = 19.86525 29.28926 24.57726
#
# Velocity S-wave (km/s) = 3.13819 3.81054 3.49059
# Velocity P-wave (km/s) = 4.77670 6.01905 5.43350
#
# Compressibility (1/GPa) = 0.05118309
#
# Stress axis : x y z
#
# Youngs Moduli (GPa) = 82.68449 15.87490 71.83892
#
# Poissons Ratio (x) = 0.09633 0.12880
# Poissons Ratio (y) = 0.50175 0.79387
# Poissons Ratio (z) = 0.14825 0.17543
#
# Static dielectric constant tensor:
#      x y z
#    x 3.793890 0.000000 0.150210 
#    y 0.000000 3.590810 0.000000 
#    z 0.150210 0.000000 3.859220 
# 
# 
# High freq. dielectric constant tensor:
#      x y z
#    x 1.794820 0.000000 0.001280 
#    y 0.000000 1.778080 0.000000 
#    z 0.001280 0.000000 1.806020 
# 
# From -- ./inp_files/377716.got.cif
#   From: 2010.06.25/outbox.cif.g09.slc.cpg/sg12_189_cif.got.tgz:377716.got - 2010.06.28 00:19:55.
