data_PCOD8106218
_publ_section_title
;
Structure prediction by ZEFSAII (Michael W. Deem and Ramdas Pophale) SiO2 
 PCOD8106218
Probable space group: C 2/M
;
_chemical_formula_sum "Si O2"
_cell_formula_units_Z 64
_cell_length_a 20.309510
_cell_length_b 8.875917
_cell_length_c 32.123278
_cell_angle_alpha 90.000000
_cell_angle_beta 146.064492
_cell_angle_gamma 90.000000
_cell_volume 3232.723558
_symmetry_space_group_name_H-M "C 2/M"
_symmetry_group_IT_number 12
_symmetry_cell_setting 'monoclinic'
loop_
_space_group_symop_operation_xyz
x,y,z
-x,y,-z
-x,-y,-z
x,-y,z
1/2+x,1/2+y,z
1/2-x,1/2+y,-z
1/2-x,1/2-y,-z
1/2+x,1/2-y,z
loop_
_atom_site_type_symbol
_atom_site_label
_atom_site_fract_x
_atom_site_fract_y
_atom_site_fract_z
Si Si1 0.343427 0.826218 0.106324
Si Si2 0.682182 0.671190 0.763762
Si Si3 0.343818 0.822221 0.336135
Si Si4 0.587573 0.673520 0.938661
Si Si5 0.436998 0.827055 0.925072
Si Si6 0.074611 0.334719 0.497683
Si Si7 0.982730 0.175644 0.249322
Si Si8 0.726205 0.176979 0.353401
O O1 0.416813 0.776226 0.104461
O O2 0.380376 0.723019 0.164012
O O3 0.371816 0.000000 0.130685
O O4 0.205738 0.797094 0.026834
O O5 0.675506 0.500000 0.744083
O O6 0.693729 0.777021 0.729769
O O7 0.795949 0.692270 0.853341
O O8 0.566418 0.710670 0.730166
O O9 0.481525 0.772960 0.414524
O O10 0.258686 0.748176 0.325887
O O11 0.331053 0.000000 0.335330
O O12 0.576001 0.500000 0.919170
O O13 0.477920 0.721875 0.908916
O O14 0.473715 0.000000 0.935841
O O15 0.500000 0.768842 0.000000
O O16 0.124604 0.500000 0.511191
O O17 0.182801 0.221893 0.562036
O O18 0.000000 0.352139 0.500000
O O19 0.098417 0.271866 0.301287
O O20 0.011320 0.000000 0.258813
O O21 0.727922 0.000000 0.348706
#
# Coordination Sequence:
#
# PCOD8106218 Si02
#       8
#     8   8   8   8   8   8   8   8
#     4  10  21  37  57  81 112 148 189 241 293 345
#     4  10  23  40  59  85 117 154 197 246 297 352
#     4  10  21  38  62  89 120 156 193 240 292 346
#     4  10  21  36  56  83 111 145 190 239 292 350
#     4  10  21  38  59  81 111 151 195 242 295 350
#     4   8  16  34  58  86 118 152 192 237 288 343
#     4  11  23  40  60  82 115 156 197 241 296 351
#     4  11  22  36  60  91 121 154 195 240 289 348
#
# _framework density 19.797547999999999
#
# number of rings (size 3 to 8) (size 9 to 14) (size 15 to 20)
#    0.000    2.000    0.000    4.125    1.750    7.000 
#    0.000    0.625    0.000    0.000    0.000    0.000 
#    0.000    0.000    0.000    0.000    0.000    0.000 
#
# Total GULP energy -396822.116471 kJ/mol
# GULP energy per Si atom -12400.691140 kJ/mol
# Density = 1.975249 g / cm^3
# Si number density = 19.797548 Si / 1000 Ang^3
#
#
#
# Elastic Constant Matrix: (Units=GPa)
#
#
# Indices 1 2 3 4 5 6 
#
# 1 94.7708 40.4731 36.2434 0.0000 6.6112 0.0001
# 2 40.4731 87.0305 37.9430 -0.0002 6.7607 0.0006
# 3 36.2434 37.9430 86.6149 0.0000 -4.7666 0.0000
# 4 0.0000 -0.0002 0.0000 31.0239 0.0000 0.0727
# 5 6.6112 6.7607 -4.7666 0.0000 21.7957 -0.0001
# 6 0.0001 0.0006 0.0000 0.0727 -0.0001 25.2471
#
#
#
# Elastic Compliance Matrix: (Units=1/GPa)
#
#
# Indices 1 2 3 4 5 6 
#
# 1 0.014384 -0.004537 -0.004245 0.000000 -0.003884 0.000000
# 2 -0.004537 0.016407 -0.005560 0.000000 -0.004929 0.000000
# 3 -0.004245 -0.005560 0.016117 0.000000 0.006537 0.000000
# 4 0.000000 0.000000 0.000000 0.032233 0.000000 -0.000093
# 5 -0.003884 -0.004929 0.006537 0.000000 0.050018 0.000000
# 6 0.000000 0.000000 0.000000 -0.000093 0.000000 0.039609
#
#
# Mechanical properties :
#
#
# Convention : Reuss Voigt Hill
#
# Bulk Modulus (GPa) = 54.87327 55.30392 55.08860
# Shear Modulus (GPa) = 24.56685 25.86377 25.21531
#
# Velocity S-wave (km/s) = 3.52647 3.61835 3.57271
# Velocity P-wave (km/s) = 6.66023 6.74181 6.70115
#
# Compressibility (1/GPa) = 0.01822381
#
# Stress axis : x y z
#
# Youngs Moduli (GPa) = 69.52356 60.94968 62.04527
#
# Poissons Ratio (x) = 0.27650 0.26339
# Poissons Ratio (y) = 0.31539 0.34499
# Poissons Ratio (z) = 0.29514 0.33890
#
# Static dielectric constant tensor:
#      x y z
#    x 3.384750 0.000000 -0.005670 
#    y 0.000000 3.575850 0.000000 
#    z -0.005670 0.000000 3.974930 
# 
# 
# High freq. dielectric constant tensor:
#      x y z
#    x 1.755610 0.000000 0.004090 
#    y 0.000000 1.774620 0.000000 
#    z 0.004090 0.000000 1.775030 
# 
# From -- ./inp_files/378474.got.cif
#   From: 2010.06.25/outbox.cif.g09.slc.cpg/sg12_190_cif.got.tgz:378474.got - 2010.06.28 00:19:55.
