data_PCOD8106254
_publ_section_title
;
Structure prediction by ZEFSAII (Michael W. Deem and Ramdas Pophale) SiO2 
 PCOD8106254
Probable space group: C 2/M
;
_chemical_formula_sum "Si O2"
_cell_formula_units_Z 64
_cell_length_a 15.044778
_cell_length_b 8.781393
_cell_length_c 23.696555
_cell_angle_alpha 90.000000
_cell_angle_beta 92.083961
_cell_angle_gamma 90.000000
_cell_volume 3128.578659
_symmetry_space_group_name_H-M "C 2/M"
_symmetry_group_IT_number 12
_symmetry_cell_setting 'monoclinic'
loop_
_space_group_symop_operation_xyz
x,y,z
-x,y,-z
-x,-y,-z
x,-y,z
1/2+x,1/2+y,z
1/2-x,1/2+y,-z
1/2-x,1/2-y,-z
1/2+x,1/2-y,z
loop_
_atom_site_type_symbol
_atom_site_label
_atom_site_fract_x
_atom_site_fract_y
_atom_site_fract_z
Si Si1 0.384530 0.820538 0.130664
Si Si2 0.564834 0.319110 0.115811
Si Si3 0.372813 0.179806 0.647090
Si Si4 0.171800 0.821581 0.634300
Si Si5 0.981046 0.680599 0.436717
Si Si6 0.726897 0.181255 0.059510
Si Si7 0.838350 0.672490 0.252680
Si Si8 0.631789 0.674198 0.238265
O O1 0.465378 0.738221 0.100417
O O2 0.293519 0.746814 0.107602
O O3 0.394524 0.789260 0.197990
O O4 0.383249 0.000000 0.117485
O O5 0.573176 0.500000 0.108230
O O6 0.628045 0.234853 0.073030
O O7 0.588208 0.265947 0.179740
O O8 0.273119 0.241176 0.631917
O O9 0.440650 0.244318 0.601874
O O10 0.405891 0.231831 0.709517
O O11 0.371906 0.000000 0.646106
O O12 0.114416 0.742907 0.584424
O O13 0.132474 0.780929 0.695216
O O14 0.167377 0.000000 0.624982
O O15 0.977627 0.500000 0.434670
O O16 0.000000 0.740455 0.500000
O O17 0.732050 0.000000 0.057737
O O18 0.750000 0.250000 0.000000
O O19 0.855366 0.500000 0.273146
O O20 0.736396 0.698677 0.234083
O O21 0.606698 0.500000 0.248439
#
# Coordination Sequence:
#
# PCOD8106254 Si02
#       8
#     8   8   8   8   8   8   8   8
#     4  11  23  41  64  95 129 166 209 257 310 369
#     4  11  23  41  63  95 131 165 208 257 308 371
#     4   9  20  37  56  82 115 152 194 243 297 358
#     4  10  21  36  56  85 117 149 192 248 302 353
#     4  10  22  40  59  80 112 157 203 244 296 364
#     4  12  26  46  70  94 125 169 213 260 313 367
#     4   9  18  36  60  86 121 161 198 241 298 364
#     4   9  18  35  59  87 121 158 196 244 300 359
#
# _framework density 20.456574
#
# number of rings (size 3 to 8) (size 9 to 14) (size 15 to 20)
#    0.000    1.875    1.250    2.250    1.750    4.250 
#    0.000    2.500    0.000    0.000    0.000    0.000 
#    0.000    0.000    0.000    0.000    0.000    0.000 
#
# Total GULP energy -396902.487301 kJ/mol
# GULP energy per Si atom -12403.202728 kJ/mol
# Density = 2.041001 g / cm^3
# Si number density = 20.456574 Si / 1000 Ang^3
#
#
#
# Elastic Constant Matrix: (Units=GPa)
#
#
# Indices 1 2 3 4 5 6 
#
# 1 60.9183 17.0793 16.0075 0.0000 -17.5676 0.0000
# 2 17.0793 65.9426 28.7510 0.0000 -5.3115 0.0000
# 3 16.0075 28.7510 86.7074 0.0000 -16.4209 0.0000
# 4 0.0000 0.0000 0.0000 32.5128 0.0000 2.9551
# 5 -17.5676 -5.3115 -16.4209 0.0000 32.5573 0.0000
# 6 0.0000 0.0000 0.0000 2.9551 0.0000 30.2987
#
#
#
# Elastic Compliance Matrix: (Units=1/GPa)
#
#
# Indices 1 2 3 4 5 6 
#
# 1 0.020702 -0.004344 -0.000442 0.000000 0.010239 0.000000
# 2 -0.004344 0.018639 -0.005801 0.000000 -0.002229 0.000000
# 3 -0.000442 -0.005801 0.014720 0.000000 0.006239 0.000000
# 4 0.000000 0.000000 0.000000 0.031032 0.000000 -0.003027
# 5 0.010239 -0.002229 0.006239 0.000000 0.039023 0.000000
# 6 0.000000 0.000000 0.000000 -0.003027 0.000000 0.033300
#
#
# Mechanical properties :
#
#
# Convention : Reuss Voigt Hill
#
# Bulk Modulus (GPa) = 30.40743 37.47157 33.93950
# Shear Modulus (GPa) = 26.37772 29.18913 27.78342
#
# Velocity S-wave (km/s) = 3.59479 3.78151 3.68933
# Velocity P-wave (km/s) = 5.66804 6.11750 5.89705
#
# Compressibility (1/GPa) = 0.03288670
#
# Stress axis : x y z
#
# Youngs Moduli (GPa) = 48.30358 53.64959 67.93599
#
# Poissons Ratio (x) = 0.23307 0.03005
# Poissons Ratio (y) = 0.20985 0.39408
# Poissons Ratio (z) = 0.02137 0.31120
#
# Static dielectric constant tensor:
#      x y z
#    x 3.856630 0.000000 -0.121700 
#    y 0.000000 3.586010 0.000000 
#    z -0.121700 0.000000 3.788920 
# 
# 
# High freq. dielectric constant tensor:
#      x y z
#    x 1.805190 0.000000 -0.002970 
#    y 0.000000 1.793080 0.000000 
#    z -0.002970 0.000000 1.797280 
# 
# From -- ./inp_files/338852.got.cif
#   From: 2010.06.25/outbox.cif.g09.slc.cpg/sg12_170_cif.got.tgz:338852.got - 2010.06.28 00:19:55.
