data_PCOD8106109
_publ_section_title
;
Structure prediction by ZEFSAII (Michael W. Deem and Ramdas Pophale) SiO2 
 PCOD8106109
Probable space group: C 2/M
;
_chemical_formula_sum "Si O2"
_cell_formula_units_Z 48
_cell_length_a 10.226399
_cell_length_b 9.026435
_cell_length_c 28.546979
_cell_angle_alpha 90.000000
_cell_angle_beta 110.802606
_cell_angle_gamma 90.000000
_cell_volume 2463.328188
_symmetry_space_group_name_H-M "C 2/M"
_symmetry_group_IT_number 12
_symmetry_cell_setting 'monoclinic'
loop_
_space_group_symop_operation_xyz
x,y,z
-x,y,-z
-x,-y,-z
x,-y,z
1/2+x,1/2+y,z
1/2-x,1/2+y,-z
1/2-x,1/2-y,-z
1/2+x,1/2-y,z
loop_
_atom_site_type_symbol
_atom_site_label
_atom_site_fract_x
_atom_site_fract_y
_atom_site_fract_z
Si Si1 0.282502 0.828138 0.689428
Si Si2 0.428158 0.172686 0.804818
Si Si3 0.756879 0.674859 0.141520
Si Si4 0.395353 0.327506 0.529198
Si Si5 0.158857 0.825412 0.027718
Si Si6 0.002953 0.325833 0.364961
O O1 0.373263 0.789197 0.746331
O O2 0.145072 0.727798 0.673803
O O3 0.375048 0.787582 0.656113
O O4 0.238132 0.000000 0.682759
O O5 0.341634 0.258188 0.832150
O O6 0.586689 0.229241 0.828223
O O7 0.417366 0.000000 0.814641
O O8 0.743571 0.500000 0.143092
O O9 0.709733 0.732411 0.084655
O O10 0.500000 0.300043 0.500000
O O11 0.367309 0.500000 0.534070
O O12 0.250000 0.250000 0.500000
O O13 0.466561 0.259164 0.583592
O O14 0.177662 0.000000 0.025539
O O15 0.250000 0.750000 0.000000
O O16 0.000000 0.775810 0.000000
O O17 0.995446 0.500000 0.373794
#
# Coordination Sequence:
#
# PCOD8106109 Si02
#       6
#     8   8   8   8   8   8
#     4  10  22  39  57  82 115 146 183 232 280 331
#     4  10  21  37  57  81 110 146 186 228 278 335
#     4  10  21  37  56  81 113 146 185 234 282 332
#     4  11  24  41  61  87 119 153 191 236 283 333
#     4  10  21  36  55  81 112 146 186 232 281 335
#     4  11  23  39  61  87 115 150 190 232 281 335
#
# _framework density 19.485831999999998
#
# number of rings (size 3 to 8) (size 9 to 14) (size 15 to 20)
#    0.000    1.667    0.000    4.000    0.000   10.333 
#    0.000    0.000    0.000    0.000    0.000    0.000 
#    0.000    0.000    0.000    0.000    0.000    0.000 
#
# Total GULP energy -297737.001368 kJ/mol
# GULP energy per Si atom -12405.708390 kJ/mol
# Density = 1.944148 g / cm^3
# Si number density = 19.485832 Si / 1000 Ang^3
#
#
#
# Elastic Constant Matrix: (Units=GPa)
#
#
# Indices 1 2 3 4 5 6 
#
# 1 135.8289 57.3551 46.0023 0.0000 3.7561 0.0000
# 2 57.3551 65.3332 42.8921 0.0000 -3.5462 0.0000
# 3 46.0023 42.8921 126.7760 0.0000 1.6663 0.0000
# 4 0.0000 0.0000 0.0000 29.5702 0.0000 -2.4694
# 5 3.7561 -3.5462 1.6663 0.0000 44.0048 0.0000
# 6 0.0000 0.0000 0.0000 -2.4694 0.0000 39.3259
#
#
#
# Elastic Compliance Matrix: (Units=1/GPa)
#
#
# Indices 1 2 3 4 5 6 
#
# 1 0.011934 -0.009958 -0.000938 0.000000 -0.001786 0.000000
# 2 -0.009958 0.028136 -0.005950 0.000000 0.003343 0.000000
# 3 -0.000938 -0.005950 0.010252 0.000000 -0.000788 0.000000
# 4 0.000000 0.000000 0.000000 0.033996 0.000000 0.002135
# 5 -0.001786 0.003343 -0.000788 0.000000 0.023176 0.000000
# 6 0.000000 0.000000 0.000000 0.002135 0.000000 0.025563
#
#
# Mechanical properties :
#
#
# Convention : Reuss Voigt Hill
#
# Bulk Modulus (GPa) = 60.13163 68.93745 64.53454
# Shear Modulus (GPa) = 29.02075 34.69276 31.85675
#
# Velocity S-wave (km/s) = 3.86336 4.22407 4.04774
# Velocity P-wave (km/s) = 7.12930 7.69710 7.41864
#
# Compressibility (1/GPa) = 0.01663018
#
# Stress axis : x y z
#
# Youngs Moduli (GPa) = 83.79382 35.54228 97.54620
#
# Poissons Ratio (x) = 0.35393 0.09149
# Poissons Ratio (y) = 0.83441 0.58037
# Poissons Ratio (z) = 0.07859 0.21146
#
# Static dielectric constant tensor:
#      x y z
#    x 3.668930 0.000000 0.070450 
#    y 0.000000 3.522530 0.000000 
#    z 0.070450 0.000000 3.710210 
# 
# 
# High freq. dielectric constant tensor:
#      x y z
#    x 1.775290 0.000000 0.002210 
#    y 0.000000 1.755800 0.000000 
#    z 0.002210 0.000000 1.780520 
# 
# From -- ./inp_files/357369.got.cif
#   From: 2010.06.25/outbox.cif.g09.slc.cpg/sg12_179_cif.got.tgz:357369.got - 2010.06.28 00:19:55.
