data_PCOD8106123
_publ_section_title
;
Structure prediction by ZEFSAII (Michael W. Deem and Ramdas Pophale) SiO2 
 PCOD8106123
Probable space group: C 2/M
;
_chemical_formula_sum "Si O2"
_cell_formula_units_Z 64
_cell_length_a 29.421518
_cell_length_b 9.150063
_cell_length_c 14.863790
_cell_angle_alpha 90.000000
_cell_angle_beta 120.705723
_cell_angle_gamma 90.000000
_cell_volume 3440.462310
_symmetry_space_group_name_H-M "C 2/M"
_symmetry_group_IT_number 12
_symmetry_cell_setting 'monoclinic'
loop_
_space_group_symop_operation_xyz
x,y,z
-x,y,-z
-x,-y,-z
x,-y,z
1/2+x,1/2+y,z
1/2-x,1/2+y,-z
1/2-x,1/2-y,-z
1/2+x,1/2-y,z
loop_
_atom_site_type_symbol
_atom_site_label
_atom_site_fract_x
_atom_site_fract_y
_atom_site_fract_z
Si Si1 0.702034 0.827893 0.001926
Si Si2 0.971203 0.333767 0.877133
Si Si3 0.868071 0.832497 0.745270
Si Si4 0.111006 0.833288 0.433593
Si Si5 0.662380 0.172187 0.649467
Si Si6 0.393772 0.829645 0.225776
Si Si7 0.506315 0.329444 0.743235
Si Si8 0.219416 0.170378 0.200218
O O1 0.694760 0.763036 0.094014
O O2 0.713838 0.000000 0.017724
O O3 0.750000 0.750000 0.000000
O O4 0.647798 0.795469 0.894965
O O5 0.966887 0.500000 0.839016
O O6 0.912922 0.269729 0.831978
O O7 0.005383 0.243705 0.840113
O O8 0.000000 0.322349 0.000000
O O9 0.860004 0.797745 0.631595
O O10 0.814094 0.802362 0.743496
O O11 0.887057 0.000000 0.774985
O O12 0.135969 0.732233 0.533604
O O13 0.048757 0.798834 0.363069
O O14 0.120326 0.000000 0.471383
O O15 0.630249 0.223688 0.704152
O O16 0.722140 0.229650 0.719778
O O17 0.662855 0.000000 0.641736
O O18 0.446889 0.738322 0.267612
O O19 0.408180 0.000000 0.242240
O O20 0.516479 0.500000 0.766752
O O21 0.219920 0.000000 0.172707
#
# Coordination Sequence:
#
# PCOD8106123 Si02
#       8
#     8   8   8   8   8   8   8   8
#     4  11  22  38  59  83 117 155 190 236 285 337
#     4  10  21  36  55  81 115 149 186 236 285 334
#     4   9  20  38  59  82 114 152 189 233 283 338
#     4   9  20  39  58  82 114 146 188 243 287 332
#     4  10  21  38  59  83 113 152 192 235 286 339
#     4  10  22  39  57  83 119 151 189 236 284 341
#     4  10  22  39  59  83 113 149 191 235 285 341
#     4  10  21  39  59  85 118 153 193 235 282 340
#
# _framework density 18.602152
#
# number of rings (size 3 to 8) (size 9 to 14) (size 15 to 20)
#    0.000    2.125    1.250    1.875    1.750    7.000 
#    0.000    2.500    0.000    0.000    0.000    0.000 
#    0.000    0.000    0.000    0.000    0.000    0.000 
#
# Total GULP energy -396907.003031 kJ/mol
# GULP energy per Si atom -12403.343845 kJ/mol
# Density = 1.855981 g / cm^3
# Si number density = 18.602152 Si / 1000 Ang^3
#
#
#
# Elastic Constant Matrix: (Units=GPa)
#
#
# Indices 1 2 3 4 5 6 
#
# 1 141.1668 51.1789 59.7168 0.0000 -17.3933 0.0000
# 2 51.1789 71.1555 50.4263 0.0000 -8.4679 0.0000
# 3 59.7168 50.4263 114.0165 0.0000 -13.3328 0.0000
# 4 0.0000 0.0000 0.0000 35.3947 0.0000 -1.6987
# 5 -17.3933 -8.4679 -13.3328 0.0000 15.1088 0.0000
# 6 0.0000 0.0000 0.0000 -1.6987 0.0000 31.8814
#
#
#
# Elastic Compliance Matrix: (Units=1/GPa)
#
#
# Indices 1 2 3 4 5 6 
#
# 1 0.010971 -0.005170 -0.002589 0.000000 0.007448 0.000000
# 2 -0.005170 0.023112 -0.007466 0.000000 0.000414 0.000000
# 3 -0.002589 -0.007466 0.014039 0.000000 0.005225 0.000000
# 4 0.000000 0.000000 0.000000 0.028325 0.000000 0.001509
# 5 0.007448 0.000414 0.005225 0.000000 0.079603 0.000000
# 6 0.000000 0.000000 0.000000 0.001509 0.000000 0.031447
#
#
# Mechanical properties :
#
#
# Convention : Reuss Voigt Hill
#
# Bulk Modulus (GPa) = 56.58085 72.10918 64.34501
# Shear Modulus (GPa) = 22.33767 27.47812 24.90789
#
# Velocity S-wave (km/s) = 3.46903 3.84754 3.66318
# Velocity P-wave (km/s) = 6.82114 7.65416 7.24962
#
# Compressibility (1/GPa) = 0.01767383
#
# Stress axis : x y z
#
# Youngs Moduli (GPa) = 91.15075 43.26694 71.22872
#
# Poissons Ratio (x) = 0.22369 0.18438
# Poissons Ratio (y) = 0.47125 0.53177
# Poissons Ratio (z) = 0.23595 0.32302
#
# Static dielectric constant tensor:
#      x y z
#    x 3.590930 0.000000 -0.048140 
#    y 0.000000 3.493350 0.000000 
#    z -0.048140 0.000000 3.364950 
# 
# 
# High freq. dielectric constant tensor:
#      x y z
#    x 1.730690 0.000000 -0.004300 
#    y 0.000000 1.724240 0.000000 
#    z -0.004300 0.000000 1.720830 
# 
# From -- ./inp_files/249136.got.cif
#   From: 2010.06.25/outbox.cif.g09.slc.cpg/sg12_125_cif.got.tgz:249136.got - 2010.06.28 00:19:55.
