data_PCOD8106597
_publ_section_title
;
Structure prediction by ZEFSAII (Michael W. Deem and Ramdas Pophale) SiO2 
 PCOD8106597
Probable space group: C 2/M
;
_chemical_formula_sum "Si O2"
_cell_formula_units_Z 44
_cell_length_a 11.067243
_cell_length_b 23.013689
_cell_length_c 11.609788
_cell_angle_alpha 90.000000
_cell_angle_beta 47.941987
_cell_angle_gamma 90.000000
_cell_volume 2195.467913
_symmetry_space_group_name_H-M "C 2/M"
_symmetry_group_IT_number 12
_symmetry_cell_setting 'monoclinic'
loop_
_space_group_symop_operation_xyz
x,y,z
-x,y,-z
-x,-y,-z
x,-y,z
1/2+x,1/2+y,z
1/2-x,1/2+y,-z
1/2-x,1/2-y,-z
1/2+x,1/2-y,z
loop_
_atom_site_type_symbol
_atom_site_label
_atom_site_fract_x
_atom_site_fract_y
_atom_site_fract_z
Si Si1 0.922571 0.586603 0.876124
Si Si2 0.300647 0.000000 0.340705
Si Si3 0.269201 0.500000 0.862246
Si Si4 0.677026 0.404336 0.835916
Si Si5 0.868940 0.000000 0.310445
Si Si6 0.476453 0.778739 0.844821
Si Si7 0.229799 0.772931 0.821395
O O1 0.805743 0.572658 0.844790
O O2 0.937718 0.654404 0.894930
O O3 0.093026 0.558612 0.731390
O O4 0.841364 0.556547 0.039277
O O5 0.186540 0.000000 0.523254
O O6 0.187331 0.000000 0.300206
O O7 0.436435 0.500000 0.824879
O O8 0.699217 0.441974 0.706350
O O9 0.712130 0.337571 0.783875
O O10 0.500000 0.414059 0.000000
O O11 0.415776 0.762692 0.752214
O O12 0.669249 0.767410 0.751830
O O13 0.382408 0.736844 0.994227
#
# Coordination Sequence:
#
# PCOD8106597 Si02
#       7
#     8   4   4   8   4   8   8
#     4  10  21  36  61  88 114 144 194 242 290 324
#     4  11  26  40  49  88 119 154 192 231 283 367
#     4  11  22  37  57  83 114 150 196 241 274 357
#     4  11  19  36  58  89 110 144 195 243 274 348
#     4  12  24  38  62  75 120 159 186 233 306 325
#     4   9  17  30  52  84 119 145 171 243 293 330
#     4   9  18  29  50  85 119 136 187 232 290 330
#
# _framework density 20.041285999999999
#
# number of rings (size 3 to 8) (size 9 to 14) (size 15 to 20)
#    0.000    1.818    3.636    2.727    5.091    1.455 
#    0.000    0.000    0.000    1.091    0.000    0.000 
#    0.000    0.000    0.000    0.000    0.000    0.000 
#
# Total GULP energy -272601.551458 kJ/mol
# GULP energy per Si atom -12390.979612 kJ/mol
# Density = 1.999567 g / cm^3
# Si number density = 20.041286 Si / 1000 Ang^3
#
#
#
# Elastic Constant Matrix: (Units=GPa)
#
#
# Indices 1 2 3 4 5 6 
#
# 1 172.1199 63.8723 17.8555 0.0000 8.4670 0.0000
# 2 63.8723 116.0736 22.6399 0.0000 10.0454 0.0000
# 3 17.8555 22.6399 52.0524 0.0000 12.1875 0.0000
# 4 0.0000 0.0000 0.0000 12.2476 0.0000 1.6068
# 5 8.4670 10.0454 12.1875 0.0000 21.1266 0.0000
# 6 0.0000 0.0000 0.0000 1.6068 0.0000 34.4500
#
#
#
# Elastic Compliance Matrix: (Units=1/GPa)
#
#
# Indices 1 2 3 4 5 6 
#
# 1 0.007343 -0.003846 -0.000677 0.000000 -0.000724 0.000000
# 2 -0.003846 0.011539 -0.003209 0.000000 -0.002094 0.000000
# 3 -0.000677 -0.003209 0.023607 0.000000 -0.011821 0.000000
# 4 0.000000 0.000000 0.000000 0.082151 0.000000 -0.003832
# 5 -0.000724 -0.002094 -0.011821 0.000000 0.055439 0.000000
# 6 0.000000 0.000000 0.000000 -0.003832 0.000000 0.029206
#
#
# Mechanical properties :
#
#
# Convention : Reuss Voigt Hill
#
# Bulk Modulus (GPa) = 37.00234 60.99792 49.00013
# Shear Modulus (GPa) = 21.38971 29.29005 25.33988
#
# Velocity S-wave (km/s) = 3.27047 3.82709 3.55968
# Velocity P-wave (km/s) = 5.72402 7.07326 6.43411
#
# Compressibility (1/GPa) = 0.02702532
#
# Stress axis : x y z
#
# Youngs Moduli (GPa) = 136.18565 86.66467 42.36002
#
# Poissons Ratio (x) = 0.33331 0.02866
# Poissons Ratio (y) = 0.52377 0.13594
# Poissons Ratio (z) = 0.09214 0.27812
#
# Static dielectric constant tensor:
#      x y z
#    x 4.487880 0.000000 -0.079960 
#    y 0.000000 3.667830 0.000000 
#    z -0.079960 0.000000 2.905770 
# 
# 
# High freq. dielectric constant tensor:
#      x y z
#    x 1.822330 0.000000 -0.000240 
#    y 0.000000 1.787200 0.000000 
#    z -0.000240 0.000000 1.704440 
# 
# From -- ./inp_files/79009.got.cif
#   From: 2010.06.25/outbox.cif.g09.slc.cpg/sg12_40_cif.got.tgz:79009.got - 2010.06.28 00:19:55.
