data_PCOD8106128
_publ_section_title
;
Structure prediction by ZEFSAII (Michael W. Deem and Ramdas Pophale) SiO2 
 PCOD8106128
Probable space group: C 2/M
;
_chemical_formula_sum "Si O2"
_cell_formula_units_Z 44
_cell_length_a 27.959489
_cell_length_b 18.087342
_cell_length_c 5.170208
_cell_angle_alpha 90.000000
_cell_angle_beta 61.858299
_cell_angle_gamma 90.000000
_cell_volume 2305.547751
_symmetry_space_group_name_H-M "C 2/M"
_symmetry_group_IT_number 12
_symmetry_cell_setting 'monoclinic'
loop_
_space_group_symop_operation_xyz
x,y,z
-x,y,-z
-x,-y,-z
x,-y,z
1/2+x,1/2+y,z
1/2-x,1/2+y,-z
1/2-x,1/2-y,-z
1/2+x,1/2-y,z
loop_
_atom_site_type_symbol
_atom_site_label
_atom_site_fract_x
_atom_site_fract_y
_atom_site_fract_z
Si Si1 0.133014 0.732749 0.348957
Si Si2 0.963314 0.000000 0.345031
Si Si3 0.260139 0.083010 0.531606
Si Si4 0.670328 0.917296 0.144491
Si Si5 0.837317 0.194057 0.236301
Si Si6 0.938762 0.846436 0.250129
O O1 0.168822 0.744996 0.518191
O O2 0.075739 0.776818 0.524059
O O3 0.124222 0.645003 0.320150
O O4 0.167358 0.766568 0.026182
O O5 0.928783 0.075984 0.427913
O O6 0.000000 0.000000 0.500000
O O7 0.000000 0.000000 0.000000
O O8 0.306358 0.097687 0.199751
O O9 0.209942 0.135697 0.610787
O O10 0.238099 0.000000 0.552735
O O11 0.282804 0.093256 0.762578
O O12 0.644832 0.000000 0.229079
O O13 0.896363 0.154223 0.118510
O O14 0.000000 0.836841 0.000000
#
# Coordination Sequence:
#
# PCOD8106128 Si02
#       6
#     8   4   8   8   8   8
#     4  10  22  36  56  85 106 148 189 230 274 327
#     4  10  22  36  58  78 108 152 186 218 268 328
#     4  10  21  36  55  81 118 149 181 224 277 327
#     4  10  21  38  58  80 112 149 181 228 282 336
#     4  10  22  34  55  84 108 147 186 227 267 331
#     4   9  23  39  57  80 116 148 187 228 277 320
#
# _framework density 19.084399999999999
#
# number of rings (size 3 to 8) (size 9 to 14) (size 15 to 20)
#    1.091    1.091    0.000    2.182    6.364    4.364 
#    1.636    0.000    0.000    0.545    0.000    1.273 
#    0.000    0.000    0.000    0.000    0.000    0.000 
#
# Total GULP energy -272560.198241 kJ/mol
# GULP energy per Si atom -12389.099920 kJ/mol
# Density = 1.904096 g / cm^3
# Si number density = 19.084400 Si / 1000 Ang^3
#
#
#
# Elastic Constant Matrix: (Units=GPa)
#
#
# Indices 1 2 3 4 5 6 
#
# 1 33.2366 16.6200 20.3339 0.0000 10.0613 0.0000
# 2 16.6200 159.2953 53.4044 0.0000 -20.5425 0.0000
# 3 20.3339 53.4044 80.6821 0.0000 15.8777 0.0000
# 4 0.0000 0.0000 0.0000 14.6064 0.0000 -5.1534
# 5 10.0613 -20.5425 15.8777 0.0000 35.2556 0.0000
# 6 0.0000 0.0000 0.0000 -5.1534 0.0000 21.4833
#
#
#
# Elastic Compliance Matrix: (Units=1/GPa)
#
#
# Indices 1 2 3 4 5 6 
#
# 1 0.038309 -0.003677 -0.005100 0.000000 -0.010779 0.000000
# 2 -0.003677 0.010998 -0.008581 0.000000 0.011323 0.000000
# 3 -0.005100 -0.008581 0.022008 0.000000 -0.013456 0.000000
# 4 0.000000 0.000000 0.000000 0.074793 0.000000 0.017941
# 5 -0.010779 0.011323 -0.013456 0.000000 0.044098 0.000000
# 6 0.000000 0.000000 0.000000 0.017941 0.000000 0.050851
#
#
# Mechanical properties :
#
#
# Convention : Reuss Voigt Hill
#
# Bulk Modulus (GPa) = 27.32349 50.43672 38.88011
# Shear Modulus (GPa) = 17.36267 26.45943 21.91105
#
# Velocity S-wave (km/s) = 3.01953 3.72754 3.39206
# Velocity P-wave (km/s) = 5.14830 6.70907 5.97983
#
# Compressibility (1/GPa) = 0.03659855
#
# Stress axis : x y z
#
# Youngs Moduli (GPa) = 26.10355 90.92206 45.43845
#
# Poissons Ratio (x) = 0.33435 0.23172
# Poissons Ratio (y) = 0.09599 0.38993
# Poissons Ratio (z) = 0.13312 0.78024
#
# Static dielectric constant tensor:
#      x y z
#    x 3.226870 0.000000 0.309560 
#    y 0.000000 4.055810 0.000000 
#    z 0.309560 0.000000 3.339360 
# 
# 
# High freq. dielectric constant tensor:
#      x y z
#    x 1.712850 0.000000 0.034380 
#    y 0.000000 1.758200 0.000000 
#    z 0.034380 0.000000 1.733140 
# 
# From -- ./inp_files/28687.got.cif
#   From: 2010.06.25/outbox.cif.g09.slc.cpg/sg12_15_cif.got.tgz:28687.got - 2010.06.28 00:19:55.
