data_PCOD8106551
_publ_section_title
;
Structure prediction by ZEFSAII (Michael W. Deem and Ramdas Pophale) SiO2 
 PCOD8106551
Probable space group: C 2/M
;
_chemical_formula_sum "Si O2"
_cell_formula_units_Z 52
_cell_length_a 15.145734
_cell_length_b 10.484468
_cell_length_c 27.681576
_cell_angle_alpha 90.000000
_cell_angle_beta 140.028339
_cell_angle_gamma 90.000000
_cell_volume 2823.832344
_symmetry_space_group_name_H-M "C 2/M"
_symmetry_group_IT_number 12
_symmetry_cell_setting 'monoclinic'
loop_
_space_group_symop_operation_xyz
x,y,z
-x,y,-z
-x,-y,-z
x,-y,z
1/2+x,1/2+y,z
1/2-x,1/2+y,-z
1/2-x,1/2-y,-z
1/2+x,1/2-y,z
loop_
_atom_site_type_symbol
_atom_site_label
_atom_site_fract_x
_atom_site_fract_y
_atom_site_fract_z
Si Si1 0.987982 0.355596 0.226654
Si Si2 0.326747 0.500000 0.591797
Si Si3 0.795872 0.850317 0.928857
Si Si4 0.728021 0.000000 0.659944
Si Si5 0.965509 0.848984 0.908084
Si Si6 0.942109 0.500000 0.584025
Si Si7 0.490531 0.254350 0.331099
Si Si8 0.305729 0.256531 0.751973
O O1 0.962471 0.500000 0.233795
O O2 0.864147 0.310473 0.138947
O O3 0.987394 0.263660 0.272400
O O4 0.130768 0.349805 0.257130
O O5 0.269928 0.500000 0.622010
O O6 0.202008 0.500000 0.502670
O O7 0.414335 0.374221 0.616880
O O8 0.862834 0.802783 0.907084
O O9 0.816021 0.000000 0.938782
O O10 0.880891 0.800933 0.011545
O O11 0.790846 0.119566 0.713272
O O12 0.562667 0.000000 0.594696
O O13 0.918655 0.777999 0.840466
O O14 0.956603 0.000000 0.895264
O O15 0.950908 0.626013 0.620526
O O16 0.338927 0.288095 0.287019
#
# Coordination Sequence:
#
# PCOD8106551 Si02
#       8
#     8   4   8   4   8   4   8   8
#     4  11  21  36  56  81 118 153 195 231 286 341
#     4  12  23  42  61  90 118 147 185 241 290 340
#     4   8  16  28  49  80 108 149 192 244 275 328
#     4  10  21  36  60  88 109 141 196 237 275 330
#     4   9  15  28  52  80 111 141 198 242 281 320
#     4  10  23  42  65  85 115 154 187 228 289 351
#     4  11  23  39  63  87 117 151 192 230 285 347
#     4  11  21  34  57  86 113 153 187 239 281 340
#
# _framework density 18.414691000000001
#
# number of rings (size 3 to 8) (size 9 to 14) (size 15 to 20)
#    0.000    1.846    4.615    1.615    1.077    0.615 
#    0.000    0.000    0.000    0.923    0.000    2.154 
#    0.000    0.000    0.000    0.000    0.000    0.000 
#
# Total GULP energy -322252.338940 kJ/mol
# GULP energy per Si atom -12394.320728 kJ/mol
# Density = 1.837278 g / cm^3
# Si number density = 18.414691 Si / 1000 Ang^3
#
#
#
# Elastic Constant Matrix: (Units=GPa)
#
#
# Indices 1 2 3 4 5 6 
#
# 1 110.0172 29.8930 56.8432 0.0000 11.8206 0.0000
# 2 29.8930 66.6017 38.5633 0.0000 9.3771 0.0000
# 3 56.8432 38.5633 138.3405 0.0000 10.2603 0.0000
# 4 0.0000 0.0000 0.0000 19.2052 0.0000 4.6294
# 5 11.8206 9.3771 10.2603 0.0000 20.8273 0.0000
# 6 0.0000 0.0000 0.0000 4.6294 0.0000 26.9566
#
#
#
# Elastic Compliance Matrix: (Units=1/GPa)
#
#
# Indices 1 2 3 4 5 6 
#
# 1 0.012303 -0.002651 -0.004034 0.000000 -0.003802 0.000000
# 2 -0.002651 0.019181 -0.003870 0.000000 -0.005225 0.000000
# 3 -0.004034 -0.003870 0.010032 0.000000 -0.000910 0.000000
# 4 0.000000 0.000000 0.000000 0.054318 0.000000 -0.009328
# 5 -0.003802 -0.005225 -0.000910 0.000000 0.052972 0.000000
# 6 0.000000 0.000000 0.000000 -0.009328 0.000000 0.038699
#
#
# Mechanical properties :
#
#
# Convention : Reuss Voigt Hill
#
# Bulk Modulus (GPa) = 49.00551 62.83982 55.92267
# Shear Modulus (GPa) = 23.21083 26.04181 24.62632
#
# Velocity S-wave (km/s) = 3.55414 3.76465 3.66090
# Velocity P-wave (km/s) = 6.59640 7.28668 6.95011
#
# Compressibility (1/GPa) = 0.02040587
#
# Stress axis : x y z
#
# Youngs Moduli (GPa) = 81.28416 52.13535 99.67610
#
# Poissons Ratio (x) = 0.13819 0.40211
# Poissons Ratio (y) = 0.21546 0.38576
# Poissons Ratio (z) = 0.32791 0.20177
#
# Static dielectric constant tensor:
#      x y z
#    x 3.397890 0.000000 0.093800 
#    y 0.000000 2.942050 0.000000 
#    z 0.093800 0.000000 3.575260 
# 
# 
# High freq. dielectric constant tensor:
#      x y z
#    x 1.713750 0.000000 0.002470 
#    y 0.000000 1.683760 0.000000 
#    z 0.002470 0.000000 1.727740 
# 
# From -- ./inp_files/375731.got.cif
#   From: 2010.06.25/outbox.cif.g09.slc.cpg/sg12_188_cif.got.tgz:375731.got - 2010.06.28 00:19:55.
