data_PCOD8106083
_publ_section_title
;
Structure prediction by ZEFSAII (Michael W. Deem and Ramdas Pophale) SiO2 
 PCOD8106083
Probable space group: C 2/M
;
_chemical_formula_sum "Si O2"
_cell_formula_units_Z 56
_cell_length_a 9.989678
_cell_length_b 9.577558
_cell_length_c 31.770124
_cell_angle_alpha 90.000000
_cell_angle_beta 104.021713
_cell_angle_gamma 90.000000
_cell_volume 2949.091456
_symmetry_space_group_name_H-M "C 2/M"
_symmetry_group_IT_number 12
_symmetry_cell_setting 'monoclinic'
loop_
_space_group_symop_operation_xyz
x,y,z
-x,y,-z
-x,-y,-z
x,-y,z
1/2+x,1/2+y,z
1/2-x,1/2+y,-z
1/2-x,1/2-y,-z
1/2+x,1/2-y,z
loop_
_atom_site_type_symbol
_atom_site_label
_atom_site_fract_x
_atom_site_fract_y
_atom_site_fract_z
Si Si1 0.998176 0.837915 0.878419
Si Si2 0.719678 0.661890 0.735560
Si Si3 0.411444 0.337942 0.691981
Si Si4 0.379494 0.338692 0.023268
Si Si5 0.723964 0.338351 0.406531
Si Si6 0.739204 0.338315 0.834136
Si Si7 0.482487 0.337314 0.450664
O O1 0.074073 0.792273 0.926823
O O2 0.096648 0.803691 0.846683
O O3 0.859310 0.750940 0.863953
O O4 0.956968 0.000000 0.876784
O O5 0.755101 0.500000 0.731731
O O6 0.572701 0.699758 0.703972
O O7 0.837109 0.750813 0.722286
O O8 0.717069 0.703075 0.784157
O O9 0.388985 0.500000 0.700955
O O10 0.353752 0.297509 0.642059
O O11 0.336358 0.500000 0.019274
O O12 0.500000 0.306088 0.000000
O O13 0.250000 0.250000 0.000000
O O14 0.766828 0.500000 0.410221
O O15 0.624635 0.302714 0.437951
O O16 0.860715 0.247383 0.419642
O O17 0.778487 0.500000 0.842531
O O18 0.500000 0.289191 0.500000
O O19 0.444845 0.500000 0.444220
#
# Coordination Sequence:
#
# PCOD8106083 Si02
#       7
#     8   8   8   8   8   8   8
#     4  10  21  37  56  79 109 143 178 219 267 317
#     4  10  21  37  56  79 108 140 177 222 267 315
#     4  10  21  37  56  79 109 143 178 219 267 317
#     4  10  21  36  55  81 110 141 179 220 264 316
#     4  10  21  36  55  81 110 141 179 220 264 316
#     4  10  21  36  55  80 107 139 180 221 265 317
#     4  10  21  37  57  81 109 142 179 219 265 315
#
# _framework density 18.988899
#
# number of rings (size 3 to 8) (size 9 to 14) (size 15 to 20)
#    0.000    2.000    0.000    3.000    0.000    6.286 
#    0.000    0.000    0.000    0.000    0.000    0.000 
#    0.000    0.000    0.000    0.000    0.000    0.000 
#
# Total GULP energy -347369.365989 kJ/mol
# GULP energy per Si atom -12406.048785 kJ/mol
# Density = 1.894568 g / cm^3
# Si number density = 18.988899 Si / 1000 Ang^3
#
#
#
# Elastic Constant Matrix: (Units=GPa)
#
#
# Indices 1 2 3 4 5 6 
#
# 1 46.5293 29.3415 8.6218 0.0000 9.1513 0.0000
# 2 29.3415 47.9244 23.8153 0.0000 9.9156 0.0000
# 3 8.6218 23.8153 80.4562 0.0000 -1.4684 0.0000
# 4 0.0000 0.0000 0.0000 31.9384 0.0000 4.4690
# 5 9.1513 9.9156 -1.4684 0.0000 40.7230 0.0000
# 6 0.0000 0.0000 0.0000 4.4690 0.0000 38.7893
#
#
#
# Elastic Compliance Matrix: (Units=1/GPa)
#
#
# Indices 1 2 3 4 5 6 
#
# 1 0.035868 -0.022905 0.002893 0.000000 -0.002379 0.000000
# 2 -0.022905 0.040776 -0.009709 0.000000 -0.005131 0.000000
# 3 0.002893 -0.009709 0.015034 0.000000 0.002256 0.000000
# 4 0.000000 0.000000 0.000000 0.031823 0.000000 -0.003666
# 5 -0.002379 -0.005131 0.002256 0.000000 0.026421 0.000000
# 6 0.000000 0.000000 0.000000 -0.003666 0.000000 0.026203
#
#
# Mechanical properties :
#
#
# Convention : Reuss Voigt Hill
#
# Bulk Modulus (GPa) = 31.02167 33.16303 32.09235
# Shear Modulus (GPa) = 20.29929 29.83222 25.06575
#
# Velocity S-wave (km/s) = 3.27312 3.96793 3.63715
# Velocity P-wave (km/s) = 5.53684 6.20443 5.88012
#
# Compressibility (1/GPa) = 0.03223553
#
# Stress axis : x y z
#
# Youngs Moduli (GPa) = 27.88013 24.52396 66.51509
#
# Poissons Ratio (x) = 0.56173 -0.19243
# Poissons Ratio (y) = 0.63861 0.64580
# Poissons Ratio (z) = -0.08066 0.23810
#
# Static dielectric constant tensor:
#      x y z
#    x 3.411470 0.000000 -0.076540 
#    y 0.000000 3.403330 0.000000 
#    z -0.076540 0.000000 3.658300 
# 
# 
# High freq. dielectric constant tensor:
#      x y z
#    x 1.744170 0.000000 -0.003840 
#    y 0.000000 1.732020 0.000000 
#    z -0.003840 0.000000 1.757010 
# 
# From -- ./inp_files/357496.got.cif
#   From: 2010.06.25/outbox.cif.g09.slc.cpg/sg12_179_cif.got.tgz:357496.got - 2010.06.28 00:19:55.
