data_PCOD8106638
_publ_section_title
;
Structure prediction by ZEFSAII (Michael W. Deem and Ramdas Pophale) SiO2 
 PCOD8106638
Probable space group: C 2/M
;
_chemical_formula_sum "Si O2"
_cell_formula_units_Z 56
_cell_length_a 12.615954
_cell_length_b 19.132326
_cell_length_c 20.352725
_cell_angle_alpha 90.000000
_cell_angle_beta 148.347163
_cell_angle_gamma 90.000000
_cell_volume 2577.984886
_symmetry_space_group_name_H-M "C 2/M"
_symmetry_group_IT_number 12
_symmetry_cell_setting 'monoclinic'
loop_
_space_group_symop_operation_xyz
x,y,z
-x,y,-z
-x,-y,-z
x,-y,z
1/2+x,1/2+y,z
1/2-x,1/2+y,-z
1/2-x,1/2-y,-z
1/2+x,1/2-y,z
loop_
_atom_site_type_symbol
_atom_site_label
_atom_site_fract_x
_atom_site_fract_y
_atom_site_fract_z
Si Si1 0.110965 0.423312 0.126500
Si Si2 0.479961 0.336782 0.894633
Si Si3 0.904594 0.230816 0.727646
Si Si4 0.789511 0.218673 0.226517
Si Si5 0.416450 0.080235 0.293323
Si Si6 0.930487 0.373368 0.158390
Si Si7 0.906203 0.293572 0.538648
O O1 0.212124 0.500000 0.177089
O O2 0.282495 0.364903 0.224937
O O3 0.960581 0.420980 0.109579
O O4 0.000000 0.406961 0.000000
O O5 0.489592 0.329448 0.820405
O O6 0.419327 0.260809 0.893980
O O7 0.317556 0.396490 0.826227
O O8 0.694848 0.354150 0.038555
O O9 0.057755 0.242664 0.748749
O O10 0.919220 0.306546 0.772051
O O11 0.684023 0.206485 0.583065
O O12 0.878203 0.251963 0.342365
O O13 0.489984 0.086367 0.256384
O O14 0.560284 0.127811 0.415847
O O15 0.437652 0.000000 0.327400
O O16 0.750000 0.250000 0.500000
#
# Coordination Sequence:
#
# PCOD8106638 Si02
#       7
#     8   8   8   8   8   8   8
#     4  11  25  41  58  88 131 171 202 249 318 379
#     4  11  23  37  61  98 126 162 209 261 309 379
#     4  11  21  39  64  97 119 161 216 267 306 359
#     4  10  21  36  63  88 121 159 212 260 303 363
#     4  11  24  41  64  96 131 166 207 258 325 381
#     4  12  22  39  67  93 127 161 212 264 314 370
#     4   9  19  41  64  91 125 162 211 262 310 361
#
# _framework density 21.722394000000001
#
# number of rings (size 3 to 8) (size 9 to 14) (size 15 to 20)
#    0.000    1.286    5.714    2.143    2.000    4.000 
#    0.000    5.000    0.000    0.857    0.000    0.000 
#    0.000    0.000    0.000    0.000    0.000    0.000 
#
# Total GULP energy -347104.488978 kJ/mol
# GULP energy per Si atom -12396.588892 kJ/mol
# Density = 2.167295 g / cm^3
# Si number density = 21.722394 Si / 1000 Ang^3
#
#
#
# Elastic Constant Matrix: (Units=GPa)
#
#
# Indices 1 2 3 4 5 6 
#
# 1 41.8072 20.2068 26.0510 0.0001 -22.5572 0.0002
# 2 20.2068 172.3682 51.1898 -0.0008 -4.2598 -0.0002
# 3 26.0510 51.1898 107.1224 -0.0034 -19.7206 -0.0018
# 4 0.0001 -0.0008 -0.0034 24.5393 -0.0013 0.6585
# 5 -22.5572 -4.2598 -19.7206 -0.0013 43.0195 -0.0007
# 6 0.0002 -0.0002 -0.0018 0.6585 -0.0007 26.5531
#
#
#
# Elastic Compliance Matrix: (Units=1/GPa)
#
#
# Indices 1 2 3 4 5 6 
#
# 1 0.037353 -0.002559 -0.004698 0.000000 0.017179 0.000000
# 2 -0.002559 0.006967 -0.003088 0.000000 -0.002067 0.000000
# 3 -0.004698 -0.003088 0.012498 0.000002 0.002960 0.000001
# 4 0.000000 0.000000 0.000002 0.040778 0.000002 -0.001011
# 5 0.017179 -0.002067 0.002960 0.000002 0.033405 0.000001
# 6 0.000000 0.000000 0.000001 -0.001011 0.000001 0.037685
#
#
# Mechanical properties :
#
#
# Convention : Reuss Voigt Hill
#
# Bulk Modulus (GPa) = 27.67950 57.35479 42.51715
# Shear Modulus (GPa) = 24.82380 33.74572 29.28476
#
# Velocity S-wave (km/s) = 3.38416 3.94572 3.67568
# Velocity P-wave (km/s) = 5.29529 6.87162 6.13430
#
# Compressibility (1/GPa) = 0.03612782
#
# Stress axis : x y z
#
# Youngs Moduli (GPa) = 26.77194 143.52493 80.01182
#
# Poissons Ratio (x) = 0.36728 0.37593
# Poissons Ratio (y) = 0.06851 0.24706
# Poissons Ratio (z) = 0.12579 0.44317
#
# Static dielectric constant tensor:
#      x y z
#    x 4.158570 0.000000 -0.186780 
#    y 0.000000 3.712890 0.000000 
#    z -0.186780 0.000000 4.274520 
# 
# 
# High freq. dielectric constant tensor:
#      x y z
#    x 1.885610 0.000000 -0.018780 
#    y 0.000000 1.830110 0.000000 
#    z -0.018780 0.000000 1.848380 
# 
# From -- ./inp_files/311752.got.cif
#   From: 2010.06.25/outbox.cif.g09.slc.cpg/sg12_156_cif.got.tgz:311752.got - 2010.06.28 00:19:55.
