data_PCOD8106338
_publ_section_title
;
Structure prediction by ZEFSAII (Michael W. Deem and Ramdas Pophale) SiO2 
 PCOD8106338
Probable space group: C 2/M
;
_chemical_formula_sum "Si O2"
_cell_formula_units_Z 48
_cell_length_a 20.639189
_cell_length_b 14.690277
_cell_length_c 12.495711
_cell_angle_alpha 90.000000
_cell_angle_beta 34.323563
_cell_angle_gamma 90.000000
_cell_volume 2136.285487
_symmetry_space_group_name_H-M "C 2/M"
_symmetry_group_IT_number 12
_symmetry_cell_setting 'monoclinic'
loop_
_space_group_symop_operation_xyz
x,y,z
-x,y,-z
-x,-y,-z
x,-y,z
1/2+x,1/2+y,z
1/2-x,1/2+y,-z
1/2-x,1/2-y,-z
1/2+x,1/2-y,z
loop_
_atom_site_type_symbol
_atom_site_label
_atom_site_fract_x
_atom_site_fract_y
_atom_site_fract_z
Si Si1 0.543473 0.500000 0.718106
Si Si2 0.261592 0.000000 0.281871
Si Si3 0.314015 0.818428 0.724520
Si Si4 0.800198 0.303012 0.278411
Si Si5 0.421387 0.696988 0.278427
Si Si6 0.134858 0.500000 0.079408
Si Si7 0.038534 0.318428 0.275489
Si Si8 0.285740 0.500000 0.079397
O O1 0.627393 0.500000 0.499990
O O2 0.564084 0.589260 0.762789
O O3 0.412936 0.500000 0.855597
O O4 0.326888 0.089260 0.237185
O O5 0.268542 0.000000 0.144389
O O6 0.232029 0.736278 0.795277
O O7 0.424084 0.832550 0.500004
O O8 0.354872 0.796119 0.790252
O O9 0.237496 0.909771 0.819181
O O10 0.691395 0.283444 0.499992
O O11 0.909026 0.250001 0.181958
O O12 0.527305 0.736273 0.204740
O O13 0.056671 0.409770 0.180833
O O14 0.194034 0.500000 0.111932
#
# Coordination Sequence:
#
# PCOD8106338 Si02
#       8
#     4   4   8   8   8   4   8   4
#     4  10  22  39  56  79 112 148 188 230 278 338
#     4  10  22  39  56  79 112 148 188 230 278 338
#     4   9  18  35  59  85 113 147 189 235 280 327
#     4   9  19  37  60  84 113 150 188 230 281 334
#     4   9  19  37  60  84 113 150 188 230 281 334
#     4  10  21  36  57  86 116 148 188 234 282 330
#     4   9  18  35  59  85 113 147 189 235 280 327
#     4  10  21  36  57  86 116 148 188 234 282 330
#
# _framework density 22.468907000000002
#
# number of rings (size 3 to 8) (size 9 to 14) (size 15 to 20)
#    0.000    2.667    0.000    0.500    0.000    6.333 
#    0.000   16.667    0.000    0.000    0.000    0.000 
#    0.000    0.000    0.000    0.000    0.000    0.000 
#
# Total GULP energy -297501.348151 kJ/mol
# GULP energy per Si atom -12395.889506 kJ/mol
# Density = 2.241777 g / cm^3
# Si number density = 22.468907 Si / 1000 Ang^3
#
#
#
# Elastic Constant Matrix: (Units=GPa)
#
#
# Indices 1 2 3 4 5 6 
#
# 1 122.7451 85.1532 15.4438 0.0000 7.9221 0.0000
# 2 85.1532 205.2187 29.8263 0.0000 4.9067 0.0000
# 3 15.4438 29.8263 56.6014 0.0000 -2.0568 0.0000
# 4 0.0000 0.0000 0.0000 13.3983 0.0000 1.3789
# 5 7.9221 4.9067 -2.0568 0.0000 9.8104 0.0000
# 6 0.0000 0.0000 0.0000 1.3789 0.0000 28.9492
#
#
#
# Elastic Compliance Matrix: (Units=1/GPa)
#
#
# Indices 1 2 3 4 5 6 
#
# 1 0.011991 -0.004633 -0.001106 0.000000 -0.007597 0.000000
# 2 -0.004633 0.007172 -0.002529 0.000000 -0.000376 0.000000
# 3 -0.001106 -0.002529 0.019529 0.000000 0.006253 0.000000
# 4 0.000000 0.000000 0.000000 0.075004 0.000000 -0.003573
# 5 -0.007597 -0.000376 0.006253 0.000000 0.109567 0.000000
# 6 0.000000 0.000000 0.000000 -0.003573 0.000000 0.034713
#
#
# Mechanical properties :
#
#
# Convention : Reuss Voigt Hill
#
# Bulk Modulus (GPa) = 45.13601 71.71242 58.42422
# Shear Modulus (GPa) = 17.73697 27.37435 22.55566
#
# Velocity S-wave (km/s) = 2.81268 3.49423 3.17181
# Velocity P-wave (km/s) = 5.53895 6.94731 6.28272
#
# Compressibility (1/GPa) = 0.02215526
#
# Stress axis : x y z
#
# Youngs Moduli (GPa) = 83.39907 139.43636 51.20577
#
# Poissons Ratio (x) = 0.64599 0.05665
# Poissons Ratio (y) = 0.38638 0.12949
# Poissons Ratio (z) = 0.09227 0.35260
#
# Static dielectric constant tensor:
#      x y z
#    x 4.038250 0.000000 0.017980 
#    y 0.000000 4.286990 0.000000 
#    z 0.017980 0.000000 3.835410 
# 
# 
# High freq. dielectric constant tensor:
#      x y z
#    x 1.863410 0.000000 -0.001720 
#    y 0.000000 1.893980 0.000000 
#    z -0.001720 0.000000 1.882900 
# 
# From -- ./inp_files/167616.got.cif
#   From: 2010.06.25/outbox.cif.g09.slc.cpg/sg12_84_cif.got.tgz:167616.got - 2010.06.28 00:19:55.
