data_PCOD8106403
_publ_section_title
;
Structure prediction by ZEFSAII (Michael W. Deem and Ramdas Pophale) SiO2 
 PCOD8106403
Probable space group: C 2/M
;
_chemical_formula_sum "Si O2"
_cell_formula_units_Z 56
_cell_length_a 21.364772
_cell_length_b 13.435435
_cell_length_c 18.690119
_cell_angle_alpha 90.000000
_cell_angle_beta 32.085634
_cell_angle_gamma 90.000000
_cell_volume 2849.763454
_symmetry_space_group_name_H-M "C 2/M"
_symmetry_group_IT_number 12
_symmetry_cell_setting 'monoclinic'
loop_
_space_group_symop_operation_xyz
x,y,z
-x,y,-z
-x,-y,-z
x,-y,z
1/2+x,1/2+y,z
1/2-x,1/2+y,-z
1/2-x,1/2-y,-z
1/2+x,1/2-y,z
loop_
_atom_site_type_symbol
_atom_site_label
_atom_site_fract_x
_atom_site_fract_y
_atom_site_fract_z
Si Si1 0.558585 0.894167 0.369097
Si Si2 0.457981 0.385045 0.959323
Si Si3 0.247411 0.746895 0.813162
Si Si4 0.459447 0.384268 0.619330
Si Si5 0.887611 0.387566 0.159597
Si Si6 0.397905 0.247544 0.432196
Si Si7 0.622411 0.740347 0.711758
O O1 0.500000 0.915141 0.500000
O O2 0.678276 0.842975 0.279010
O O3 0.479458 0.833963 0.390344
O O4 0.586905 0.000000 0.304290
O O5 0.417751 0.500000 0.983531
O O6 0.566038 0.357862 0.802592
O O7 0.500000 0.373112 0.000000
O O8 0.360284 0.297713 0.038231
O O9 0.338914 0.670853 0.763615
O O10 0.208376 0.686052 0.781132
O O11 0.500000 0.350803 0.500000
O O12 0.434321 0.500000 0.647850
O O13 0.565890 0.354701 0.569490
O O14 0.837920 0.500000 0.216333
O O15 0.916792 0.341339 0.208697
O O16 0.000000 0.389343 0.000000
O O17 0.426086 0.248011 0.321027
O O18 0.262137 0.224369 0.577892
#
# Coordination Sequence:
#
# PCOD8106403 Si02
#       7
#     8   8   8   8   8   8   8
#     4  10  21  36  58  85 117 155 198 246 288 341
#     4  11  23  37  60  90 121 159 200 243 293 352
#     4  11  18  37  59  87 116 147 195 248 290 341
#     4  10  21  37  61  89 119 156 201 249 295 347
#     4  11  21  35  60  89 116 148 191 239 292 348
#     4  10  23  37  62  85 122 156 200 238 299 351
#     4  11  21  41  58  87 122 162 190 245 293 357
#
# _framework density 19.650753000000002
#
# number of rings (size 3 to 8) (size 9 to 14) (size 15 to 20)
#    0.000    1.429    2.857    4.286    0.000    3.429 
#    0.000    5.714    0.000    1.714    0.000    0.000 
#    0.000    0.000    0.000    0.000    0.000    0.000 
#
# Total GULP energy -346901.536141 kJ/mol
# GULP energy per Si atom -12389.340576 kJ/mol
# Density = 1.960603 g / cm^3
# Si number density = 19.650753 Si / 1000 Ang^3
#
#
#
# Elastic Constant Matrix: (Units=GPa)
#
#
# Indices 1 2 3 4 5 6 
#
# 1 119.1049 51.9598 47.7016 0.0000 7.2956 0.0000
# 2 51.9598 148.4153 50.9379 0.0000 -0.6587 0.0000
# 3 47.7016 50.9379 92.2676 0.0000 2.5475 0.0000
# 4 0.0000 0.0000 0.0000 29.4310 0.0000 -11.9992
# 5 7.2956 -0.6587 2.5475 0.0000 31.5501 0.0000
# 6 0.0000 0.0000 0.0000 -11.9992 0.0000 21.5428
#
#
#
# Elastic Compliance Matrix: (Units=1/GPa)
#
#
# Indices 1 2 3 4 5 6 
#
# 1 0.011406 -0.002470 -0.004469 0.000000 -0.002328 0.000000
# 2 -0.002470 0.008857 -0.003642 0.000000 0.001050 0.000000
# 3 -0.004469 -0.003642 0.015166 0.000000 -0.000267 0.000000
# 4 0.000000 0.000000 0.000000 0.043961 0.000000 0.024486
# 5 -0.002328 0.001050 -0.000267 0.000000 0.032278 0.000000
# 6 0.000000 0.000000 0.000000 0.024486 0.000000 0.060058
#
#
# Mechanical properties :
#
#
# Convention : Reuss Voigt Hill
#
# Bulk Modulus (GPa) = 70.08602 73.44293 71.76448
# Shear Modulus (GPa) = 25.29816 30.45067 27.87441
#
# Velocity S-wave (km/s) = 3.59191 3.94076 3.77037
# Velocity P-wave (km/s) = 7.27638 7.62636 7.45342
#
# Compressibility (1/GPa) = 0.01426818
#
# Stress axis : x y z
#
# Youngs Moduli (GPa) = 87.67471 112.90409 65.93505
#
# Poissons Ratio (x) = 0.27883 0.29466
# Poissons Ratio (y) = 0.21653 0.24013
# Poissons Ratio (z) = 0.39182 0.41119
#
# Static dielectric constant tensor:
#      x y z
#    x 3.812740 0.000000 -0.360520 
#    y 0.000000 3.996420 0.000000 
#    z -0.360520 0.000000 3.763880 
# 
# 
# High freq. dielectric constant tensor:
#      x y z
#    x 1.746600 0.000000 -0.019740 
#    y 0.000000 1.780550 0.000000 
#    z -0.019740 0.000000 1.761550 
# 
# From -- ./inp_files/284500.got.cif
#   From: 2010.06.25/outbox.cif.g09.slc.cpg/sg12_143_cif.got.tgz:284500.got - 2010.06.28 00:19:55.
