data_PCOD8106358
_publ_section_title
;
Structure prediction by ZEFSAII (Michael W. Deem and Ramdas Pophale) SiO2 
 PCOD8106358
Probable space group: C 2/M
;
_chemical_formula_sum "Si O2"
_cell_formula_units_Z 56
_cell_length_a 26.858001
_cell_length_b 8.968835
_cell_length_c 11.065005
_cell_angle_alpha 90.000000
_cell_angle_beta 74.488067
_cell_angle_gamma 90.000000
_cell_volume 2568.305942
_symmetry_space_group_name_H-M "C 2/M"
_symmetry_group_IT_number 12
_symmetry_cell_setting 'monoclinic'
loop_
_space_group_symop_operation_xyz
x,y,z
-x,y,-z
-x,-y,-z
x,-y,z
1/2+x,1/2+y,z
1/2-x,1/2+y,-z
1/2-x,1/2-y,-z
1/2+x,1/2-y,z
loop_
_atom_site_type_symbol
_atom_site_label
_atom_site_fract_x
_atom_site_fract_y
_atom_site_fract_z
Si Si1 0.637725 0.675065 0.896255
Si Si2 0.373769 0.166121 0.679362
Si Si3 0.463640 0.177501 0.136310
Si Si4 0.512270 0.827814 0.356852
Si Si5 0.290820 0.833935 0.315058
Si Si6 0.695229 0.829503 0.054759
Si Si7 0.178613 0.165776 0.477002
O O1 0.628886 0.500000 0.913249
O O2 0.591726 0.748952 0.850827
O O3 0.691848 0.713910 0.795204
O O4 0.646872 0.747705 0.020866
O O5 0.427435 0.198504 0.712946
O O6 0.369229 0.285741 0.574901
O O7 0.376279 0.000000 0.621588
O O8 0.323072 0.177056 0.795534
O O9 0.482991 0.238068 0.256181
O O10 0.458625 0.000000 0.140960
O O11 0.500000 0.227273 0.000000
O O12 0.500000 0.758169 0.500000
O O13 0.496910 0.000000 0.373336
O O14 0.229422 0.831451 0.361587
O O15 0.316763 0.788356 0.423592
O O16 0.310451 0.000000 0.269408
O O17 0.700694 0.000000 0.005672
O O18 0.750000 0.750000 0.000000
O O19 0.168845 0.000000 0.536509
#
# Coordination Sequence:
#
# PCOD8106358 Si02
#       7
#     8   8   8   8   8   8   8
#     4  12  25  39  60  90 124 159 205 258 314 373
#     4  10  21  37  60  87 118 157 200 249 303 367
#     4  10  21  40  65  90 120 162 213 266 320 383
#     4   9  19  36  60  90 119 155 209 261 309 374
#     4  10  21  38  59  83 116 159 203 245 298 364
#     4  11  23  40  62  91 126 165 211 256 311 375
#     4  10  21  36  57  87 121 155 194 244 301 365
#
# _framework density 21.804255000000001
#
# number of rings (size 3 to 8) (size 9 to 14) (size 15 to 20)
#    0.000    1.714    0.000    4.286    2.000    7.714 
#    0.000    0.714    0.000    0.857    0.000    0.000 
#    0.000    0.000    0.000    0.000    0.000    0.000 
#
# Total GULP energy -347010.606724 kJ/mol
# GULP energy per Si atom -12393.235954 kJ/mol
# Density = 2.175463 g / cm^3
# Si number density = 21.804255 Si / 1000 Ang^3
#
#
#
# Elastic Constant Matrix: (Units=GPa)
#
#
# Indices 1 2 3 4 5 6 
#
# 1 88.0123 35.6629 25.0334 0.0000 28.3195 0.0000
# 2 35.6629 83.5187 22.5626 0.0000 9.8331 0.0000
# 3 25.0334 22.5626 80.4610 0.0000 10.0047 0.0000
# 4 0.0000 0.0000 0.0000 11.1886 0.0000 -18.7267
# 5 28.3195 9.8331 10.0047 0.0000 39.6715 0.0000
# 6 0.0000 0.0000 0.0000 -18.7267 0.0000 -3.5026
#
#
#
# Elastic Compliance Matrix: (Units=1/GPa)
#
#
# Indices 1 2 3 4 5 6 
#
# 1 0.017832 -0.005646 -0.002639 0.000000 -0.010664 0.000000
# 2 -0.005646 0.014962 -0.002559 0.000000 0.000967 0.000000
# 3 -0.002639 -0.002559 0.014096 0.000000 -0.001037 0.000000
# 4 0.000000 0.000000 0.000000 0.008984 0.000000 -0.048032
# 5 -0.010664 0.000967 -0.001037 0.000000 0.032841 0.000000
# 6 0.000000 0.000000 0.000000 -0.048032 0.000000 -0.028698
#
#
# Mechanical properties :
#
#
# Convention : Reuss Voigt Hill
#
# Bulk Modulus (GPa) = 39.67962 46.50108 43.09035
# Shear Modulus (GPa) = 55.49073 20.72037 38.10555
#
# Velocity S-wave (km/s) = 5.05022 3.08602 4.18499
# Velocity P-wave (km/s) = 7.22800 5.83703 6.56943
#
# Compressibility (1/GPa) = 0.02520186
#
# Stress axis : x y z
#
# Youngs Moduli (GPa) = 56.07985 66.83757 70.94253
#
# Poissons Ratio (x) = 0.37735 0.18719
# Poissons Ratio (y) = 0.31662 0.18156
# Poissons Ratio (z) = 0.14798 0.17105
#
# Static dielectric constant tensor:
#      x y z
#    x 3.887530 0.000000 0.084490 
#    y 0.000000 3.805390 0.000000 
#    z 0.084490 0.000000 4.097320 
# 
# 
# High freq. dielectric constant tensor:
#      x y z
#    x 1.860970 0.000000 0.007560 
#    y 0.000000 1.833180 0.000000 
#    z 0.007560 0.000000 1.860500 
# 
# From -- ./inp_files/180754.got.cif
#   From: 2010.06.25/outbox.cif.g09.slc.cpg/sg12_91_cif.got.tgz:180754.got - 2010.06.28 00:19:55.
