data_PCOD8106086
_publ_section_title
;
Structure prediction by ZEFSAII (Michael W. Deem and Ramdas Pophale) SiO2 
 PCOD8106086
Probable space group: C 2/M
;
_chemical_formula_sum "Si O2"
_cell_formula_units_Z 56
_cell_length_a 16.752554
_cell_length_b 21.150960
_cell_length_c 11.323526
_cell_angle_alpha 90.000000
_cell_angle_beta 48.037421
_cell_angle_gamma 90.000000
_cell_volume 2983.468651
_symmetry_space_group_name_H-M "C 2/M"
_symmetry_group_IT_number 12
_symmetry_cell_setting 'monoclinic'
loop_
_space_group_symop_operation_xyz
x,y,z
-x,y,-z
-x,-y,-z
x,-y,z
1/2+x,1/2+y,z
1/2-x,1/2+y,-z
1/2-x,1/2-y,-z
1/2+x,1/2-y,z
loop_
_atom_site_type_symbol
_atom_site_label
_atom_site_fract_x
_atom_site_fract_y
_atom_site_fract_z
Si Si1 0.097940 0.073165 0.746714
Si Si2 0.240439 0.350173 0.557881
Si Si3 0.864506 0.733345 0.520770
Si Si4 0.604632 0.247012 0.246318
Si Si5 0.732150 0.849232 0.975311
Si Si6 0.356339 0.426944 0.035186
Si Si7 0.126042 0.426039 0.871461
O O1 0.154826 0.112594 0.588511
O O2 0.137845 0.096698 0.835581
O O3 0.127069 0.000000 0.701530
O O4 0.970996 0.083862 0.859444
O O5 0.168850 0.329567 0.516703
O O6 0.275915 0.288072 0.594227
O O7 0.169689 0.395274 0.708981
O O8 0.870976 0.714788 0.651607
O O9 0.977874 0.758482 0.357953
O O10 0.663933 0.314466 0.181427
O O11 0.643518 0.202001 0.101853
O O12 0.682630 0.895910 0.928709
O O13 0.765597 0.888289 0.057499
O O14 0.324271 0.500000 0.062836
O O15 0.153206 0.500000 0.843785
O O16 0.000000 0.413170 0.000000
#
# Coordination Sequence:
#
# PCOD8106086 Si02
#       7
#     8   8   8   8   8   8   8
#     4   9  18  33  54  81 111 142 182 231 277 328
#     4  11  20  36  57  79 108 150 184 225 279 337
#     4  10  21  36  55  80 109 140 181 234 277 325
#     4  10  21  36  55  80 109 140 181 234 277 325
#     4  11  20  36  57  79 108 150 184 225 279 337
#     4   9  18  33  54  81 111 142 182 231 277 328
#     4  11  24  40  57  81 113 149 191 234 276 333
#
# _framework density 18.770098000000001
#
# number of rings (size 3 to 8) (size 9 to 14) (size 15 to 20)
#    0.000    1.857    1.429    4.286    0.000    0.000 
#    0.000    0.000    0.000    3.429    0.000   12.000 
#    0.000    0.000    0.000    0.000    0.000    0.000 
#
# Total GULP energy -347289.980317 kJ/mol
# GULP energy per Si atom -12403.213583 kJ/mol
# Density = 1.872738 g / cm^3
# Si number density = 18.770098 Si / 1000 Ang^3
#
#
#
# Elastic Constant Matrix: (Units=GPa)
#
#
# Indices 1 2 3 4 5 6 
#
# 1 62.3920 30.1549 5.4446 0.0000 0.3794 0.0000
# 2 30.1549 82.7576 33.7135 0.0000 0.1771 0.0000
# 3 5.4446 33.7135 83.7679 0.0000 -4.0831 0.0000
# 4 0.0000 0.0000 0.0000 30.7501 0.0000 3.2143
# 5 0.3794 0.1771 -4.0831 0.0000 25.7805 0.0000
# 6 0.0000 0.0000 0.0000 3.2143 0.0000 26.2054
#
#
#
# Elastic Compliance Matrix: (Units=1/GPa)
#
#
# Indices 1 2 3 4 5 6 
#
# 1 0.019710 -0.007968 0.001929 0.000000 0.000070 0.000000
# 2 -0.007968 0.017701 -0.006658 0.000000 -0.001059 0.000000
# 3 0.001929 -0.006658 0.014606 0.000000 0.002331 0.000000
# 4 0.000000 0.000000 0.000000 0.032943 0.000000 -0.004041
# 5 0.000070 -0.001059 0.002331 0.000000 0.039164 0.000000
# 6 0.000000 0.000000 0.000000 -0.004041 0.000000 0.038656
#
#
# Mechanical properties :
#
#
# Convention : Reuss Voigt Hill
#
# Bulk Modulus (GPa) = 37.56077 40.83818 39.19947
# Shear Modulus (GPa) = 25.37465 27.18749 26.28107
#
# Velocity S-wave (km/s) = 3.68076 3.80998 3.74593
# Velocity P-wave (km/s) = 6.17401 6.41551 6.29592
#
# Compressibility (1/GPa) = 0.02662352
#
# Stress axis : x y z
#
# Youngs Moduli (GPa) = 50.73597 56.49308 68.46730
#
# Poissons Ratio (x) = 0.45013 -0.13208
# Poissons Ratio (y) = 0.40426 0.45585
# Poissons Ratio (z) = -0.09787 0.37612
#
# Static dielectric constant tensor:
#      x y z
#    x 3.377180 0.000000 -0.007220 
#    y 0.000000 3.331580 0.000000 
#    z -0.007220 0.000000 3.405900 
# 
# 
# High freq. dielectric constant tensor:
#      x y z
#    x 1.729280 0.000000 0.001320 
#    y 0.000000 1.726240 0.000000 
#    z 0.001320 0.000000 1.732880 
# 
# From -- ./inp_files/159183.got.cif
#   From: 2010.06.25/outbox.cif.g09.slc.cpg/sg12_80_cif.got.tgz:159183.got - 2010.06.28 00:19:55.
