data_PCOD8106220
_publ_section_title
;
Structure prediction by ZEFSAII (Michael W. Deem and Ramdas Pophale) SiO2 
 PCOD8106220
Probable space group: C 2/M
;
_chemical_formula_sum "Si O2"
_cell_formula_units_Z 48
_cell_length_a 10.269812
_cell_length_b 8.954675
_cell_length_c 27.231641
_cell_angle_alpha 90.000000
_cell_angle_beta 100.626047
_cell_angle_gamma 90.000000
_cell_volume 2461.354078
_symmetry_space_group_name_H-M "C 2/M"
_symmetry_group_IT_number 12
_symmetry_cell_setting 'monoclinic'
loop_
_space_group_symop_operation_xyz
x,y,z
-x,y,-z
-x,-y,-z
x,-y,z
1/2+x,1/2+y,z
1/2-x,1/2+y,-z
1/2-x,1/2-y,-z
1/2+x,1/2-y,z
loop_
_atom_site_type_symbol
_atom_site_label
_atom_site_fract_x
_atom_site_fract_y
_atom_site_fract_z
Si Si1 0.383190 0.823529 0.527405
Si Si2 0.724301 0.174942 0.694869
Si Si3 0.246105 0.826588 0.190215
Si Si4 0.937957 0.676440 0.641219
Si Si5 0.617463 0.824142 0.971706
Si Si6 0.451291 0.325315 0.134772
O O1 0.500000 0.769184 0.500000
O O2 0.250000 0.750000 0.500000
O O3 0.416400 0.766892 0.584332
O O4 0.366001 0.000000 0.524263
O O5 0.753157 0.217583 0.752883
O O6 0.827832 0.257176 0.668289
O O7 0.579611 0.233516 0.669966
O O8 0.738531 0.000000 0.686492
O O9 0.355477 0.725648 0.171679
O O10 0.102094 0.788937 0.158913
O O11 0.282330 0.000000 0.185075
O O12 0.929009 0.500000 0.643730
O O13 0.584034 0.766147 0.915787
O O14 0.639164 0.000000 0.970863
O O15 0.500000 0.778761 0.000000
O O16 0.750000 0.750000 0.000000
O O17 0.429687 0.500000 0.123588
#
# Coordination Sequence:
#
# PCOD8106220 Si02
#       6
#     8   8   8   8   8   8
#     4  10  21  37  56  80 111 146 186 232 281 335
#     4  10  21  38  59  83 113 149 187 230 281 334
#     4  10  22  39  59  85 116 150 189 232 279 333
#     4  10  21  36  56  83 112 145 187 233 281 334
#     4  11  24  41  62  88 117 152 193 235 282 335
#     4  11  23  38  59  87 117 151 190 232 280 333
#
# _framework density 19.501460000000002
#
# number of rings (size 3 to 8) (size 9 to 14) (size 15 to 20)
#    0.000    1.667    0.000    4.000    0.000    9.000 
#    0.000    0.000    0.000    0.000    0.000    0.000 
#    0.000    0.000    0.000    0.000    0.000    0.000 
#
# Total GULP energy -297735.251092 kJ/mol
# GULP energy per Si atom -12405.635462 kJ/mol
# Density = 1.945707 g / cm^3
# Si number density = 19.501460 Si / 1000 Ang^3
#
#
#
# Elastic Constant Matrix: (Units=GPa)
#
#
# Indices 1 2 3 4 5 6 
#
# 1 121.5806 36.0080 35.5251 0.0000 -0.0376 0.0000
# 2 36.0080 36.4314 20.5245 0.0000 -3.7314 0.0000
# 3 35.5251 20.5245 115.7061 0.0000 5.0812 0.0000
# 4 0.0000 0.0000 0.0000 32.9058 0.0000 -8.6336
# 5 -0.0376 -3.7314 5.0812 0.0000 43.7634 0.0000
# 6 0.0000 0.0000 0.0000 -8.6336 0.0000 25.6196
#
#
#
# Elastic Compliance Matrix: (Units=1/GPa)
#
#
# Indices 1 2 3 4 5 6 
#
# 1 0.011961 -0.010939 -0.001700 0.000000 -0.000725 0.000000
# 2 -0.010939 0.040965 -0.004082 0.000000 0.003957 0.000000
# 3 -0.001700 -0.004082 0.009955 0.000000 -0.001505 0.000000
# 4 0.000000 0.000000 0.000000 0.033337 0.000000 0.011234
# 5 -0.000725 0.003957 -0.001505 0.000000 0.023362 0.000000
# 6 0.000000 0.000000 0.000000 0.011234 0.000000 0.042818
#
#
# Mechanical properties :
#
#
# Convention : Reuss Voigt Hill
#
# Bulk Modulus (GPa) = 33.96772 50.87038 42.41905
# Shear Modulus (GPa) = 24.31274 32.56847 28.44061
#
# Velocity S-wave (km/s) = 3.53471 4.09106 3.82302
# Velocity P-wave (km/s) = 5.84079 6.96116 6.42544
#
# Compressibility (1/GPa) = 0.02943972
#
# Stress axis : x y z
#
# Youngs Moduli (GPa) = 83.60369 24.41095 100.45406
#
# Poissons Ratio (x) = 0.26702 0.17080
# Poissons Ratio (y) = 0.91450 0.41005
# Poissons Ratio (z) = 0.14215 0.09964
#
# Static dielectric constant tensor:
#      x y z
#    x 3.639570 0.000000 0.006440 
#    y 0.000000 3.508450 0.000000 
#    z 0.006440 0.000000 3.680330 
# 
# 
# High freq. dielectric constant tensor:
#      x y z
#    x 1.778070 0.000000 0.001930 
#    y 0.000000 1.755200 0.000000 
#    z 0.001930 0.000000 1.781250 
# 
# From -- ./inp_files/371856.got.cif
#   From: 2010.06.25/outbox.cif.g09.slc.cpg/sg12_186_cif.got.tgz:371856.got - 2010.06.28 00:19:55.
