data_PCOD8106542
_publ_section_title
;
Structure prediction by ZEFSAII (Michael W. Deem and Ramdas Pophale) SiO2 
 PCOD8106542
Probable space group: C 2/M
;
_chemical_formula_sum "Si O2"
_cell_formula_units_Z 48
_cell_length_a 31.753484
_cell_length_b 16.646730
_cell_length_c 15.741640
_cell_angle_alpha 90.000000
_cell_angle_beta 17.429467
_cell_angle_gamma 90.000000
_cell_volume 2492.371737
_symmetry_space_group_name_H-M "C 2/M"
_symmetry_group_IT_number 12
_symmetry_cell_setting 'monoclinic'
loop_
_space_group_symop_operation_xyz
x,y,z
-x,y,-z
-x,-y,-z
x,-y,z
1/2+x,1/2+y,z
1/2-x,1/2+y,-z
1/2-x,1/2-y,-z
1/2+x,1/2-y,z
loop_
_atom_site_type_symbol
_atom_site_label
_atom_site_fract_x
_atom_site_fract_y
_atom_site_fract_z
Si Si1 0.924727 0.200100 0.430228
Si Si2 0.903569 0.366503 0.382178
Si Si3 0.207532 0.588949 0.758638
Si Si4 0.355899 0.791786 0.732200
Si Si5 0.802218 0.091400 0.076570
Si Si6 0.659388 0.828435 0.678059
O O1 0.939279 0.274482 0.338013
O O2 0.795311 0.146858 0.649584
O O3 0.890560 0.229818 0.590365
O O4 0.065838 0.147948 0.157132
O O5 0.800005 0.409682 0.646207
O O6 0.828055 0.373274 0.436161
O O7 0.049665 0.413611 0.098043
O O8 0.271921 0.500000 0.640855
O O9 0.213864 0.614442 0.648033
O O10 0.500000 0.817341 0.500000
O O11 0.282955 0.873023 0.839295
O O12 0.250000 0.750000 0.000000
O O13 0.849325 0.000000 0.965356
O O14 0.750000 0.750000 0.500000
O O15 0.500000 0.801257 0.000000
#
# Coordination Sequence:
#
# PCOD8106542 Si02
#       6
#     8   8   8   8   8   8
#     4  11  22  40  65  87 123 161 197 242 298 368
#     4  10  21  38  63  85 120 167 208 242 292 357
#     4  11  23  38  59  91 123 158 203 254 302 345
#     4  11  23  44  68  90 117 158 202 241 293 370
#     4  11  24  40  62  94 126 154 195 251 306 351
#     4  10  21  36  60  85 119 162 210 246 287 352
#
# _framework density 19.258765
#
# number of rings (size 3 to 8) (size 9 to 14) (size 15 to 20)
#    0.000    1.333    3.333    3.000    4.667    4.000 
#    0.000    2.500    0.000    2.500    0.000    0.000 
#    0.000    0.000    0.000    0.000    0.000    0.000 
#
# Total GULP energy -297661.298181 kJ/mol
# GULP energy per Si atom -12402.554091 kJ/mol
# Density = 1.921493 g / cm^3
# Si number density = 19.258765 Si / 1000 Ang^3
#
#
#
# Elastic Constant Matrix: (Units=GPa)
#
#
# Indices 1 2 3 4 5 6 
#
# 1 112.0532 27.1076 32.1178 0.0005 0.4648 0.0000
# 2 27.1076 113.9255 17.0819 0.0008 -1.0025 -0.0001
# 3 32.1178 17.0819 57.0681 0.0013 4.2449 -0.0002
# 4 0.0005 0.0008 0.0013 21.7595 0.0001 2.0222
# 5 0.4648 -1.0025 4.2449 0.0001 39.9473 0.0002
# 6 0.0000 -0.0001 -0.0002 2.0222 0.0002 11.0181
#
#
#
# Elastic Compliance Matrix: (Units=1/GPa)
#
#
# Indices 1 2 3 4 5 6 
#
# 1 0.010977 -0.001756 -0.005684 0.000000 0.000432 0.000000
# 2 -0.001756 0.009482 -0.001884 0.000000 0.000459 0.000000
# 3 -0.005684 -0.001884 0.021454 -0.000001 -0.002261 0.000001
# 4 0.000000 0.000000 -0.000001 0.046754 0.000000 -0.008581
# 5 0.000432 0.000459 -0.002261 0.000000 0.025280 0.000000
# 6 0.000000 0.000000 0.000001 -0.008581 0.000000 0.092334
#
#
# Mechanical properties :
#
#
# Convention : Reuss Voigt Hill
#
# Bulk Modulus (GPa) = 42.98401 48.40682 45.69542
# Shear Modulus (GPa) = 21.48836 28.32763 24.90800
#
# Velocity S-wave (km/s) = 3.34394 3.83939 3.60020
# Velocity P-wave (km/s) = 6.10548 6.69657 6.40784
#
# Compressibility (1/GPa) = 0.02326446
#
# Stress axis : x y z
#
# Youngs Moduli (GPa) = 91.10349 105.46336 46.61103
#
# Poissons Ratio (x) = 0.18516 0.26495
# Poissons Ratio (y) = 0.15995 0.08783
# Poissons Ratio (z) = 0.51785 0.19872
#
# Static dielectric constant tensor:
#      x y z
#    x 3.766290 0.000000 0.040780 
#    y 0.000000 3.420940 0.000000 
#    z 0.040780 0.000000 3.473160 
# 
# 
# High freq. dielectric constant tensor:
#      x y z
#    x 1.761400 0.000000 -0.002020 
#    y 0.000000 1.744930 0.000000 
#    z -0.002020 0.000000 1.756640 
# 
# From -- ./inp_files/251388.got.cif
#   From: 2010.06.25/outbox.cif.g09.slc.cpg/sg12_126_cif.got.tgz:251388.got - 2010.06.28 00:19:55.
