data_PCOD8106848
_publ_section_title
;
Structure prediction by ZEFSAII (Michael W. Deem and Ramdas Pophale) SiO2 
 PCOD8106848
Probable space group: C 2/M
;
_chemical_formula_sum "Si O2"
_cell_formula_units_Z 64
_cell_length_a 31.997177
_cell_length_b 8.905686
_cell_length_c 14.715426
_cell_angle_alpha 90.000000
_cell_angle_beta 135.355119
_cell_angle_gamma 90.000000
_cell_volume 2946.648788
_symmetry_space_group_name_H-M "C 2/M"
_symmetry_group_IT_number 12
_symmetry_cell_setting 'monoclinic'
loop_
_space_group_symop_operation_xyz
x,y,z
-x,y,-z
-x,-y,-z
x,-y,z
1/2+x,1/2+y,z
1/2-x,1/2+y,-z
1/2-x,1/2-y,-z
1/2+x,1/2-y,z
loop_
_atom_site_type_symbol
_atom_site_label
_atom_site_fract_x
_atom_site_fract_y
_atom_site_fract_z
Si Si1 0.419517 0.173371 0.116037
Si Si2 0.648611 0.328966 0.484609
Si Si3 0.630956 0.174399 0.292502
Si Si4 0.559267 0.668694 0.033795
Si Si5 0.229255 0.824467 0.350525
Si Si6 0.945113 0.677120 0.355826
Si Si7 0.342319 0.329720 0.298071
Si Si8 0.210190 0.326513 0.140274
O O1 0.449394 0.227264 0.256924
O O2 0.434545 0.000000 0.119773
O O3 0.449139 0.270327 0.081468
O O4 0.347537 0.193977 0.013171
O O5 0.666286 0.500000 0.490178
O O6 0.603048 0.265696 0.336661
O O7 0.702563 0.214394 0.556755
O O8 0.626994 0.314650 0.554546
O O9 0.602000 0.218601 0.152767
O O10 0.699877 0.227325 0.387302
O O11 0.624487 0.000000 0.301020
O O12 0.585579 0.500000 0.070625
O O13 0.500000 0.668860 0.000000
O O14 0.197006 0.778304 0.206150
O O15 0.220292 0.000000 0.355913
O O16 0.946774 0.500000 0.365676
O O17 0.880790 0.727280 0.291894
O O18 0.000000 0.746020 0.500000
O O19 0.347107 0.500000 0.270965
O O20 0.272697 0.278957 0.188950
O O21 0.217674 0.500000 0.184268
#
# Coordination Sequence:
#
# PCOD8106848 Si02
#       8
#     8   8   8   8   8   8   8   8
#     4  10  21  40  66  91 120 162 205 250 311 373
#     4  10  21  37  56  83 122 162 201 247 299 354
#     4  12  23  36  56  83 117 159 205 248 299 363
#     4  11  25  43  62  89 123 157 202 259 308 363
#     4  11  20  32  53  84 121 159 202 246 297 357
#     4  10  23  42  63  90 124 160 204 256 303 361
#     4   9  20  38  60  88 122 159 203 256 311 364
#     4   9  18  35  59  88 122 159 202 255 311 371
#
# _framework density 21.71959
#
# number of rings (size 3 to 8) (size 9 to 14) (size 15 to 20)
#    0.000    1.750    1.250    4.125    0.000    5.750 
#    0.000    2.500    0.000    0.000    0.000    0.000 
#    0.000    0.000    0.000    0.000    0.000    0.000 
#
# Total GULP energy -396600.849011 kJ/mol
# GULP energy per Si atom -12393.776532 kJ/mol
# Density = 2.167016 g / cm^3
# Si number density = 21.719590 Si / 1000 Ang^3
#
#
#
# Elastic Constant Matrix: (Units=GPa)
#
#
# Indices 1 2 3 4 5 6 
#
# 1 80.0424 37.7237 36.4427 0.0000 -10.9724 0.0000
# 2 37.7237 95.5557 34.5018 0.0000 -13.8726 0.0000
# 3 36.4427 34.5018 98.9124 0.0000 -22.4377 0.0000
# 4 0.0000 0.0000 0.0000 25.4857 0.0000 -6.0561
# 5 -10.9724 -13.8726 -22.4377 0.0000 28.6657 0.0000
# 6 0.0000 0.0000 0.0000 -6.0561 0.0000 31.0307
#
#
#
# Elastic Compliance Matrix: (Units=1/GPa)
#
#
# Indices 1 2 3 4 5 6 
#
# 1 0.016923 -0.005021 -0.004335 0.000000 0.000655 0.000000
# 2 -0.005021 0.013689 -0.002259 0.000000 0.002934 0.000000
# 3 -0.004335 -0.002259 0.014434 0.000000 0.008545 0.000000
# 4 0.000000 0.000000 0.000000 0.041146 0.000000 0.008030
# 5 0.000655 0.002934 0.008545 0.000000 0.043244 0.000000
# 6 0.000000 0.000000 0.000000 0.008030 0.000000 0.033793
#
#
# Mechanical properties :
#
#
# Convention : Reuss Voigt Hill
#
# Bulk Modulus (GPa) = 45.83994 54.64967 50.24481
# Shear Modulus (GPa) = 25.80893 28.09258 26.95075
#
# Velocity S-wave (km/s) = 3.45088 3.60032 3.52639
# Velocity P-wave (km/s) = 6.08517 6.51914 6.30589
#
# Compressibility (1/GPa) = 0.02181504
#
# Stress axis : x y z
#
# Youngs Moduli (GPa) = 59.09071 73.05152 69.28221
#
# Poissons Ratio (x) = 0.36676 0.30036
# Poissons Ratio (y) = 0.29667 0.15654
# Poissons Ratio (z) = 0.25618 0.16506
#
# Static dielectric constant tensor:
#      x y z
#    x 3.762310 0.000000 -0.114730 
#    y 0.000000 3.789780 0.000000 
#    z -0.114730 0.000000 4.435400 
# 
# 
# High freq. dielectric constant tensor:
#      x y z
#    x 1.839510 0.000000 -0.010040 
#    y 0.000000 1.844670 0.000000 
#    z -0.010040 0.000000 1.857410 
# 
# From -- ./inp_files/249963.got.cif
#   From: 2010.06.25/outbox.cif.g09.slc.cpg/sg12_125_cif.got.tgz:249963.got - 2010.06.28 00:19:55.
