data_PCOD8106987
_publ_section_title
;
Structure prediction by ZEFSAII (Michael W. Deem and Ramdas Pophale) SiO2 
 PCOD8106987
Probable space group: C 2/M
;
_chemical_formula_sum "Si O2"
_cell_formula_units_Z 64
_cell_length_a 20.994838
_cell_length_b 13.560704
_cell_length_c 12.248428
_cell_angle_alpha 90.000000
_cell_angle_beta 110.203305
_cell_angle_gamma 90.000000
_cell_volume 3272.630308
_symmetry_space_group_name_H-M "C 2/M"
_symmetry_group_IT_number 12
_symmetry_cell_setting 'monoclinic'
loop_
_space_group_symop_operation_xyz
x,y,z
-x,y,-z
-x,-y,-z
x,-y,z
1/2+x,1/2+y,z
1/2-x,1/2+y,-z
1/2-x,1/2-y,-z
1/2+x,1/2-y,z
loop_
_atom_site_type_symbol
_atom_site_label
_atom_site_fract_x
_atom_site_fract_y
_atom_site_fract_z
Si Si1 0.343130 0.611194 0.099401
Si Si2 0.575191 0.247203 0.525300
Si Si3 0.513084 0.615059 0.881215
Si Si4 0.185314 0.110996 0.665896
Si Si5 0.585478 0.116832 0.742110
Si Si6 0.302236 0.118100 0.025673
Si Si7 0.166495 0.383267 0.196179
Si Si8 0.450232 0.791337 0.730783
O O1 0.344498 0.500000 0.057093
O O2 0.412112 0.660222 0.097549
O O3 0.343113 0.615428 0.229165
O O4 0.274896 0.662121 0.009886
O O5 0.500000 0.294334 0.500000
O O6 0.634407 0.327308 0.561348
O O7 0.587115 0.162999 0.622738
O O8 0.579982 0.200697 0.408399
O O9 0.505170 0.500000 0.843217
O O10 0.462027 0.678270 0.775794
O O11 0.500000 0.632142 0.000000
O O12 0.262410 0.152390 0.707075
O O13 0.183858 0.000000 0.620066
O O14 0.651927 0.156625 0.846969
O O15 0.519923 0.146752 0.773835
O O16 0.587677 0.000000 0.730378
O O17 0.297081 0.000000 0.022369
O O18 0.335557 0.151136 0.931028
O O19 0.162756 0.500000 0.202150
O O20 0.102417 0.338104 0.217608
#
# Coordination Sequence:
#
# PCOD8106987 Si02
#       8
#     8   8   8   8   8   8   8   8
#     4   8  14  31  57  80 105 138 177 226 281 330
#     4  10  22  37  53  82 113 144 192 234 274 331
#     4  10  22  39  57  81 117 151 185 230 285 343
#     4   9  18  36  60  83 109 143 186 235 283 331
#     4  10  21  37  57  84 117 150 187 232 281 333
#     4   8  16  32  56  84 109 135 180 234 275 327
#     4   9  19  36  58  85 113 145 184 231 286 334
#     4  11  23  36  56  81 113 152 192 230 274 333
#
# _framework density 19.556135000000001
#
# number of rings (size 3 to 8) (size 9 to 14) (size 15 to 20)
#    0.000    2.625    0.000    3.375    1.750    4.000 
#    2.250    3.750    0.000    0.000    0.000    0.000 
#    0.000    0.000    0.000    0.000    0.000    0.000 
#
# Total GULP energy -396683.746728 kJ/mol
# GULP energy per Si atom -12396.367085 kJ/mol
# Density = 1.951162 g / cm^3
# Si number density = 19.556135 Si / 1000 Ang^3
#
#
#
# Elastic Constant Matrix: (Units=GPa)
#
#
# Indices 1 2 3 4 5 6 
#
# 1 114.4704 21.7460 53.3661 0.0000 3.7009 0.0000
# 2 21.7460 41.0123 28.7616 0.0000 9.9122 0.0000
# 3 53.3661 28.7616 107.2478 0.0000 16.2359 0.0000
# 4 0.0000 0.0000 0.0000 19.4087 0.0000 -1.3682
# 5 3.7009 9.9122 16.2359 0.0000 32.7149 0.0000
# 6 0.0000 0.0000 0.0000 -1.3682 0.0000 3.4010
#
#
#
# Elastic Compliance Matrix: (Units=1/GPa)
#
#
# Indices 1 2 3 4 5 6 
#
# 1 0.011740 -0.002996 -0.005379 0.000000 0.002249 0.000000
# 2 -0.002996 0.031746 -0.006074 0.000000 -0.006265 0.000000
# 3 -0.005379 -0.006074 0.014336 0.000000 -0.004666 0.000000
# 4 0.000000 0.000000 0.000000 0.053027 0.000000 0.021333
# 5 0.002249 -0.006265 -0.004666 0.000000 0.034527 0.000000
# 6 0.000000 0.000000 0.000000 0.021333 0.000000 0.302614
#
#
# Mechanical properties :
#
#
# Convention : Reuss Voigt Hill
#
# Bulk Modulus (GPa) = 34.57436 52.27533 43.42485
# Shear Modulus (GPa) = 10.27689 21.69536 15.98612
#
# Velocity S-wave (km/s) = 2.29488 3.33436 2.86221
# Velocity P-wave (km/s) = 4.97392 6.45081 5.75990
#
# Compressibility (1/GPa) = 0.02892317
#
# Stress axis : x y z
#
# Youngs Moduli (GPa) = 85.17935 31.50037 69.75515
#
# Poissons Ratio (x) = 0.09439 0.37519
# Poissons Ratio (y) = 0.25524 0.42369
# Poissons Ratio (z) = 0.45815 0.19133
#
# Static dielectric constant tensor:
#      x y z
#    x 3.797040 0.000000 0.200360 
#    y 0.000000 3.461440 0.000000 
#    z 0.200360 0.000000 3.537050 
# 
# 
# High freq. dielectric constant tensor:
#      x y z
#    x 1.767520 0.000000 0.012050 
#    y 0.000000 1.758770 0.000000 
#    z 0.012050 0.000000 1.751370 
# 
# From -- ./inp_files/167295.got.cif
#   From: 2010.06.25/outbox.cif.g09.slc.cpg/sg12_84_cif.got.tgz:167295.got - 2010.06.28 00:19:55.
