data_PCOD8106346
_publ_section_title
;
Structure prediction by ZEFSAII (Michael W. Deem and Ramdas Pophale) SiO2 
 PCOD8106346
Probable space group: C 2/M
;
_chemical_formula_sum "Si O2"
_cell_formula_units_Z 48
_cell_length_a 9.940097
_cell_length_b 9.851350
_cell_length_c 25.392348
_cell_angle_alpha 90.000000
_cell_angle_beta 77.267291
_cell_angle_gamma 90.000000
_cell_volume 2425.358475
_symmetry_space_group_name_H-M "C 2/M"
_symmetry_group_IT_number 12
_symmetry_cell_setting 'monoclinic'
loop_
_space_group_symop_operation_xyz
x,y,z
-x,y,-z
-x,-y,-z
x,-y,z
1/2+x,1/2+y,z
1/2-x,1/2+y,-z
1/2-x,1/2-y,-z
1/2+x,1/2-y,z
loop_
_atom_site_type_symbol
_atom_site_label
_atom_site_fract_x
_atom_site_fract_y
_atom_site_fract_z
Si Si1 0.366446 0.000000 0.975816
Si Si2 0.183350 0.156727 0.295312
Si Si3 0.434555 0.842993 0.347701
Si Si4 0.424219 0.500000 0.951324
Si Si5 0.625644 0.156120 0.527609
Si Si6 0.924265 0.269261 0.891490
Si Si7 0.218858 0.653640 0.828317
O O1 0.359514 0.133614 0.941001
O O2 0.500000 0.000000 0.000000
O O3 0.240095 0.000000 0.027150
O O4 0.289044 0.189802 0.333026
O O5 0.257503 0.192770 0.234223
O O6 0.050265 0.250103 0.311845
O O7 0.136269 0.000000 0.301308
O O8 0.422049 0.805722 0.409848
O O9 0.475783 0.000000 0.335651
O O10 0.470726 0.630046 0.914406
O O11 0.500000 0.500000 0.000000
O O12 0.500000 0.186397 0.500000
O O13 0.750000 0.250000 0.500000
O O14 0.673981 0.000000 0.520148
O O15 0.807701 0.251714 0.857421
O O16 0.057102 0.334971 0.853277
O O17 0.266703 0.500000 0.835665
#
# Coordination Sequence:
#
# PCOD8106346 Si02
#       7
#     4   8   8   4   8   8   8
#     4  12  24  42  66  92 122 160 194 238 300 350
#     4  10  22  39  62  85 118 157 199 250 298 358
#     4  10  21  39  58  89 122 157 204 251 301 355
#     4  12  24  40  60  96 120 150 204 238 282 362
#     4  10  21  36  57  86 123 161 203 252 299 355
#     4  12  23  43  66  88 125 157 193 248 295 351
#     4  11  23  43  62  91 121 154 199 247 300 354
#
# _framework density 19.790889
#
# number of rings (size 3 to 8) (size 9 to 14) (size 15 to 20)
#    0.000    1.167    1.667    5.000    0.000    1.667 
#    3.000    0.000    0.000    0.000    0.000    0.000 
#    0.000    0.000    0.000    0.000    0.000    0.000 
#
# Total GULP energy -297784.832112 kJ/mol
# GULP energy per Si atom -12407.701338 kJ/mol
# Density = 1.974584 g / cm^3
# Si number density = 19.790889 Si / 1000 Ang^3
#
#
#
# Elastic Constant Matrix: (Units=GPa)
#
#
# Indices 1 2 3 4 5 6 
#
# 1 88.4236 23.9128 25.4114 0.0000 0.8775 0.0000
# 2 23.9128 88.7467 34.4263 0.0000 -5.4043 0.0000
# 3 25.4114 34.4263 90.9104 0.0000 5.1841 0.0000
# 4 0.0000 0.0000 0.0000 34.3693 0.0000 -6.2557
# 5 0.8775 -5.4043 5.1841 0.0000 42.5567 0.0000
# 6 0.0000 0.0000 0.0000 -6.2557 0.0000 37.8614
#
#
#
# Elastic Compliance Matrix: (Units=1/GPa)
#
#
# Indices 1 2 3 4 5 6 
#
# 1 0.012721 -0.002426 -0.002623 0.000000 -0.000251 0.000000
# 2 -0.002426 0.013899 -0.004722 0.000000 0.002390 0.000000
# 3 -0.002623 -0.004722 0.013647 0.000000 -0.002208 0.000000
# 4 0.000000 0.000000 0.000000 0.029998 0.000000 0.004956
# 5 -0.000251 0.002390 -0.002208 0.000000 0.024076 0.000000
# 6 0.000000 0.000000 0.000000 0.004956 0.000000 0.027231
#
#
# Mechanical properties :
#
#
# Convention : Reuss Voigt Hill
#
# Bulk Modulus (GPa) = 48.24678 48.39795 48.32236
# Shear Modulus (GPa) = 33.77898 35.24616 34.51257
#
# Velocity S-wave (km/s) = 4.13582 4.22468 4.18049
# Velocity P-wave (km/s) = 6.87298 6.95018 6.91169
#
# Compressibility (1/GPa) = 0.02072677
#
# Stress axis : x y z
#
# Youngs Moduli (GPa) = 78.60727 71.94921 73.27654
#
# Poissons Ratio (x) = 0.17451 0.19221
# Poissons Ratio (y) = 0.19066 0.34598
# Poissons Ratio (z) = 0.20620 0.33971
#
# Static dielectric constant tensor:
#      x y z
#    x 3.516650 0.000000 0.056760 
#    y 0.000000 3.673290 0.000000 
#    z 0.056760 0.000000 3.881840 
# 
# 
# High freq. dielectric constant tensor:
#      x y z
#    x 1.777530 0.000000 0.008910 
#    y 0.000000 1.776300 0.000000 
#    z 0.008910 0.000000 1.787080 
# 
# From -- ./inp_files/334792.got.cif
#   From: 2010.06.25/outbox.cif.g09.slc.cpg/sg12_168_cif.got.tgz:334792.got - 2010.06.28 00:19:55.
