data_PCOD8106811
_publ_section_title
;
Structure prediction by ZEFSAII (Michael W. Deem and Ramdas Pophale) SiO2 
 PCOD8106811
Probable space group: C 2/M
;
_chemical_formula_sum "Si O2"
_cell_formula_units_Z 64
_cell_length_a 31.089605
_cell_length_b 14.099579
_cell_length_c 9.879053
_cell_angle_alpha 90.000000
_cell_angle_beta 132.760369
_cell_angle_gamma 90.000000
_cell_volume 3179.441507
_symmetry_space_group_name_H-M "C 2/M"
_symmetry_group_IT_number 12
_symmetry_cell_setting 'monoclinic'
loop_
_space_group_symop_operation_xyz
x,y,z
-x,y,-z
-x,-y,-z
x,-y,z
1/2+x,1/2+y,z
1/2-x,1/2+y,-z
1/2-x,1/2-y,-z
1/2+x,1/2-y,z
loop_
_atom_site_type_symbol
_atom_site_label
_atom_site_fract_x
_atom_site_fract_y
_atom_site_fract_z
Si Si1 0.651588 0.389829 0.043890
Si Si2 0.225004 0.614103 0.344642
Si Si3 0.328397 0.897224 0.045457
Si Si4 0.268049 0.175793 0.151155
Si Si5 0.887318 0.249048 0.505670
Si Si6 0.340069 0.717415 0.672693
Si Si7 0.566025 0.389784 0.614848
Si Si8 0.938364 0.388591 0.429218
O O1 0.651729 0.500000 0.084144
O O2 0.604563 0.367618 0.828477
O O3 0.716562 0.360434 0.136381
O O4 0.633517 0.326919 0.134126
O O5 0.217952 0.500000 0.351478
O O6 0.291490 0.644058 0.512486
O O7 0.184015 0.675082 0.357506
O O8 0.207002 0.651017 0.153857
O O9 0.291390 0.909287 0.105113
O O10 0.389664 0.846291 0.219312
O O11 0.345335 0.000000 0.025397
O O12 0.319135 0.221050 0.350284
O O13 0.250000 0.250000 0.000000
O O14 0.893296 0.223101 0.677310
O O15 0.904055 0.159721 0.449402
O O16 0.929353 0.336828 0.553968
O O17 0.500000 0.352449 0.500000
O O18 0.565253 0.500000 0.577406
O O19 0.931004 0.500000 0.436864
O O20 0.000000 0.360226 0.500000
#
# Coordination Sequence:
#
# PCOD8106811 Si02
#       8
#     8   8   8   8   8   8   8   8
#     4  11  23  39  61  88 123 161 197 248 301 354
#     4  10  21  37  56  80 123 167 195 234 295 363
#     4   9  18  31  53  83 111 146 190 237 288 343
#     4  11  18  31  54  86 118 142 184 243 293 354
#     4  11  22  36  59  87 120 153 190 243 299 352
#     4  11  23  37  55  88 121 160 197 238 291 363
#     4  10  23  43  65  86 111 153 207 255 298 346
#     4   9  19  36  60  89 117 149 197 250 297 346
#
# _framework density 20.12932
#
# number of rings (size 3 to 8) (size 9 to 14) (size 15 to 20)
#    0.000    1.750    1.250    4.125    1.750    2.000 
#    0.000    0.625    0.000    2.250    0.000    3.500 
#    0.000    0.000    0.000    0.000    0.000    0.000 
#
# Total GULP energy -396558.518122 kJ/mol
# GULP energy per Si atom -12392.453691 kJ/mol
# Density = 2.008351 g / cm^3
# Si number density = 20.129320 Si / 1000 Ang^3
#
#
#
# Elastic Constant Matrix: (Units=GPa)
#
#
# Indices 1 2 3 4 5 6 
#
# 1 140.0474 48.4458 62.3826 0.0000 -14.5256 0.0000
# 2 48.4458 106.5633 25.7827 0.0000 -11.4648 0.0000
# 3 62.3826 25.7827 68.4975 0.0000 -9.8066 0.0000
# 4 0.0000 0.0000 0.0000 16.3113 0.0000 -4.9741
# 5 -14.5256 -11.4648 -9.8066 0.0000 35.8960 0.0000
# 6 0.0000 0.0000 0.0000 -4.9741 0.0000 24.8084
#
#
#
# Elastic Compliance Matrix: (Units=1/GPa)
#
#
# Indices 1 2 3 4 5 6 
#
# 1 0.013086 -0.003261 -0.010491 0.000000 0.001387 0.000000
# 2 -0.003261 0.011327 -0.001004 0.000000 0.002024 0.000000
# 3 -0.010491 -0.001004 0.024850 0.000000 0.002223 0.000000
# 4 0.000000 0.000000 0.000000 0.065300 0.000000 0.013093
# 5 0.001387 0.002024 0.002223 0.000000 0.029673 0.000000
# 6 0.000000 0.000000 0.000000 0.013093 0.000000 0.042934
#
#
# Mechanical properties :
#
#
# Convention : Reuss Voigt Hill
#
# Bulk Modulus (GPa) = 50.63240 65.37002 58.00121
# Shear Modulus (GPa) = 22.39478 27.30295 24.84886
#
# Velocity S-wave (km/s) = 3.33910 3.68690 3.51730
# Velocity P-wave (km/s) = 6.33043 7.11827 6.73588
#
# Compressibility (1/GPa) = 0.01975020
#
# Stress axis : x y z
#
# Youngs Moduli (GPa) = 76.41864 88.28165 40.24170
#
# Poissons Ratio (x) = 0.28793 0.42219
# Poissons Ratio (y) = 0.24924 0.04039
# Poissons Ratio (z) = 0.80174 0.08860
#
# Static dielectric constant tensor:
#      x y z
#    x 3.756220 0.000000 -0.156900 
#    y 0.000000 3.824080 0.000000 
#    z -0.156900 0.000000 3.757090 
# 
# 
# High freq. dielectric constant tensor:
#      x y z
#    x 1.772840 0.000000 -0.009030 
#    y 0.000000 1.802380 0.000000 
#    z -0.009030 0.000000 1.773190 
# 
# From -- ./inp_files/112027.got.cif
#   From: 2010.06.25/outbox.cif.g09.slc.cpg/sg12_57_cif.got.tgz:112027.got - 2010.06.28 00:19:55.
