data_PCOD8106453
_publ_section_title
;
Structure prediction by ZEFSAII (Michael W. Deem and Ramdas Pophale) SiO2 
 PCOD8106453
Probable space group: C 2/M
;
_chemical_formula_sum "Si O2"
_cell_formula_units_Z 48
_cell_length_a 22.454535
_cell_length_b 8.556407
_cell_length_c 12.092712
_cell_angle_alpha 90.000000
_cell_angle_beta 105.230298
_cell_angle_gamma 90.000000
_cell_volume 2241.772233
_symmetry_space_group_name_H-M "C 2/M"
_symmetry_group_IT_number 12
_symmetry_cell_setting 'monoclinic'
loop_
_space_group_symop_operation_xyz
x,y,z
-x,y,-z
-x,-y,-z
x,-y,z
1/2+x,1/2+y,z
1/2-x,1/2+y,-z
1/2-x,1/2-y,-z
1/2+x,1/2-y,z
loop_
_atom_site_type_symbol
_atom_site_label
_atom_site_fract_x
_atom_site_fract_y
_atom_site_fract_z
Si Si1 0.541615 0.180109 0.121979
Si Si2 0.998568 0.820186 0.314639
Si Si3 0.132894 0.820215 0.461201
Si Si4 0.668605 0.318232 0.236010
Si Si5 0.874132 0.681705 0.320017
Si Si6 0.768936 0.817040 0.127644
O O1 0.500029 0.208428 0.209186
O O2 0.601501 0.289867 0.151158
O O3 0.562316 0.000000 0.124918
O O4 0.500000 0.231277 0.000000
O O5 0.938107 0.776284 0.353912
O O6 0.059552 0.791018 0.416668
O O7 0.995977 0.000000 0.275448
O O8 0.167009 0.767944 0.364579
O O9 0.158179 0.718877 0.577048
O O10 0.147615 0.000000 0.492916
O O11 0.685877 0.500000 0.231242
O O12 0.717484 0.214418 0.194957
O O13 0.886910 0.500000 0.313610
O O14 0.832227 0.736836 0.197475
O O15 0.779997 0.000000 0.120926
O O16 0.750000 0.750000 0.000000
#
# Coordination Sequence:
#
# PCOD8106453 Si02
#       6
#     8   8   8   8   8   8
#     4  10  21  36  58  89 125 164 208 257 308 369
#     4  10  21  38  61  91 128 167 209 259 313 371
#     4   9  20  40  65  94 128 165 207 255 313 373
#     4  10  22  42  66  92 125 163 207 259 312 370
#     4  12  25  40  63  94 128 167 212 258 313 375
#     4  12  27  47  68  90 123 165 211 261 312 371
#
# _framework density 21.411632000000001
#
# number of rings (size 3 to 8) (size 9 to 14) (size 15 to 20)
#    0.000    1.500    0.000    6.000    2.333    8.000 
#    0.000    0.000    0.000    0.000    0.000    0.000 
#    0.000    0.000    0.000    0.000    0.000    0.000 
#
# Total GULP energy -297686.710319 kJ/mol
# GULP energy per Si atom -12403.612930 kJ/mol
# Density = 2.136290 g / cm^3
# Si number density = 21.411632 Si / 1000 Ang^3
#
#
#
# Elastic Constant Matrix: (Units=GPa)
#
#
# Indices 1 2 3 4 5 6 
#
# 1 69.8325 9.7951 21.0952 0.0000 -14.8168 0.0000
# 2 9.7951 67.3526 32.5979 0.0000 7.3511 0.0000
# 3 21.0952 32.5979 109.0504 0.0000 2.7767 0.0000
# 4 0.0000 0.0000 0.0000 37.7448 0.0000 -2.7652
# 5 -14.8168 7.3511 2.7767 0.0000 15.3737 0.0000
# 6 0.0000 0.0000 0.0000 -2.7652 0.0000 36.8546
#
#
#
# Elastic Compliance Matrix: (Units=1/GPa)
#
#
# Indices 1 2 3 4 5 6 
#
# 1 0.020614 -0.003772 -0.003428 0.000000 0.022290 0.000000
# 2 -0.003772 0.018928 -0.004627 0.000000 -0.011850 0.000000
# 3 -0.003428 -0.004627 0.011296 0.000000 -0.003131 0.000000
# 4 0.000000 0.000000 0.000000 0.026640 0.000000 0.001999
# 5 0.022290 -0.011850 -0.003131 0.000000 0.092761 0.000000
# 6 0.000000 0.000000 0.000000 0.001999 0.000000 0.027284
#
#
# Mechanical properties :
#
#
# Convention : Reuss Voigt Hill
#
# Bulk Modulus (GPa) = 36.78397 41.46800 39.12598
# Shear Modulus (GPa) = 21.71674 30.17778 25.94726
#
# Velocity S-wave (km/s) = 3.18818 3.75828 3.48491
# Velocity P-wave (km/s) = 5.54702 6.18401 5.87416
#
# Compressibility (1/GPa) = 0.02718576
#
# Stress axis : x y z
#
# Youngs Moduli (GPa) = 48.51105 52.83040 88.52720
#
# Poissons Ratio (x) = 0.19926 0.30345
# Poissons Ratio (y) = 0.18297 0.40960
# Poissons Ratio (z) = 0.16628 0.24444
#
# Static dielectric constant tensor:
#      x y z
#    x 3.810570 0.000000 -0.099220 
#    y 0.000000 3.761030 0.000000 
#    z -0.099220 0.000000 3.968170 
# 
# 
# High freq. dielectric constant tensor:
#      x y z
#    x 1.835120 0.000000 -0.005250 
#    y 0.000000 1.842730 0.000000 
#    z -0.005250 0.000000 1.849820 
# 
# From -- ./inp_files/173047.got.cif
#   From: 2010.06.25/outbox.cif.g09.slc.cpg/sg12_87_cif.got.tgz:173047.got - 2010.06.28 00:19:55.
