data_PCOD8106900
_publ_section_title
;
Structure prediction by ZEFSAII (Michael W. Deem and Ramdas Pophale) SiO2 
 PCOD8106900
Probable space group: C 2/M
;
_chemical_formula_sum "Si O2"
_cell_formula_units_Z 64
_cell_length_a 18.215189
_cell_length_b 8.615185
_cell_length_c 30.508988
_cell_angle_alpha 90.000000
_cell_angle_beta 138.188527
_cell_angle_gamma 90.000000
_cell_volume 3191.865972
_symmetry_space_group_name_H-M "C 2/M"
_symmetry_group_IT_number 12
_symmetry_cell_setting 'monoclinic'
loop_
_space_group_symop_operation_xyz
x,y,z
-x,y,-z
-x,-y,-z
x,-y,z
1/2+x,1/2+y,z
1/2-x,1/2+y,-z
1/2-x,1/2-y,-z
1/2+x,1/2-y,z
loop_
_atom_site_type_symbol
_atom_site_label
_atom_site_fract_x
_atom_site_fract_y
_atom_site_fract_z
Si Si1 0.280976 0.815686 0.190238
Si Si2 0.058740 0.318376 0.815031
Si Si3 0.768560 0.320204 0.578041
Si Si4 0.537541 0.314884 0.063954
Si Si5 0.584490 0.319740 0.427535
Si Si6 0.171876 0.179656 0.306726
Si Si7 0.130859 0.817365 0.938172
Si Si8 0.644981 0.181921 0.682149
O O1 0.359962 0.756850 0.186670
O O2 0.158783 0.748224 0.128177
O O3 0.327177 0.754772 0.257031
O O4 0.276502 0.000000 0.189250
O O5 0.076041 0.500000 0.831213
O O6 0.085933 0.225967 0.870823
O O7 0.935036 0.286349 0.744899
O O8 0.775307 0.500000 0.593939
O O9 0.657337 0.279070 0.502430
O O10 0.874679 0.278640 0.595951
O O11 0.766376 0.217394 0.620634
O O12 0.539402 0.500000 0.065074
O O13 0.453344 0.250894 0.062978
O O14 0.500000 0.251663 0.000000
O O15 0.595189 0.500000 0.420498
O O16 0.459859 0.274031 0.382979
O O17 0.252043 0.221176 0.302576
O O18 0.137205 0.000000 0.289938
O O19 0.138531 0.000000 0.945855
O O20 0.250000 0.750000 0.000000
O O21 0.618018 0.000000 0.669997
#
# Coordination Sequence:
#
# PCOD8106900 Si02
#       8
#     8   8   8   8   8   8   8   8
#     4   9  18  34  56  81 107 141 188 233 276 332
#     4  11  22  37  60  86 113 148 189 236 289 343
#     4  10  21  38  59  83 114 151 189 234 290 348
#     4   9  17  32  56  82 107 141 187 232 273 326
#     4  10  21  37  59  85 112 146 192 242 287 339
#     4  11  23  38  58  85 116 151 192 237 285 343
#     4  11  22  37  59  85 115 149 186 233 285 340
#     4  10  21  37  57  81 113 152 192 237 289 345
#
# _framework density 20.050967
#
# number of rings (size 3 to 8) (size 9 to 14) (size 15 to 20)
#    0.000    1.875    0.000    4.125    0.000    8.000 
#    0.000    3.125    0.000    9.750    0.000    0.000 
#    0.000    0.000    0.000    0.000    0.000    0.000 
#
# Total GULP energy -396966.934576 kJ/mol
# GULP energy per Si atom -12405.216706 kJ/mol
# Density = 2.000533 g / cm^3
# Si number density = 20.050967 Si / 1000 Ang^3
#
#
#
# Elastic Constant Matrix: (Units=GPa)
#
#
# Indices 1 2 3 4 5 6 
#
# 1 161.4452 29.3223 75.0486 0.0000 -0.2767 -0.0001
# 2 29.3223 34.3828 21.4038 0.0001 2.9973 -0.0002
# 3 75.0486 21.4038 131.3201 0.0000 4.2046 0.0000
# 4 0.0000 0.0001 0.0000 31.2844 0.0000 0.8819
# 5 -0.2767 2.9973 4.2046 0.0000 41.8486 0.0000
# 6 -0.0001 -0.0002 0.0000 0.8819 0.0000 29.5221
#
#
#
# Elastic Compliance Matrix: (Units=1/GPa)
#
#
# Indices 1 2 3 4 5 6 
#
# 1 0.009198 -0.005154 -0.004444 0.000000 0.000876 0.000000
# 2 -0.005154 0.035391 -0.002750 0.000000 -0.002293 0.000000
# 3 -0.004444 -0.002750 0.010632 0.000000 -0.000901 0.000000
# 4 0.000000 0.000000 0.000000 0.031992 0.000000 -0.000956
# 5 0.000876 -0.002293 -0.000901 0.000000 0.024156 0.000000
# 6 0.000000 0.000000 0.000000 -0.000956 0.000000 0.033901
#
#
# Mechanical properties :
#
#
# Convention : Reuss Voigt Hill
#
# Bulk Modulus (GPa) = 32.75996 64.29973 48.52984
# Shear Modulus (GPa) = 27.75611 33.95590 30.85600
#
# Velocity S-wave (km/s) = 3.72462 4.11965 3.92711
# Velocity P-wave (km/s) = 5.90516 7.40044 6.69468
#
# Compressibility (1/GPa) = 0.03052507
#
# Stress axis : x y z
#
# Youngs Moduli (GPa) = 108.72414 28.25577 94.05586
#
# Poissons Ratio (x) = 0.14562 0.41803
# Poissons Ratio (y) = 0.56031 0.25863
# Poissons Ratio (z) = 0.48322 0.07770
#
# Static dielectric constant tensor:
#      x y z
#    x 3.865190 0.000000 -0.135240 
#    y 0.000000 3.387730 0.000000 
#    z -0.135240 0.000000 3.970710 
# 
# 
# High freq. dielectric constant tensor:
#      x y z
#    x 1.792260 0.000000 -0.000100 
#    y 0.000000 1.759940 0.000000 
#    z -0.000100 0.000000 1.797560 
# 
# From -- ./inp_files/378475.got.cif
#   From: 2010.06.25/outbox.cif.g09.slc.cpg/sg12_190_cif.got.tgz:378475.got - 2010.06.28 00:19:55.
