data_PCOD8106889
_publ_section_title
;
Structure prediction by ZEFSAII (Michael W. Deem and Ramdas Pophale) SiO2 
 PCOD8106889
Probable space group: C 2/M
;
_chemical_formula_sum "Si O2"
_cell_formula_units_Z 64
_cell_length_a 35.718689
_cell_length_b 8.954233
_cell_length_c 13.661460
_cell_angle_alpha 90.000000
_cell_angle_beta 131.117295
_cell_angle_gamma 90.000000
_cell_volume 3291.746736
_symmetry_space_group_name_H-M "C 2/M"
_symmetry_group_IT_number 12
_symmetry_cell_setting 'monoclinic'
loop_
_space_group_symop_operation_xyz
x,y,z
-x,y,-z
-x,-y,-z
x,-y,z
1/2+x,1/2+y,z
1/2-x,1/2+y,-z
1/2-x,1/2-y,-z
1/2+x,1/2-y,z
loop_
_atom_site_type_symbol
_atom_site_label
_atom_site_fract_x
_atom_site_fract_y
_atom_site_fract_z
Si Si1 0.013450 0.173156 0.632468
Si Si2 0.054321 0.826351 0.123636
Si Si3 0.800441 0.675671 0.120603
Si Si4 0.821660 0.675275 0.379972
Si Si5 0.387073 0.177008 0.128528
Si Si6 0.742240 0.823141 0.382388
Si Si7 0.865469 0.676463 0.874625
Si Si8 0.921322 0.172366 0.611095
O O1 0.059699 0.268397 0.746381
O O2 0.000000 0.221485 0.500000
O O3 0.967378 0.212433 0.621835
O O4 0.027892 0.000000 0.663625
O O5 0.095246 0.740117 0.133206
O O6 0.062531 0.792355 0.251157
O O7 0.059431 0.000000 0.107452
O O8 0.000000 0.767210 0.000000
O O9 0.794504 0.500000 0.097601
O O10 0.812528 0.720266 0.252272
O O11 0.844959 0.738073 0.129660
O O12 0.750000 0.750000 0.000000
O O13 0.814002 0.500000 0.385191
O O14 0.783867 0.768030 0.380082
O O15 0.877084 0.719268 0.504852
O O16 0.387112 0.000000 0.129311
O O17 0.375785 0.239415 0.000803
O O18 0.750000 0.750000 0.500000
O O19 0.689179 0.770893 0.250408
O O20 0.746111 0.000000 0.399693
O O21 0.869867 0.500000 0.880009
O O22 0.905026 0.000000 0.570546
#
# Coordination Sequence:
#
# PCOD8106889 Si02
#       8
#     8   8   8   8   8   8   8   8
#     4  10  21  37  58  85 114 145 186 233 280 334
#     4  10  21  37  57  81 111 147 185 227 276 330
#     4  10  22  39  59  84 114 149 190 235 284 342
#     4  11  23  38  58  86 116 148 190 235 282 339
#     4  10  21  38  58  82 113 148 186 229 282 338
#     4  11  23  40  61  85 116 152 190 234 284 336
#     4  10  22  38  57  82 111 145 185 230 279 331
#     4  10  21  37  57  82 113 150 189 230 282 339
#
# _framework density 19.442564999999998
#
# number of rings (size 3 to 8) (size 9 to 14) (size 15 to 20)
#    0.000    1.750    0.000    3.750    0.000    8.500 
#    0.000    0.000    0.000    0.000    0.000    0.000 
#    0.000    0.000    0.000    0.000    0.000    0.000 
#
# Total GULP energy -396972.009162 kJ/mol
# GULP energy per Si atom -12405.375286 kJ/mol
# Density = 1.939831 g / cm^3
# Si number density = 19.442565 Si / 1000 Ang^3
#
#
#
# Elastic Constant Matrix: (Units=GPa)
#
#
# Indices 1 2 3 4 5 6 
#
# 1 160.7572 27.4941 73.9642 0.0000 -6.9751 0.0000
# 2 27.4941 25.5489 32.4371 0.0000 1.3137 0.0000
# 3 73.9642 32.4371 151.8493 0.0000 1.0616 0.0000
# 4 0.0000 0.0000 0.0000 36.0681 0.0000 0.6497
# 5 -6.9751 1.3137 1.0616 0.0000 36.1251 0.0000
# 6 0.0000 0.0000 0.0000 0.6497 0.0000 51.2027
#
#
#
# Elastic Compliance Matrix: (Units=1/GPa)
#
#
# Indices 1 2 3 4 5 6 
#
# 1 0.008656 -0.005551 -0.003044 0.000000 0.001963 0.000000
# 2 -0.005551 0.057360 -0.009529 0.000000 -0.002878 0.000000
# 3 -0.003044 -0.009529 0.010108 0.000000 -0.000538 0.000000
# 4 0.000000 0.000000 0.000000 0.027732 0.000000 -0.000352
# 5 0.001963 -0.002878 -0.000538 0.000000 0.028181 0.000000
# 6 0.000000 0.000000 0.000000 -0.000352 0.000000 0.019535
#
#
# Mechanical properties :
#
#
# Convention : Reuss Voigt Hill
#
# Bulk Modulus (GPa) = 25.07809 67.32737 46.20273
# Shear Modulus (GPa) = 24.86199 38.29652 31.57925
#
# Velocity S-wave (km/s) = 3.57983 4.44297 4.03455
# Velocity P-wave (km/s) = 5.47845 7.81179 6.74676
#
# Compressibility (1/GPa) = 0.03987544
#
# Stress axis : x y z
#
# Youngs Moduli (GPa) = 115.53174 17.43371 98.93634
#
# Poissons Ratio (x) = 0.09677 0.30117
# Poissons Ratio (y) = 0.64129 0.94277
# Poissons Ratio (z) = 0.35169 0.16613
#
# Static dielectric constant tensor:
#      x y z
#    x 5.918280 0.000000 1.080650 
#    y 0.000000 3.436780 0.000000 
#    z 1.080650 0.000000 4.460330 
# 
# 
# High freq. dielectric constant tensor:
#      x y z
#    x 1.778270 0.000000 -0.003010 
#    y 0.000000 1.748670 0.000000 
#    z -0.003010 0.000000 1.776030 
# 
# From -- ./inp_files/249975.got.cif
#   From: 2010.06.25/outbox.cif.g09.slc.cpg/sg12_125_cif.got.tgz:249975.got - 2010.06.28 00:19:55.
