data_PCOD8106656
_publ_section_title
;
Structure prediction by ZEFSAII (Michael W. Deem and Ramdas Pophale) SiO2 
 PCOD8106656
Probable space group: C 2/M
;
_chemical_formula_sum "Si O2"
_cell_formula_units_Z 44
_cell_length_a 16.594919
_cell_length_b 28.980017
_cell_length_c 11.221888
_cell_angle_alpha 90.000000
_cell_angle_beta 158.441180
_cell_angle_gamma 90.000000
_cell_volume 1983.103063
_symmetry_space_group_name_H-M "C 2/M"
_symmetry_group_IT_number 12
_symmetry_cell_setting 'monoclinic'
loop_
_space_group_symop_operation_xyz
x,y,z
-x,y,-z
-x,-y,-z
x,-y,z
1/2+x,1/2+y,z
1/2-x,1/2+y,-z
1/2-x,1/2-y,-z
1/2+x,1/2-y,z
loop_
_atom_site_type_symbol
_atom_site_label
_atom_site_fract_x
_atom_site_fract_y
_atom_site_fract_z
Si Si1 0.118801 0.690369 0.423266
Si Si2 0.244286 0.051566 0.663908
Si Si3 0.056048 0.112025 0.205152
Si Si4 0.759071 0.162114 0.956196
Si Si5 0.500000 0.384146 0.500000
Si Si6 0.255697 0.252095 0.199584
O O1 0.285463 0.657224 0.582196
O O2 0.248422 0.731895 0.669681
O O3 0.999727 0.661089 0.366326
O O4 0.929280 0.707992 0.070593
O O5 0.153579 0.071012 0.415543
O O6 0.183559 0.083201 0.692972
O O7 0.150428 0.000000 0.554485
O O8 0.500000 0.050375 0.000000
O O9 0.822421 0.127052 0.938702
O O10 0.000000 0.091391 0.000000
O O11 0.899355 0.149405 0.264476
O O12 0.819920 0.213820 0.000494
O O13 0.500000 0.269635 0.500000
#
# Coordination Sequence:
#
# PCOD8106656 Si02
#       6
#     8   8   8   8   4   8
#     4  11  23  40  59  86 128 167 213 266 300 355
#     4  10  22  43  67  96 125 156 200 254 318 381
#     4  11  23  42  62  92 124 164 207 254 316 370
#     4  10  21  37  61  84 122 165 212 247 309 353
#     4  10  21  36  66  96 120 162 200 256 299 380
#     4  10  21  38  60  84 119 175 214 259 303 351
#
# _framework density 22.187449999999998
#
# number of rings (size 3 to 8) (size 9 to 14) (size 15 to 20)
#    0.000    1.636    1.818    3.545    3.818    1.091 
#    0.000    0.000    0.000    0.000    0.000   10.182 
#    0.000    0.000    0.000    0.000    0.000    0.000 
#
# Total GULP energy -272682.061305 kJ/mol
# GULP energy per Si atom -12394.639150 kJ/mol
# Density = 2.213695 g / cm^3
# Si number density = 22.187450 Si / 1000 Ang^3
#
#
#
# Elastic Constant Matrix: (Units=GPa)
#
#
# Indices 1 2 3 4 5 6 
#
# 1 51.1388 -4.5693 6.9877 -0.0008 -6.6930 -0.0002
# 2 -4.5693 61.3372 23.6770 -0.0006 0.7003 -0.0001
# 3 6.9877 23.6770 78.2147 0.0064 -1.0377 0.0027
# 4 -0.0008 -0.0006 0.0064 28.8053 0.0022 1.7000
# 5 -6.6930 0.7003 -1.0377 0.0022 17.1143 0.0007
# 6 -0.0002 -0.0001 0.0027 1.7000 0.0007 18.6248
#
#
#
# Elastic Compliance Matrix: (Units=1/GPa)
#
#
# Indices 1 2 3 4 5 6 
#
# 1 0.021171 0.002462 -0.002530 0.000001 0.008025 0.000000
# 2 0.002462 0.018767 -0.005903 0.000002 -0.000163 0.000001
# 3 -0.002530 -0.005903 0.014800 -0.000003 0.000149 -0.000002
# 4 0.000001 0.000002 -0.000003 0.034904 -0.000004 -0.003186
# 5 0.008025 -0.000163 0.000149 -0.000004 0.061585 -0.000002
# 6 0.000000 0.000001 -0.000002 -0.003186 -0.000002 0.053983
#
#
# Mechanical properties :
#
#
# Convention : Reuss Voigt Hill
#
# Bulk Modulus (GPa) = 23.36687 26.98683 25.17685
# Shear Modulus (GPa) = 21.60592 23.88189 22.74390
#
# Velocity S-wave (km/s) = 3.12395 3.28437 3.20516
# Velocity P-wave (km/s) = 4.85453 5.15483 5.00693
#
# Compressibility (1/GPa) = 0.04279563
#
# Stress axis : x y z
#
# Youngs Moduli (GPa) = 47.23510 53.28392 67.56563
#
# Poissons Ratio (x) = -0.13120 0.17096
# Poissons Ratio (y) = -0.11630 0.39886
# Poissons Ratio (z) = 0.11952 0.31455
#
# Static dielectric constant tensor:
#      x y z
#    x 4.137890 0.000000 0.173800 
#    y 0.000000 3.937920 0.000000 
#    z 0.173800 0.000000 3.849330 
# 
# 
# High freq. dielectric constant tensor:
#      x y z
#    x 1.885560 0.000000 -0.003490 
#    y 0.000000 1.840960 0.000000 
#    z -0.003490 0.000000 1.881330 
# 
# From -- ./inp_files/161277.got.cif
#   From: 2010.06.25/outbox.cif.g09.slc.cpg/sg12_81_cif.got.tgz:161277.got - 2010.06.28 00:19:55.
