data_PCOD8106409
_publ_section_title
;
Structure prediction by ZEFSAII (Michael W. Deem and Ramdas Pophale) SiO2 
 PCOD8106409
Probable space group: C 2/M
;
_chemical_formula_sum "Si O2"
_cell_formula_units_Z 56
_cell_length_a 20.212406
_cell_length_b 8.677995
_cell_length_c 28.463065
_cell_angle_alpha 90.000000
_cell_angle_beta 147.610062
_cell_angle_gamma 90.000000
_cell_volume 2674.381118
_symmetry_space_group_name_H-M "C 2/M"
_symmetry_group_IT_number 12
_symmetry_cell_setting 'monoclinic'
loop_
_space_group_symop_operation_xyz
x,y,z
-x,y,-z
-x,-y,-z
x,-y,z
1/2+x,1/2+y,z
1/2-x,1/2+y,-z
1/2-x,1/2-y,-z
1/2+x,1/2-y,z
loop_
_atom_site_type_symbol
_atom_site_label
_atom_site_fract_x
_atom_site_fract_y
_atom_site_fract_z
Si Si1 0.192302 0.677955 0.223075
Si Si2 0.223537 0.324146 0.552629
Si Si3 0.140317 0.821818 0.591458
Si Si4 0.445924 0.321023 0.107674
Si Si5 0.240499 0.820444 0.923749
Si Si6 0.051341 0.176051 0.376625
Si Si7 0.802357 0.678249 0.201707
O O1 0.182554 0.500000 0.203326
O O2 0.313651 0.708199 0.327916
O O3 0.202201 0.775658 0.181140
O O4 0.071738 0.725516 0.179956
O O5 0.182716 0.500000 0.520516
O O6 0.226555 0.279196 0.608996
O O7 0.125358 0.213920 0.468303
O O8 0.360762 0.297669 0.615402
O O9 0.000000 0.766039 0.500000
O O10 0.155184 0.000000 0.586814
O O11 0.478345 0.500000 0.123822
O O12 0.380136 0.279087 0.117568
O O13 0.356866 0.277125 0.011193
O O14 0.215670 0.780573 0.855120
O O15 0.272356 0.000000 0.947963
O O16 0.937051 0.289902 0.303385
O O17 0.004079 0.000000 0.351444
O O18 0.786770 0.500000 0.179545
#
# Coordination Sequence:
#
# PCOD8106409 Si02
#       7
#     8   8   8   8   8   8   8
#     4  11  24  41  63  92 127 168 211 257 314 375
#     4  10  21  36  58  86 115 156 205 257 309 364
#     4  10  22  39  59  84 119 164 208 254 307 366
#     4  10  22  42  67  96 128 161 205 258 308 369
#     4  10  22  42  68  95 127 165 203 252 313 373
#     4  10  21  38  58  84 121 159 202 254 312 370
#     4  12  25  40  62  92 125 163 208 258 310 368
#
# _framework density 20.939423999999999
#
# number of rings (size 3 to 8) (size 9 to 14) (size 15 to 20)
#    0.000    1.571    0.000    4.286    2.000    6.571 
#    0.000    2.857    0.000    0.000    0.000    0.000 
#    0.000    0.000    0.000    0.000    0.000    0.000 
#
# Total GULP energy -347377.760604 kJ/mol
# GULP energy per Si atom -12406.348593 kJ/mol
# Density = 2.089176 g / cm^3
# Si number density = 20.939424 Si / 1000 Ang^3
#
#
#
# Elastic Constant Matrix: (Units=GPa)
#
#
# Indices 1 2 3 4 5 6 
#
# 1 105.5477 31.7062 31.8415 0.0000 -6.9365 0.0003
# 2 31.7062 65.7263 17.4878 -0.0001 2.3835 0.0007
# 3 31.8415 17.4878 69.6383 0.0002 6.6489 0.0002
# 4 0.0000 -0.0001 0.0002 33.6377 0.0001 -0.6344
# 5 -6.9365 2.3835 6.6489 0.0001 29.1220 0.0000
# 6 0.0003 0.0007 0.0002 -0.6344 0.0000 35.0252
#
#
#
# Elastic Compliance Matrix: (Units=1/GPa)
#
#
# Indices 1 2 3 4 5 6 
#
# 1 0.012799 -0.005001 -0.005036 0.000000 0.004608 0.000000
# 2 -0.005001 0.018263 -0.002089 0.000000 -0.002209 0.000000
# 3 -0.005036 -0.002089 0.017671 0.000000 -0.005063 0.000000
# 4 0.000000 0.000000 0.000000 0.029739 0.000000 0.000539
# 5 0.004608 -0.002209 -0.005063 0.000000 0.036773 0.000000
# 6 0.000000 0.000000 0.000000 0.000539 0.000000 0.028561
#
#
# Mechanical properties :
#
#
# Convention : Reuss Voigt Hill
#
# Bulk Modulus (GPa) = 40.84892 44.77592 42.81242
# Shear Modulus (GPa) = 28.37420 30.21544 29.29482
#
# Velocity S-wave (km/s) = 3.68511 3.80280 3.74441
# Velocity P-wave (km/s) = 6.13655 6.38057 6.25975
#
# Compressibility (1/GPa) = 0.02448045
#
# Stress axis : x y z
#
# Youngs Moduli (GPa) = 78.13196 54.75543 56.59131
#
# Poissons Ratio (x) = 0.27385 0.28500
# Poissons Ratio (y) = 0.39076 0.11820
# Poissons Ratio (z) = 0.39349 0.11436
#
# Static dielectric constant tensor:
#      x y z
#    x 3.848750 0.000000 0.049120 
#    y 0.000000 3.718500 0.000000 
#    z 0.049120 0.000000 3.621850 
# 
# 
# High freq. dielectric constant tensor:
#      x y z
#    x 1.829950 0.000000 0.000460 
#    y 0.000000 1.824940 0.000000 
#    z 0.000460 0.000000 1.810730 
# 
# From -- ./inp_files/380786.got.cif
#   From: 2010.06.25/outbox.cif.g09.slc.cpg/sg12_191_cif.got.tgz:380786.got - 2010.06.28 00:19:55.
