data_PCOD8106130
_publ_section_title
;
Structure prediction by ZEFSAII (Michael W. Deem and Ramdas Pophale) SiO2 
 PCOD8106130
Probable space group: C 2/M
;
_chemical_formula_sum "Si O2"
_cell_formula_units_Z 48
_cell_length_a 10.367863
_cell_length_b 9.294719
_cell_length_c 22.182351
_cell_angle_alpha 90.000000
_cell_angle_beta 86.141397
_cell_angle_gamma 90.000000
_cell_volume 2132.787045
_symmetry_space_group_name_H-M "C 2/M"
_symmetry_group_IT_number 12
_symmetry_cell_setting 'monoclinic'
loop_
_space_group_symop_operation_xyz
x,y,z
-x,y,-z
-x,-y,-z
x,-y,z
1/2+x,1/2+y,z
1/2-x,1/2+y,-z
1/2-x,1/2-y,-z
1/2+x,1/2-y,z
loop_
_atom_site_type_symbol
_atom_site_label
_atom_site_fract_x
_atom_site_fract_y
_atom_site_fract_z
Si Si1 0.021331 0.331089 0.668681
Si Si2 0.497723 0.669421 0.930753
Si Si3 0.190798 0.153826 0.586121
Si Si4 0.760482 0.334097 0.127890
Si Si5 0.714231 0.335838 0.269066
Si Si6 0.885330 0.842519 0.539166
O O1 0.007288 0.500000 0.653237
O O2 0.893931 0.275767 0.705399
O O3 0.054658 0.234729 0.607415
O O4 0.147623 0.300500 0.705434
O O5 0.516194 0.500000 0.922290
O O6 0.361385 0.720368 0.907350
O O7 0.613755 0.743775 0.891983
O O8 0.500000 0.717356 0.000000
O O9 0.211682 0.127632 0.514023
O O10 0.315652 0.256283 0.596934
O O11 0.202092 0.000000 0.619849
O O12 0.790715 0.500000 0.112965
O O13 0.727451 0.308957 0.198160
O O14 0.672295 0.500000 0.283971
O O15 0.000000 0.760578 0.500000
O O16 0.932145 0.000000 0.563241
#
# Coordination Sequence:
#
# PCOD8106130 Si02
#       6
#     8   8   8   8   8   8
#     4  11  24  40  61  87 117 152 196 245 294 348
#     4  10  21  36  57  89 124 156 194 242 293 346
#     4  10  21  36  55  82 112 145 185 234 288 345
#     4  10  21  38  60  85 117 157 200 243 290 347
#     4  10  23  42  61  85 117 155 199 246 293 344
#     4   9  19  36  57  79 108 145 183 226 285 347
#
# _framework density 22.505763000000002
#
# number of rings (size 3 to 8) (size 9 to 14) (size 15 to 20)
#    0.000    2.000    0.000    2.500    2.333    4.000 
#    0.000    0.000    0.000    0.000    0.000    0.000 
#    0.000    0.000    0.000    0.000    0.000    0.000 
#
# Total GULP energy -297428.631586 kJ/mol
# GULP energy per Si atom -12392.859649 kJ/mol
# Density = 2.245454 g / cm^3
# Si number density = 22.505763 Si / 1000 Ang^3
#
#
#
# Elastic Constant Matrix: (Units=GPa)
#
#
# Indices 1 2 3 4 5 6 
#
# 1 90.2024 35.4730 11.6638 0.0000 -18.6415 0.0000
# 2 35.4730 125.5726 36.9283 0.0000 -24.8526 0.0000
# 3 11.6638 36.9283 61.6917 0.0000 -5.0259 0.0000
# 4 0.0000 0.0000 0.0000 22.8136 0.0000 -22.0712
# 5 -18.6415 -24.8526 -5.0259 0.0000 38.0267 0.0000
# 6 0.0000 0.0000 0.0000 -22.0712 0.0000 22.3941
#
#
#
# Elastic Compliance Matrix: (Units=1/GPa)
#
#
# Indices 1 2 3 4 5 6 
#
# 1 0.013154 -0.002640 -0.000528 0.000000 0.004654 0.000000
# 2 -0.002640 0.011545 -0.005967 0.000000 0.005463 0.000000
# 3 -0.000528 -0.005967 0.019755 0.000000 -0.001547 0.000000
# 4 0.000000 0.000000 0.000000 0.942806 0.000000 0.929211
# 5 0.004654 0.005463 -0.001547 0.000000 0.031944 0.000000
# 6 0.000000 0.000000 0.000000 0.929211 0.000000 0.960468
#
#
# Mechanical properties :
#
#
# Convention : Reuss Voigt Hill
#
# Bulk Modulus (GPa) = 38.18850 49.51076 43.84963
# Shear Modulus (GPa) = 2.49169 29.54033 16.01601
#
# Velocity S-wave (km/s) = 1.05335 3.62687 2.67055
# Velocity P-wave (km/s) = 4.29937 6.29172 5.38843
#
# Compressibility (1/GPa) = 0.02618590
#
# Stress axis : x y z
#
# Youngs Moduli (GPa) = 76.02113 86.61728 50.62017
#
# Poissons Ratio (x) = 0.22865 0.02672
# Poissons Ratio (y) = 0.20068 0.30203
# Poissons Ratio (z) = 0.04012 0.51682
#
# Static dielectric constant tensor:
#      x y z
#    x 4.273930 0.000000 0.250000 
#    y 0.000000 4.495080 0.000000 
#    z 0.250000 0.000000 4.206010 
# 
# 
# High freq. dielectric constant tensor:
#      x y z
#    x 1.913180 0.000000 0.005040 
#    y 0.000000 1.886980 0.000000 
#    z 0.005040 0.000000 1.883090 
# 
# From -- ./inp_files/334781.got.cif
#   From: 2010.06.25/outbox.cif.g09.slc.cpg/sg12_168_cif.got.tgz:334781.got - 2010.06.28 00:19:55.
