data_PCOD8106558
_publ_section_title
;
Structure prediction by ZEFSAII (Michael W. Deem and Ramdas Pophale) SiO2 
 PCOD8106558
Probable space group: C 2/M
;
_chemical_formula_sum "Si O2"
_cell_formula_units_Z 56
_cell_length_a 27.498578
_cell_length_b 8.997656
_cell_length_c 17.281547
_cell_angle_alpha 90.000000
_cell_angle_beta 140.049685
_cell_angle_gamma 90.000000
_cell_volume 2745.620559
_symmetry_space_group_name_H-M "C 2/M"
_symmetry_group_IT_number 12
_symmetry_cell_setting 'monoclinic'
loop_
_space_group_symop_operation_xyz
x,y,z
-x,y,-z
-x,-y,-z
x,-y,z
1/2+x,1/2+y,z
1/2-x,1/2+y,-z
1/2-x,1/2-y,-z
1/2+x,1/2-y,z
loop_
_atom_site_type_symbol
_atom_site_label
_atom_site_fract_x
_atom_site_fract_y
_atom_site_fract_z
Si Si1 0.058111 0.674726 0.678232
Si Si2 0.652893 0.666831 0.673848
Si Si3 0.673253 0.331101 0.926333
Si Si4 0.416470 0.332910 0.566148
Si Si5 0.331272 0.324323 0.616063
Si Si6 0.194654 0.832686 0.124942
Si Si7 0.584558 0.323368 0.123984
O O1 0.067022 0.500000 0.681064
O O2 0.082105 0.745166 0.625183
O O3 0.108735 0.737552 0.808011
O O4 0.974194 0.715262 0.601657
O O5 0.648331 0.500000 0.700393
O O6 0.651553 0.668900 0.579066
O O7 0.731168 0.735697 0.796324
O O8 0.676584 0.500000 0.899446
O O9 0.750000 0.250000 0.000000
O O10 0.652320 0.330995 0.991410
O O11 0.451451 0.500000 0.614431
O O12 0.385524 0.281207 0.610988
O O13 0.317089 0.500000 0.603684
O O14 0.250000 0.250000 0.500000
O O15 0.376597 0.266870 0.748087
O O16 0.138894 0.766257 0.121597
O O17 0.218917 0.000000 0.177709
O O18 0.579398 0.500000 0.120225
O O19 0.500000 0.260547 0.000000
#
# Coordination Sequence:
#
# PCOD8106558 Si02
#       7
#     8   8   8   8   8   8   8
#     4  12  25  39  58  86 119 156 198 247 299 354
#     4  11  22  38  60  85 119 158 195 241 296 361
#     4  11  22  37  59  87 120 158 197 243 291 354
#     4  10  23  40  60  88 118 157 198 241 302 359
#     4  10  21  39  65  91 122 159 202 253 303 363
#     4  10  21  36  60  89 117 154 200 243 289 351
#     4   9  19  36  61  92 120 155 202 251 300 353
#
# _framework density 20.396118999999999
#
# number of rings (size 3 to 8) (size 9 to 14) (size 15 to 20)
#    0.000    1.571    1.429    3.429    2.000    4.000 
#    0.000    0.000    0.000    0.857    0.000    0.000 
#    0.000    0.000    0.000    0.000    0.000    0.000 
#
# Total GULP energy -347103.932238 kJ/mol
# GULP energy per Si atom -12396.569008 kJ/mol
# Density = 2.034970 g / cm^3
# Si number density = 20.396119 Si / 1000 Ang^3
#
#
#
# Elastic Constant Matrix: (Units=GPa)
#
#
# Indices 1 2 3 4 5 6 
#
# 1 144.8686 40.6341 48.6015 0.0000 -14.2229 0.0000
# 2 40.6341 103.4827 23.4830 0.0000 4.0004 0.0000
# 3 48.6015 23.4830 109.0001 0.0000 -8.1623 0.0000
# 4 0.0000 0.0000 0.0000 30.6318 0.0000 6.0749
# 5 -14.2229 4.0004 -8.1623 0.0000 38.8950 0.0000
# 6 0.0000 0.0000 0.0000 6.0749 0.0000 24.6543
#
#
#
# Elastic Compliance Matrix: (Units=1/GPa)
#
#
# Indices 1 2 3 4 5 6 
#
# 1 0.009096 -0.002961 -0.003196 0.000000 0.002960 0.000000
# 2 -0.002961 0.011214 -0.001283 0.000000 -0.002505 0.000000
# 3 -0.003196 -0.001283 0.010971 0.000000 0.001265 0.000000
# 4 0.000000 0.000000 0.000000 0.034323 0.000000 -0.008457
# 5 0.002960 -0.002505 0.001265 0.000000 0.027316 0.000000
# 6 0.000000 0.000000 0.000000 -0.008457 0.000000 0.042645
#
#
# Mechanical properties :
#
#
# Convention : Reuss Voigt Hill
#
# Bulk Modulus (GPa) = 60.97569 64.75429 62.86499
# Shear Modulus (GPa) = 32.06922 35.14508 33.60715
#
# Velocity S-wave (km/s) = 3.96955 4.15556 4.06362
# Velocity P-wave (km/s) = 7.13936 7.40555 7.27367
#
# Compressibility (1/GPa) = 0.01639998
#
# Stress axis : x y z
#
# Youngs Moduli (GPa) = 109.93568 89.17284 91.15151
#
# Poissons Ratio (x) = 0.26403 0.29135
# Poissons Ratio (y) = 0.32551 0.11698
# Poissons Ratio (z) = 0.35139 0.11444
#
# Static dielectric constant tensor:
#      x y z
#    x 4.029300 0.000000 -0.839090 
#    y 0.000000 3.563340 0.000000 
#    z -0.839090 0.000000 5.748070 
# 
# 
# High freq. dielectric constant tensor:
#      x y z
#    x 1.805040 0.000000 -0.013670 
#    y 0.000000 1.777580 0.000000 
#    z -0.013670 0.000000 1.807980 
# 
# From -- ./inp_files/292587.got.cif
#   From: 2010.06.25/outbox.cif.g09.slc.cpg/sg12_147_cif.got.tgz:292587.got - 2010.06.28 00:19:55.
