data_PCOD8106413
_publ_section_title
;
Structure prediction by ZEFSAII (Michael W. Deem and Ramdas Pophale) SiO2 
 PCOD8106413
Probable space group: C 2/M
;
_chemical_formula_sum "Si O2"
_cell_formula_units_Z 48
_cell_length_a 23.056312
_cell_length_b 9.015082
_cell_length_c 11.979943
_cell_angle_alpha 90.000000
_cell_angle_beta 104.304163
_cell_angle_gamma 90.000000
_cell_volume 2412.887406
_symmetry_space_group_name_H-M "C 2/M"
_symmetry_group_IT_number 12
_symmetry_cell_setting 'monoclinic'
loop_
_space_group_symop_operation_xyz
x,y,z
-x,y,-z
-x,-y,-z
x,-y,z
1/2+x,1/2+y,z
1/2-x,1/2+y,-z
1/2-x,1/2-y,-z
1/2+x,1/2-y,z
loop_
_atom_site_type_symbol
_atom_site_label
_atom_site_fract_x
_atom_site_fract_y
_atom_site_fract_z
Si Si1 0.249079 0.329239 0.306788
Si Si2 0.290489 0.824666 0.110412
Si Si3 0.509211 0.172150 0.132211
Si Si4 0.376866 0.332403 0.452185
Si Si5 0.378912 0.170331 0.671265
Si Si6 0.091009 0.176300 0.778152
O O1 0.243354 0.500000 0.260638
O O2 0.261609 0.215577 0.214258
O O3 0.304553 0.317575 0.418489
O O4 0.187668 0.272911 0.332556
O O5 0.356561 0.756763 0.128613
O O6 0.293508 0.000000 0.095089
O O7 0.250000 0.750000 0.000000
O O8 0.577830 0.199351 0.202233
O O9 0.470703 0.272947 0.196825
O O10 0.490897 0.000000 0.136748
O O11 0.500000 0.223981 0.000000
O O12 0.397514 0.500000 0.477332
O O13 0.403562 0.247489 0.571137
O O14 0.405157 0.272142 0.349674
O O15 0.376481 0.000000 0.638883
O O16 0.099535 0.000000 0.791167
#
# Coordination Sequence:
#
# PCOD8106413 Si02
#       6
#     8   8   8   8   8   8
#     4   9  19  36  56  85 121 154 191 240 293 350
#     4  11  22  36  58  87 117 154 195 240 291 349
#     4  10  23  41  59  84 116 156 200 244 297 349
#     4   9  19  36  58  85 118 150 191 246 299 350
#     4  10  21  36  58  86 118 156 198 241 290 352
#     4  10  22  41  61  85 116 152 196 246 295 346
#
# _framework density 19.893179
#
# number of rings (size 3 to 8) (size 9 to 14) (size 15 to 20)
#    0.000    2.167    0.000    3.500    2.333    5.667 
#    0.000    3.333    0.000    0.000    0.000    0.000 
#    0.000    0.000    0.000    0.000    0.000    0.000 
#
# Total GULP energy -297589.230429 kJ/mol
# GULP energy per Si atom -12399.551268 kJ/mol
# Density = 1.984790 g / cm^3
# Si number density = 19.893179 Si / 1000 Ang^3
#
#
#
# Elastic Constant Matrix: (Units=GPa)
#
#
# Indices 1 2 3 4 5 6 
#
# 1 90.7407 25.3927 31.2161 0.0000 -12.4140 0.0000
# 2 25.3927 76.6939 30.3451 0.0000 -1.1481 0.0000
# 3 31.2161 30.3451 101.1387 0.0000 2.6012 0.0000
# 4 0.0000 0.0000 0.0000 33.1977 0.0000 -1.7743
# 5 -12.4140 -1.1481 2.6012 0.0000 19.3269 0.0000
# 6 0.0000 0.0000 0.0000 -1.7743 0.0000 31.6717
#
#
#
# Elastic Compliance Matrix: (Units=1/GPa)
#
#
# Indices 1 2 3 4 5 6 
#
# 1 0.014529 -0.003170 -0.003782 0.000000 0.009653 0.000000
# 2 -0.003170 0.015529 -0.003665 0.000000 -0.000620 0.000000
# 3 -0.003782 -0.003665 0.012265 0.000000 -0.004297 0.000000
# 4 0.000000 0.000000 0.000000 0.030213 0.000000 0.001693
# 5 0.009653 -0.000620 -0.004297 0.000000 0.058483 0.000000
# 6 0.000000 0.000000 0.000000 0.001693 0.000000 0.031669
#
#
# Mechanical properties :
#
#
# Convention : Reuss Voigt Hill
#
# Bulk Modulus (GPa) = 47.41518 49.16457 48.28987
# Shear Modulus (GPa) = 26.18483 28.94722 27.56602
#
# Velocity S-wave (km/s) = 3.63198 3.81876 3.72654
# Velocity P-wave (km/s) = 6.44011 6.64920 6.54549
#
# Compressibility (1/GPa) = 0.02109029
#
# Stress axis : x y z
#
# Youngs Moduli (GPa) = 68.82840 64.39509 81.53455
#
# Poissons Ratio (x) = 0.20411 0.30833
# Poissons Ratio (y) = 0.21816 0.29883
# Poissons Ratio (z) = 0.26028 0.23601
#
# Static dielectric constant tensor:
#      x y z
#    x 3.661230 0.000000 -0.156720 
#    y 0.000000 3.484430 0.000000 
#    z -0.156720 0.000000 2.629270 
# 
# 
# High freq. dielectric constant tensor:
#      x y z
#    x 1.773720 0.000000 0.003120 
#    y 0.000000 1.769800 0.000000 
#    z 0.003120 0.000000 1.777340 
# 
# From -- ./inp_files/172863.got.cif
#   From: 2010.06.25/outbox.cif.g09.slc.cpg/sg12_87_cif.got.tgz:172863.got - 2010.06.28 00:19:55.
