data_PCOD8106361
_publ_section_title
;
Structure prediction by ZEFSAII (Michael W. Deem and Ramdas Pophale) SiO2 
 PCOD8106361
Probable space group: C 2/M
;
_chemical_formula_sum "Si O2"
_cell_formula_units_Z 60
_cell_length_a 13.722246
_cell_length_b 18.734586
_cell_length_c 13.087476
_cell_angle_alpha 90.000000
_cell_angle_beta 109.720346
_cell_angle_gamma 90.000000
_cell_volume 3167.208737
_symmetry_space_group_name_H-M "C 2/M"
_symmetry_group_IT_number 12
_symmetry_cell_setting 'monoclinic'
loop_
_space_group_symop_operation_xyz
x,y,z
-x,y,-z
-x,-y,-z
x,-y,z
1/2+x,1/2+y,z
1/2-x,1/2+y,-z
1/2-x,1/2-y,-z
1/2+x,1/2-y,z
loop_
_atom_site_type_symbol
_atom_site_label
_atom_site_fract_x
_atom_site_fract_y
_atom_site_fract_z
Si Si1 0.037456 0.916850 0.795878
Si Si2 0.279756 0.293766 0.911445
Si Si3 0.819067 0.080298 0.640630
Si Si4 0.727484 0.823493 0.438581
Si Si5 0.825344 0.581703 0.218275
Si Si6 0.843538 0.800760 0.278310
Si Si7 0.500000 0.643729 0.000000
Si Si8 0.006071 0.325259 0.622751
O O1 0.128684 0.865574 0.788158
O O2 0.935793 0.891842 0.697560
O O3 0.064497 0.000000 0.785884
O O4 0.020419 0.906849 0.910501
O O5 0.216744 0.369286 0.889962
O O6 0.245962 0.248434 0.800833
O O7 0.250000 0.250000 0.000000
O O8 0.402378 0.304718 0.947932
O O9 0.755877 0.117269 0.529898
O O10 0.762267 0.088685 0.727606
O O11 0.824116 0.000000 0.605914
O O12 0.750000 0.750000 0.500000
O O13 0.798446 0.834951 0.365005
O O14 0.607047 0.827291 0.366796
O O15 0.839621 0.500000 0.186151
O O16 0.932856 0.610476 0.301339
O O17 0.942739 0.751596 0.337675
O O18 0.000000 0.339662 0.500000
#
# Coordination Sequence:
#
# PCOD8106361 Si02
#       8
#     8   8   8   8   8   8   4   8
#     4  11  24  41  63  93 123 161 209 260 315 374
#     4  11  23  41  61  93 119 153 197 262 322 365
#     4  10  21  36  57  87 122 159 199 249 301 354
#     4  12  22  36  59  87 123 168 205 247 301 367
#     4  10  21  38  60  89 124 154 200 259 304 355
#     4  11  25  39  59  90 128 159 204 258 312 366
#     4  12  23  40  70  90 119 152 210 262 319 376
#     4  11  21  36  59  90 118 164 210 244 296 362
#
# _framework density 18.944126000000001
#
# number of rings (size 3 to 8) (size 9 to 14) (size 15 to 20)
#    0.000    1.067    5.333    1.800    1.867    1.867 
#    0.000    1.333    0.000    0.000    0.000    1.867 
#    0.000    0.000    0.000    0.000    0.000    0.000 
#
# Total GULP energy -372057.066226 kJ/mol
# GULP energy per Si atom -12401.902208 kJ/mol
# Density = 1.890101 g / cm^3
# Si number density = 18.944126 Si / 1000 Ang^3
#
#
#
# Elastic Constant Matrix: (Units=GPa)
#
#
# Indices 1 2 3 4 5 6 
#
# 1 98.3929 56.4536 33.1384 0.0000 14.9642 0.0000
# 2 56.4536 114.7060 46.2760 0.0000 8.1954 0.0000
# 3 33.1384 46.2760 82.0492 0.0000 7.5351 0.0000
# 4 0.0000 0.0000 0.0000 29.9856 0.0000 -0.4531
# 5 14.9642 8.1954 7.5351 0.0000 40.1277 0.0000
# 6 0.0000 0.0000 0.0000 -0.4531 0.0000 26.1131
#
#
#
# Elastic Compliance Matrix: (Units=1/GPa)
#
#
# Indices 1 2 3 4 5 6 
#
# 1 0.015096 -0.006258 -0.002206 0.000000 -0.003937 0.000000
# 2 -0.006258 0.013931 -0.005375 0.000000 0.000498 0.000000
# 3 -0.002206 -0.005375 0.016213 0.000000 -0.001124 0.000000
# 4 0.000000 0.000000 0.000000 0.033358 0.000000 0.000579
# 5 -0.003937 0.000498 -0.001124 0.000000 0.026498 0.000000
# 6 0.000000 0.000000 0.000000 0.000579 0.000000 0.038305
#
#
# Mechanical properties :
#
#
# Convention : Reuss Voigt Hill
#
# Bulk Modulus (GPa) = 56.94165 62.98712 59.96438
# Shear Modulus (GPa) = 28.25917 29.86396 29.06156
#
# Velocity S-wave (km/s) = 3.86646 3.97473 3.92097
# Velocity P-wave (km/s) = 7.07500 7.37466 7.22638
#
# Compressibility (1/GPa) = 0.01756184
#
# Stress axis : x y z
#
# Youngs Moduli (GPa) = 66.24378 71.78233 61.67703
#
# Poissons Ratio (x) = 0.44924 0.13604
# Poissons Ratio (y) = 0.41458 0.33153
# Poissons Ratio (z) = 0.14611 0.38584
#
# Static dielectric constant tensor:
#      x y z
#    x 3.394500 0.000000 0.190960 
#    y 0.000000 3.591600 0.000000 
#    z 0.190960 0.000000 3.483230 
# 
# 
# High freq. dielectric constant tensor:
#      x y z
#    x 1.733230 0.000000 0.016400 
#    y 0.000000 1.738550 0.000000 
#    z 0.016400 0.000000 1.737690 
# 
# From -- ./inp_files/146187.got.cif
#   From: 2010.06.25/outbox.cif.g09.slc.cpg/sg12_74_cif.got.tgz:146187.got - 2010.06.28 00:19:55.
