data_PCOD8106463
_publ_section_title
;
Structure prediction by ZEFSAII (Michael W. Deem and Ramdas Pophale) SiO2 
 PCOD8106463
Probable space group: C 2/M
;
_chemical_formula_sum "Si O2"
_cell_formula_units_Z 40
_cell_length_a 10.964132
_cell_length_b 13.983859
_cell_length_c 17.650650
_cell_angle_alpha 90.000000
_cell_angle_beta 132.761987
_cell_angle_gamma 90.000000
_cell_volume 1986.848846
_symmetry_space_group_name_H-M "C 2/M"
_symmetry_group_IT_number 12
_symmetry_cell_setting 'monoclinic'
loop_
_space_group_symop_operation_xyz
x,y,z
-x,y,-z
-x,-y,-z
x,-y,z
1/2+x,1/2+y,z
1/2-x,1/2+y,-z
1/2-x,1/2-y,-z
1/2+x,1/2-y,z
loop_
_atom_site_type_symbol
_atom_site_label
_atom_site_fract_x
_atom_site_fract_y
_atom_site_fract_z
Si Si1 0.267726 0.389990 0.797820
Si Si2 0.636073 0.609862 0.437717
Si Si3 0.689149 0.753009 0.061084
Si Si4 0.483712 0.195075 0.577263
Si Si5 0.533583 0.606764 0.789100
O O1 0.217608 0.500000 0.780606
O O2 0.282045 0.350958 0.889350
O O3 0.445186 0.373061 0.832285
O O4 0.131292 0.334018 0.693450
O O5 0.602911 0.500000 0.451023
O O6 0.516514 0.688500 0.426008
O O7 0.818657 0.644264 0.539539
O O8 0.605926 0.619770 0.334751
O O9 0.808419 0.825930 0.156087
O O10 0.500000 0.785851 0.000000
O O11 0.750000 0.750000 0.000000
O O12 0.500000 0.153784 0.500000
O O13 0.605175 0.500000 0.817014
#
# Coordination Sequence:
#
# PCOD8106463 Si02
#       5
#     8   8   8   8   8
#     4  11  23  40  64  94 127 164 213 261 317 384
#     4  10  21  36  58  90 127 165 204 252 313 376
#     4  12  25  43  67  92 126 164 217 272 323 375
#     4  11  21  35  61  92 128 165 206 252 305 380
#     4  10  21  40  65  91 123 164 211 261 319 380
#
# _framework density 20.132383999999998
#
# number of rings (size 3 to 8) (size 9 to 14) (size 15 to 20)
#    0.000    1.200    6.000    0.600    0.000    2.800 
#    0.000    0.000    0.000    3.600    0.000    0.000 
#    0.000    0.000    0.000    0.000    0.000    0.000 
#
# Total GULP energy -247895.818163 kJ/mol
# GULP energy per Si atom -12394.790908 kJ/mol
# Density = 2.008656 g / cm^3
# Si number density = 20.132384 Si / 1000 Ang^3
#
#
#
# Elastic Constant Matrix: (Units=GPa)
#
#
# Indices 1 2 3 4 5 6 
#
# 1 77.5712 32.7271 33.2124 0.0000 0.1764 0.0000
# 2 32.7271 130.5592 40.2086 0.0000 20.8307 0.0000
# 3 33.2124 40.2086 79.1201 0.0000 6.5283 0.0000
# 4 0.0000 0.0000 0.0000 24.7248 0.0000 -3.3110
# 5 0.1764 20.8307 6.5283 0.0000 35.8884 0.0000
# 6 0.0000 0.0000 0.0000 -3.3110 0.0000 28.3139
#
#
#
# Elastic Compliance Matrix: (Units=1/GPa)
#
#
# Indices 1 2 3 4 5 6 
#
# 1 0.016514 -0.002787 -0.005729 0.000000 0.002578 0.000000
# 2 -0.002787 0.010327 -0.003640 0.000000 -0.005319 0.000000
# 3 -0.005729 -0.003640 0.016972 0.000000 -0.000946 0.000000
# 4 0.000000 0.000000 0.000000 0.041089 0.000000 0.004805
# 5 0.002578 -0.005319 -0.000946 0.000000 0.031111 0.000000
# 6 0.000000 0.000000 0.000000 0.004805 0.000000 0.035880
#
#
# Mechanical properties :
#
#
# Convention : Reuss Voigt Hill
#
# Bulk Modulus (GPa) = 51.27481 55.50519 53.39000
# Shear Modulus (GPa) = 27.36673 29.85891 28.61282
#
# Velocity S-wave (km/s) = 3.69092 3.85532 3.77402
# Velocity P-wave (km/s) = 6.60969 6.88825 6.75040
#
# Compressibility (1/GPa) = 0.01950275
#
# Stress axis : x y z
#
# Youngs Moduli (GPa) = 60.55486 96.82978 58.92203
#
# Poissons Ratio (x) = 0.26983 0.33755
# Poissons Ratio (y) = 0.16874 0.21446
# Poissons Ratio (z) = 0.34690 0.35244
#
# Static dielectric constant tensor:
#      x y z
#    x 3.496810 0.000000 -0.001010 
#    y 0.000000 3.762840 0.000000 
#    z -0.001010 0.000000 3.676210 
# 
# 
# High freq. dielectric constant tensor:
#      x y z
#    x 1.766130 0.000000 0.002510 
#    y 0.000000 1.791210 0.000000 
#    z 0.002510 0.000000 1.795880 
# 
# From -- ./inp_files/129127.got.cif
#   From: 2010.06.25/outbox.cif.g09.slc.cpg/sg12_65_cif.got.tgz:129127.got - 2010.06.28 00:19:55.
