data_PCOD8106595
_publ_section_title
;
Structure prediction by ZEFSAII (Michael W. Deem and Ramdas Pophale) SiO2 
 PCOD8106595
Probable space group: C 2/M
;
_chemical_formula_sum "Si O2"
_cell_formula_units_Z 56
_cell_length_a 12.956049
_cell_length_b 17.910248
_cell_length_c 14.963996
_cell_angle_alpha 90.000000
_cell_angle_beta 118.562886
_cell_angle_gamma 90.000000
_cell_volume 3049.728102
_symmetry_space_group_name_H-M "C 2/M"
_symmetry_group_IT_number 12
_symmetry_cell_setting 'monoclinic'
loop_
_space_group_symop_operation_xyz
x,y,z
-x,y,-z
-x,-y,-z
x,-y,z
1/2+x,1/2+y,z
1/2-x,1/2+y,-z
1/2-x,1/2-y,-z
1/2+x,1/2-y,z
loop_
_atom_site_type_symbol
_atom_site_label
_atom_site_fract_x
_atom_site_fract_y
_atom_site_fract_z
Si Si1 0.874895 0.500000 0.065659
Si Si2 0.235994 0.660113 0.233130
Si Si3 0.171582 0.706532 0.398380
Si Si4 0.090000 0.204336 0.116777
Si Si5 0.954811 0.779395 0.231381
Si Si6 0.649807 0.000000 0.149552
Si Si7 0.829630 0.629937 0.181457
Si Si8 0.014949 0.413626 0.404959
O O1 0.831874 0.572343 0.101010
O O2 0.013669 0.500000 0.115193
O O3 0.820324 0.500000 0.943651
O O4 0.241659 0.693678 0.335311
O O5 0.140234 0.710801 0.141234
O O6 0.364398 0.665463 0.242430
O O7 0.201739 0.573576 0.217543
O O8 0.250000 0.750000 0.500000
O O9 0.131236 0.625672 0.415443
O O10 0.055439 0.756887 0.342356
O O11 0.194879 0.144626 0.152075
O O12 0.015747 0.180698 0.172982
O O13 0.000000 0.197699 0.000000
O O14 0.887939 0.705489 0.168605
O O15 0.898421 0.601884 0.297972
O O16 0.044757 0.500000 0.414621
O O17 0.000000 0.385072 0.500000
#
# Coordination Sequence:
#
# PCOD8106595 Si02
#       8
#     4   8   8   8   8   4   8   8
#     4  11  22  36  59  89 116 159 202 247 298 351
#     4  10  23  39  59  88 119 157 200 251 301 357
#     4  10  22  36  65  89 115 151 198 250 298 365
#     4  10  22  36  60  85 118 161 204 250 299 348
#     4   9  21  38  58  85 119 156 198 249 297 357
#     4  11  24  36  63  85 123 156 204 241 306 362
#     4  10  21  38  59  86 122 150 203 256 293 356
#     4  10  21  36  61  86 117 152 194 252 309 352
#
# _framework density 18.362293000000001
#
# number of rings (size 3 to 8) (size 9 to 14) (size 15 to 20)
#    0.000    2.000    0.714    2.571   15.000    1.143 
#    0.000    1.071    1.571    0.857    0.000    0.000 
#    0.000    0.000    0.000    0.000    0.000    0.000 
#
# Total GULP energy -347196.920891 kJ/mol
# GULP energy per Si atom -12399.890032 kJ/mol
# Density = 1.832050 g / cm^3
# Si number density = 18.362293 Si / 1000 Ang^3
#
#
#
# Elastic Constant Matrix: (Units=GPa)
#
#
# Indices 1 2 3 4 5 6 
#
# 1 140.0297 40.2265 50.8933 0.0000 -1.2656 0.0000
# 2 40.2265 83.3503 36.7786 0.0000 1.3131 0.0000
# 3 50.8933 36.7786 104.5633 0.0000 -0.5828 0.0000
# 4 0.0000 0.0000 0.0000 20.5405 0.0000 -2.4418
# 5 -1.2656 1.3131 -0.5828 0.0000 24.3038 0.0000
# 6 0.0000 0.0000 0.0000 -2.4418 0.0000 26.4316
#
#
#
# Elastic Compliance Matrix: (Units=1/GPa)
#
#
# Indices 1 2 3 4 5 6 
#
# 1 0.009251 -0.002945 -0.003464 0.000000 0.000558 0.000000
# 2 -0.002945 0.015159 -0.003904 0.000000 -0.001066 0.000000
# 3 -0.003464 -0.003904 0.012625 0.000000 0.000333 0.000000
# 4 0.000000 0.000000 0.000000 0.049225 0.000000 0.004548
# 5 0.000558 -0.001066 0.000333 0.000000 0.041241 0.000000
# 6 0.000000 0.000000 0.000000 0.004548 0.000000 0.038254
#
#
# Mechanical properties :
#
#
# Convention : Reuss Voigt Hill
#
# Bulk Modulus (GPa) = 60.94596 64.86001 62.90298
# Shear Modulus (GPa) = 26.06213 27.59152 26.82682
#
# Velocity S-wave (km/s) = 3.77148 3.88057 3.82641
# Velocity P-wave (km/s) = 7.22692 7.44832 7.33845
#
# Compressibility (1/GPa) = 0.01640798
#
# Stress axis : x y z
#
# Youngs Moduli (GPa) = 108.09203 65.96944 79.21054
#
# Poissons Ratio (x) = 0.19430 0.27437
# Poissons Ratio (y) = 0.31836 0.30925
# Poissons Ratio (z) = 0.37441 0.25756
#
# Static dielectric constant tensor:
#      x y z
#    x 3.770590 0.000000 -0.271190 
#    y 0.000000 3.309250 0.000000 
#    z -0.271190 0.000000 3.599610 
# 
# 
# High freq. dielectric constant tensor:
#      x y z
#    x 1.721280 0.000000 -0.010600 
#    y 0.000000 1.701010 0.000000 
#    z -0.010600 0.000000 1.709700 
# 
# From -- ./inp_files/206618.got.cif
#   From: 2010.06.25/outbox.cif.g09.slc.cpg/sg12_104_cif.got.tgz:206618.got - 2010.06.28 00:19:55.
