data_PCOD8106994
_publ_section_title
;
Structure prediction by ZEFSAII (Michael W. Deem and Ramdas Pophale) SiO2 
 PCOD8106994
Probable space group: C 2/M
;
_chemical_formula_sum "Si O2"
_cell_formula_units_Z 64
_cell_length_a 32.107370
_cell_length_b 8.849233
_cell_length_c 24.566468
_cell_angle_alpha 90.000000
_cell_angle_beta 26.664575
_cell_angle_gamma 90.000000
_cell_volume 3132.373698
_symmetry_space_group_name_H-M "C 2/M"
_symmetry_group_IT_number 12
_symmetry_cell_setting 'monoclinic'
loop_
_space_group_symop_operation_xyz
x,y,z
-x,y,-z
-x,-y,-z
x,-y,z
1/2+x,1/2+y,z
1/2-x,1/2+y,-z
1/2-x,1/2-y,-z
1/2+x,1/2-y,z
loop_
_atom_site_type_symbol
_atom_site_label
_atom_site_fract_x
_atom_site_fract_y
_atom_site_fract_z
Si Si1 0.143495 0.679138 0.478837
Si Si2 0.435421 0.825888 0.740108
Si Si3 0.933477 0.672658 0.028638
Si Si4 0.377947 0.326099 0.913896
Si Si5 0.970623 0.826794 0.178242
Si Si6 0.791436 0.675977 0.816548
Si Si7 0.277249 0.178228 0.411196
Si Si8 0.779371 0.825412 0.715931
O O1 0.153561 0.500000 0.472916
O O2 0.213528 0.759755 0.437833
O O3 0.164051 0.726527 0.393161
O O4 0.040043 0.736200 0.613751
O O5 0.377338 0.748054 0.855664
O O6 0.384268 0.797528 0.742888
O O7 0.437760 0.000000 0.752624
O O8 0.949961 0.500000 0.990602
O O9 0.828971 0.698398 0.170203
O O10 0.000000 0.717889 0.000000
O O11 0.954125 0.785663 0.955296
O O12 0.354072 0.500000 0.933092
O O13 0.479167 0.302109 0.822562
O O14 0.296927 0.258408 0.046886
O O15 0.883475 0.716920 0.274136
O O16 0.938514 0.000000 0.208972
O O17 0.776781 0.500000 0.819080
O O18 0.804652 0.770777 0.746549
O O19 0.250000 0.250000 0.500000
O O20 0.264680 0.000000 0.429435
O O21 0.807635 0.000000 0.676897
#
# Coordination Sequence:
#
# PCOD8106994 Si02
#       8
#     8   8   8   8   8   8   8   8
#     4  11  24  43  64  90 123 165 212 261 313 370
#     4  10  23  40  63  90 119 161 210 257 314 372
#     4  10  21  37  57  84 118 155 198 248 303 359
#     4  10  21  37  61  92 126 159 199 253 312 370
#     4  11  22  37  60  91 121 158 201 245 305 367
#     4  10  21  41  63  89 125 164 205 255 312 373
#     4  12  25  42  63  90 125 166 209 256 307 366
#     4  11  23  39  62  92 125 165 208 257 312 367
#
# _framework density 20.431789999999999
#
# number of rings (size 3 to 8) (size 9 to 14) (size 15 to 20)
#    0.000    1.375    1.250    4.125    0.000    7.250 
#    0.000    2.500    0.000    0.000    0.000    0.000 
#    0.000    0.000    0.000    0.000    0.000    0.000 
#
# Total GULP energy -396984.501571 kJ/mol
# GULP energy per Si atom -12405.765674 kJ/mol
# Density = 2.038529 g / cm^3
# Si number density = 20.431790 Si / 1000 Ang^3
#
#
#
# Elastic Constant Matrix: (Units=GPa)
#
#
# Indices 1 2 3 4 5 6 
#
# 1 88.6511 38.3460 27.8398 -0.0194 10.2332 0.0040
# 2 38.3460 86.2622 33.1048 -0.0107 3.8960 0.0020
# 3 27.8398 33.1048 90.9332 -0.0271 7.3908 0.0073
# 4 -0.0194 -0.0107 -0.0271 32.0196 0.0107 7.8240
# 5 10.2332 3.8960 7.3908 0.0107 37.3653 -0.0015
# 6 0.0040 0.0020 0.0073 7.8240 -0.0015 32.1608
#
#
#
# Elastic Compliance Matrix: (Units=1/GPa)
#
#
# Indices 1 2 3 4 5 6 
#
# 1 0.014735 -0.005552 -0.002245 0.000007 -0.003012 -0.000003
# 2 -0.005552 0.015575 -0.004027 -0.000002 0.000693 0.000001
# 3 -0.002245 -0.004027 0.013280 0.000010 -0.001592 -0.000005
# 4 0.000007 -0.000002 0.000010 0.033205 -0.000014 -0.008078
# 5 -0.003012 0.000693 -0.001592 -0.000014 0.027830 0.000005
# 6 -0.000003 0.000001 -0.000005 -0.008078 0.000005 0.033059
#
#
# Mechanical properties :
#
#
# Convention : Reuss Voigt Hill
#
# Bulk Modulus (GPa) = 50.14690 51.60308 50.87499
# Shear Modulus (GPa) = 29.76586 31.41286 30.58936
#
# Velocity S-wave (km/s) = 3.82100 3.92529 3.87349
# Velocity P-wave (km/s) = 6.63804 6.77163 6.70517
#
# Compressibility (1/GPa) = 0.01994141
#
# Stress axis : x y z
#
# Youngs Moduli (GPa) = 67.86773 64.20673 75.30320
#
# Poissons Ratio (x) = 0.35650 0.16905
# Poissons Ratio (y) = 0.37683 0.30321
# Poissons Ratio (z) = 0.15235 0.25853
#
# Static dielectric constant tensor:
#      x y z
#    x 3.633940 -0.000010 -0.078990 
#    y -0.000010 3.674410 0.000060 
#    z -0.078990 0.000060 3.826890 
# 
# 
# High freq. dielectric constant tensor:
#      x y z
#    x 1.809780 0.000000 -0.002180 
#    y 0.000000 1.796360 0.000000 
#    z -0.002180 0.000000 1.804710 
# 
# From -- ./inp_files/353362.got.cif
#   From: 2010.06.25/outbox.cif.g09.slc.cpg/sg12_177_cif.got.tgz:353362.got - 2010.06.28 00:19:55.
