data_PCOD8106924
_publ_section_title
;
Structure prediction by ZEFSAII (Michael W. Deem and Ramdas Pophale) SiO2 
 PCOD8106924
Probable space group: C 2/M
;
_chemical_formula_sum "Si O2"
_cell_formula_units_Z 48
_cell_length_a 9.532625
_cell_length_b 20.992154
_cell_length_c 11.094617
_cell_angle_alpha 90.000000
_cell_angle_beta 92.203429
_cell_angle_gamma 90.000000
_cell_volume 2218.505953
_symmetry_space_group_name_H-M "C 2/M"
_symmetry_group_IT_number 12
_symmetry_cell_setting 'monoclinic'
loop_
_space_group_symop_operation_xyz
x,y,z
-x,y,-z
-x,-y,-z
x,-y,z
1/2+x,1/2+y,z
1/2-x,1/2+y,-z
1/2-x,1/2-y,-z
1/2+x,1/2-y,z
loop_
_atom_site_type_symbol
_atom_site_label
_atom_site_fract_x
_atom_site_fract_y
_atom_site_fract_z
Si Si1 0.772006 0.242410 0.712001
Si Si2 0.329654 0.108652 0.217210
Si Si3 0.161509 0.072285 0.988850
Si Si4 0.404087 0.846427 0.881048
Si Si5 0.160303 0.429720 0.518982
Si Si6 0.644958 0.322628 0.529464
O O1 0.716400 0.182619 0.784697
O O2 0.872053 0.282696 0.803990
O O3 0.641832 0.284760 0.656908
O O4 0.843378 0.223591 0.586720
O O5 0.236169 0.070216 0.120261
O O6 0.496566 0.105680 0.192895
O O7 0.296426 0.074449 0.340628
O O8 0.159993 0.000000 0.936469
O O9 0.256372 0.118651 0.907693
O O10 0.000000 0.096998 0.000000
O O11 0.500000 0.827292 0.000000
O O12 0.196031 0.500000 0.470549
O O13 0.238338 0.376150 0.446040
O O14 0.000000 0.412575 0.500000
O O15 0.500000 0.359344 0.500000
#
# Coordination Sequence:
#
# PCOD8106924 Si02
#       6
#     8   8   8   8   8   8
#     4  10  21  37  58  86 118 147 185 233 284 334
#     4  10  21  37  60  83 110 150 190 231 277 334
#     4  10  23  41  58  81 114 149 186 231 283 333
#     4  10  22  37  59  86 112 148 190 230 277 337
#     4  10  21  37  57  82 113 149 189 234 282 331
#     4  10  21  37  60  85 114 151 188 233 282 333
#
# _framework density 21.636182999999999
#
# number of rings (size 3 to 8) (size 9 to 14) (size 15 to 20)
#    0.000    2.000    0.000    2.500    0.000   16.000 
#    0.000    0.833    0.000    0.000    0.000    0.000 
#    0.000    0.000    0.000    0.000    0.000    0.000 
#
# Total GULP energy -297393.788144 kJ/mol
# GULP energy per Si atom -12391.407839 kJ/mol
# Density = 2.158694 g / cm^3
# Si number density = 21.636183 Si / 1000 Ang^3
#
#
#
# Elastic Constant Matrix: (Units=GPa)
#
#
# Indices 1 2 3 4 5 6 
#
# 1 100.5073 51.1046 10.2772 0.0000 15.6263 0.0000
# 2 51.1046 103.5308 20.1426 0.0000 12.2417 0.0000
# 3 10.2772 20.1426 45.4475 0.0000 2.0080 0.0000
# 4 0.0000 0.0000 0.0000 16.6162 0.0000 13.3213
# 5 15.6263 12.2417 2.0080 0.0000 25.7849 0.0000
# 6 0.0000 0.0000 0.0000 13.3213 0.0000 16.1965
#
#
#
# Elastic Compliance Matrix: (Units=1/GPa)
#
#
# Indices 1 2 3 4 5 6 
#
# 1 0.013986 -0.006221 -0.000162 0.000000 -0.005510 0.000000
# 2 -0.006221 0.013929 -0.004657 0.000000 -0.002480 0.000000
# 3 -0.000162 -0.004657 0.024085 0.000000 0.000434 0.000000
# 4 0.000000 0.000000 0.000000 0.176688 0.000000 -0.145322
# 5 -0.005510 -0.002480 0.000434 0.000000 0.043265 0.000000
# 6 0.000000 0.000000 0.000000 -0.145322 0.000000 0.181266
#
#
# Mechanical properties :
#
#
# Convention : Reuss Voigt Hill
#
# Bulk Modulus (GPa) = 33.42263 45.83715 39.62989
# Shear Modulus (GPa) = 10.30349 22.91695 16.61022
#
# Velocity S-wave (km/s) = 2.18460 3.25806 2.77376
# Velocity P-wave (km/s) = 4.67380 5.94850 5.34926
#
# Compressibility (1/GPa) = 0.02991985
#
# Stress axis : x y z
#
# Youngs Moduli (GPa) = 71.50182 71.79331 41.51965
#
# Poissons Ratio (x) = 0.44659 0.00674
# Poissons Ratio (y) = 0.44478 0.19336
# Poissons Ratio (z) = 0.01160 0.33435
#
# Static dielectric constant tensor:
#      x y z
#    x 3.999470 0.000000 0.093380 
#    y 0.000000 3.778430 0.000000 
#    z 0.093380 0.000000 3.917640 
# 
# 
# High freq. dielectric constant tensor:
#      x y z
#    x 1.849370 0.000000 0.013400 
#    y 0.000000 1.840960 0.000000 
#    z 0.013400 0.000000 1.850200 
# 
# From -- ./inp_files/122012.got.cif
#   From: 2010.06.25/outbox.cif.g09.slc.cpg/sg12_62_cif.got.tgz:122012.got - 2010.06.28 00:19:55.
