data_PCOD8106336
_publ_section_title
;
Structure prediction by ZEFSAII (Michael W. Deem and Ramdas Pophale) SiO2 
 PCOD8106336
Probable space group: C 2/M
;
_chemical_formula_sum "Si O2"
_cell_formula_units_Z 48
_cell_length_a 24.929006
_cell_length_b 10.686343
_cell_length_c 12.336328
_cell_angle_alpha 90.000000
_cell_angle_beta 45.755879
_cell_angle_gamma 90.000000
_cell_volume 2354.287600
_symmetry_space_group_name_H-M "C 2/M"
_symmetry_group_IT_number 12
_symmetry_cell_setting 'monoclinic'
loop_
_space_group_symop_operation_xyz
x,y,z
-x,y,-z
-x,-y,-z
x,-y,z
1/2+x,1/2+y,z
1/2-x,1/2+y,-z
1/2-x,1/2-y,-z
1/2+x,1/2-y,z
loop_
_atom_site_type_symbol
_atom_site_label
_atom_site_fract_x
_atom_site_fract_y
_atom_site_fract_z
Si Si1 0.906935 0.640967 0.465814
Si Si2 0.642218 0.754807 0.070145
Si Si3 0.692305 0.139648 0.603650
Si Si4 0.425159 0.145813 0.050315
Si Si5 0.010900 0.137681 0.357531
Si Si6 0.798473 0.639820 0.805244
O O1 0.937528 0.500000 0.451765
O O2 0.865407 0.632641 0.411840
O O3 0.971447 0.743420 0.357374
O O4 0.853681 0.694848 0.635893
O O5 0.597938 0.645415 0.197625
O O6 0.661949 0.858954 0.132832
O O7 0.588830 0.801717 0.049671
O O8 0.720688 0.712433 0.909759
O O9 0.750000 0.250000 0.500000
O O10 0.647555 0.174973 0.775108
O O11 0.729772 0.000000 0.562903
O O12 0.439311 0.000000 0.017047
O O13 0.500000 0.205676 0.000000
O O14 0.000000 0.152126 0.500000
O O15 0.980467 0.000000 0.364117
O O16 0.779347 0.500000 0.798320
#
# Coordination Sequence:
#
# PCOD8106336 Si02
#       6
#     8   8   8   8   8   8
#     4  10  21  39  61  87 118 155 199 245 289 348
#     4  11  21  37  59  84 118 157 191 242 298 358
#     4  10  21  38  61  88 120 158 200 246 294 346
#     4  10  21  38  60  86 117 156 204 250 292 346
#     4  11  23  39  58  87 122 154 189 239 301 360
#     4  10  21  36  57  86 115 150 195 242 293 349
#
# _framework density 20.388332999999999
#
# number of rings (size 3 to 8) (size 9 to 14) (size 15 to 20)
#    0.000    1.667    1.667    3.000    0.000    3.667 
#    0.000    1.667    0.000    3.500    0.000    0.000 
#    0.000    0.000    0.000    0.000    0.000    0.000 
#
# Total GULP energy -297441.918351 kJ/mol
# GULP energy per Si atom -12393.413265 kJ/mol
# Density = 2.034193 g / cm^3
# Si number density = 20.388333 Si / 1000 Ang^3
#
#
#
# Elastic Constant Matrix: (Units=GPa)
#
#
# Indices 1 2 3 4 5 6 
#
# 1 88.5069 21.7955 24.9323 0.0000 5.0397 0.0000
# 2 21.7955 109.7102 41.4892 0.0000 -17.6156 0.0000
# 3 24.9323 41.4892 97.9651 0.0000 2.8185 0.0000
# 4 0.0000 0.0000 0.0000 3.8909 0.0000 6.9975
# 5 5.0397 -17.6156 2.8185 0.0000 28.6391 0.0000
# 6 0.0000 0.0000 0.0000 6.9975 0.0000 19.0490
#
#
#
# Elastic Compliance Matrix: (Units=1/GPa)
#
#
# Indices 1 2 3 4 5 6 
#
# 1 0.012655 -0.002235 -0.002177 0.000000 -0.003387 0.000000
# 2 -0.002235 0.012934 -0.005164 0.000000 0.008857 0.000000
# 3 -0.002177 -0.005164 0.013066 0.000000 -0.004079 0.000000
# 4 0.000000 0.000000 0.000000 0.757345 0.000000 -0.278204
# 5 -0.003387 0.008857 -0.004079 0.000000 0.041363 0.000000
# 6 0.000000 0.000000 0.000000 -0.278204 0.000000 0.154692
#
#
# Mechanical properties :
#
#
# Convention : Reuss Voigt Hill
#
# Bulk Modulus (GPa) = 51.27099 52.51290 51.89195
# Shear Modulus (GPa) = 4.91301 24.18012 14.54657
#
# Velocity S-wave (km/s) = 1.55401 3.44754 2.67399
# Velocity P-wave (km/s) = 5.33120 6.45443 5.91952
#
# Compressibility (1/GPa) = 0.01950421
#
# Stress axis : x y z
#
# Youngs Moduli (GPa) = 79.02033 77.31721 76.53500
#
# Poissons Ratio (x) = 0.17279 0.16660
# Poissons Ratio (y) = 0.17659 0.39520
# Poissons Ratio (z) = 0.17201 0.39924
#
# Static dielectric constant tensor:
#      x y z
#    x 3.343080 0.000000 0.308070 
#    y 0.000000 3.326180 0.000000 
#    z 0.308070 0.000000 3.735420 
# 
# 
# High freq. dielectric constant tensor:
#      x y z
#    x 1.784250 0.000000 0.008860 
#    y 0.000000 1.784240 0.000000 
#    z 0.008860 0.000000 1.819560 
# 
# From -- ./inp_files/165466.got.cif
#   From: 2010.06.25/outbox.cif.g09.slc.cpg/sg12_83_cif.got.tgz:165466.got - 2010.06.28 00:19:55.
