data_PCOD8106950
_publ_section_title
;
Structure prediction by ZEFSAII (Michael W. Deem and Ramdas Pophale) SiO2 
 PCOD8106950
Probable space group: C 2/M
;
_chemical_formula_sum "Si O2"
_cell_formula_units_Z 64
_cell_length_a 18.518452
_cell_length_b 8.724097
_cell_length_c 30.904470
_cell_angle_alpha 90.000000
_cell_angle_beta 41.472194
_cell_angle_gamma 90.000000
_cell_volume 3306.531723
_symmetry_space_group_name_H-M "C 2/M"
_symmetry_group_IT_number 12
_symmetry_cell_setting 'monoclinic'
loop_
_space_group_symop_operation_xyz
x,y,z
-x,y,-z
-x,-y,-z
x,-y,z
1/2+x,1/2+y,z
1/2-x,1/2+y,-z
1/2-x,1/2-y,-z
1/2+x,1/2-y,z
loop_
_atom_site_type_symbol
_atom_site_label
_atom_site_fract_x
_atom_site_fract_y
_atom_site_fract_z
Si Si1 0.995761 0.820553 0.066143
Si Si2 0.026818 0.320141 0.439284
Si Si3 0.940115 0.326118 0.179547
Si Si4 0.131941 0.819444 0.559263
Si Si5 0.161043 0.679607 0.931246
Si Si6 0.059146 0.820672 0.685977
Si Si7 0.724570 0.321565 0.686418
Si Si8 0.610743 0.174233 0.179286
O O1 0.973917 0.783398 0.125546
O O2 0.891923 0.768488 0.085076
O O3 0.014791 0.000000 0.051740
O O4 0.104338 0.733266 0.001278
O O5 0.007193 0.500000 0.441627
O O6 0.150503 0.271960 0.374028
O O7 0.000000 0.270027 0.500000
O O8 0.948053 0.230231 0.442796
O O9 0.927575 0.500000 0.168646
O O10 0.032817 0.309904 0.173485
O O11 0.825478 0.272442 0.251154
O O12 0.250000 0.750000 0.500000
O O13 0.084500 0.762471 0.626419
O O14 0.144519 0.000000 0.553753
O O15 0.142794 0.500000 0.933243
O O16 0.287927 0.716842 0.875737
O O17 0.163209 0.781426 0.669240
O O18 0.952331 0.730159 0.749679
O O19 0.032237 0.000000 0.699563
O O20 0.712515 0.500000 0.702537
O O21 0.649643 0.000000 0.168886
#
# Coordination Sequence:
#
# PCOD8106950 Si02
#       8
#     8   8   8   8   8   8   8   8
#     4  11  22  38  59  82 111 146 187 232 279 333
#     4  10  21  38  59  83 113 149 187 229 278 331
#     4  10  21  37  57  83 115 148 185 229 277 329
#     4  11  23  38  58  84 114 148 187 231 278 331
#     4  11  22  38  59  82 112 148 186 230 281 333
#     4   9  19  37  58  80 109 147 188 230 279 331
#     4   9  18  35  58  80 107 146 188 229 277 331
#     4  10  21  37  58  85 115 148 187 230 276 328
#
# _framework density 19.355629
#
# number of rings (size 3 to 8) (size 9 to 14) (size 15 to 20)
#    0.000    1.875    0.000    4.875    0.000    6.750 
#    0.000    5.000    0.000    0.000    0.000    0.000 
#    0.000    0.000    0.000    0.000    0.000    0.000 
#
# Total GULP energy -396950.119276 kJ/mol
# GULP energy per Si atom -12404.691227 kJ/mol
# Density = 1.931157 g / cm^3
# Si number density = 19.355629 Si / 1000 Ang^3
#
#
#
# Elastic Constant Matrix: (Units=GPa)
#
#
# Indices 1 2 3 4 5 6 
#
# 1 74.8769 29.1155 65.5862 -0.0014 1.3171 0.0014
# 2 29.1155 74.5998 43.8052 0.0010 1.5325 0.0019
# 3 65.5862 43.8052 147.5044 -0.0007 1.0217 0.0010
# 4 -0.0014 0.0010 -0.0007 35.6715 -0.0001 -1.2474
# 5 1.3171 1.5325 1.0217 -0.0001 40.7679 0.0003
# 6 0.0014 0.0019 0.0010 -1.2474 0.0003 31.7062
#
#
#
# Elastic Compliance Matrix: (Units=1/GPa)
#
#
# Indices 1 2 3 4 5 6 
#
# 1 0.022627 -0.003533 -0.009009 0.000001 -0.000372 0.000000
# 2 -0.003533 0.016798 -0.003414 -0.000001 -0.000432 -0.000001
# 3 -0.009009 -0.003414 0.011798 0.000000 0.000124 0.000000
# 4 0.000001 -0.000001 0.000000 0.028072 0.000000 0.001104
# 5 -0.000372 -0.000432 0.000124 0.000000 0.024554 0.000000
# 6 0.000000 -0.000001 0.000000 0.001104 0.000000 0.031583
#
#
# Mechanical properties :
#
#
# Convention : Reuss Voigt Hill
#
# Bulk Modulus (GPa) = 51.78796 63.77722 57.78259
# Shear Modulus (GPa) = 28.77166 32.19405 30.48286
#
# Velocity S-wave (km/s) = 3.85967 4.08277 3.97279
# Velocity P-wave (km/s) = 6.83204 7.43284 7.13876
#
# Compressibility (1/GPa) = 0.01930951
#
# Stress axis : x y z
#
# Youngs Moduli (GPa) = 44.19546 59.53188 84.75796
#
# Poissons Ratio (x) = 0.21035 0.76357
# Poissons Ratio (y) = 0.15616 0.28940
# Poissons Ratio (z) = 0.39815 0.20327
#
# Static dielectric constant tensor:
#      x y z
#    x 3.510960 0.000030 0.016330 
#    y 0.000030 3.593310 -0.000010 
#    z 0.016330 -0.000010 3.682510 
# 
# 
# High freq. dielectric constant tensor:
#      x y z
#    x 1.747740 0.000000 0.000370 
#    y 0.000000 1.759180 0.000000 
#    z 0.000370 0.000000 1.767780 
# 
# From -- ./inp_files/378043.got.cif
#   From: 2010.06.25/outbox.cif.g09.slc.cpg/sg12_190_cif.got.tgz:378043.got - 2010.06.28 00:19:55.
