data_PCOD8106454
_publ_section_title
;
Structure prediction by ZEFSAII (Michael W. Deem and Ramdas Pophale) SiO2 
 PCOD8106454
Probable space group: C 2/M
;
_chemical_formula_sum "Si O2"
_cell_formula_units_Z 48
_cell_length_a 26.766656
_cell_length_b 8.721181
_cell_length_c 18.639544
_cell_angle_alpha 90.000000
_cell_angle_beta 149.551946
_cell_angle_gamma 90.000000
_cell_volume 2204.978898
_symmetry_space_group_name_H-M "C 2/M"
_symmetry_group_IT_number 12
_symmetry_cell_setting 'monoclinic'
loop_
_space_group_symop_operation_xyz
x,y,z
-x,y,-z
-x,-y,-z
x,-y,z
1/2+x,1/2+y,z
1/2-x,1/2+y,-z
1/2-x,1/2-y,-z
1/2+x,1/2-y,z
loop_
_atom_site_type_symbol
_atom_site_label
_atom_site_fract_x
_atom_site_fract_y
_atom_site_fract_z
Si Si1 0.299698 0.173754 0.160208
Si Si2 0.205627 0.821653 0.579796
Si Si3 0.894971 0.177083 0.400508
Si Si4 0.418142 0.178751 0.691093
Si Si5 0.904543 0.174544 0.163757
Si Si6 0.588354 0.681441 0.161907
O O1 0.312594 0.221731 0.258581
O O2 0.369063 0.284983 0.199543
O O3 0.332597 0.000000 0.186579
O O4 0.185408 0.196034 0.002021
O O5 0.119630 0.793582 0.532671
O O6 0.177626 0.737583 0.470989
O O7 0.309352 0.757250 0.737440
O O8 0.218372 0.000000 0.578612
O O9 0.000000 0.233069 0.500000
O O10 0.877427 0.000000 0.360483
O O11 0.511791 0.209336 0.756995
O O12 0.434130 0.267964 0.784836
O O13 0.405754 0.000000 0.691907
O O14 0.944869 0.000000 0.214025
O O15 0.599320 0.500000 0.172311
O O16 0.500000 0.736477 0.000000
#
# Coordination Sequence:
#
# PCOD8106454 Si02
#       6
#     8   8   8   8   8   8
#     4  10  21  36  58  89 125 167 215 267 319 379
#     4  11  24  43  68  98 133 174 219 269 325 386
#     4  10  22  39  61  90 128 172 213 260 319 382
#     4  12  25  42  68  97 129 168 216 269 325 390
#     4  10  21  38  60  89 127 169 213 263 324 386
#     4  11  26  47  70  96 130 171 216 270 329 388
#
# _framework density 21.768915
#
# number of rings (size 3 to 8) (size 9 to 14) (size 15 to 20)
#    0.000    1.333    0.000    5.000    2.333    6.333 
#    0.000    0.000    0.000    0.000    0.000    0.000 
#    0.000    0.000    0.000    0.000    0.000    0.000 
#
# Total GULP energy -297698.688286 kJ/mol
# GULP energy per Si atom -12404.112012 kJ/mol
# Density = 2.171937 g / cm^3
# Si number density = 21.768915 Si / 1000 Ang^3
#
#
#
# Elastic Constant Matrix: (Units=GPa)
#
#
# Indices 1 2 3 4 5 6 
#
# 1 78.4763 22.8977 43.8523 0.0000 -0.2151 0.0000
# 2 22.8977 73.1769 37.9920 0.0000 1.6099 0.0000
# 3 43.8523 37.9920 115.3067 0.0000 -11.8237 0.0000
# 4 0.0000 0.0000 0.0000 34.7729 0.0000 0.5773
# 5 -0.2151 1.6099 -11.8237 0.0000 37.8376 0.0000
# 6 0.0000 0.0000 0.0000 0.5773 0.0000 34.4243
#
#
#
# Elastic Compliance Matrix: (Units=1/GPa)
#
#
# Indices 1 2 3 4 5 6 
#
# 1 0.016589 -0.002164 -0.005761 0.000000 -0.001614 0.000000
# 2 -0.002164 0.016996 -0.005013 0.000000 -0.002302 0.000000
# 3 -0.005761 -0.005013 0.012949 0.000000 0.004227 0.000000
# 4 0.000000 0.000000 0.000000 0.028766 0.000000 -0.000482
# 5 -0.001614 -0.002302 0.004227 0.000000 0.027838 0.000000
# 6 0.000000 0.000000 0.000000 -0.000482 0.000000 0.029057
#
#
# Mechanical properties :
#
#
# Convention : Reuss Voigt Hill
#
# Bulk Modulus (GPa) = 48.41014 52.93821 50.67418
# Shear Modulus (GPa) = 30.31066 32.22148 31.26607
#
# Velocity S-wave (km/s) = 3.73551 3.85146 3.79393
# Velocity P-wave (km/s) = 6.39468 6.64450 6.52078
#
# Compressibility (1/GPa) = 0.02065683
#
# Stress axis : x y z
#
# Youngs Moduli (GPa) = 60.28012 58.83750 77.22721
#
# Poissons Ratio (x) = 0.12733 0.44494
# Poissons Ratio (y) = 0.13045 0.38714
# Poissons Ratio (z) = 0.34730 0.29495
#
# Static dielectric constant tensor:
#      x y z
#    x 3.831830 0.000000 -0.035080 
#    y 0.000000 3.846450 0.000000 
#    z -0.035080 0.000000 4.082530 
# 
# 
# High freq. dielectric constant tensor:
#      x y z
#    x 1.856840 0.000000 -0.002670 
#    y 0.000000 1.857530 0.000000 
#    z -0.002670 0.000000 1.866680 
# 
# From -- ./inp_files/329121.got.cif
#   From: 2010.06.25/outbox.cif.g09.slc.cpg/sg12_165_cif.got.tgz:329121.got - 2010.06.28 00:19:55.
