data_PCOD8106640
_publ_section_title
;
Structure prediction by ZEFSAII (Michael W. Deem and Ramdas Pophale) SiO2 
 PCOD8106640
Probable space group: C 2/M
;
_chemical_formula_sum "Si O2"
_cell_formula_units_Z 56
_cell_length_a 8.639202
_cell_length_b 27.585949
_cell_length_c 12.314185
_cell_angle_alpha 90.000000
_cell_angle_beta 122.119777
_cell_angle_gamma 90.000000
_cell_volume 2485.530400
_symmetry_space_group_name_H-M "C 2/M"
_symmetry_group_IT_number 12
_symmetry_cell_setting 'monoclinic'
loop_
_space_group_symop_operation_xyz
x,y,z
-x,y,-z
-x,-y,-z
x,-y,z
1/2+x,1/2+y,z
1/2-x,1/2+y,-z
1/2-x,1/2-y,-z
1/2+x,1/2-y,z
loop_
_atom_site_type_symbol
_atom_site_label
_atom_site_fract_x
_atom_site_fract_y
_atom_site_fract_z
Si Si1 0.196090 0.282786 0.817242
Si Si2 0.180735 0.889976 0.132151
Si Si3 0.202774 0.287295 0.578592
Si Si4 0.520721 0.354518 0.633452
Si Si5 0.661140 0.054338 0.986894
Si Si6 0.882352 0.692124 0.861584
Si Si7 0.472293 0.554880 0.738604
O O1 0.307111 0.332481 0.850783
O O2 0.184989 0.260849 0.689290
O O3 0.308797 0.237771 0.909056
O O4 0.001508 0.290808 0.801618
O O5 0.344812 0.910252 0.119535
O O6 0.183460 0.918749 0.246892
O O7 0.000000 0.903798 0.000000
O O8 0.250000 0.250000 0.500000
O O9 0.359356 0.327944 0.639336
O O10 0.000000 0.311803 0.500000
O O11 0.500000 0.340699 0.500000
O O12 0.717079 0.340991 0.757423
O O13 0.496924 0.412501 0.639858
O O14 0.622973 0.000000 0.930300
O O15 0.500000 0.074080 0.000000
O O16 0.844346 0.055305 0.124239
O O17 0.000000 0.664250 0.000000
O O18 0.414599 0.500000 0.685468
#
# Coordination Sequence:
#
# PCOD8106640 Si02
#       7
#     8   8   8   8   8   8   8
#     4  12  24  41  64  99 137 184 224 288 343 420
#     4  10  21  36  63  92 134 178 227 272 348 415
#     4  12  24  44  71  98 134 184 240 289 340 414
#     4  12  26  46  70 101 136 185 236 291 348 418
#     4   9  19  36  63  98 136 177 227 287 347 415
#     4  12  28  43  68 102 149 185 229 283 356 420
#     4  10  22  41  66  95 133 179 232 285 349 416
#
# _framework density 22.530401999999999
#
# number of rings (size 3 to 8) (size 9 to 14) (size 15 to 20)
#    0.000    1.000    1.429    6.000    6.000    2.000 
#    0.000    0.000    0.000    0.429    0.000    0.000 
#    0.000    0.000    0.000    0.000    0.000    0.000 
#
# Total GULP energy -346972.318614 kJ/mol
# GULP energy per Si atom -12391.868522 kJ/mol
# Density = 2.247912 g / cm^3
# Si number density = 22.530402 Si / 1000 Ang^3
#
#
#
# Elastic Constant Matrix: (Units=GPa)
#
#
# Indices 1 2 3 4 5 6 
#
# 1 134.8977 32.2312 44.2919 0.0000 -8.2414 0.0000
# 2 32.2312 120.2412 23.2382 0.0000 -3.6268 0.0000
# 3 44.2919 23.2382 86.3812 0.0000 -0.8930 0.0000
# 4 0.0000 0.0000 0.0000 21.5943 0.0000 -10.9381
# 5 -8.2414 -3.6268 -0.8930 0.0000 33.7601 0.0000
# 6 0.0000 0.0000 0.0000 -10.9381 0.0000 31.9928
#
#
#
# Elastic Compliance Matrix: (Units=1/GPa)
#
#
# Indices 1 2 3 4 5 6 
#
# 1 0.009343 -0.001606 -0.004338 0.000000 0.001993 0.000000
# 2 -0.001606 0.009075 -0.001612 0.000000 0.000540 0.000000
# 3 -0.004338 -0.001612 0.014226 0.000000 -0.000856 0.000000
# 4 0.000000 0.000000 0.000000 0.056008 0.000000 0.019149
# 5 0.001993 0.000540 -0.000856 0.000000 0.030143 0.000000
# 6 0.000000 0.000000 0.000000 0.019149 0.000000 0.037804
#
#
# Mechanical properties :
#
#
# Convention : Reuss Voigt Hill
#
# Bulk Modulus (GPa) = 57.04088 60.11585 58.57837
# Shear Modulus (GPa) = 28.16046 33.58670 30.87358
#
# Velocity S-wave (km/s) = 3.53921 3.86518 3.70578
# Velocity P-wave (km/s) = 6.48642 6.83078 6.66082
#
# Compressibility (1/GPa) = 0.01753129
#
# Stress axis : x y z
#
# Youngs Moduli (GPa) = 107.03421 110.19306 70.29503
#
# Poissons Ratio (x) = 0.17696 0.30493
# Poissons Ratio (y) = 0.17189 0.11334
# Poissons Ratio (z) = 0.46430 0.17767
#
# Static dielectric constant tensor:
#      x y z
#    x 4.402790 0.000000 -0.084750 
#    y 0.000000 4.170670 0.000000 
#    z -0.084750 0.000000 3.922860 
# 
# 
# High freq. dielectric constant tensor:
#      x y z
#    x 1.904930 0.000000 -0.014360 
#    y 0.000000 1.889350 0.000000 
#    z -0.014360 0.000000 1.864230 
# 
# From -- ./inp_files/125822.got.cif
#   From: 2010.06.25/outbox.cif.g09.slc.cpg/sg12_63_cif.got.tgz:125822.got - 2010.06.28 00:19:55.
