data_PCOD8106792
_publ_section_title
;
Structure prediction by ZEFSAII (Michael W. Deem and Ramdas Pophale) SiO2 
 PCOD8106792
Probable space group: C 2/M
;
_chemical_formula_sum "Si O2"
_cell_formula_units_Z 48
_cell_length_a 12.201192
_cell_length_b 25.347072
_cell_length_c 9.276207
_cell_angle_alpha 90.000000
_cell_angle_beta 127.523449
_cell_angle_gamma 90.000000
_cell_volume 2275.258278
_symmetry_space_group_name_H-M "C 2/M"
_symmetry_group_IT_number 12
_symmetry_cell_setting 'monoclinic'
loop_
_space_group_symop_operation_xyz
x,y,z
-x,y,-z
-x,-y,-z
x,-y,z
1/2+x,1/2+y,z
1/2-x,1/2+y,-z
1/2-x,1/2-y,-z
1/2+x,1/2-y,z
loop_
_atom_site_type_symbol
_atom_site_label
_atom_site_fract_x
_atom_site_fract_y
_atom_site_fract_z
Si Si1 0.993304 0.677686 0.828679
Si Si2 0.415692 0.713125 0.229966
Si Si3 0.355761 0.557765 0.803539
Si Si4 0.257069 0.374750 0.967232
Si Si5 0.297894 0.700955 0.444723
Si Si6 0.529232 0.562034 0.682625
O O1 0.046224 0.728172 0.783515
O O2 0.094432 0.628915 0.873450
O O3 0.834984 0.661498 0.659727
O O4 0.000000 0.692950 0.000000
O O5 0.324309 0.717708 0.300562
O O6 0.557813 0.679169 0.372696
O O7 0.329537 0.683017 0.036275
O O8 0.282204 0.500000 0.749439
O O9 0.264889 0.602090 0.811152
O O10 0.392512 0.574325 0.669285
O O11 0.500000 0.553219 0.000000
O O12 0.331606 0.411542 0.144741
O O13 0.250000 0.750000 0.500000
O O14 0.500000 0.584648 0.500000
O O15 0.559468 0.500000 0.703765
#
# Coordination Sequence:
#
# PCOD8106792 Si02
#       6
#     8   8   8   8   8   8
#     4  11  22  35  53  79 117 153 190 241 292 339
#     4  10  21  37  56  79 108 155 203 237 284 339
#     4   8  16  34  55  84 117 147 186 237 286 342
#     4  11  20  31  56  89 117 147 191 240 292 340
#     4   9  20  39  55  72 108 158 193 246 283 336
#     4   9  19  36  59  88 120 151 191 242 290 345
#
# _framework density 21.096506000000002
#
# number of rings (size 3 to 8) (size 9 to 14) (size 15 to 20)
#    0.000    2.333    1.667    2.000    2.333    2.000 
#    9.000    0.000    3.667    2.000    0.000    4.667 
#    0.000   44.000    0.000    0.000    0.000    0.333 
#
# Total GULP energy -297383.860609 kJ/mol
# GULP energy per Si atom -12390.994192 kJ/mol
# Density = 2.104849 g / cm^3
# Si number density = 21.096506 Si / 1000 Ang^3
#
#
#
# Elastic Constant Matrix: (Units=GPa)
#
#
# Indices 1 2 3 4 5 6 
#
# 1 167.6207 49.8357 71.1479 0.0000 1.3278 0.0000
# 2 49.8357 46.8596 18.4832 0.0000 -9.9409 0.0000
# 3 71.1479 18.4832 82.9027 0.0000 -1.9520 0.0000
# 4 0.0000 0.0000 0.0000 14.3807 0.0000 -4.0151
# 5 1.3278 -9.9409 -1.9520 0.0000 47.2576 0.0000
# 6 0.0000 0.0000 0.0000 -4.0151 0.0000 35.5980
#
#
#
# Elastic Compliance Matrix: (Units=1/GPa)
#
#
# Indices 1 2 3 4 5 6 
#
# 1 0.012973 -0.010988 -0.008755 0.000000 -0.003038 0.000000
# 2 -0.010988 0.033801 0.002071 0.000000 0.007505 0.000000
# 3 -0.008755 0.002071 0.019149 0.000000 0.001473 0.000000
# 4 0.000000 0.000000 0.000000 0.071799 0.000000 0.008098
# 5 -0.003038 0.007505 0.001473 0.000000 0.022885 0.000000
# 6 0.000000 0.000000 0.000000 0.008098 0.000000 0.029005
#
#
# Mechanical properties :
#
#
# Convention : Reuss Voigt Hill
#
# Bulk Modulus (GPa) = 32.70278 64.03517 48.36898
# Shear Modulus (GPa) = 21.26297 29.97503 25.61900
#
# Velocity S-wave (km/s) = 3.17817 3.77351 3.48856
# Velocity P-wave (km/s) = 5.38543 7.02888 6.26131
#
# Compressibility (1/GPa) = 0.03057844
#
# Stress axis : x y z
#
# Youngs Moduli (GPa) = 77.08308 29.58456 52.22131
#
# Poissons Ratio (x) = 0.32507 0.45722
# Poissons Ratio (y) = 0.84698 -0.10813
# Poissons Ratio (z) = 0.67489 -0.06126
#
# Static dielectric constant tensor:
#      x y z
#    x 4.411860 0.000000 -0.064690 
#    y 0.000000 3.656000 0.000000 
#    z -0.064690 0.000000 4.196460 
# 
# 
# High freq. dielectric constant tensor:
#      x y z
#    x 1.830800 0.000000 -0.014050 
#    y 0.000000 1.803660 0.000000 
#    z -0.014050 0.000000 1.816740 
# 
# From -- ./inp_files/52793.got.cif
#   From: 2010.06.25/outbox.cif.g09.slc.cpg/sg12_27_cif.got.tgz:52793.got - 2010.06.28 00:19:55.
