data_PCOD8106475
_publ_section_title
;
Structure prediction by ZEFSAII (Michael W. Deem and Ramdas Pophale) SiO2 
 PCOD8106475
Probable space group: C 2/M
;
_chemical_formula_sum "Si O2"
_cell_formula_units_Z 48
_cell_length_a 28.325996
_cell_length_b 13.678584
_cell_length_c 14.003237
_cell_angle_alpha 90.000000
_cell_angle_beta 27.951384
_cell_angle_gamma 90.000000
_cell_volume 2543.140172
_symmetry_space_group_name_H-M "C 2/M"
_symmetry_group_IT_number 12
_symmetry_cell_setting 'monoclinic'
loop_
_space_group_symop_operation_xyz
x,y,z
-x,y,-z
-x,-y,-z
x,-y,z
1/2+x,1/2+y,z
1/2-x,1/2+y,-z
1/2-x,1/2-y,-z
1/2+x,1/2-y,z
loop_
_atom_site_type_symbol
_atom_site_label
_atom_site_fract_x
_atom_site_fract_y
_atom_site_fract_z
Si Si1 0.213658 0.727664 0.459258
Si Si2 0.067679 0.115743 0.241940
Si Si3 0.994678 0.294905 0.901980
Si Si4 0.295971 0.885763 0.184152
Si Si5 0.357894 0.384895 0.693615
Si Si6 0.617222 0.614413 0.942261
O O1 0.250000 0.750000 0.500000
O O2 0.225252 0.831116 0.386175
O O3 0.275815 0.642219 0.295289
O O4 0.099730 0.689898 0.661141
O O5 0.136373 0.155349 0.207643
O O6 0.953056 0.155661 0.461300
O O7 0.066380 0.000000 0.243844
O O8 0.115781 0.149274 0.055667
O O9 0.911073 0.350869 0.988253
O O10 0.967957 0.179397 0.957871
O O11 0.000000 0.337989 0.000000
O O12 0.249522 0.858769 0.162897
O O13 0.288145 0.000000 0.219727
O O14 0.371494 0.500000 0.673576
O O15 0.594145 0.500000 0.969219
#
# Coordination Sequence:
#
# PCOD8106475 Si02
#       6
#     8   8   8   8   8   8
#     4  11  22  40  52  75 114 146 181 236 278 312
#     4   8  14  28  53  85 115 138 173 227 278 325
#     4  11  22  40  52  75 114 146 181 235 276 313
#     4  10  21  36  59  82 104 146 190 222 267 335
#     4   8  14  28  53  85 114 139 175 225 275 327
#     4  10  21  36  59  84 106 144 187 226 275 331
#
# _framework density 18.874303999999999
#
# number of rings (size 3 to 8) (size 9 to 14) (size 15 to 20)
#    0.000    2.333    3.333    2.000    0.000    4.000 
#    0.000    3.333    0.000    3.000    0.000    4.667 
#    0.000    0.000    0.000    0.000    0.000    0.000 
#
# Total GULP energy -297369.605186 kJ/mol
# GULP energy per Si atom -12390.400216 kJ/mol
# Density = 1.883135 g / cm^3
# Si number density = 18.874304 Si / 1000 Ang^3
#
#
#
# Elastic Constant Matrix: (Units=GPa)
#
#
# Indices 1 2 3 4 5 6 
#
# 1 130.5321 9.7621 42.2289 0.0000 -5.9670 0.0000
# 2 9.7621 40.7278 -11.3076 0.0000 5.7855 0.0000
# 3 42.2289 -11.3076 105.7245 0.0000 -0.7553 0.0000
# 4 0.0000 0.0000 0.0000 22.8797 0.0000 -0.5322
# 5 -5.9670 5.7855 -0.7553 0.0000 30.7703 0.0000
# 6 0.0000 0.0000 0.0000 -0.5322 0.0000 23.6828
#
#
#
# Elastic Compliance Matrix: (Units=1/GPa)
#
#
# Indices 1 2 3 4 5 6 
#
# 1 0.009389 -0.003742 -0.004133 0.000000 0.002423 0.000000
# 2 -0.003742 0.027492 0.004394 0.000000 -0.005787 0.000000
# 3 -0.004133 0.004394 0.011570 0.000000 -0.001344 0.000000
# 4 0.000000 0.000000 0.000000 0.043730 0.000000 0.000983
# 5 0.002423 -0.005787 -0.001344 0.000000 0.034024 0.000000
# 6 0.000000 0.000000 0.000000 0.000983 0.000000 0.042247
#
#
# Mechanical properties :
#
#
# Convention : Reuss Voigt Hill
#
# Bulk Modulus (GPa) = 24.10348 39.81680 31.96014
# Shear Modulus (GPa) = 26.42114 31.21997 28.82056
#
# Velocity S-wave (km/s) = 3.74551 4.07147 3.91189
# Velocity P-wave (km/s) = 5.61279 6.57602 6.11341
#
# Compressibility (1/GPa) = 0.04148779
#
# Stress axis : x y z
#
# Youngs Moduli (GPa) = 106.51184 36.37415 86.43289
#
# Poissons Ratio (x) = 0.13611 0.35722
# Poissons Ratio (y) = 0.39857 -0.37976
# Poissons Ratio (z) = 0.44021 -0.15982
#
# Static dielectric constant tensor:
#      x y z
#    x 4.001350 0.000000 0.226500 
#    y 0.000000 3.158730 0.000000 
#    z 0.226500 0.000000 3.642650 
# 
# 
# High freq. dielectric constant tensor:
#      x y z
#    x 1.746690 0.000000 0.002860 
#    y 0.000000 1.699840 0.000000 
#    z 0.002860 0.000000 1.725830 
# 
# From -- ./inp_files/183675.got.cif
#   From: 2010.06.25/outbox.cif.g09.slc.cpg/sg12_92_cif.got.tgz:183675.got - 2010.06.28 00:19:55.
