data_PCOD8106093
_publ_section_title
;
Structure prediction by ZEFSAII (Michael W. Deem and Ramdas Pophale) SiO2 
 PCOD8106093
Probable space group: C 2/M
;
_chemical_formula_sum "Si O2"
_cell_formula_units_Z 64
_cell_length_a 16.459403
_cell_length_b 8.652656
_cell_length_c 33.131857
_cell_angle_alpha 90.000000
_cell_angle_beta 41.696381
_cell_angle_gamma 90.000000
_cell_volume 3138.705458
_symmetry_space_group_name_H-M "C 2/M"
_symmetry_group_IT_number 12
_symmetry_cell_setting 'monoclinic'
loop_
_space_group_symop_operation_xyz
x,y,z
-x,y,-z
-x,-y,-z
x,-y,z
1/2+x,1/2+y,z
1/2-x,1/2+y,-z
1/2-x,1/2-y,-z
1/2+x,1/2-y,z
loop_
_atom_site_type_symbol
_atom_site_label
_atom_site_fract_x
_atom_site_fract_y
_atom_site_fract_z
Si Si1 0.485125 0.822110 0.229780
Si Si2 0.660403 0.184385 0.001404
Si Si3 0.387751 0.814606 0.629704
Si Si4 0.686652 0.678817 0.765742
Si Si5 0.208188 0.682657 0.631463
Si Si6 0.906132 0.332494 0.124218
Si Si7 0.276258 0.668874 0.877615
Si Si8 0.855661 0.184804 0.433070
O O1 0.439353 0.722653 0.208954
O O2 0.411316 0.778732 0.297526
O O3 0.626961 0.780213 0.180495
O O4 0.466646 0.000000 0.226460
O O5 0.529584 0.253008 0.063866
O O6 0.652477 0.000000 0.002377
O O7 0.750000 0.250000 0.000000
O O8 0.713168 0.248880 0.939699
O O9 0.299595 0.752244 0.698197
O O10 0.330376 0.751975 0.608258
O O11 0.519420 0.747517 0.592996
O O12 0.395340 0.000000 0.623868
O O13 0.707748 0.500000 0.759358
O O14 0.679368 0.737050 0.813896
O O15 0.228457 0.500000 0.618150
O O16 0.175598 0.758489 0.600596
O O17 0.936283 0.500000 0.133003
O O18 0.832759 0.360464 0.111559
O O19 0.334840 0.500000 0.866481
O O20 0.750000 0.250000 0.500000
O O21 0.858871 0.000000 0.432199
#
# Coordination Sequence:
#
# PCOD8106093 Si02
#       8
#     8   8   8   8   8   8   8   8
#     4  10  21  37  59  86 118 153 194 244 297 355
#     4  10  21  37  55  75 105 146 193 242 296 352
#     4  10  22  42  66  95 131 170 213 263 316 372
#     4  10  21  37  59  86 118 153 194 244 297 355
#     4  10  22  42  66  95 131 170 213 263 316 372
#     4  10  21  36  55  80 111 149 192 241 296 357
#     4  10  21  36  55  80 111 149 192 241 296 357
#     4  12  26  44  68  98 132 171 214 259 310 372
#
# _framework density 20.390571999999999
#
# number of rings (size 3 to 8) (size 9 to 14) (size 15 to 20)
#    0.000    1.750    0.000    3.750    1.750    8.500 
#    0.000    2.500    0.000    2.250    0.000    0.000 
#    0.000    0.000    0.000    0.000    0.000    0.000 
#
# Total GULP energy -396546.089037 kJ/mol
# GULP energy per Si atom -12392.065282 kJ/mol
# Density = 2.034416 g / cm^3
# Si number density = 20.390572 Si / 1000 Ang^3
#
#
#
# Elastic Constant Matrix: (Units=GPa)
#
#
# Indices 1 2 3 4 5 6 
#
# 1 119.1444 33.1867 54.9038 0.0005 -3.9007 0.0014
# 2 33.1867 78.4563 36.3898 -0.0006 0.2601 0.0013
# 3 54.9038 36.3898 119.7275 0.0004 -3.1807 0.0009
# 4 0.0005 -0.0006 0.0004 21.5415 -0.0001 -0.9262
# 5 -3.9007 0.2601 -3.1807 -0.0001 38.7355 0.0008
# 6 0.0014 0.0013 0.0009 -0.9262 0.0008 34.9741
#
#
#
# Elastic Compliance Matrix: (Units=1/GPa)
#
#
# Indices 1 2 3 4 5 6 
#
# 1 0.011144 -0.002743 -0.004256 0.000000 0.000791 0.000000
# 2 -0.002743 0.015521 -0.003477 0.000001 -0.000666 0.000000
# 3 -0.004256 -0.003477 0.011375 0.000000 0.000529 0.000000
# 4 0.000000 0.000001 0.000000 0.046475 0.000000 0.001231
# 5 0.000791 -0.000666 0.000529 0.000000 0.025944 -0.000001
# 6 0.000000 0.000000 0.000000 0.001231 -0.000001 0.028625
#
#
# Mechanical properties :
#
#
# Convention : Reuss Voigt Hill
#
# Bulk Modulus (GPa) = 58.51915 62.92099 60.72007
# Shear Modulus (GPa) = 30.16916 31.90673 31.03795
#
# Velocity S-wave (km/s) = 3.85068 3.96002 3.90573
# Velocity P-wave (km/s) = 6.96647 7.19957 7.08398
#
# Compressibility (1/GPa) = 0.01708842
#
# Stress axis : x y z
#
# Youngs Moduli (GPa) = 89.73304 64.42800 87.91293
#
# Poissons Ratio (x) = 0.17670 0.37414
# Poissons Ratio (y) = 0.24610 0.30572
# Poissons Ratio (z) = 0.38189 0.22405
#
# Static dielectric constant tensor:
#      x y z
#    x 3.700790 -0.000010 -0.013030 
#    y -0.000010 3.639140 -0.000010 
#    z -0.013030 -0.000010 3.813610 
# 
# 
# High freq. dielectric constant tensor:
#      x y z
#    x 1.800800 0.000000 0.000110 
#    y 0.000000 1.794150 0.000000 
#    z 0.000110 0.000000 1.807330 
# 
# From -- ./inp_files/375370.got.cif
#   From: 2010.06.25/outbox.cif.g09.slc.cpg/sg12_188_cif.got.tgz:375370.got - 2010.06.28 00:19:55.
