data_PCOD8106450
_publ_section_title
;
Structure prediction by ZEFSAII (Michael W. Deem and Ramdas Pophale) SiO2 
 PCOD8106450
Probable space group: C 2/M
;
_chemical_formula_sum "Si O2"
_cell_formula_units_Z 56
_cell_length_a 23.767216
_cell_length_b 8.693611
_cell_length_c 15.443769
_cell_angle_alpha 90.000000
_cell_angle_beta 119.044763
_cell_angle_gamma 90.000000
_cell_volume 2789.734180
_symmetry_space_group_name_H-M "C 2/M"
_symmetry_group_IT_number 12
_symmetry_cell_setting 'monoclinic'
loop_
_space_group_symop_operation_xyz
x,y,z
-x,y,-z
-x,-y,-z
x,-y,z
1/2+x,1/2+y,z
1/2-x,1/2+y,-z
1/2-x,1/2-y,-z
1/2+x,1/2-y,z
loop_
_atom_site_type_symbol
_atom_site_label
_atom_site_fract_x
_atom_site_fract_y
_atom_site_fract_z
Si Si1 0.211688 0.318989 0.891833
Si Si2 0.187881 0.320837 0.152262
Si Si3 0.337015 0.320652 0.506642
Si Si4 0.520225 0.317152 0.421551
Si Si5 0.947725 0.681396 0.030993
Si Si6 0.071068 0.182529 0.800519
Si Si7 0.715280 0.322580 0.344857
O O1 0.205972 0.500000 0.899045
O O2 0.250959 0.276043 0.835122
O O3 0.141019 0.250043 0.835569
O O4 0.250000 0.250000 0.000000
O O5 0.202054 0.500000 0.150355
O O6 0.179256 0.279439 0.246252
O O7 0.123384 0.272484 0.053901
O O8 0.329380 0.500000 0.478536
O O9 0.408098 0.257757 0.542772
O O10 0.321954 0.286864 0.594966
O O11 0.289597 0.226610 0.408971
O O12 0.500000 0.251004 0.500000
O O13 0.518369 0.500000 0.420476
O O14 0.473593 0.256041 0.311002
O O15 0.954568 0.500000 0.048770
O O16 0.959750 0.762036 0.131994
O O17 0.000000 0.740702 0.000000
O O18 0.075377 0.000000 0.805037
O O19 0.711395 0.500000 0.315579
#
# Coordination Sequence:
#
# PCOD8106450 Si02
#       7
#     8   8   8   8   8   8   8
#     4  12  24  41  63  89 123 157 198 249 299 357
#     4  11  23  39  62  89 120 161 203 245 306 370
#     4   9  19  38  61  84 118 160 203 249 303 363
#     4   9  20  38  60  88 119 158 204 247 295 361
#     4  10  23  42  62  88 124 165 207 251 306 368
#     4  11  23  39  64  94 122 162 207 251 308 364
#     4  10  21  36  58  89 121 153 200 256 306 357
#
# _framework density 20.073595999999998
#
# number of rings (size 3 to 8) (size 9 to 14) (size 15 to 20)
#    0.000    1.714    1.429    2.571    4.000    1.429 
#    0.000    1.429    0.000    2.143    0.000    0.000 
#    0.000    0.000    0.000    0.000    0.000    0.000 
#
# Total GULP energy -347311.527408 kJ/mol
# GULP energy per Si atom -12403.983122 kJ/mol
# Density = 2.002791 g / cm^3
# Si number density = 20.073596 Si / 1000 Ang^3
#
#
#
# Elastic Constant Matrix: (Units=GPa)
#
#
# Indices 1 2 3 4 5 6 
#
# 1 148.3110 37.3305 64.4201 0.0000 4.2847 0.0000
# 2 37.3305 53.8066 41.2275 0.0000 -1.7125 0.0000
# 3 64.4201 41.2275 149.2312 0.0000 -4.1066 0.0000
# 4 0.0000 0.0000 0.0000 30.6096 0.0000 -2.8865
# 5 4.2847 -1.7125 -4.1066 0.0000 28.3918 0.0000
# 6 0.0000 0.0000 0.0000 -2.8865 0.0000 28.3408
#
#
#
# Elastic Compliance Matrix: (Units=1/GPa)
#
#
# Indices 1 2 3 4 5 6 
#
# 1 0.009083 -0.004211 -0.002814 0.000000 -0.002032 0.000000
# 2 -0.004211 0.025534 -0.005197 0.000000 0.001424 0.000000
# 3 -0.002814 -0.005197 0.009392 0.000000 0.001470 0.000000
# 4 0.000000 0.000000 0.000000 0.032986 0.000000 0.003360
# 5 -0.002032 0.001424 0.001470 0.000000 0.035827 0.000000
# 6 0.000000 0.000000 0.000000 0.003360 0.000000 0.035627
#
#
# Mechanical properties :
#
#
# Convention : Reuss Voigt Hill
#
# Bulk Modulus (GPa) = 51.10960 70.81167 60.96063
# Shear Modulus (GPa) = 27.86845 31.35982 29.61413
#
# Velocity S-wave (km/s) = 3.73005 3.95681 3.84510
# Velocity P-wave (km/s) = 6.63833 7.49851 7.08149
#
# Compressibility (1/GPa) = 0.01956580
#
# Stress axis : x y z
#
# Youngs Moduli (GPa) = 110.09237 39.16346 106.47431
#
# Poissons Ratio (x) = 0.16490 0.29959
# Poissons Ratio (y) = 0.46356 0.55339
# Poissons Ratio (z) = 0.30977 0.20355
#
# Static dielectric constant tensor:
#      x y z
#    x 3.935410 0.000000 0.028220 
#    y 0.000000 3.513680 0.000000 
#    z 0.028220 0.000000 3.845170 
# 
# 
# High freq. dielectric constant tensor:
#      x y z
#    x 1.793150 0.000000 -0.003390 
#    y 0.000000 1.770490 0.000000 
#    z -0.003390 0.000000 1.793730 
# 
# From -- ./inp_files/238911.got.cif
#   From: 2010.06.25/outbox.cif.g09.slc.cpg/sg12_120_cif.got.tgz:238911.got - 2010.06.28 00:19:55.
