data_PCOD8106370
_publ_section_title
;
Structure prediction by ZEFSAII (Michael W. Deem and Ramdas Pophale) SiO2 
 PCOD8106370
Probable space group: C 2/M
;
_chemical_formula_sum "Si O2"
_cell_formula_units_Z 64
_cell_length_a 15.206043
_cell_length_b 24.668139
_cell_length_c 8.767740
_cell_angle_alpha 90.000000
_cell_angle_beta 89.821541
_cell_angle_gamma 90.000000
_cell_volume 3288.805252
_symmetry_space_group_name_H-M "C 2/M"
_symmetry_group_IT_number 12
_symmetry_cell_setting 'monoclinic'
loop_
_space_group_symop_operation_xyz
x,y,z
-x,y,-z
-x,-y,-z
x,-y,z
1/2+x,1/2+y,z
1/2-x,1/2+y,-z
1/2-x,1/2-y,-z
1/2+x,1/2-y,z
loop_
_atom_site_type_symbol
_atom_site_label
_atom_site_fract_x
_atom_site_fract_y
_atom_site_fract_z
Si Si1 0.319542 0.563536 0.814776
Si Si2 0.182320 0.937831 0.831620
Si Si3 0.975269 0.773491 0.672345
Si Si4 0.323135 0.860539 0.322655
Si Si5 0.276164 0.258193 0.672092
Si Si6 0.500889 0.839601 0.179616
Si Si7 0.502961 0.382532 0.822614
Si Si8 0.683800 0.141536 0.315471
O O1 0.321157 0.500000 0.777196
O O2 0.242609 0.590947 0.717943
O O3 0.413867 0.588344 0.768326
O O4 0.299757 0.574581 0.991891
O O5 0.082951 0.922854 0.787134
O O6 0.251439 0.906151 0.728581
O O7 0.196567 0.000000 0.791824
O O8 0.872103 0.784172 0.686324
O O9 0.005766 0.723331 0.774736
O O10 0.000000 0.759387 0.500000
O O11 0.022854 0.827838 0.728628
O O12 0.288932 0.802640 0.253039
O O13 0.418231 0.872141 0.250198
O O14 0.329848 0.856065 0.503972
O O15 0.250000 0.250000 0.500000
O O16 0.275251 0.198501 0.749153
O O17 0.588677 0.867951 0.241998
O O18 0.500000 0.845606 0.000000
O O19 0.500000 0.367211 0.000000
#
# Coordination Sequence:
#
# PCOD8106370 Si02
#       8
#     8   8   8   8   8   8   8   8
#     4  10  21  40  60  86 122 162 204 246 293 350
#     4  10  22  39  61  86 121 163 202 247 297 348
#     4  11  21  35  56  87 125 159 197 240 293 354
#     4  11  21  38  62  87 120 155 197 249 299 354
#     4   9  19  34  54  84 115 155 190 235 295 350
#     4  11  23  40  60  87 121 156 195 243 300 363
#     4  10  21  36  57  88 122 161 203 242 290 352
#     4  10  22  39  60  90 118 155 200 246 301 353
#
# _framework density 19.459955000000001
#
# number of rings (size 3 to 8) (size 9 to 14) (size 15 to 20)
#    0.000    1.750    1.250    4.125    5.250    2.000 
#    0.000    2.500    0.000    6.000    0.000    0.000 
#    0.000    0.000    0.000    0.000    0.000    0.000 
#
# Total GULP energy -396834.928811 kJ/mol
# GULP energy per Si atom -12401.091525 kJ/mol
# Density = 1.941566 g / cm^3
# Si number density = 19.459955 Si / 1000 Ang^3
#
#
#
# Elastic Constant Matrix: (Units=GPa)
#
#
# Indices 1 2 3 4 5 6 
#
# 1 132.5399 48.4574 47.7724 0.0000 2.7807 0.0000
# 2 48.4574 91.2262 35.8738 0.0000 -2.9735 0.0000
# 3 47.7724 35.8738 84.0993 0.0000 -0.8036 0.0000
# 4 0.0000 0.0000 0.0000 26.9678 0.0000 -1.1798
# 5 2.7807 -2.9735 -0.8036 0.0000 32.7079 0.0000
# 6 0.0000 0.0000 0.0000 -1.1798 0.0000 30.9936
#
#
#
# Elastic Compliance Matrix: (Units=1/GPa)
#
#
# Indices 1 2 3 4 5 6 
#
# 1 0.010585 -0.003962 -0.004336 0.000000 -0.001367 0.000000
# 2 -0.003962 0.014691 -0.004001 0.000000 0.001574 0.000000
# 3 -0.004336 -0.004001 0.016064 0.000000 0.000400 0.000000
# 4 0.000000 0.000000 0.000000 0.037143 0.000000 0.001414
# 5 -0.001367 0.001574 0.000400 0.000000 0.030843 0.000000
# 6 0.000000 0.000000 0.000000 0.001414 0.000000 0.032319
#
#
# Mechanical properties :
#
#
# Convention : Reuss Voigt Hill
#
# Bulk Modulus (GPa) = 59.72827 63.56360 61.64593
# Shear Modulus (GPa) = 29.09979 29.85132 29.47555
#
# Velocity S-wave (km/s) = 3.87119 3.92086 3.89611
# Velocity P-wave (km/s) = 7.12328 7.29604 7.21018
#
# Compressibility (1/GPa) = 0.01674249
#
# Stress axis : x y z
#
# Youngs Moduli (GPa) = 94.47464 68.06908 62.25067
#
# Poissons Ratio (x) = 0.26969 0.26990
# Poissons Ratio (y) = 0.37431 0.24906
# Poissons Ratio (z) = 0.40961 0.27234
#
# Static dielectric constant tensor:
#      x y z
#    x 3.704300 0.000000 0.126150 
#    y 0.000000 3.539820 0.000000 
#    z 0.126150 0.000000 3.390200 
# 
# 
# High freq. dielectric constant tensor:
#      x y z
#    x 1.770510 0.000000 0.009960 
#    y 0.000000 1.751100 0.000000 
#    z 0.009960 0.000000 1.745280 
# 
# From -- ./inp_files/65902.got.cif
#   From: 2010.06.25/outbox.cif.g09.slc.cpg/sg12_33_cif.got.tgz:65902.got - 2010.06.28 00:19:55.
