data_PCOD8106386
_publ_section_title
;
Structure prediction by ZEFSAII (Michael W. Deem and Ramdas Pophale) SiO2 
 PCOD8106386
Probable space group: C 2/M
;
_chemical_formula_sum "Si O2"
_cell_formula_units_Z 52
_cell_length_a 5.343363
_cell_length_b 24.775108
_cell_length_c 17.652404
_cell_angle_alpha 90.000000
_cell_angle_beta 89.327932
_cell_angle_gamma 90.000000
_cell_volume 2336.706765
_symmetry_space_group_name_H-M "C 2/M"
_symmetry_group_IT_number 12
_symmetry_cell_setting 'monoclinic'
loop_
_space_group_symop_operation_xyz
x,y,z
-x,y,-z
-x,-y,-z
x,-y,z
1/2+x,1/2+y,z
1/2-x,1/2+y,-z
1/2-x,1/2-y,-z
1/2+x,1/2-y,z
loop_
_atom_site_type_symbol
_atom_site_label
_atom_site_fract_x
_atom_site_fract_y
_atom_site_fract_z
Si Si1 0.764719 0.273089 0.915416
Si Si2 0.587086 0.219884 0.280307
Si Si3 0.684584 0.058766 0.632401
Si Si4 0.151169 0.062271 0.203086
Si Si5 0.154246 0.375288 0.166531
Si Si6 0.624417 0.154850 0.419138
Si Si7 0.500000 0.592682 0.500000
O O1 0.504905 0.255900 0.874179
O O2 0.808975 0.337730 0.909429
O O3 0.750000 0.250000 0.000000
O O4 0.304031 0.236926 0.260399
O O5 0.655096 0.165589 0.236416
O O6 0.617907 0.208968 0.370179
O O7 0.858944 0.068153 0.705419
O O8 0.493455 0.107428 0.631249
O O9 0.816142 0.055315 0.549179
O O10 0.550899 0.000000 0.642448
O O11 0.394363 0.091698 0.165590
O O12 0.892517 0.085530 0.171133
O O13 0.167629 0.000000 0.178411
O O14 0.500000 0.166351 0.500000
O O15 0.898443 0.132887 0.435569
#
# Coordination Sequence:
#
# PCOD8106386 Si02
#       7
#     8   8   8   8   8   8   4
#     4  10  21  39  66 105 140 173 219 258 320 376
#     4  12  26  40  62  86 119 164 216 268 331 385
#     4  10  21  37  57  84 116 157 214 278 339 400
#     4  11  24  40  66  97 132 175 218 264 335 401
#     4  12  22  42  66  96 138 170 213 277 322 380
#     4  10  23  39  56  77 115 154 214 268 333 396
#     4  10  21  36  58  80 112 156 214 278 347 396
#
# _framework density 22.253541999999999
#
# number of rings (size 3 to 8) (size 9 to 14) (size 15 to 20)
#    0.000    1.231    1.538    4.385    4.308    4.000 
#    0.000    0.000    0.000    0.000    0.000   43.077 
#    0.000    0.000    0.000    0.000    0.000    0.000 
#
# Total GULP energy -322110.936743 kJ/mol
# GULP energy per Si atom -12388.882182 kJ/mol
# Density = 2.220289 g / cm^3
# Si number density = 22.253542 Si / 1000 Ang^3
#
#
#
# Elastic Constant Matrix: (Units=GPa)
#
#
# Indices 1 2 3 4 5 6 
#
# 1 152.4328 58.1617 15.1562 0.0000 1.1356 0.0000
# 2 58.1617 115.7081 31.5966 0.0000 -12.2331 0.0000
# 3 15.1562 31.5966 62.4780 0.0000 -12.8923 0.0000
# 4 0.0000 0.0000 0.0000 365.1023 0.0000 -56.8587
# 5 1.1356 -12.2331 -12.8923 0.0000 18.3755 0.0000
# 6 0.0000 0.0000 0.0000 -56.8587 0.0000 50.4390
#
#
#
# Elastic Compliance Matrix: (Units=1/GPa)
#
#
# Indices 1 2 3 4 5 6 
#
# 1 0.008343 -0.004447 -0.000576 0.000000 -0.003880 0.000000
# 2 -0.004447 0.012610 -0.004104 0.000000 0.005791 0.000000
# 3 -0.000576 -0.004104 0.020655 0.000000 0.011795 0.000000
# 4 0.000000 0.000000 0.000000 0.003322 0.000000 0.003745
# 5 -0.003880 0.005791 0.011795 0.000000 0.066790 0.000000
# 6 0.000000 0.000000 0.000000 0.003745 0.000000 0.024048
#
#
# Mechanical properties :
#
#
# Convention : Reuss Voigt Hill
#
# Bulk Modulus (GPa) = 42.81613 60.04976 51.43294
# Shear Modulus (GPa) = 30.90125 101.83034 66.36579
#
# Velocity S-wave (km/s) = 3.73043 6.77189 5.46693
# Velocity P-wave (km/s) = 6.15116 9.39083 7.93802
#
# Compressibility (1/GPa) = 0.02335569
#
# Stress axis : x y z
#
# Youngs Moduli (GPa) = 119.85980 79.29922 48.41551
#
# Poissons Ratio (x) = 0.35262 0.02787
# Poissons Ratio (y) = 0.53298 0.19869
# Poissons Ratio (z) = 0.06900 0.32543
#
# Static dielectric constant tensor:
#      x y z
#    x 5.266690 0.000000 0.463820 
#    y 0.000000 4.093780 0.000000 
#    z 0.463820 0.000000 5.166460 
# 
# 
# High freq. dielectric constant tensor:
#      x y z
#    x 1.883050 0.000000 -0.001320 
#    y 0.000000 1.872200 0.000000 
#    z -0.001320 0.000000 1.867140 
# 
# From -- ./inp_files/297840.got.cif
#   From: 2010.06.25/outbox.cif.g09.slc.cpg/sg12_149_cif.got.tgz:297840.got - 2010.06.28 00:19:55.
