data_PCOD8106532
_publ_section_title
;
Structure prediction by ZEFSAII (Michael W. Deem and Ramdas Pophale) SiO2 
 PCOD8106532
Probable space group: C 2/M
;
_chemical_formula_sum "Si O2"
_cell_formula_units_Z 48
_cell_length_a 18.646775
_cell_length_b 12.974701
_cell_length_c 9.908619
_cell_angle_alpha 90.000000
_cell_angle_beta 94.438113
_cell_angle_gamma 90.000000
_cell_volume 2390.066746
_symmetry_space_group_name_H-M "C 2/M"
_symmetry_group_IT_number 12
_symmetry_cell_setting 'monoclinic'
loop_
_space_group_symop_operation_xyz
x,y,z
-x,y,-z
-x,-y,-z
x,-y,z
1/2+x,1/2+y,z
1/2-x,1/2+y,-z
1/2-x,1/2-y,-z
1/2+x,1/2-y,z
loop_
_atom_site_type_symbol
_atom_site_label
_atom_site_fract_x
_atom_site_fract_y
_atom_site_fract_z
Si Si1 0.383518 0.620896 0.213375
Si Si2 0.824216 0.782340 0.946591
Si Si3 0.256897 0.377634 0.393815
Si Si4 0.885109 0.621041 0.778394
Si Si5 0.665558 0.378941 0.334054
Si Si6 0.019130 0.235458 0.351246
O O1 0.398626 0.500000 0.231947
O O2 0.368922 0.646807 0.055331
O O3 0.316234 0.657778 0.293542
O O4 0.452852 0.683314 0.268064
O O5 0.750000 0.750000 0.000000
O O6 0.870484 0.679577 0.917618
O O7 0.808498 0.848337 0.810479
O O8 0.253771 0.500000 0.395488
O O9 0.178223 0.339702 0.333403
O O10 0.277458 0.334746 0.546054
O O11 0.886346 0.500000 0.805764
O O12 0.959951 0.658700 0.723966
O O13 0.664242 0.500000 0.348478
O O14 0.585364 0.342783 0.356030
O O15 0.000000 0.265739 0.500000
#
# Coordination Sequence:
#
# PCOD8106532 Si02
#       6
#     8   8   8   8   8   8
#     4  11  22  39  65  95 127 159 198 252 320 374
#     4  11  23  38  61  93 124 163 206 254 308 370
#     4   9  18  36  64  90 117 159 203 252 308 358
#     4  10  23  42  62  86 124 170 212 256 305 356
#     4  10  21  36  59  93 128 159 200 254 311 370
#     4  11  23  38  62  95 125 164 205 253 308 373
#
# _framework density 20.083120999999998
#
# number of rings (size 3 to 8) (size 9 to 14) (size 15 to 20)
#    0.000    1.667    3.333    1.000    0.000    8.333 
#    0.000    5.833    0.000    0.000    0.000    0.000 
#    0.000    0.000    0.000    0.000    0.000    0.000 
#
# Total GULP energy -297625.175744 kJ/mol
# GULP energy per Si atom -12401.048989 kJ/mol
# Density = 2.003741 g / cm^3
# Si number density = 20.083121 Si / 1000 Ang^3
#
#
#
# Elastic Constant Matrix: (Units=GPa)
#
#
# Indices 1 2 3 4 5 6 
#
# 1 101.5714 21.2630 39.9170 0.0000 -8.4093 0.0000
# 2 21.2630 43.2111 16.3448 0.0000 -0.5136 0.0000
# 3 39.9170 16.3448 129.6368 0.0000 -9.7923 0.0000
# 4 0.0000 0.0000 0.0000 6.6849 0.0000 8.0118
# 5 -8.4093 -0.5136 -9.7923 0.0000 37.6113 0.0000
# 6 0.0000 0.0000 0.0000 8.0118 0.0000 32.2321
#
#
#
# Elastic Compliance Matrix: (Units=1/GPa)
#
#
# Indices 1 2 3 4 5 6 
#
# 1 0.012195 -0.004843 -0.003002 0.000000 0.001879 0.000000
# 2 -0.004843 0.026233 -0.001909 0.000000 -0.001221 0.000000
# 3 -0.003002 -0.001909 0.009003 0.000000 0.001647 0.000000
# 4 0.000000 0.000000 0.000000 0.213062 0.000000 -0.052960
# 5 0.001879 -0.001221 0.001647 0.000000 0.027420 0.000000
# 6 0.000000 0.000000 0.000000 -0.052960 0.000000 0.044189
#
#
# Mechanical properties :
#
#
# Convention : Reuss Voigt Hill
#
# Bulk Modulus (GPa) = 35.81244 47.71876 41.76560
# Shear Modulus (GPa) = 13.85363 28.43195 21.14279
#
# Velocity S-wave (km/s) = 2.62928 3.76668 3.24815
# Velocity P-wave (km/s) = 5.20464 6.53677 5.90837
#
# Compressibility (1/GPa) = 0.02792326
#
# Stress axis : x y z
#
# Youngs Moduli (GPa) = 82.00410 38.12063 111.06956
#
# Poissons Ratio (x) = 0.18460 0.33348
# Poissons Ratio (y) = 0.39711 0.21199
# Poissons Ratio (z) = 0.24621 0.07276
#
# Static dielectric constant tensor:
#      x y z
#    x 3.668070 0.000000 0.001020 
#    y 0.000000 3.723460 0.000000 
#    z 0.001020 0.000000 3.699990 
# 
# 
# High freq. dielectric constant tensor:
#      x y z
#    x 1.778770 0.000000 -0.000160 
#    y 0.000000 1.794220 0.000000 
#    z -0.000160 0.000000 1.792800 
# 
# From -- ./inp_files/73625.got.cif
#   From: 2010.06.25/outbox.cif.g09.slc.cpg/sg12_37_cif.got.tgz:73625.got - 2010.06.28 00:19:55.
