data_PCOD8106978
_publ_section_title
;
Structure prediction by ZEFSAII (Michael W. Deem and Ramdas Pophale) SiO2 
 PCOD8106978
Probable space group: C 2/M
;
_chemical_formula_sum "Si O2"
_cell_formula_units_Z 64
_cell_length_a 26.894920
_cell_length_b 13.926894
_cell_length_c 12.906422
_cell_angle_alpha 90.000000
_cell_angle_beta 141.895180
_cell_angle_gamma 90.000000
_cell_volume 2983.234507
_symmetry_space_group_name_H-M "C 2/M"
_symmetry_group_IT_number 12
_symmetry_cell_setting 'monoclinic'
loop_
_space_group_symop_operation_xyz
x,y,z
-x,y,-z
-x,-y,-z
x,-y,z
1/2+x,1/2+y,z
1/2-x,1/2+y,-z
1/2-x,1/2-y,-z
1/2+x,1/2-y,z
loop_
_atom_site_type_symbol
_atom_site_label
_atom_site_fract_x
_atom_site_fract_y
_atom_site_fract_z
Si Si1 0.883995 0.891251 0.584252
Si Si2 0.145427 0.704920 0.100881
Si Si3 0.657585 0.107615 0.533977
Si Si4 0.064758 0.110513 0.899578
Si Si5 0.030652 0.391553 0.762803
Si Si6 0.219617 0.388056 0.417553
Si Si7 0.430691 0.288013 0.306464
Si Si8 0.312030 0.723429 0.285489
O O1 0.814447 0.870094 0.554206
O O2 0.874320 0.825449 0.467697
O O3 0.971317 0.872873 0.778645
O O4 0.877481 0.000000 0.533354
O O5 0.165829 0.673508 0.250180
O O6 0.221606 0.684086 0.149628
O O7 0.119889 0.817657 0.057805
O O8 0.074626 0.638604 0.940813
O O9 0.562660 0.115953 0.363892
O O10 0.699304 0.150434 0.498787
O O11 0.688627 0.164415 0.684995
O O12 0.686758 0.000000 0.600126
O O13 0.074006 0.135231 0.793250
O O14 0.090985 0.000000 0.962500
O O15 0.054216 0.500000 0.768652
O O16 0.053901 0.320062 0.708121
O O17 0.196328 0.500000 0.367719
O O18 0.500000 0.318351 0.500000
O O19 0.343985 0.290754 0.221690
#
# Coordination Sequence:
#
# PCOD8106978 Si02
#       8
#     8   8   8   8   8   8   8   8
#     4   9  18  34  57  80 106 141 186 234 273 318
#     4  10  22  37  56  81 117 150 181 229 279 338
#     4  10  21  37  59  85 112 145 189 235 277 330
#     4  10  21  37  57  85 117 149 187 229 275 332
#     4  10  21  37  57  84 116 148 183 229 282 337
#     4   9  19  37  61  86 109 142 188 235 282 328
#     4  11  20  36  59  85 112 144 190 233 278 330
#     4  11  21  37  57  84 113 145 189 233 280 325
#
# _framework density 21.453223999999999
#
# number of rings (size 3 to 8) (size 9 to 14) (size 15 to 20)
#    0.000    2.000    2.500    1.125    0.000    7.000 
#    0.000    4.375    0.000    0.750    0.000   10.500 
#    0.000    0.000    0.000    0.000    0.000    0.000 
#
# Total GULP energy -396830.038368 kJ/mol
# GULP energy per Si atom -12400.938699 kJ/mol
# Density = 2.140440 g / cm^3
# Si number density = 21.453224 Si / 1000 Ang^3
#
#
#
# Elastic Constant Matrix: (Units=GPa)
#
#
# Indices 1 2 3 4 5 6 
#
# 1 70.7164 4.3485 0.2105 0.0000 5.1775 0.0000
# 2 4.3485 86.8743 7.4656 0.0000 2.2074 0.0000
# 3 0.2105 7.4656 40.0364 0.0000 4.3788 0.0000
# 4 0.0000 0.0000 0.0000 25.8483 0.0000 1.9652
# 5 5.1775 2.2074 4.3788 0.0000 16.7321 0.0000
# 6 0.0000 0.0000 0.0000 1.9652 0.0000 27.8126
#
#
#
# Elastic Compliance Matrix: (Units=1/GPa)
#
#
# Indices 1 2 3 4 5 6 
#
# 1 0.014513 -0.000658 0.000544 0.000000 -0.004546 0.000000
# 2 -0.000658 0.011744 -0.002099 0.000000 -0.000796 0.000000
# 3 0.000544 -0.002099 0.026101 0.000000 -0.006722 0.000000
# 4 0.000000 0.000000 0.000000 0.038896 0.000000 -0.002748
# 5 -0.004546 -0.000796 -0.006722 0.000000 0.063036 0.000000
# 6 0.000000 0.000000 0.000000 -0.002748 0.000000 0.036149
#
#
# Mechanical properties :
#
#
# Convention : Reuss Voigt Hill
#
# Bulk Modulus (GPa) = 20.86324 24.63068 22.74696
# Shear Modulus (GPa) = 23.71423 26.45210 25.08316
#
# Velocity S-wave (km/s) = 3.32835 3.51524 3.42307
# Velocity P-wave (km/s) = 4.95143 5.28979 5.12340
#
# Compressibility (1/GPa) = 0.04793120
#
# Stress axis : x y z
#
# Youngs Moduli (GPa) = 68.90536 85.14656 38.31264
#
# Poissons Ratio (x) = 0.05599 -0.02083
# Poissons Ratio (y) = 0.04531 0.08043
# Poissons Ratio (z) = -0.03745 0.17876
#
# Static dielectric constant tensor:
#      x y z
#    x 3.938840 0.000000 0.232020 
#    y 0.000000 4.092510 0.000000 
#    z 0.232020 0.000000 3.681870 
# 
# 
# High freq. dielectric constant tensor:
#      x y z
#    x 1.841590 0.000000 0.017910 
#    y 0.000000 1.850970 0.000000 
#    z 0.017910 0.000000 1.825590 
# 
# From -- ./inp_files/183845.got.cif
#   From: 2010.06.25/outbox.cif.g09.slc.cpg/sg12_92_cif.got.tgz:183845.got - 2010.06.28 00:19:55.
