data_PCOD8106538
_publ_section_title
;
Structure prediction by ZEFSAII (Michael W. Deem and Ramdas Pophale) SiO2 
 PCOD8106538
Probable space group: C 2/M
;
_chemical_formula_sum "Si O2"
_cell_formula_units_Z 60
_cell_length_a 11.831009
_cell_length_b 21.343486
_cell_length_c 23.947847
_cell_angle_alpha 90.000000
_cell_angle_beta 31.754911
_cell_angle_gamma 90.000000
_cell_volume 3182.556315
_symmetry_space_group_name_H-M "C 2/M"
_symmetry_group_IT_number 12
_symmetry_cell_setting 'monoclinic'
loop_
_space_group_symop_operation_xyz
x,y,z
-x,y,-z
-x,-y,-z
x,-y,z
1/2+x,1/2+y,z
1/2-x,1/2+y,-z
1/2-x,1/2-y,-z
1/2+x,1/2-y,z
loop_
_atom_site_type_symbol
_atom_site_label
_atom_site_fract_x
_atom_site_fract_y
_atom_site_fract_z
Si Si1 0.033359 0.314266 0.044663
Si Si2 0.000000 0.378427 0.500000
Si Si3 0.486626 0.673045 0.168941
Si Si4 0.341844 0.322340 0.113084
Si Si5 0.327147 0.645000 0.731969
Si Si6 0.717585 0.725760 0.574797
Si Si7 0.863589 0.703407 0.285910
Si Si8 0.567485 0.570692 0.715859
O O1 0.909782 0.249170 0.091178
O O2 0.914451 0.353159 0.142486
O O3 0.283477 0.305940 0.952679
O O4 0.000000 0.350594 0.000000
O O5 0.878143 0.333093 0.508191
O O6 0.825282 0.421987 0.603788
O O7 0.359060 0.647130 0.168063
O O8 0.374689 0.733808 0.243046
O O9 0.517390 0.618395 0.201485
O O10 0.095916 0.327566 0.196993
O O11 0.500000 0.354290 0.000000
O O12 0.474028 0.703810 0.689403
O O13 0.289502 0.651562 0.680772
O O14 0.450080 0.583961 0.705058
O O15 0.750000 0.750000 0.500000
O O16 0.758217 0.778259 0.605350
O O17 0.514126 0.500000 0.756215
#
# Coordination Sequence:
#
# PCOD8106538 Si02
#       8
#     8   4   8   8   8   8   8   8
#     4  11  16  30  50  83 116 149 178 222 290 349
#     4  10  21  36  60  84 106 150 197 234 284 336
#     4  12  20  34  56  84 121 149 195 233 288 346
#     4  11  20  29  50  84 122 156 180 226 284 356
#     4  11  21  35  53  82 116 151 185 236 287 347
#     4  11  21  33  52  87 125 150 175 229 302 359
#     4  12  19  32  53  85 121 151 181 228 296 354
#     4  11  24  42  59  81 112 154 205 246 279 330
#
# _framework density 18.852768999999999
#
# number of rings (size 3 to 8) (size 9 to 14) (size 15 to 20)
#    0.000    0.800    9.333    2.200    1.867    0.000 
#    0.000    1.333    0.000    1.200    0.000    1.867 
#    0.000    0.000    0.000    0.000    0.000    0.000 
#
# Total GULP energy -371712.706837 kJ/mol
# GULP energy per Si atom -12390.423561 kJ/mol
# Density = 1.880986 g / cm^3
# Si number density = 18.852769 Si / 1000 Ang^3
#
#
#
# Elastic Constant Matrix: (Units=GPa)
#
#
# Indices 1 2 3 4 5 6 
#
# 1 125.9430 30.2479 24.3154 -0.0257 8.3200 0.0218
# 2 30.2479 55.8339 17.7766 -0.0511 0.6600 0.0158
# 3 24.3154 17.7766 79.0147 -0.0660 4.6495 0.0265
# 4 -0.0257 -0.0511 -0.0660 11.7292 0.0395 1.4623
# 5 8.3200 0.6600 4.6495 0.0395 36.7072 -0.0156
# 6 0.0218 0.0158 0.0265 1.4623 -0.0156 14.3804
#
#
#
# Elastic Compliance Matrix: (Units=1/GPa)
#
#
# Indices 1 2 3 4 5 6 
#
# 1 0.009502 -0.004556 -0.001791 -0.000002 -0.001845 -0.000008
# 2 -0.004556 0.021478 -0.003494 0.000062 0.001089 -0.000015
# 3 -0.001791 -0.003494 0.014070 0.000068 -0.001314 -0.000028
# 4 -0.000002 0.000062 0.000068 0.086353 -0.000106 -0.008782
# 5 -0.001845 0.001089 -0.001314 -0.000106 0.027808 0.000045
# 6 -0.000008 -0.000015 -0.000028 -0.008782 0.000045 0.070432
#
#
# Mechanical properties :
#
#
# Convention : Reuss Voigt Hill
#
# Bulk Modulus (GPa) = 39.41760 45.05237 42.23498
# Shear Modulus (GPa) = 19.39635 25.12682 22.26159
#
# Velocity S-wave (km/s) = 3.21102 3.65470 3.44002
# Velocity P-wave (km/s) = 5.89076 6.46204 6.18300
#
# Compressibility (1/GPa) = 0.02536938
#
# Stress axis : x y z
#
# Youngs Moduli (GPa) = 105.24293 46.55932 71.07148
#
# Poissons Ratio (x) = 0.21211 0.12725
# Poissons Ratio (y) = 0.47946 0.24833
# Poissons Ratio (z) = 0.18844 0.16269
#
# Static dielectric constant tensor:
#      x y z
#    x 3.997030 -0.000140 0.096900 
#    y -0.000140 2.871330 0.000290 
#    z 0.096900 0.000290 3.765780 
# 
# 
# High freq. dielectric constant tensor:
#      x y z
#    x 1.749240 -0.000010 -0.006620 
#    y -0.000010 1.644780 0.000020 
#    z -0.006620 0.000020 1.746390 
# 
# From -- ./inp_files/336862.got.cif
#   From: 2010.06.25/outbox.cif.g09.slc.cpg/sg12_169_cif.got.tgz:336862.got - 2010.06.28 00:19:55.
