data_PCOD8106788
_publ_section_title
;
Structure prediction by ZEFSAII (Michael W. Deem and Ramdas Pophale) SiO2 
 PCOD8106788
Probable space group: C 2/M
;
_chemical_formula_sum "Si O2"
_cell_formula_units_Z 64
_cell_length_a 14.425410
_cell_length_b 8.922463
_cell_length_c 32.409099
_cell_angle_alpha 90.000000
_cell_angle_beta 127.857687
_cell_angle_gamma 90.000000
_cell_volume 3293.461961
_symmetry_space_group_name_H-M "C 2/M"
_symmetry_group_IT_number 12
_symmetry_cell_setting 'monoclinic'
loop_
_space_group_symop_operation_xyz
x,y,z
-x,y,-z
-x,-y,-z
x,-y,z
1/2+x,1/2+y,z
1/2-x,1/2+y,-z
1/2-x,1/2-y,-z
1/2+x,1/2-y,z
loop_
_atom_site_type_symbol
_atom_site_label
_atom_site_fract_x
_atom_site_fract_y
_atom_site_fract_z
Si Si1 0.742886 0.670614 0.384653
Si Si2 0.807929 0.176394 0.217675
Si Si3 0.403866 0.675405 0.941832
Si Si4 0.509275 0.176168 0.324224
Si Si5 0.522998 0.830992 0.590752
Si Si6 0.837404 0.824135 0.131586
Si Si7 0.336018 0.677189 0.490999
Si Si8 0.065374 0.175969 0.143919
O O1 0.713203 0.500000 0.389401
O O2 0.626047 0.752238 0.336373
O O3 0.835747 0.675727 0.372588
O O4 0.805441 0.756882 0.438617
O O5 0.849802 0.220092 0.183022
O O6 0.678264 0.237383 0.192070
O O7 0.894975 0.252072 0.273417
O O8 0.808790 0.000000 0.224700
O O9 0.385912 0.500000 0.942799
O O10 0.279564 0.750069 0.918680
O O11 0.449502 0.714525 0.908449
O O12 0.500000 0.738593 0.000000
O O13 0.515389 0.217628 0.374138
O O14 0.506814 0.000000 0.315604
O O15 0.467305 0.720915 0.541256
O O16 0.478902 0.000000 0.569434
O O17 0.950956 0.766068 0.137430
O O18 0.823344 0.000000 0.122012
O O19 0.321619 0.500000 0.485509
O O20 0.250000 0.750000 0.500000
O O21 0.085031 0.000000 0.156468
#
# Coordination Sequence:
#
# PCOD8106788 Si02
#       8
#     8   8   8   8   8   8   8   8
#     4  11  23  40  61  85 113 146 181 224 274 328
#     4  10  21  37  56  79 107 138 180 232 277 321
#     4   9  18  32  51  79 114 147 181 226 274 320
#     4  11  23  40  60  82 111 146 182 224 275 334
#     4  10  23  41  60  83 113 146 181 222 274 332
#     4   9  19  35  55  78 106 145 187 226 271 325
#     4  12  23  37  60  86 114 148 184 224 271 325
#     4   9  18  35  56  77 106 145 186 223 270 331
#
# _framework density 19.432438999999999
#
# number of rings (size 3 to 8) (size 9 to 14) (size 15 to 20)
#    0.000    1.875    1.250    2.625    0.000    5.750 
#    0.000    5.000    0.000    0.000    0.000    0.000 
#    0.000    0.000    0.000    0.000    0.000    0.000 
#
# Total GULP energy -396874.593530 kJ/mol
# GULP energy per Si atom -12402.331048 kJ/mol
# Density = 1.938821 g / cm^3
# Si number density = 19.432439 Si / 1000 Ang^3
#
#
#
# Elastic Constant Matrix: (Units=GPa)
#
#
# Indices 1 2 3 4 5 6 
#
# 1 122.8983 39.0027 31.6363 0.0000 23.2492 0.0000
# 2 39.0027 82.1515 43.2380 0.0000 14.6418 0.0000
# 3 31.6363 43.2380 91.6501 0.0000 29.3697 0.0000
# 4 0.0000 0.0000 0.0000 31.6608 0.0000 9.4408
# 5 23.2492 14.6418 29.3697 0.0000 25.5992 0.0000
# 6 0.0000 0.0000 0.0000 9.4408 0.0000 30.3187
#
#
#
# Elastic Compliance Matrix: (Units=1/GPa)
#
#
# Indices 1 2 3 4 5 6 
#
# 1 0.010816 -0.004108 0.000948 0.000000 -0.008561 0.000000
# 2 -0.004108 0.017764 -0.007752 0.000000 0.002465 0.000000
# 3 0.000948 -0.007752 0.020710 0.000000 -0.020188 0.000000
# 4 0.000000 0.000000 0.000000 0.034818 0.000000 -0.010842
# 5 -0.008561 0.002465 -0.020188 0.000000 0.068590 0.000000
# 6 0.000000 0.000000 0.000000 -0.010842 0.000000 0.036359
#
#
# Mechanical properties :
#
#
# Convention : Reuss Voigt Hill
#
# Bulk Modulus (GPa) = 36.40946 58.27264 47.34105
# Shear Modulus (GPa) = 22.72340 29.70394 26.21367
#
# Velocity S-wave (km/s) = 3.42329 3.91394 3.67681
# Velocity P-wave (km/s) = 5.86535 7.10476 6.51460
#
# Compressibility (1/GPa) = 0.02746539
#
# Stress axis : x y z
#
# Youngs Moduli (GPa) = 92.45495 56.29367 48.28483
#
# Poissons Ratio (x) = 0.23127 -0.04578
# Poissons Ratio (y) = 0.37983 0.37432
# Poissons Ratio (z) = -0.08765 0.43641
#
# Static dielectric constant tensor:
#      x y z
#    x 3.759450 0.000000 0.066800 
#    y 0.000000 3.608130 0.000000 
#    z 0.066800 0.000000 3.538410 
# 
# 
# High freq. dielectric constant tensor:
#      x y z
#    x 1.765890 0.000000 0.009850 
#    y 0.000000 1.758210 0.000000 
#    z 0.009850 0.000000 1.748470 
# 
# From -- ./inp_files/359739.got.cif
#   From: 2010.06.25/outbox.cif.g09.slc.cpg/sg12_180_cif.got.tgz:359739.got - 2010.06.28 00:19:55.
