data_PCOD8106681
_publ_section_title
;
Structure prediction by ZEFSAII (Michael W. Deem and Ramdas Pophale) SiO2 
 PCOD8106681
Probable space group: C 2/M
;
_chemical_formula_sum "Si O2"
_cell_formula_units_Z 40
_cell_length_a 20.572572
_cell_length_b 8.994796
_cell_length_c 12.792972
_cell_angle_alpha 90.000000
_cell_angle_beta 103.280787
_cell_angle_gamma 90.000000
_cell_volume 2303.978545
_symmetry_space_group_name_H-M "C 2/M"
_symmetry_group_IT_number 12
_symmetry_cell_setting 'monoclinic'
loop_
_space_group_symop_operation_xyz
x,y,z
-x,y,-z
-x,-y,-z
x,-y,z
1/2+x,1/2+y,z
1/2-x,1/2+y,-z
1/2-x,1/2-y,-z
1/2+x,1/2-y,z
loop_
_atom_site_type_symbol
_atom_site_label
_atom_site_fract_x
_atom_site_fract_y
_atom_site_fract_z
Si Si1 0.678746 0.174561 0.485800
Si Si2 0.649409 0.674036 0.278890
Si Si3 0.576432 0.326980 0.044412
Si Si4 0.818055 0.676523 0.062516
Si Si5 0.296088 0.826433 0.282044
O O1 0.750000 0.250000 0.500000
O O2 0.628997 0.245350 0.380977
O O3 0.657307 0.208580 0.598956
O O4 0.684396 0.000000 0.468122
O O5 0.652311 0.500000 0.303417
O O6 0.595224 0.713027 0.170609
O O7 0.721092 0.739348 0.267635
O O8 0.590191 0.500000 0.026865
O O9 0.500000 0.283091 0.000000
O O10 0.619457 0.231607 0.980300
O O11 0.811797 0.500000 0.049427
O O12 0.829941 0.729803 0.187368
O O13 0.750000 0.750000 0.000000
O O14 0.284575 0.000000 0.266764
#
# Coordination Sequence:
#
# PCOD8106681 Si02
#       5
#     8   8   8   8   8
#     4   9  16  27  44  69  98 129 163 201 251 302
#     4   9  16  30  48  69  99 131 165 207 254 299
#     4  10  21  37  54  73 103 141 175 211 261 310
#     4  11  20  33  53  77 105 135 170 212 259 307
#     4   8  15  28  46  69 100 129 157 204 254 296
#
# _framework density 17.361273000000001
#
# number of rings (size 3 to 8) (size 9 to 14) (size 15 to 20)
#    0.000    2.600    2.000    2.400    0.000    1.200 
#    0.000    3.000    0.000    1.200    0.000    8.400 
#    0.000    0.000    0.000    0.000    0.000    0.000 
#
# Total GULP energy -247804.199046 kJ/mol
# GULP energy per Si atom -12390.209952 kJ/mol
# Density = 1.732176 g / cm^3
# Si number density = 17.361273 Si / 1000 Ang^3
#
#
#
# Elastic Constant Matrix: (Units=GPa)
#
#
# Indices 1 2 3 4 5 6 
#
# 1 73.5047 35.7064 64.3889 0.0000 2.8020 0.0000
# 2 35.7064 68.7865 66.8957 0.0000 -4.6809 0.0000
# 3 64.3889 66.8957 199.8599 0.0000 -0.8858 0.0000
# 4 0.0000 0.0000 0.0000 30.2462 0.0000 -1.3155
# 5 2.8020 -4.6809 -0.8858 0.0000 20.6202 0.0000
# 6 0.0000 0.0000 0.0000 -1.3155 0.0000 18.5367
#
#
#
# Elastic Compliance Matrix: (Units=1/GPa)
#
#
# Indices 1 2 3 4 5 6 
#
# 1 0.021065 -0.006863 -0.004510 0.000000 -0.004614 0.000000
# 2 -0.006863 0.024232 -0.005872 0.000000 0.006181 0.000000
# 3 -0.004510 -0.005872 0.008420 0.000000 -0.000358 0.000000
# 4 0.000000 0.000000 0.000000 0.033164 0.000000 0.002354
# 5 -0.004614 0.006181 -0.000358 0.000000 0.050511 0.000000
# 6 0.000000 0.000000 0.000000 0.002354 0.000000 0.054114
#
#
# Mechanical properties :
#
#
# Convention : Reuss Voigt Hill
#
# Bulk Modulus (GPa) = 52.00982 75.12588 63.56785
# Shear Modulus (GPa) = 21.51424 25.55796 23.53610
#
# Velocity S-wave (km/s) = 3.52406 3.84099 3.68593
# Velocity P-wave (km/s) = 6.82503 7.93958 7.40331
#
# Compressibility (1/GPa) = 0.01922714
#
# Stress axis : x y z
#
# Youngs Moduli (GPa) = 47.47291 41.26859 118.75927
#
# Poissons Ratio (x) = 0.28321 0.53559
# Poissons Ratio (y) = 0.32578 0.69739
# Poissons Ratio (z) = 0.21410 0.24234
#
# Static dielectric constant tensor:
#      x y z
#    x 3.059600 0.000000 -0.224550 
#    y 0.000000 3.193770 0.000000 
#    z -0.224550 0.000000 4.154960 
# 
# 
# High freq. dielectric constant tensor:
#      x y z
#    x 1.610800 0.000000 -0.002310 
#    y 0.000000 1.660200 0.000000 
#    z -0.002310 0.000000 1.700680 
# 
# From -- ./inp_files/162500.got.cif
#   From: 2010.06.25/outbox.cif.g09.slc.cpg/sg12_82_cif.got.tgz:162500.got - 2010.06.28 00:19:55.
