data_PCOD8106846
_publ_section_title
;
Structure prediction by ZEFSAII (Michael W. Deem and Ramdas Pophale) SiO2 
 PCOD8106846
Probable space group: C 2/M
;
_chemical_formula_sum "Si O2"
_cell_formula_units_Z 40
_cell_length_a 30.322391
_cell_length_b 8.960261
_cell_length_c 7.597902
_cell_angle_alpha 90.000000
_cell_angle_beta 76.379785
_cell_angle_gamma 90.000000
_cell_volume 2006.270709
_symmetry_space_group_name_H-M "C 2/M"
_symmetry_group_IT_number 12
_symmetry_cell_setting 'monoclinic'
loop_
_space_group_symop_operation_xyz
x,y,z
-x,y,-z
-x,-y,-z
x,-y,z
1/2+x,1/2+y,z
1/2-x,1/2+y,-z
1/2-x,1/2-y,-z
1/2+x,1/2-y,z
loop_
_atom_site_type_symbol
_atom_site_label
_atom_site_fract_x
_atom_site_fract_y
_atom_site_fract_z
Si Si1 0.553104 0.672503 0.449919
Si Si2 0.795714 0.835643 0.414790
Si Si3 0.391358 0.676820 0.940543
Si Si4 0.206015 0.160312 0.994236
Si Si5 0.387406 0.177125 0.317722
O O1 0.500000 0.702548 0.500000
O O2 0.564800 0.500000 0.480096
O O3 0.570934 0.717439 0.239137
O O4 0.574410 0.775883 0.579569
O O5 0.750000 0.750000 0.500000
O O6 0.798338 0.858646 0.207293
O O7 0.839548 0.741967 0.434076
O O8 0.795953 0.000000 0.505821
O O9 0.389679 0.500000 0.982837
O O10 0.342553 0.730211 0.903048
O O11 0.401872 0.761679 0.112291
O O12 0.212363 0.000000 0.080328
O O13 0.250000 0.250000 0.000000
O O14 0.383550 0.000000 0.311009
#
# Coordination Sequence:
#
# PCOD8106846 Si02
#       5
#     8   8   8   8   8
#     4  10  22  41  66  92 117 155 206 255 306 362
#     4  10  21  37  56  83 117 156 200 241 291 353
#     4   9  20  40  61  84 117 158 201 248 301 357
#     4   9  19  33  51  79 112 148 191 235 285 344
#     4  11  23  39  60  88 123 161 199 247 305 361
#
# _framework density 19.93749
#
# number of rings (size 3 to 8) (size 9 to 14) (size 15 to 20)
#    0.000    2.200    0.000    3.600    2.800    6.000 
#    0.000    4.000    0.000    0.000    0.000    0.000 
#    0.000    0.000    0.000    0.000    0.000    0.000 
#
# Total GULP energy -247896.688914 kJ/mol
# GULP energy per Si atom -12394.834446 kJ/mol
# Density = 1.989211 g / cm^3
# Si number density = 19.937490 Si / 1000 Ang^3
#
#
#
# Elastic Constant Matrix: (Units=GPa)
#
#
# Indices 1 2 3 4 5 6 
#
# 1 140.1778 66.0528 64.7590 0.0000 -15.9753 0.0000
# 2 66.0528 128.9044 51.0392 0.0000 0.5725 0.0000
# 3 64.7590 51.0392 93.0423 0.0000 -15.5095 0.0000
# 4 0.0000 0.0000 0.0000 23.7522 0.0000 4.1045
# 5 -15.9753 0.5725 -15.5095 0.0000 38.5021 0.0000
# 6 0.0000 0.0000 0.0000 4.1045 0.0000 33.7126
#
#
#
# Elastic Compliance Matrix: (Units=1/GPa)
#
#
# Indices 1 2 3 4 5 6 
#
# 1 0.011894 -0.003840 -0.005724 0.000000 0.002686 0.000000
# 2 -0.003840 0.011381 -0.004142 0.000000 -0.003431 0.000000
# 3 -0.005724 -0.004142 0.017815 0.000000 0.004863 0.000000
# 4 0.000000 0.000000 0.000000 0.043006 0.000000 -0.005236
# 5 0.002686 -0.003431 0.004863 0.000000 0.029097 0.000000
# 6 0.000000 0.000000 0.000000 -0.005236 0.000000 0.030300
#
#
# Mechanical properties :
#
#
# Convention : Reuss Voigt Hill
#
# Bulk Modulus (GPa) = 73.11747 80.64738 76.88242
# Shear Modulus (GPa) = 28.49595 31.21162 29.85379
#
# Velocity S-wave (km/s) = 3.78466 3.96090 3.87378
# Velocity P-wave (km/s) = 7.47337 7.83940 7.65857
#
# Compressibility (1/GPa) = 0.01367662
#
# Stress axis : x y z
#
# Youngs Moduli (GPa) = 84.07762 87.86779 56.13389
#
# Poissons Ratio (x) = 0.33742 0.32131
# Poissons Ratio (y) = 0.32287 0.23252
# Poissons Ratio (z) = 0.48126 0.36396
#
# Static dielectric constant tensor:
#      x y z
#    x 3.361830 0.000000 0.003470 
#    y 0.000000 3.622290 0.000000 
#    z 0.003470 0.000000 3.203290 
# 
# 
# High freq. dielectric constant tensor:
#      x y z
#    x 1.782390 0.000000 -0.007360 
#    y 0.000000 1.769970 0.000000 
#    z -0.007360 0.000000 1.778600 
# 
# From -- ./inp_files/107445.got.cif
#   From: 2010.06.25/outbox.cif.g09.slc.cpg/sg12_54_cif.got.tgz:107445.got - 2010.06.28 00:19:55.
