data_PCOD8106952
_publ_section_title
;
Structure prediction by ZEFSAII (Michael W. Deem and Ramdas Pophale) SiO2 
 PCOD8106952
Probable space group: C 2/M
;
_chemical_formula_sum "Si O2"
_cell_formula_units_Z 56
_cell_length_a 27.282726
_cell_length_b 8.767678
_cell_length_c 12.409927
_cell_angle_alpha 90.000000
_cell_angle_beta 74.729880
_cell_angle_gamma 90.000000
_cell_volume 2863.726654
_symmetry_space_group_name_H-M "C 2/M"
_symmetry_group_IT_number 12
_symmetry_cell_setting 'monoclinic'
loop_
_space_group_symop_operation_xyz
x,y,z
-x,y,-z
-x,-y,-z
x,-y,z
1/2+x,1/2+y,z
1/2-x,1/2+y,-z
1/2-x,1/2-y,-z
1/2+x,1/2-y,z
loop_
_atom_site_type_symbol
_atom_site_label
_atom_site_fract_x
_atom_site_fract_y
_atom_site_fract_z
Si Si1 0.278338 0.672960 0.386635
Si Si2 0.645751 0.819809 0.943655
Si Si3 0.044026 0.323804 0.622548
Si Si4 0.886082 0.819964 0.248390
Si Si5 0.855711 0.178315 0.838163
Si Si6 0.070416 0.676361 0.367585
Si Si7 0.253115 0.175874 0.830572
O O1 0.285647 0.500000 0.416291
O O2 0.250000 0.750000 0.500000
O O3 0.334405 0.742864 0.334162
O O4 0.244197 0.690968 0.300035
O O5 0.608397 0.762795 0.870298
O O6 0.699937 0.737552 0.904365
O O7 0.652208 0.000000 0.933717
O O8 0.621744 0.769332 0.071947
O O9 0.055179 0.500000 0.641505
O O10 0.066430 0.219980 0.704153
O O11 0.069299 0.278427 0.494030
O O12 0.984176 0.292318 0.653727
O O13 0.882887 0.000000 0.229609
O O14 0.887825 0.220494 0.714041
O O15 0.797292 0.223631 0.855734
O O16 0.859639 0.000000 0.857783
O O17 0.085573 0.500000 0.345753
O O18 0.259284 0.000000 0.862653
#
# Coordination Sequence:
#
# PCOD8106952 Si02
#       7
#     8   8   8   8   8   8   8
#     4   9  20  34  50  76 112 148 184 227 271 324
#     4  11  22  39  60  83 112 151 194 236 281 337
#     4   9  19  38  63  86 113 150 189 231 285 340
#     4  10  21  37  57  83 115 150 187 231 285 339
#     4  12  24  37  57  85 116 151 191 236 285 336
#     4   9  20  39  60  86 116 147 189 237 281 335
#     4  10  21  38  56  80 114 153 191 233 282 332
#
# _framework density 19.554939000000001
#
# number of rings (size 3 to 8) (size 9 to 14) (size 15 to 20)
#    0.000    2.000    0.000    5.571    2.000    4.571 
#    0.000    2.143    0.000    4.286    0.000    0.000 
#    0.000    0.000    0.000    0.000    0.000    0.000 
#
# Total GULP energy -347275.633622 kJ/mol
# GULP energy per Si atom -12402.701201 kJ/mol
# Density = 1.951043 g / cm^3
# Si number density = 19.554939 Si / 1000 Ang^3
#
#
#
# Elastic Constant Matrix: (Units=GPa)
#
#
# Indices 1 2 3 4 5 6 
#
# 1 65.3683 20.7535 21.2967 0.0000 20.5333 0.0000
# 2 20.7535 83.5492 29.6158 0.0000 7.6869 0.0000
# 3 21.2967 29.6158 74.0401 0.0000 10.7051 0.0000
# 4 0.0000 0.0000 0.0000 31.8484 0.0000 2.5951
# 5 20.5333 7.6869 10.7051 0.0000 25.2751 0.0000
# 6 0.0000 0.0000 0.0000 2.5951 0.0000 32.1537
#
#
#
# Elastic Compliance Matrix: (Units=1/GPa)
#
#
# Indices 1 2 3 4 5 6 
#
# 1 0.022186 -0.003031 -0.002872 0.000000 -0.015885 0.000000
# 2 -0.003031 0.014456 -0.004933 0.000000 0.000155 0.000000
# 3 -0.002872 -0.004933 0.016779 0.000000 -0.003273 0.000000
# 4 0.000000 0.000000 0.000000 0.031607 0.000000 -0.002551
# 5 -0.015885 0.000155 -0.003273 0.000000 0.053809 0.000000
# 6 0.000000 0.000000 0.000000 -0.002551 0.000000 0.031306
#
#
# Mechanical properties :
#
#
# Convention : Reuss Voigt Hill
#
# Bulk Modulus (GPa) = 31.49821 40.69884 36.09852
# Shear Modulus (GPa) = 24.70378 27.94156 26.32267
#
# Velocity S-wave (km/s) = 3.55815 3.78415 3.67289
# Velocity P-wave (km/s) = 5.74657 6.32066 6.04044
#
# Compressibility (1/GPa) = 0.03174784
#
# Stress axis : x y z
#
# Youngs Moduli (GPa) = 45.07372 69.17400 59.59914
#
# Poissons Ratio (x) = 0.20969 0.17118
# Poissons Ratio (y) = 0.13663 0.29400
# Poissons Ratio (z) = 0.12946 0.34124
#
# Static dielectric constant tensor:
#      x y z
#    x 3.556450 0.000000 0.072370 
#    y 0.000000 3.487690 0.000000 
#    z 0.072370 0.000000 3.770190 
# 
# 
# High freq. dielectric constant tensor:
#      x y z
#    x 1.748180 0.000000 0.013070 
#    y 0.000000 1.762880 0.000000 
#    z 0.013070 0.000000 1.768080 
# 
# From -- ./inp_files/180718.got.cif
#   From: 2010.06.25/outbox.cif.g09.slc.cpg/sg12_91_cif.got.tgz:180718.got - 2010.06.28 00:19:55.
