data_PCOD8106522
_publ_section_title
;
Structure prediction by ZEFSAII (Michael W. Deem and Ramdas Pophale) SiO2 
 PCOD8106522
Probable space group: C 2/M
;
_chemical_formula_sum "Si O2"
_cell_formula_units_Z 56
_cell_length_a 19.380816
_cell_length_b 8.119791
_cell_length_c 28.343708
_cell_angle_alpha 90.000000
_cell_angle_beta 41.289005
_cell_angle_gamma 90.000000
_cell_volume 2943.226767
_symmetry_space_group_name_H-M "C 2/M"
_symmetry_group_IT_number 12
_symmetry_cell_setting 'monoclinic'
loop_
_space_group_symop_operation_xyz
x,y,z
-x,y,-z
-x,-y,-z
x,-y,z
1/2+x,1/2+y,z
1/2-x,1/2+y,-z
1/2-x,1/2-y,-z
1/2+x,1/2-y,z
loop_
_atom_site_type_symbol
_atom_site_label
_atom_site_fract_x
_atom_site_fract_y
_atom_site_fract_z
Si Si1 0.831802 0.000000 0.570554
Si Si2 0.206097 0.311992 0.178877
Si Si3 0.970514 0.813163 0.793016
Si Si4 0.867335 0.688335 0.937269
Si Si5 0.099329 0.192370 0.980518
Si Si6 0.808216 0.818359 0.709785
Si Si7 0.212923 0.810781 0.667712
Si Si8 0.521999 0.500000 0.415347
O O1 0.766715 0.171095 0.607212
O O2 0.896749 0.000000 0.487308
O O3 0.918090 0.000000 0.565991
O O4 0.231642 0.500000 0.175611
O O5 0.094465 0.295167 0.210810
O O6 0.296730 0.238294 0.098679
O O7 0.210264 0.227237 0.227122
O O8 0.932118 0.791010 0.866084
O O9 0.091348 0.765335 0.728396
O O10 0.952228 0.000000 0.787075
O O11 0.869606 0.500000 0.919938
O O12 0.750000 0.750000 0.000000
O O13 0.919694 0.710649 0.961305
O O14 0.111816 0.000000 0.985586
O O15 0.000000 0.230831 0.000000
O O16 0.753803 0.695083 0.700829
O O17 0.757880 0.000000 0.726525
O O18 0.934750 0.836397 0.634783
O O19 0.233062 0.000000 0.639490
#
# Coordination Sequence:
#
# PCOD8106522 Si02
#       8
#     4   8   8   8   8   8   8   4
#     4   9  16  36  62  88 127 146 195 235 291 345
#     4  11  22  36  58  84 113 153 201 240 288 357
#     4  11  24  39  58  83 114 154 196 243 297 344
#     4  12  24  39  59  81 112 148 196 242 290 347
#     4  10  23  41  57  79 113 150 188 244 300 339
#     4   9  19  36  58  83 121 155 186 237 290 343
#     4  10  21  36  59  91 120 155 194 241 295 344
#     4   7  16  34  60  88 116 165 177 234 296 339
#
# _framework density 19.026734999999999
#
# number of rings (size 3 to 8) (size 9 to 14) (size 15 to 20)
#    0.429    1.429    2.143    2.571    4.000    0.857 
#    0.000    6.429    0.000    0.857    0.000    0.000 
#    0.000    0.000    0.000    0.000    0.000    0.000 
#
# Total GULP energy -347019.055077 kJ/mol
# GULP energy per Si atom -12393.537681 kJ/mol
# Density = 1.898343 g / cm^3
# Si number density = 19.026735 Si / 1000 Ang^3
#
#
#
# Elastic Constant Matrix: (Units=GPa)
#
#
# Indices 1 2 3 4 5 6 
#
# 1 63.8187 10.1880 18.1832 -0.0009 -12.5008 0.0014
# 2 10.1880 72.0091 29.1930 -0.0010 -10.1931 0.0018
# 3 18.1832 29.1930 81.6894 0.0001 -21.5576 0.0003
# 4 -0.0009 -0.0010 0.0001 17.6218 0.0003 0.6443
# 5 -12.5008 -10.1931 -21.5576 0.0003 22.6751 0.0007
# 6 0.0014 0.0018 0.0003 0.6443 0.0007 26.3692
#
#
#
# Elastic Compliance Matrix: (Units=1/GPa)
#
#
# Indices 1 2 3 4 5 6 
#
# 1 0.017803 -0.000745 -0.001595 0.000001 0.007963 -0.000001
# 2 -0.000745 0.016368 -0.005140 0.000001 0.002061 -0.000001
# 3 -0.001595 -0.005140 0.018144 -0.000001 0.014060 0.000000
# 4 0.000001 0.000001 -0.000001 0.056799 0.000000 -0.001388
# 5 0.007963 0.002061 0.014060 0.000000 0.062785 -0.000002
# 6 -0.000001 -0.000001 0.000000 -0.001388 -0.000002 0.037957
#
#
# Mechanical properties :
#
#
# Convention : Reuss Voigt Hill
#
# Bulk Modulus (GPa) = 26.77018 36.96062 31.86540
# Shear Modulus (GPa) = 21.07347 23.99674 22.53511
#
# Velocity S-wave (km/s) = 3.33163 3.55521 3.44523
# Velocity P-wave (km/s) = 5.37587 6.02665 5.71054
#
# Compressibility (1/GPa) = 0.03735499
#
# Stress axis : x y z
#
# Youngs Moduli (GPa) = 56.17161 61.09514 55.11588
#
# Poissons Ratio (x) = 0.04551 0.08791
# Poissons Ratio (y) = 0.04184 0.28328
# Poissons Ratio (z) = 0.08959 0.31401
#
# Static dielectric constant tensor:
#      x y z
#    x 3.337740 -0.000010 0.049310 
#    y -0.000010 3.563550 -0.000010 
#    z 0.049310 -0.000010 3.909810 
# 
# 
# High freq. dielectric constant tensor:
#      x y z
#    x 1.726120 0.000000 -0.000570 
#    y 0.000000 1.739130 0.000000 
#    z -0.000570 0.000000 1.734870 
# 
# From -- ./inp_files/377708.got.cif
#   From: 2010.06.25/outbox.cif.g09.slc.cpg/sg12_189_cif.got.tgz:377708.got - 2010.06.28 00:19:55.
