data_PCOD8106946
_publ_section_title
;
Structure prediction by ZEFSAII (Michael W. Deem and Ramdas Pophale) SiO2 
 PCOD8106946
Probable space group: C 2/M
;
_chemical_formula_sum "Si O2"
_cell_formula_units_Z 40
_cell_length_a 10.245637
_cell_length_b 8.931873
_cell_length_c 23.538988
_cell_angle_alpha 90.000000
_cell_angle_beta 109.122696
_cell_angle_gamma 90.000000
_cell_volume 2035.251162
_symmetry_space_group_name_H-M "C 2/M"
_symmetry_group_IT_number 12
_symmetry_cell_setting 'monoclinic'
loop_
_space_group_symop_operation_xyz
x,y,z
-x,y,-z
-x,-y,-z
x,-y,z
1/2+x,1/2+y,z
1/2-x,1/2+y,-z
1/2-x,1/2-y,-z
1/2+x,1/2-y,z
loop_
_atom_site_type_symbol
_atom_site_label
_atom_site_fract_x
_atom_site_fract_y
_atom_site_fract_z
Si Si1 0.985091 0.673816 0.271300
Si Si2 0.843302 0.823642 0.465874
Si Si3 0.232488 0.324700 0.662335
Si Si4 0.648186 0.824979 0.867020
Si Si5 0.042735 0.177049 0.067934
O O1 0.027983 0.500000 0.278385
O O2 0.887634 0.713609 0.310347
O O3 0.902184 0.715928 0.202972
O O4 0.120934 0.775033 0.291685
O O5 0.750000 0.750000 0.500000
O O6 0.797457 0.766475 0.398403
O O7 0.000000 0.776335 0.500000
O O8 0.821976 0.000000 0.465232
O O9 0.237887 0.500000 0.649277
O O10 0.804218 0.767040 0.895287
O O11 0.559189 0.740354 0.900230
O O12 0.637213 0.000000 0.877841
O O13 0.032454 0.000000 0.068461
O O14 0.000000 0.238597 0.000000
#
# Coordination Sequence:
#
# PCOD8106946 Si02
#       5
#     8   8   8   8   8
#     4  10  22  39  58  83 116 151 189 236 285 336
#     4  11  24  41  62  89 119 152 192 235 281 336
#     4  11  23  39  61  87 116 152 191 233 284 338
#     4  10  21  37  57  83 114 149 191 235 282 339
#     4  10  21  37  57  83 115 149 188 236 287 340
#
# _framework density 19.653593999999998
#
# number of rings (size 3 to 8) (size 9 to 14) (size 15 to 20)
#    0.000    1.600    0.000    4.200    0.000   10.000 
#    0.000    0.000    0.000    0.000    0.000    0.000 
#    0.000    0.000    0.000    0.000    0.000    0.000 
#
# Total GULP energy -248118.134235 kJ/mol
# GULP energy per Si atom -12405.906712 kJ/mol
# Density = 1.960886 g / cm^3
# Si number density = 19.653594 Si / 1000 Ang^3
#
#
#
# Elastic Constant Matrix: (Units=GPa)
#
#
# Indices 1 2 3 4 5 6 
#
# 1 132.5054 42.0984 33.7518 0.0000 -0.7146 0.0000
# 2 42.0984 39.9838 21.4610 0.0000 -0.0765 0.0000
# 3 33.7518 21.4610 112.7110 0.0000 -1.6345 0.0000
# 4 0.0000 0.0000 0.0000 24.6469 0.0000 -1.2996
# 5 -0.7146 -0.0765 -1.6345 0.0000 45.6082 0.0000
# 6 0.0000 0.0000 0.0000 -1.2996 0.0000 26.5168
#
#
#
# Elastic Compliance Matrix: (Units=1/GPa)
#
#
# Indices 1 2 3 4 5 6 
#
# 1 0.011501 -0.011430 -0.001266 0.000000 0.000116 0.000000
# 2 -0.011430 0.039217 -0.004048 0.000000 -0.000258 0.000000
# 3 -0.001266 -0.004048 0.010027 0.000000 0.000333 0.000000
# 4 0.000000 0.000000 0.000000 0.040678 0.000000 0.001994
# 5 0.000116 -0.000258 0.000333 0.000000 0.021939 0.000000
# 6 0.000000 0.000000 0.000000 0.001994 0.000000 0.037810
#
#
# Mechanical properties :
#
#
# Convention : Reuss Voigt Hill
#
# Bulk Modulus (GPa) = 36.68799 53.31362 45.00081
# Shear Modulus (GPa) = 24.54035 31.88034 28.21035
#
# Velocity S-wave (km/s) = 3.53745 4.03192 3.79275
# Velocity P-wave (km/s) = 5.94917 6.99004 6.49050
#
# Compressibility (1/GPa) = 0.02725687
#
# Stress axis : x y z
#
# Youngs Moduli (GPa) = 86.94603 25.49927 99.73050
#
# Poissons Ratio (x) = 0.29145 0.12627
# Poissons Ratio (y) = 0.99378 0.40373
# Poissons Ratio (z) = 0.11009 0.10323
#
# Static dielectric constant tensor:
#      x y z
#    x 3.721760 0.000000 0.038100 
#    y 0.000000 3.538480 0.000000 
#    z 0.038100 0.000000 3.645150 
# 
# 
# High freq. dielectric constant tensor:
#      x y z
#    x 1.783700 0.000000 0.001620 
#    y 0.000000 1.763340 0.000000 
#    z 0.001620 0.000000 1.786830 
# 
# From -- ./inp_files/260980.got.cif
#   From: 2010.06.25/outbox.cif.g09.slc.cpg/sg12_131_cif.got.tgz:260980.got - 2010.06.28 00:19:55.
