data_PCOD8106767
_publ_section_title
;
Structure prediction by ZEFSAII (Michael W. Deem and Ramdas Pophale) SiO2 
 PCOD8106767
Probable space group: C 2/M
;
_chemical_formula_sum "Si O2"
_cell_formula_units_Z 64
_cell_length_a 31.270061
_cell_length_b 8.774575
_cell_length_c 15.102482
_cell_angle_alpha 90.000000
_cell_angle_beta 131.040756
_cell_angle_gamma 90.000000
_cell_volume 3125.462346
_symmetry_space_group_name_H-M "C 2/M"
_symmetry_group_IT_number 12
_symmetry_cell_setting 'monoclinic'
loop_
_space_group_symop_operation_xyz
x,y,z
-x,y,-z
-x,-y,-z
x,-y,z
1/2+x,1/2+y,z
1/2-x,1/2+y,-z
1/2-x,1/2-y,-z
1/2+x,1/2-y,z
loop_
_atom_site_type_symbol
_atom_site_label
_atom_site_fract_x
_atom_site_fract_y
_atom_site_fract_z
Si Si1 0.465894 0.679043 0.871540
Si Si2 0.865560 0.325559 0.812036
Si Si3 0.257939 0.679141 0.413382
Si Si4 0.876086 0.325432 0.024968
Si Si5 0.170666 0.681755 0.644703
Si Si6 0.750834 0.821359 0.097935
Si Si7 0.541068 0.820513 0.480351
Si Si8 0.519709 0.321679 0.764465
O O1 0.471425 0.500000 0.881311
O O2 0.399957 0.725837 0.787656
O O3 0.492103 0.740036 0.817007
O O4 0.500000 0.753114 0.000000
O O5 0.875472 0.500000 0.800289
O O6 0.799400 0.286833 0.718177
O O7 0.889901 0.287043 0.941974
O O8 0.270562 0.500000 0.440145
O O9 0.250000 0.750000 0.500000
O O10 0.307337 0.753329 0.420143
O O11 0.889498 0.500000 0.066985
O O12 0.913492 0.219306 0.140426
O O13 0.810647 0.288922 0.947132
O O14 0.175073 0.500000 0.646910
O O15 0.204649 0.742069 0.776003
O O16 0.105903 0.739116 0.571617
O O17 0.765122 0.000000 0.112555
O O18 0.750000 0.750000 0.000000
O O19 0.500000 0.748918 0.500000
O O20 0.512699 0.774996 0.351014
O O21 0.542383 0.000000 0.492124
O O22 0.511836 0.500000 0.736048
#
# Coordination Sequence:
#
# PCOD8106767 Si02
#       8
#     8   8   8   8   8   8   8   8
#     4  10  21  37  55  85 127 162 195 246 306 362
#     4  10  21  38  60  86 119 162 209 252 304 373
#     4  11  24  43  64  93 129 169 216 266 323 387
#     4  10  21  40  63  89 125 167 206 254 316 380
#     4  11  24  44  69  98 130 170 219 268 326 390
#     4  11  24  43  67  97 131 166 207 263 325 385
#     4  10  25  48  69  89 122 170 217 267 324 386
#     4  11  24  40  62  94 127 164 212 265 316 369
#
# _framework density 20.476970999999999
#
# number of rings (size 3 to 8) (size 9 to 14) (size 15 to 20)
#    0.000    1.500    2.500    1.500    3.500    4.500 
#    0.000    0.000    0.000    0.000    0.000    0.000 
#    0.000    0.000    0.000    0.000    0.000    0.000 
#
# Total GULP energy -396772.780046 kJ/mol
# GULP energy per Si atom -12399.149376 kJ/mol
# Density = 2.043036 g / cm^3
# Si number density = 20.476971 Si / 1000 Ang^3
#
#
#
# Elastic Constant Matrix: (Units=GPa)
#
#
# Indices 1 2 3 4 5 6 
#
# 1 137.3324 43.0294 66.9820 0.0000 -0.2870 0.0000
# 2 43.0294 28.1959 23.2646 0.0000 1.2983 0.0000
# 3 66.9820 23.2646 120.5741 0.0000 1.4042 0.0000
# 4 0.0000 0.0000 0.0000 36.9910 0.0000 -0.2543
# 5 -0.2870 1.2983 1.4042 0.0000 36.2044 0.0000
# 6 0.0000 0.0000 0.0000 -0.2543 0.0000 34.2076
#
#
#
# Elastic Compliance Matrix: (Units=1/GPa)
#
#
# Indices 1 2 3 4 5 6 
#
# 1 0.016198 -0.020616 -0.005033 0.000000 0.001063 0.000000
# 2 -0.020616 0.068472 -0.001729 0.000000 -0.002552 0.000000
# 3 -0.005033 -0.001729 0.011428 0.000000 -0.000421 0.000000
# 4 0.000000 0.000000 0.000000 0.027035 0.000000 0.000201
# 5 0.001063 -0.002552 -0.000421 0.000000 0.027737 0.000000
# 6 0.000000 0.000000 0.000000 0.000201 0.000000 0.029235
#
#
# Mechanical properties :
#
#
# Convention : Reuss Voigt Hill
#
# Bulk Modulus (GPa) = 24.18841 61.40602 42.79722
# Shear Modulus (GPa) = 20.10925 31.66903 25.88914
#
# Velocity S-wave (km/s) = 3.13716 3.93691 3.55956
# Velocity P-wave (km/s) = 4.99604 7.12170 6.15139
#
# Compressibility (1/GPa) = 0.04134211
#
# Stress axis : x y z
#
# Youngs Moduli (GPa) = 61.73612 14.60451 87.50299
#
# Poissons Ratio (x) = 0.30108 0.44040
# Poissons Ratio (y) = 1.27273 0.15132
# Poissons Ratio (z) = 0.31072 0.02526
#
# Static dielectric constant tensor:
#      x y z
#    x 3.155680 0.000000 0.375840 
#    y 0.000000 3.962610 0.000000 
#    z 0.375840 0.000000 3.660850 
# 
# 
# High freq. dielectric constant tensor:
#      x y z
#    x 1.814130 0.000000 0.002980 
#    y 0.000000 1.794150 0.000000 
#    z 0.002980 0.000000 1.806820 
# 
# From -- ./inp_files/249959.got.cif
#   From: 2010.06.25/outbox.cif.g09.slc.cpg/sg12_125_cif.got.tgz:249959.got - 2010.06.28 00:19:55.
