data_PCOD8106734
_publ_section_title
;
Structure prediction by ZEFSAII (Michael W. Deem and Ramdas Pophale) SiO2 
 PCOD8106734
Probable space group: C 2/M
;
_chemical_formula_sum "Si O2"
_cell_formula_units_Z 56
_cell_length_a 19.538804
_cell_length_b 8.925100
_cell_length_c 20.932896
_cell_angle_alpha 90.000000
_cell_angle_beta 55.468365
_cell_angle_gamma 90.000000
_cell_volume 3007.247677
_symmetry_space_group_name_H-M "C 2/M"
_symmetry_group_IT_number 12
_symmetry_cell_setting 'monoclinic'
loop_
_space_group_symop_operation_xyz
x,y,z
-x,y,-z
-x,-y,-z
x,-y,z
1/2+x,1/2+y,z
1/2-x,1/2+y,-z
1/2-x,1/2-y,-z
1/2+x,1/2-y,z
loop_
_atom_site_type_symbol
_atom_site_label
_atom_site_fract_x
_atom_site_fract_y
_atom_site_fract_z
Si Si1 0.161510 0.823259 0.558191
Si Si2 0.065094 0.324784 0.154362
Si Si3 0.383785 0.172832 0.288856
Si Si4 0.696386 0.322960 0.178119
Si Si5 0.314246 0.174425 0.011608
Si Si6 0.591792 0.826378 0.476048
Si Si7 0.786820 0.174215 0.687029
O O1 0.250000 0.750000 0.500000
O O2 0.126173 0.778863 0.645232
O O3 0.098453 0.765859 0.537823
O O4 0.170901 0.000000 0.548162
O O5 0.076557 0.500000 0.160863
O O6 0.118846 0.244311 0.180654
O O7 0.095002 0.282182 0.065457
O O8 0.969036 0.278387 0.209323
O O9 0.309808 0.199025 0.278030
O O10 0.386144 0.000000 0.310321
O O11 0.684698 0.500000 0.184689
O O12 0.697379 0.263538 0.250036
O O13 0.786704 0.278564 0.098200
O O14 0.300999 0.000000 0.011902
O O15 0.250000 0.250000 0.000000
O O16 0.500000 0.797650 0.500000
O O17 0.658004 0.770365 0.389763
O O18 0.609577 0.000000 0.480426
O O19 0.811167 0.000000 0.667311
#
# Coordination Sequence:
#
# PCOD8106734 Si02
#       7
#     8   8   8   8   8   8   8
#     4  12  24  40  62  84 109 145 186 225 273 328
#     4   9  18  32  53  79 106 141 182 224 272 320
#     4  10  21  37  55  78 110 146 184 225 269 324
#     4   9  18  32  52  79 108 140 181 226 274 322
#     4   8  14  28  49  74 105 138 176 222 268 320
#     4  11  25  42  60  83 111 143 183 229 275 325
#     4  10  21  37  55  77 109 147 181 222 275 326
#
# _framework density 18.621677999999999
#
# number of rings (size 3 to 8) (size 9 to 14) (size 15 to 20)
#    0.000    2.143    1.429    1.714    2.000    2.286 
#    0.000    0.714    0.000    4.286    0.000    0.000 
#    0.000   13.714    0.000    0.000    0.000    0.000 
#
# Total GULP energy -346998.564099 kJ/mol
# GULP energy per Si atom -12392.805861 kJ/mol
# Density = 1.857929 g / cm^3
# Si number density = 18.621678 Si / 1000 Ang^3
#
#
#
# Elastic Constant Matrix: (Units=GPa)
#
#
# Indices 1 2 3 4 5 6 
#
# 1 83.4871 29.6508 30.6088 -0.0001 -10.5265 -0.0002
# 2 29.6508 59.5120 12.4005 0.0000 -6.3532 -0.0005
# 3 30.6088 12.4005 62.2662 0.0000 -19.9531 0.0000
# 4 -0.0001 0.0000 0.0000 24.3416 0.0000 1.5528
# 5 -10.5265 -6.3532 -19.9531 0.0000 33.1462 0.0000
# 6 -0.0002 -0.0005 0.0000 1.5528 0.0000 24.0621
#
#
#
# Elastic Compliance Matrix: (Units=1/GPa)
#
#
# Indices 1 2 3 4 5 6 
#
# 1 0.017033 -0.007040 -0.007025 0.000000 -0.000169 0.000000
# 2 -0.007040 0.020506 -0.000099 0.000000 0.001635 0.000000
# 3 -0.007025 -0.000099 0.023308 0.000000 0.011781 0.000000
# 4 0.000000 0.000000 0.000000 0.041252 0.000000 -0.002662
# 5 -0.000169 0.001635 0.011781 0.000000 0.037521 0.000000
# 6 0.000000 0.000000 0.000000 -0.002662 0.000000 0.041731
#
#
# Mechanical properties :
#
#
# Convention : Reuss Voigt Hill
#
# Bulk Modulus (GPa) = 30.75183 38.95394 34.85288
# Shear Modulus (GPa) = 22.67379 25.15033 23.91206
#
# Velocity S-wave (km/s) = 3.49320 3.67903 3.58732
# Velocity P-wave (km/s) = 5.72886 6.24588 5.99295
#
# Compressibility (1/GPa) = 0.03251839
#
# Stress axis : x y z
#
# Youngs Moduli (GPa) = 58.71113 48.76554 42.90315
#
# Poissons Ratio (x) = 0.34333 0.30139
# Poissons Ratio (y) = 0.41335 0.00425
# Poissons Ratio (z) = 0.41244 0.00483
#
# Static dielectric constant tensor:
#      x y z
#    x 3.278250 0.000000 0.219220 
#    y 0.000000 3.359020 0.000000 
#    z 0.219220 0.000000 3.604520 
# 
# 
# High freq. dielectric constant tensor:
#      x y z
#    x 1.705620 0.000000 -0.006070 
#    y 0.000000 1.719030 0.000000 
#    z -0.006070 0.000000 1.741930 
# 
# From -- ./inp_files/275142.got.cif
#   From: 2010.06.25/outbox.cif.g09.slc.cpg/sg12_138_cif.got.tgz:275142.got - 2010.06.28 00:19:55.
