data_PCOD8106230
_publ_section_title
;
Structure prediction by ZEFSAII (Michael W. Deem and Ramdas Pophale) SiO2 
 PCOD8106230
Probable space group: C 2/M
;
_chemical_formula_sum "Si O2"
_cell_formula_units_Z 40
_cell_length_a 24.783171
_cell_length_b 9.001985
_cell_length_c 17.198652
_cell_angle_alpha 90.000000
_cell_angle_beta 147.069445
_cell_angle_gamma 90.000000
_cell_volume 2085.867392
_symmetry_space_group_name_H-M "C 2/M"
_symmetry_group_IT_number 12
_symmetry_cell_setting 'monoclinic'
loop_
_space_group_symop_operation_xyz
x,y,z
-x,y,-z
-x,-y,-z
x,-y,z
1/2+x,1/2+y,z
1/2-x,1/2+y,-z
1/2-x,1/2-y,-z
1/2+x,1/2-y,z
loop_
_atom_site_type_symbol
_atom_site_label
_atom_site_fract_x
_atom_site_fract_y
_atom_site_fract_z
Si Si1 0.395576 0.667635 0.832711
Si Si2 0.683189 0.176915 0.853241
Si Si3 0.040475 0.324010 0.398339
Si Si4 0.714261 0.823602 0.717247
Si Si5 0.855682 0.324894 0.632468
O O1 0.366154 0.500000 0.771445
O O2 0.310827 0.733100 0.787228
O O3 0.409356 0.772424 0.775355
O O4 0.500000 0.667724 0.000000
O O5 0.570559 0.236695 0.724654
O O6 0.721046 0.231545 0.814447
O O7 0.688901 0.000000 0.869253
O O8 0.750000 0.250000 0.000000
O O9 0.039242 0.500000 0.402365
O O10 0.114528 0.261690 0.554768
O O11 0.078812 0.270666 0.360860
O O12 0.711426 0.000000 0.713558
O O13 0.842256 0.500000 0.615956
O O14 0.750000 0.250000 0.500000
#
# Coordination Sequence:
#
# PCOD8106230 Si02
#       5
#     8   8   8   8   8
#     4  10  21  36  56  83 115 147 184 229 276 329
#     4  10  21  36  57  82 107 140 180 226 277 324
#     4   9  18  34  57  81 106 140 184 227 265 321
#     4   9  17  34  57  79 104 141 186 223 263 322
#     4  11  21  36  58  84 114 146 184 229 277 330
#
# _framework density 19.176674999999999
#
# number of rings (size 3 to 8) (size 9 to 14) (size 15 to 20)
#    0.000    2.200    2.000    1.200    2.800    2.800 
#    0.000    2.000    0.000    1.200    0.000    0.000 
#    0.000    0.000    0.000    0.000    0.000    0.000 
#
# Total GULP energy -247977.669983 kJ/mol
# GULP energy per Si atom -12398.883499 kJ/mol
# Density = 1.913303 g / cm^3
# Si number density = 19.176675 Si / 1000 Ang^3
#
#
#
# Elastic Constant Matrix: (Units=GPa)
#
#
# Indices 1 2 3 4 5 6 
#
# 1 148.1849 24.6630 75.0550 0.0000 -18.6537 0.0000
# 2 24.6630 32.9299 21.9499 0.0000 -8.5703 0.0000
# 3 75.0550 21.9499 139.0872 0.0000 -8.0537 0.0000
# 4 0.0000 0.0000 0.0000 28.1280 0.0000 -6.0575
# 5 -18.6537 -8.5703 -8.0537 0.0000 40.4082 0.0000
# 6 0.0000 0.0000 0.0000 -6.0575 0.0000 24.0961
#
#
#
# Elastic Compliance Matrix: (Units=1/GPa)
#
#
# Indices 1 2 3 4 5 6 
#
# 1 0.010116 -0.003669 -0.004709 0.000000 0.002953 0.000000
# 2 -0.003669 0.036877 -0.003526 0.000000 0.005425 0.000000
# 3 -0.004709 -0.003526 0.010236 0.000000 -0.000881 0.000000
# 4 0.000000 0.000000 0.000000 0.037587 0.000000 0.009449
# 5 0.002953 0.005425 -0.000881 0.000000 0.027086 0.000000
# 6 0.000000 0.000000 0.000000 0.009449 0.000000 0.043876
#
#
# Mechanical properties :
#
#
# Convention : Reuss Voigt Hill
#
# Bulk Modulus (GPa) = 29.92011 62.61531 46.26771
# Shear Modulus (GPa) = 24.90973 31.76206 28.33589
#
# Velocity S-wave (km/s) = 3.60802 4.07416 3.84816
# Velocity P-wave (km/s) = 5.74398 7.40638 6.62751
#
# Compressibility (1/GPa) = 0.03342234
#
# Stress axis : x y z
#
# Youngs Moduli (GPa) = 98.85716 27.11684 97.69430
#
# Poissons Ratio (x) = 0.09949 0.46001
# Poissons Ratio (y) = 0.36270 0.34445
# Poissons Ratio (z) = 0.46548 0.09561
#
# Static dielectric constant tensor:
#      x y z
#    x 3.777420 0.000000 -0.047170 
#    y 0.000000 3.318660 0.000000 
#    z -0.047170 0.000000 3.681300 
# 
# 
# High freq. dielectric constant tensor:
#      x y z
#    x 1.763480 0.000000 -0.001570 
#    y 0.000000 1.696250 0.000000 
#    z -0.001570 0.000000 1.758350 
# 
# From -- ./inp_files/153882.got.cif
#   From: 2010.06.25/outbox.cif.g09.slc.cpg/sg12_77_cif.got.tgz:153882.got - 2010.06.28 00:19:55.
