data_PCOD8106304
_publ_section_title
;
Structure prediction by ZEFSAII (Michael W. Deem and Ramdas Pophale) SiO2 
 PCOD8106304
Probable space group: C 2/M
;
_chemical_formula_sum "Si O2"
_cell_formula_units_Z 56
_cell_length_a 9.810109
_cell_length_b 9.838176
_cell_length_c 35.506194
_cell_angle_alpha 90.000000
_cell_angle_beta 57.464189
_cell_angle_gamma 90.000000
_cell_volume 2889.007615
_symmetry_space_group_name_H-M "C 2/M"
_symmetry_group_IT_number 12
_symmetry_cell_setting 'monoclinic'
loop_
_space_group_symop_operation_xyz
x,y,z
-x,y,-z
-x,-y,-z
x,-y,z
1/2+x,1/2+y,z
1/2-x,1/2+y,-z
1/2-x,1/2-y,-z
1/2+x,1/2-y,z
loop_
_atom_site_type_symbol
_atom_site_label
_atom_site_fract_x
_atom_site_fract_y
_atom_site_fract_z
Si Si1 0.523820 0.500000 0.057840
Si Si2 0.057315 0.343746 0.594330
Si Si3 0.555762 0.657619 0.740393
Si Si4 0.031113 0.732818 0.104773
Si Si5 0.171520 0.844246 0.158000
Si Si6 0.264302 0.000000 0.958069
Si Si7 0.425524 0.156006 0.695706
Si Si8 0.638639 0.843684 0.449985
O O1 0.508615 0.371930 0.086627
O O2 0.379543 0.500000 0.050019
O O3 0.695443 0.500000 0.010699
O O4 0.114924 0.500000 0.584002
O O5 0.209703 0.249927 0.563470
O O6 0.976326 0.307280 0.645922
O O7 0.921884 0.314781 0.583180
O O8 0.530153 0.500000 0.733289
O O9 0.433724 0.705444 0.791065
O O10 0.525489 0.747211 0.708194
O O11 0.735542 0.683548 0.728833
O O12 0.131072 0.751310 0.128220
O O13 0.126218 0.632555 0.063026
O O14 0.858199 0.670899 0.141193
O O15 0.129980 0.000000 0.154433
O O16 0.467131 0.000000 0.699324
O O17 0.500000 0.804907 0.500000
O O18 0.691788 0.000000 0.447069
#
# Coordination Sequence:
#
# PCOD8106304 Si02
#       8
#     4   8   8   8   8   4   8   8
#     4  11  24  41  63  89 121 159 193 237 295 339
#     4  10  21  36  57  83 116 154 190 244 291 346
#     4  10  22  40  60  85 115 154 188 242 287 351
#     4  12  22  42  62  89 118 157 191 241 285 347
#     4  11  23  39  62  88 120 149 195 235 294 343
#     4  11  24  41  61  93 123 151 197 243 283 341
#     4  10  21  39  58  85 117 148 196 238 294 345
#     4  10  21  37  57  85 117 154 199 241 289 344
#
# _framework density 19.383818000000002
#
# number of rings (size 3 to 8) (size 9 to 14) (size 15 to 20)
#    0.000    1.429    2.857    2.571    0.000    3.143 
#    2.571    0.714    0.000    0.000    0.000    0.000 
#    0.000    0.000    0.000    0.000    0.000    0.000 
#
# Total GULP energy -347378.454274 kJ/mol
# GULP energy per Si atom -12406.373367 kJ/mol
# Density = 1.933970 g / cm^3
# Si number density = 19.383818 Si / 1000 Ang^3
#
#
#
# Elastic Constant Matrix: (Units=GPa)
#
#
# Indices 1 2 3 4 5 6 
#
# 1 52.7219 14.6449 2.8834 0.0000 -6.3904 0.0000
# 2 14.6449 68.9889 21.3000 0.0000 -2.1469 0.0000
# 3 2.8834 21.3000 75.9848 0.0000 -5.7414 0.0000
# 4 0.0000 0.0000 0.0000 -45.7013 0.0000 -68.6881
# 5 -6.3904 -2.1469 -5.7414 0.0000 37.1261 0.0000
# 6 0.0000 0.0000 0.0000 -68.6881 0.0000 -39.6940
#
#
#
# Elastic Compliance Matrix: (Units=1/GPa)
#
#
# Indices 1 2 3 4 5 6 
#
# 1 0.020587 -0.004491 0.000734 0.000000 0.003397 0.000000
# 2 -0.004491 0.016850 -0.004591 0.000000 -0.000509 0.000000
# 3 0.000734 -0.004591 0.014580 0.000000 0.002116 0.000000
# 4 0.000000 0.000000 0.000000 0.013669 0.000000 -0.023653
# 5 0.003397 -0.000509 0.002116 0.000000 0.027818 0.000000
# 6 0.000000 0.000000 0.000000 -0.023653 0.000000 0.015737
#
#
# Mechanical properties :
#
#
# Convention : Reuss Voigt Hill
#
# Bulk Modulus (GPa) = 28.31245 30.59468 29.45357
# Shear Modulus (GPa) = 36.30820 0.93732 18.62276
#
# Velocity S-wave (km/s) = 4.33265 0.69614 3.10294
# Velocity P-wave (km/s) = 6.29818 4.05759 5.29769
#
# Compressibility (1/GPa) = 0.03532016
#
# Stress axis : x y z
#
# Youngs Moduli (GPa) = 48.57523 59.34643 68.58906
#
# Poissons Ratio (x) = 0.26653 -0.05038
# Poissons Ratio (y) = 0.21816 0.31492
# Poissons Ratio (z) = -0.03568 0.27249
#
# Static dielectric constant tensor:
#      x y z
#    x 3.466590 0.000000 -0.043370 
#    y 0.000000 3.512820 0.000000 
#    z -0.043370 0.000000 3.667250 
# 
# 
# High freq. dielectric constant tensor:
#      x y z
#    x 1.755640 0.000000 -0.004070 
#    y 0.000000 1.757230 0.000000 
#    z -0.004070 0.000000 1.769020 
# 
# From -- ./inp_files/372104.got.cif
#   From: 2010.06.25/outbox.cif.g09.slc.cpg/sg12_187_cif.got.tgz:372104.got - 2010.06.28 00:19:55.
