data_PCOD8106050
_publ_section_title
;
Structure prediction by ZEFSAII (Michael W. Deem and Ramdas Pophale) SiO2 
 PCOD8106050
Probable space group: C 2/M
;
_chemical_formula_sum "Si O2"
_cell_formula_units_Z 36
_cell_length_a 5.045978
_cell_length_b 25.376357
_cell_length_c 13.393106
_cell_angle_alpha 90.000000
_cell_angle_beta 100.272518
_cell_angle_gamma 90.000000
_cell_volume 1687.477905
_symmetry_space_group_name_H-M "C 2/M"
_symmetry_group_IT_number 12
_symmetry_cell_setting 'monoclinic'
loop_
_space_group_symop_operation_xyz
x,y,z
-x,y,-z
-x,-y,-z
x,-y,z
1/2+x,1/2+y,z
1/2-x,1/2+y,-z
1/2-x,1/2-y,-z
1/2+x,1/2-y,z
loop_
_atom_site_type_symbol
_atom_site_label
_atom_site_fract_x
_atom_site_fract_y
_atom_site_fract_z
Si Si1 0.485554 0.604303 0.784560
Si Si2 0.219133 0.062272 0.434787
Si Si3 0.407956 0.286427 0.280302
Si Si4 0.034243 0.439059 0.888344
Si Si5 0.500000 0.286098 0.500000
O O1 0.326180 0.590019 0.673549
O O2 0.574515 0.665693 0.796394
O O3 0.281257 0.594418 0.861509
O O4 0.755509 0.569696 0.810670
O O5 0.500000 0.081627 0.500000
O O6 0.000000 0.080759 0.500000
O O7 0.214946 0.000000 0.416567
O O8 0.616095 0.240552 0.263829
O O9 0.463046 0.316017 0.391868
O O10 0.114798 0.500000 0.884971
O O11 0.000000 0.421152 0.000000
O O12 0.250000 0.250000 0.500000
#
# Coordination Sequence:
#
# PCOD8106050 Si02
#       5
#     8   8   8   8   4
#     4  12  23  39  67  91 122 168 206 253 311 377
#     4  10  21  36  54  84 125 161 196 238 293 373
#     4  10  21  38  58  87 123 163 208 258 297 349
#     4  11  24  43  67  95 122 153 205 267 319 371
#     4   8  16  32  52  76 111 154 201 246 286 328
#
# _framework density 21.33361
#
# number of rings (size 3 to 8) (size 9 to 14) (size 15 to 20)
#    0.000    1.556    0.000    5.333    1.556    3.556 
#    8.000    0.000    0.000   13.333    0.000    0.000 
#    0.000    0.000    0.000    0.000    0.000    0.000 
#
# Total GULP energy -223146.617287 kJ/mol
# GULP energy per Si atom -12397.034294 kJ/mol
# Density = 2.128505 g / cm^3
# Si number density = 21.333610 Si / 1000 Ang^3
#
#
#
# Elastic Constant Matrix: (Units=GPa)
#
#
# Indices 1 2 3 4 5 6 
#
# 1 126.8179 16.3509 19.6381 0.0000 -15.4429 0.0000
# 2 16.3509 65.8368 40.5662 0.0000 -18.3029 0.0000
# 3 19.6381 40.5662 69.9092 0.0000 -14.3845 0.0000
# 4 0.0000 0.0000 0.0000 24.9543 0.0000 -12.3471
# 5 -15.4429 -18.3029 -14.3845 0.0000 40.4588 0.0000
# 6 0.0000 0.0000 0.0000 -12.3471 0.0000 20.6051
#
#
#
# Elastic Compliance Matrix: (Units=1/GPa)
#
#
# Indices 1 2 3 4 5 6 
#
# 1 0.008493 -0.000413 -0.001637 0.000000 0.002473 0.000000
# 2 -0.000413 0.025238 -0.013176 0.000000 0.006575 0.000000
# 3 -0.001637 -0.013176 0.022717 0.000000 0.001491 0.000000
# 4 0.000000 0.000000 0.000000 0.056962 0.000000 0.034133
# 5 0.002473 0.006575 0.001491 0.000000 0.029165 0.000000
# 6 0.000000 0.000000 0.000000 0.034133 0.000000 0.068985
#
#
# Mechanical properties :
#
#
# Convention : Reuss Voigt Hill
#
# Bulk Modulus (GPa) = 38.46854 46.18605 42.32729
# Shear Modulus (GPa) = 19.94597 29.60423 24.77510
#
# Velocity S-wave (km/s) = 3.06102 3.72920 3.41151
# Velocity P-wave (km/s) = 5.52849 6.34342 5.94992
#
# Compressibility (1/GPa) = 0.02599527
#
# Stress axis : x y z
#
# Youngs Moduli (GPa) = 117.74058 39.62259 44.02059
#
# Poissons Ratio (x) = 0.01636 0.07208
# Poissons Ratio (y) = 0.04863 0.58002
# Poissons Ratio (z) = 0.19278 0.52207
#
# Static dielectric constant tensor:
#      x y z
#    x 4.040090 0.000000 -0.130430 
#    y 0.000000 3.594230 0.000000 
#    z -0.130430 0.000000 4.029080 
# 
# 
# High freq. dielectric constant tensor:
#      x y z
#    x 1.858260 0.000000 -0.009800 
#    y 0.000000 1.826470 0.000000 
#    z -0.009800 0.000000 1.825470 
# 
# From -- ./inp_files/115042.got.cif
#   From: 2010.06.25/outbox.cif.g09.slc.cpg/sg12_58_cif.got.tgz:115042.got - 2010.06.28 00:19:55.
