data_PCOD8106159
_publ_section_title
;
Structure prediction by ZEFSAII (Michael W. Deem and Ramdas Pophale) SiO2 
 PCOD8106159
Probable space group: C 2/M
;
_chemical_formula_sum "Si O2"
_cell_formula_units_Z 48
_cell_length_a 23.917501
_cell_length_b 9.002084
_cell_length_c 11.852469
_cell_angle_alpha 90.000000
_cell_angle_beta 88.820399
_cell_angle_gamma 90.000000
_cell_volume 2551.382914
_symmetry_space_group_name_H-M "C 2/M"
_symmetry_group_IT_number 12
_symmetry_cell_setting 'monoclinic'
loop_
_space_group_symop_operation_xyz
x,y,z
-x,y,-z
-x,-y,-z
x,-y,z
1/2+x,1/2+y,z
1/2-x,1/2+y,-z
1/2-x,1/2-y,-z
1/2+x,1/2-y,z
loop_
_atom_site_type_symbol
_atom_site_label
_atom_site_fract_x
_atom_site_fract_y
_atom_site_fract_z
Si Si1 0.915183 0.175438 0.463406
Si Si2 0.255463 0.327955 0.167922
Si Si3 0.707244 0.675793 0.585806
Si Si4 0.479712 0.324213 0.679775
Si Si5 0.048411 0.325190 0.084645
Si Si6 0.336484 0.672835 0.960804
O O1 0.854335 0.241356 0.437830
O O2 0.933044 0.220886 0.589092
O O3 0.960199 0.231229 0.369333
O O4 0.914215 0.000000 0.454436
O O5 0.238347 0.500000 0.164901
O O6 0.276807 0.277738 0.288705
O O7 0.200602 0.233003 0.141222
O O8 0.305308 0.294131 0.079167
O O9 0.708937 0.500000 0.568939
O O10 0.750000 0.750000 0.500000
O O11 0.479087 0.500000 0.703037
O O12 0.466389 0.238003 0.793203
O O13 0.056109 0.500000 0.094040
O O14 0.105037 0.255796 0.034953
O O15 0.000000 0.280441 0.000000
O O16 0.347426 0.500000 0.940070
#
# Coordination Sequence:
#
# PCOD8106159 Si02
#       6
#     8   8   8   8   8   8
#     4   8  17  35  59  85 113 143 183 235 282 323
#     4   9  20  38  59  84 116 151 186 233 288 333
#     4  10  21  36  55  83 117 150 186 229 276 331
#     4   9  18  36  62  86 108 144 190 234 279 332
#     4  11  25  40  55  82 120 152 182 232 287 334
#     4  10  21  38  62  86 109 147 194 236 278 335
#
# _framework density 18.813326
#
# number of rings (size 3 to 8) (size 9 to 14) (size 15 to 20)
#    0.000    2.500    0.000    2.000    4.667    2.667 
#    0.000    2.500    0.000    0.000    0.000    0.000 
#    0.000    0.000    0.000    0.000    0.000    0.000 
#
# Total GULP energy -297631.432942 kJ/mol
# GULP energy per Si atom -12401.309706 kJ/mol
# Density = 1.877051 g / cm^3
# Si number density = 18.813326 Si / 1000 Ang^3
#
#
#
# Elastic Constant Matrix: (Units=GPa)
#
#
# Indices 1 2 3 4 5 6 
#
# 1 167.6801 55.9807 79.5328 0.0000 14.8536 0.0000
# 2 55.9807 59.3824 47.6056 0.0000 6.1412 0.0000
# 3 79.5328 47.6056 136.5502 0.0000 12.5627 0.0000
# 4 0.0000 0.0000 0.0000 26.7692 0.0000 -2.3079
# 5 14.8536 6.1412 12.5627 0.0000 25.9861 0.0000
# 6 0.0000 0.0000 0.0000 -2.3079 0.0000 29.7569
#
#
#
# Elastic Compliance Matrix: (Units=1/GPa)
#
#
# Indices 1 2 3 4 5 6 
#
# 1 0.009895 -0.006429 -0.003288 0.000000 -0.002547 0.000000
# 2 -0.006429 0.027618 -0.005883 0.000000 -0.000008 0.000000
# 3 -0.003288 -0.005883 0.011500 0.000000 -0.002290 0.000000
# 4 0.000000 0.000000 0.000000 0.037608 0.000000 0.002917
# 5 -0.002547 -0.000008 -0.002290 0.000000 0.041047 0.000000
# 6 0.000000 0.000000 0.000000 0.002917 0.000000 0.033832
#
#
# Mechanical properties :
#
#
# Convention : Reuss Voigt Hill
#
# Bulk Modulus (GPa) = 56.13811 81.09454 68.61633
# Shear Modulus (GPa) = 25.17145 28.53536 26.85340
#
# Velocity S-wave (km/s) = 3.66178 3.89879 3.78214
# Velocity P-wave (km/s) = 6.91249 7.96654 7.45816
#
# Compressibility (1/GPa) = 0.01781321
#
# Stress axis : x y z
#
# Youngs Moduli (GPa) = 101.05932 36.20797 86.95755
#
# Poissons Ratio (x) = 0.23279 0.28588
# Poissons Ratio (y) = 0.64974 0.51158
# Poissons Ratio (z) = 0.33224 0.21302
#
# Static dielectric constant tensor:
#      x y z
#    x 3.875530 0.000000 0.141080 
#    y 0.000000 3.268650 0.000000 
#    z 0.141080 0.000000 3.514520 
# 
# 
# High freq. dielectric constant tensor:
#      x y z
#    x 1.743870 0.000000 0.001480 
#    y 0.000000 1.711630 0.000000 
#    z 0.001480 0.000000 1.739180 
# 
# From -- ./inp_files/172245.got.cif
#   From: 2010.06.25/outbox.cif.g09.slc.cpg/sg12_87_cif.got.tgz:172245.got - 2010.06.28 00:19:55.
