data_PCOD8106578
_publ_section_title
;
Structure prediction by ZEFSAII (Michael W. Deem and Ramdas Pophale) SiO2 
 PCOD8106578
Probable space group: C 2/M
;
_chemical_formula_sum "Si O2"
_cell_formula_units_Z 40
_cell_length_a 27.070122
_cell_length_b 8.868454
_cell_length_c 21.700541
_cell_angle_alpha 90.000000
_cell_angle_beta 21.161544
_cell_angle_gamma 90.000000
_cell_volume 1880.677650
_symmetry_space_group_name_H-M "C 2/M"
_symmetry_group_IT_number 12
_symmetry_cell_setting 'monoclinic'
loop_
_space_group_symop_operation_xyz
x,y,z
-x,y,-z
-x,-y,-z
x,-y,z
1/2+x,1/2+y,z
1/2-x,1/2+y,-z
1/2-x,1/2-y,-z
1/2+x,1/2-y,z
loop_
_atom_site_type_symbol
_atom_site_label
_atom_site_fract_x
_atom_site_fract_y
_atom_site_fract_z
Si Si1 0.259365 0.327981 0.896266
Si Si2 0.340398 0.175157 0.683169
Si Si3 0.641215 0.675547 0.805286
Si Si4 0.961720 0.671047 0.750045
Si Si5 0.234766 0.824363 0.451836
O O1 0.312500 0.500000 0.839610
O O2 0.254817 0.274732 0.831137
O O3 0.356672 0.212955 0.818858
O O4 0.108001 0.315775 0.101554
O O5 0.500000 0.222888 0.500000
O O6 0.272791 0.209868 0.695598
O O7 0.323386 0.000000 0.719868
O O8 0.631726 0.500000 0.800808
O O9 0.654977 0.763126 0.725041
O O10 0.500000 0.731669 0.000000
O O11 0.013161 0.500000 0.678553
O O12 0.084966 0.786840 0.600818
O O13 0.250000 0.750000 0.500000
O O14 0.257041 0.000000 0.433613
#
# Coordination Sequence:
#
# PCOD8106578 Si02
#       5
#     8   8   8   8   8
#     4  10  21  36  60  93 125 161 206 261 318 376
#     4  10  21  37  60  88 123 167 210 257 317 384
#     4  10  23  43  65  94 130 170 214 264 324 389
#     4  10  21  39  61  90 127 164 208 261 319 379
#     4  12  26  43  66  93 126 169 216 266 320 380
#
# _framework density 21.268930000000001
#
# number of rings (size 3 to 8) (size 9 to 14) (size 15 to 20)
#    0.000    1.600    0.000    4.200    2.800    5.600 
#    0.000    0.000    0.000    0.000    0.000    0.000 
#    0.000    0.000    0.000    0.000    0.000    0.000 
#
# Total GULP energy -248080.717813 kJ/mol
# GULP energy per Si atom -12404.035891 kJ/mol
# Density = 2.122052 g / cm^3
# Si number density = 21.268930 Si / 1000 Ang^3
#
#
#
# Elastic Constant Matrix: (Units=GPa)
#
#
# Indices 1 2 3 4 5 6 
#
# 1 97.6766 50.5073 48.0950 -0.0005 23.6878 -0.0001
# 2 50.5073 112.2161 52.8505 -0.0028 23.6963 0.0010
# 3 48.0950 52.8505 112.7638 -0.0021 14.1044 0.0004
# 4 -0.0005 -0.0028 -0.0021 32.7302 0.0003 8.4456
# 5 23.6878 23.6963 14.1044 0.0003 40.4327 0.0001
# 6 -0.0001 0.0010 0.0004 8.4456 0.0001 33.8231
#
#
#
# Elastic Compliance Matrix: (Units=1/GPa)
#
#
# Indices 1 2 3 4 5 6 
#
# 1 0.015625 -0.003942 -0.004141 0.000000 -0.005399 0.000000
# 2 -0.003942 0.013511 -0.004130 0.000001 -0.004168 -0.000001
# 3 -0.004141 -0.004130 0.012509 0.000000 0.000483 0.000000
# 4 0.000000 0.000001 0.000000 0.032657 -0.000001 -0.008154
# 5 -0.005399 -0.004168 0.000483 -0.000001 0.030170 0.000000
# 6 0.000000 -0.000001 0.000000 -0.008154 0.000000 0.031602
#
#
# Mechanical properties :
#
#
# Convention : Reuss Voigt Hill
#
# Bulk Modulus (GPa) = 58.07479 69.50690 63.79085
# Shear Modulus (GPa) = 30.07722 32.81079 31.44400
#
# Velocity S-wave (km/s) = 3.76458 3.93194 3.84917
# Velocity P-wave (km/s) = 6.80150 7.30510 7.05779
#
# Compressibility (1/GPa) = 0.01721917
#
# Stress axis : x y z
#
# Youngs Moduli (GPa) = 64.00152 74.01521 79.93932
#
# Poissons Ratio (x) = 0.29177 0.33105
# Poissons Ratio (y) = 0.25229 0.33012
# Poissons Ratio (z) = 0.26505 0.30565
#
# Static dielectric constant tensor:
#      x y z
#    x 3.791810 0.000000 0.057830 
#    y 0.000000 3.798610 0.000010 
#    z 0.057830 0.000010 4.074480 
# 
# 
# High freq. dielectric constant tensor:
#      x y z
#    x 1.834080 0.000000 0.010500 
#    y 0.000000 1.830100 0.000000 
#    z 0.010500 0.000000 1.840070 
# 
# From -- ./inp_files/186195.got.cif
#   From: 2010.06.25/outbox.cif.g09.slc.cpg/sg12_94_cif.got.tgz:186195.got - 2010.06.28 00:19:55.
