data_PCOD8106457
_publ_section_title
;
Structure prediction by ZEFSAII (Michael W. Deem and Ramdas Pophale) SiO2 
 PCOD8106457
Probable space group: C 2/M
;
_chemical_formula_sum "Si O2"
_cell_formula_units_Z 64
_cell_length_a 19.809251
_cell_length_b 14.203277
_cell_length_c 26.562391
_cell_angle_alpha 90.000000
_cell_angle_beta 25.385728
_cell_angle_gamma 90.000000
_cell_volume 3203.963041
_symmetry_space_group_name_H-M "C 2/M"
_symmetry_group_IT_number 12
_symmetry_cell_setting 'monoclinic'
loop_
_space_group_symop_operation_xyz
x,y,z
-x,y,-z
-x,-y,-z
x,-y,z
1/2+x,1/2+y,z
1/2-x,1/2+y,-z
1/2-x,1/2-y,-z
1/2+x,1/2-y,z
loop_
_atom_site_type_symbol
_atom_site_label
_atom_site_fract_x
_atom_site_fract_y
_atom_site_fract_z
Si Si1 0.869521 0.731645 0.464834
Si Si2 0.518064 0.608253 0.429952
Si Si3 0.386648 0.610637 0.321825
Si Si4 0.922583 0.735391 0.760066
Si Si5 0.924926 0.891664 0.905336
Si Si6 0.065058 0.390765 0.154584
Si Si7 0.115919 0.607657 0.822969
Si Si8 0.943457 0.769312 0.986436
O O1 0.750000 0.750000 0.500000
O O2 0.791640 0.652662 0.553931
O O3 0.906503 0.825251 0.471898
O O4 0.027655 0.696005 0.329030
O O5 0.500000 0.636246 0.500000
O O6 0.465420 0.500000 0.456404
O O7 0.699644 0.623539 0.293800
O O8 0.383378 0.500000 0.335276
O O9 0.498563 0.661358 0.287144
O O10 0.462198 0.634151 0.216833
O O11 0.984851 0.666262 0.762042
O O12 0.739646 0.748556 0.887150
O O13 0.937004 0.000000 0.911356
O O14 0.742626 0.864873 0.016418
O O15 0.990898 0.836254 0.908693
O O16 0.052219 0.500000 0.177278
O O17 0.943723 0.361981 0.192518
O O18 0.067344 0.500000 0.864888
O O19 0.028625 0.669061 0.923575
O O20 0.000000 0.817735 0.000000
#
# Coordination Sequence:
#
# PCOD8106457 Si02
#       8
#     8   8   8   8   8   8   8   8
#     4  10  23  39  59  87 120 162 206 249 298 353
#     4  10  23  41  62  90 123 162 203 251 308 365
#     4  10  21  38  61  86 113 153 199 246 299 351
#     4  10  21  37  56  89 122 157 199 246 306 357
#     4   9  19  36  58  85 115 149 198 252 299 352
#     4   9  18  34  60  92 121 151 195 252 306 361
#     4  10  21  36  58  90 122 156 194 237 303 369
#     4  11  22  35  57  85 120 158 194 240 302 362
#
# _framework density 19.975262000000001
#
# number of rings (size 3 to 8) (size 9 to 14) (size 15 to 20)
#    0.000    2.125    0.000    2.250    5.250    6.500 
#    0.000    0.000    0.000    2.625    0.000    0.000 
#    0.000    0.000    0.000    0.000    0.000    0.000 
#
# Total GULP energy -396720.429945 kJ/mol
# GULP energy per Si atom -12397.513436 kJ/mol
# Density = 1.992980 g / cm^3
# Si number density = 19.975262 Si / 1000 Ang^3
#
#
#
# Elastic Constant Matrix: (Units=GPa)
#
#
# Indices 1 2 3 4 5 6 
#
# 1 99.1428 50.8497 32.1642 -0.0073 0.1417 0.0122
# 2 50.8497 91.6869 54.3855 0.0878 3.3080 -0.0191
# 3 32.1642 54.3855 114.4450 0.0303 18.5720 -0.0029
# 4 -0.0073 0.0878 0.0303 28.1125 0.0110 -4.9804
# 5 0.1417 3.3080 18.5720 0.0110 25.1226 -0.0062
# 6 0.0122 -0.0191 -0.0029 -4.9804 -0.0062 26.2566
#
#
#
# Elastic Compliance Matrix: (Units=1/GPa)
#
#
# Indices 1 2 3 4 5 6 
#
# 1 0.014146 -0.007526 -0.000622 0.000026 0.001371 -0.000007
# 2 -0.007526 0.019517 -0.007669 -0.000055 0.003142 0.000007
# 3 -0.000622 -0.007669 0.014082 0.000012 -0.009397 -0.000004
# 4 0.000026 -0.000055 0.000012 0.036808 -0.000016 0.006982
# 5 0.001371 0.003142 -0.009397 -0.000016 0.046330 0.000008
# 6 -0.000007 0.000007 -0.000004 0.006982 0.000008 0.039410
#
#
# Mechanical properties :
#
#
# Convention : Reuss Voigt Hill
#
# Bulk Modulus (GPa) = 62.07084 64.45261 63.26173
# Shear Modulus (GPa) = 24.11991 27.09002 25.60496
#
# Velocity S-wave (km/s) = 3.47866 3.68663 3.58415
# Velocity P-wave (km/s) = 6.87576 7.10337 6.99049
#
# Compressibility (1/GPa) = 0.01611062
#
# Stress axis : x y z
#
# Youngs Moduli (GPa) = 70.68942 51.23858 71.01335
#
# Poissons Ratio (x) = 0.38564 0.04414
# Poissons Ratio (y) = 0.53203 0.54461
# Poissons Ratio (z) = 0.04394 0.39295
#
# Static dielectric constant tensor:
#      x y z
#    x 3.628900 -0.000010 0.217740 
#    y -0.000010 3.648410 0.000070 
#    z 0.217740 0.000070 4.196640 
# 
# 
# High freq. dielectric constant tensor:
#      x y z
#    x 1.765700 0.000000 0.009570 
#    y 0.000000 1.773010 0.000000 
#    z 0.009570 0.000000 1.794910 
# 
# From -- ./inp_files/343994.got.cif
#   From: 2010.06.25/outbox.cif.g09.slc.cpg/sg12_172_cif.got.tgz:343994.got - 2010.06.28 00:19:55.
