data_PCOD8106302
_publ_section_title
;
Structure prediction by ZEFSAII (Michael W. Deem and Ramdas Pophale) SiO2 
 PCOD8106302
Probable space group: C 2/M
;
_chemical_formula_sum "Si O2"
_cell_formula_units_Z 56
_cell_length_a 19.863381
_cell_length_b 17.641979
_cell_length_c 8.645861
_cell_angle_alpha 90.000000
_cell_angle_beta 90.624381
_cell_angle_gamma 90.000000
_cell_volume 3029.583556
_symmetry_space_group_name_H-M "C 2/M"
_symmetry_group_IT_number 12
_symmetry_cell_setting 'monoclinic'
loop_
_space_group_symop_operation_xyz
x,y,z
-x,y,-z
-x,-y,-z
x,-y,z
1/2+x,1/2+y,z
1/2-x,1/2+y,-z
1/2-x,1/2-y,-z
1/2+x,1/2-y,z
loop_
_atom_site_type_symbol
_atom_site_label
_atom_site_fract_x
_atom_site_fract_y
_atom_site_fract_z
Si Si1 0.190291 0.587207 0.673203
Si Si2 0.309928 0.585668 0.458818
Si Si3 0.114962 0.202726 0.347172
Si Si4 0.520298 0.294850 0.830456
Si Si5 0.567806 0.178030 0.583583
Si Si6 0.361104 0.588909 0.131868
Si Si7 0.222424 0.183402 0.105138
O O1 0.194291 0.500000 0.725776
O O2 0.235532 0.603091 0.522136
O O3 0.113213 0.606592 0.631674
O O4 0.215387 0.640277 0.813647
O O5 0.330354 0.500000 0.491079
O O6 0.366987 0.630907 0.549664
O O7 0.312505 0.604079 0.277131
O O8 0.108386 0.273970 0.458899
O O9 0.173988 0.222889 0.228895
O O10 0.046072 0.179724 0.261986
O O11 0.555020 0.226564 0.738183
O O12 0.568462 0.367651 0.844592
O O13 0.500000 0.264751 0.000000
O O14 0.500000 0.147881 0.500000
O O15 0.376463 0.500000 0.107678
O O16 0.321243 0.620851 0.984838
O O17 0.250000 0.250000 0.000000
#
# Coordination Sequence:
#
# PCOD8106302 Si02
#       7
#     8   8   8   8   8   8   8
#     4  10  22  40  61  85 115 150 186 237 296 344
#     4   9  20  36  57  83 118 151 187 235 283 342
#     4  10  21  36  57  83 115 150 196 236 278 341
#     4  11  21  38  56  83 117 155 193 239 284 335
#     4  10  22  39  62  84 110 147 194 245 284 342
#     4  11  22  37  56  85 120 156 194 234 281 346
#     4  11  23  36  59  88 116 153 193 239 285 337
#
# _framework density 18.484387999999999
#
# number of rings (size 3 to 8) (size 9 to 14) (size 15 to 20)
#    0.000    1.714    2.857    1.286    2.000    2.857 
#    0.000    1.429    0.000    0.429    0.000    0.000 
#    0.000    0.000    0.000    0.000    0.000    0.000 
#
# Total GULP energy -347230.001700 kJ/mol
# GULP energy per Si atom -12401.071489 kJ/mol
# Density = 1.844232 g / cm^3
# Si number density = 18.484388 Si / 1000 Ang^3
#
#
#
# Elastic Constant Matrix: (Units=GPa)
#
#
# Indices 1 2 3 4 5 6 
#
# 1 105.3703 52.5941 36.6293 0.0000 9.6104 0.0000
# 2 52.5941 72.9730 41.1632 0.0000 -1.5140 0.0000
# 3 36.6293 41.1632 99.7364 0.0000 -4.7715 0.0000
# 4 0.0000 0.0000 0.0000 25.6006 0.0000 4.0517
# 5 9.6104 -1.5140 -4.7715 0.0000 23.3828 0.0000
# 6 0.0000 0.0000 0.0000 4.0517 0.0000 32.2057
#
#
#
# Elastic Compliance Matrix: (Units=1/GPa)
#
#
# Indices 1 2 3 4 5 6 
#
# 1 0.016247 -0.010813 -0.001876 0.000000 -0.007761 0.000000
# 2 -0.010813 0.025061 -0.006142 0.000000 0.004814 0.000000
# 3 -0.001876 -0.006142 0.013399 0.000000 0.003107 0.000000
# 4 0.000000 0.000000 0.000000 0.039855 0.000000 -0.005014
# 5 -0.007761 0.004814 0.003107 0.000000 0.046902 0.000000
# 6 0.000000 0.000000 0.000000 -0.005014 0.000000 0.031681
#
#
# Mechanical properties :
#
#
# Convention : Reuss Voigt Hill
#
# Bulk Modulus (GPa) = 58.66246 59.87253 59.26749
# Shear Modulus (GPa) = 23.09589 26.08401 24.58995
#
# Velocity S-wave (km/s) = 3.53863 3.76059 3.65130
# Velocity P-wave (km/s) = 6.96427 7.16360 7.06464
#
# Compressibility (1/GPa) = 0.01704668
#
# Stress axis : x y z
#
# Youngs Moduli (GPa) = 61.54869 39.90200 74.63375
#
# Poissons Ratio (x) = 0.43146 0.13998
# Poissons Ratio (y) = 0.66553 0.45839
# Poissons Ratio (z) = 0.11544 0.24507
#
# Static dielectric constant tensor:
#      x y z
#    x 3.438370 0.000000 -0.102880 
#    y 0.000000 3.174530 0.000000 
#    z -0.102880 0.000000 3.709460 
# 
# 
# High freq. dielectric constant tensor:
#      x y z
#    x 1.720680 0.000000 -0.002010 
#    y 0.000000 1.702130 0.000000 
#    z -0.002010 0.000000 1.731860 
# 
# From -- ./inp_files/86336.got.cif
#   From: 2010.06.25/outbox.cif.g09.slc.cpg/sg12_44_cif.got.tgz:86336.got - 2010.06.28 00:19:55.
