data_PCOD8106919
_publ_section_title
;
Structure prediction by ZEFSAII (Michael W. Deem and Ramdas Pophale) SiO2 
 PCOD8106919
Probable space group: C 2/M
;
_chemical_formula_sum "Si O2"
_cell_formula_units_Z 40
_cell_length_a 13.749186
_cell_length_b 13.832083
_cell_length_c 27.431393
_cell_angle_alpha 90.000000
_cell_angle_beta 156.115812
_cell_angle_gamma 90.000000
_cell_volume 2112.266426
_symmetry_space_group_name_H-M "C 2/M"
_symmetry_group_IT_number 12
_symmetry_cell_setting 'monoclinic'
loop_
_space_group_symop_operation_xyz
x,y,z
-x,y,-z
-x,-y,-z
x,-y,z
1/2+x,1/2+y,z
1/2-x,1/2+y,-z
1/2-x,1/2-y,-z
1/2+x,1/2-y,z
loop_
_atom_site_type_symbol
_atom_site_label
_atom_site_fract_x
_atom_site_fract_y
_atom_site_fract_z
Si Si1 0.765095 0.281316 0.641737
Si Si2 0.835393 0.287174 0.252715
Si Si3 0.832659 0.892528 0.737585
Si Si4 0.878873 0.891393 0.040416
Si Si5 0.158813 0.386925 0.225999
O O1 0.500000 0.273280 0.500000
O O2 0.854142 0.176726 0.701064
O O3 0.771091 0.362604 0.686403
O O4 0.941384 0.310547 0.679039
O O5 0.871617 0.350190 0.319065
O O6 0.587051 0.323004 0.112427
O O7 0.817822 0.174157 0.260373
O O8 0.083044 0.892761 0.883042
O O9 0.762533 0.000000 0.687823
O O10 0.908205 0.000000 0.032800
O O11 0.615950 0.851711 0.907400
O O12 0.196037 0.500000 0.232302
#
# Coordination Sequence:
#
# PCOD8106919 Si02
#       5
#     8   8   8   8   8
#     4  11  24  37  52  80 113 145 184 222 260 314
#     4   9  19  36  57  80 109 140 181 220 269 318
#     4   8  18  37  58  78 105 140 178 223 269 316
#     4   8  16  36  61  82 105 136 177 223 274 322
#     4  10  21  37  57  82 113 140 173 224 272 321
#
# _framework density 18.937004999999999
#
# number of rings (size 3 to 8) (size 9 to 14) (size 15 to 20)
#    1.200    1.600    0.000    0.600    0.000    7.200 
#    0.000    4.000    0.000    3.600    0.000    0.000 
#    0.000    0.000    0.000    0.000    0.000    0.000 
#
# Total GULP energy -247781.787613 kJ/mol
# GULP energy per Si atom -12389.089381 kJ/mol
# Density = 1.889390 g / cm^3
# Si number density = 18.937005 Si / 1000 Ang^3
#
#
#
# Elastic Constant Matrix: (Units=GPa)
#
#
# Indices 1 2 3 4 5 6 
#
# 1 17.7285 1.0201 -45.0940 0.0000 -2.2881 -0.0031
# 2 1.0201 82.5671 18.2572 0.0015 -2.7186 -0.0005
# 3 -45.0940 18.2572 -19.5103 0.0060 -8.2330 -0.0051
# 4 0.0000 0.0015 0.0060 14.3876 -0.0028 -8.0088
# 5 -2.2881 -2.7186 -8.2330 -0.0028 15.2391 -0.0020
# 6 -0.0031 -0.0005 -0.0051 -8.0088 -0.0020 16.5010
#
#
#
# Elastic Compliance Matrix: (Units=1/GPa)
#
#
# Indices 1 2 3 4 5 6 
#
# 1 0.010399 0.003530 -0.017636 0.000004 -0.007337 -0.000002
# 2 0.003530 0.011854 0.001481 0.000000 0.003445 0.000002
# 3 -0.017636 0.001481 -0.006598 -0.000003 -0.005948 -0.000007
# 4 0.000004 0.000000 -0.000003 0.095234 0.000022 0.046222
# 5 -0.007337 0.003445 -0.005948 0.000022 0.061920 0.000015
# 6 -0.000002 0.000002 -0.000007 0.046222 0.000015 0.083036
#
#
# Mechanical properties :
#
#
# Convention : Reuss Voigt Hill
#
# Bulk Modulus (GPa) = -104.21247 3.23909 -50.48669
# Shear Modulus (GPa) = 17.99234 16.33232 17.16233
#
# Velocity S-wave (km/s) = 3.08574 2.93994 3.01372
# Velocity P-wave (km/s) = 6.51574 3.63848 3.82206
#
# Compressibility (1/GPa) = -0.00959578
#
# Stress axis : x y z
#
# Youngs Moduli (GPa) = 96.16593 84.36184 -151.56083
#
# Poissons Ratio (x) = -0.29776 -2.67286
# Poissons Ratio (y) = -0.33942 0.22446
# Poissons Ratio (z) = 1.69594 -0.12494
#
# Static dielectric constant tensor:
#      x y z
#    x 3.058280 0.000000 -0.109920 
#    y 0.000000 3.503550 -0.000020 
#    z -0.109920 -0.000020 3.294420 
# 
# 
# High freq. dielectric constant tensor:
#      x y z
#    x 1.699590 0.000000 -0.008660 
#    y 0.000000 1.747290 0.000000 
#    z -0.008660 0.000000 1.718680 
# 
# From -- ./inp_files/141464.got.cif
#   From: 2010.06.25/outbox.cif.g09.slc.cpg/sg12_71_cif.got.tgz:141464.got - 2010.06.28 00:19:55.
