data_PCOD8106905
_publ_section_title
;
Structure prediction by ZEFSAII (Michael W. Deem and Ramdas Pophale) SiO2 
 PCOD8106905
Probable space group: C 2/M
;
_chemical_formula_sum "Si O2"
_cell_formula_units_Z 48
_cell_length_a 30.356040
_cell_length_b 9.364594
_cell_length_c 8.751348
_cell_angle_alpha 90.000000
_cell_angle_beta 89.545502
_cell_angle_gamma 90.000000
_cell_volume 2487.684842
_symmetry_space_group_name_H-M "C 2/M"
_symmetry_group_IT_number 12
_symmetry_cell_setting 'monoclinic'
loop_
_space_group_symop_operation_xyz
x,y,z
-x,y,-z
-x,-y,-z
x,-y,z
1/2+x,1/2+y,z
1/2-x,1/2+y,-z
1/2-x,1/2-y,-z
1/2+x,1/2-y,z
loop_
_atom_site_type_symbol
_atom_site_label
_atom_site_fract_x
_atom_site_fract_y
_atom_site_fract_z
Si Si1 0.327769 0.163776 0.846685
Si Si2 0.512479 0.664601 0.169344
Si Si3 0.744086 0.667653 0.656617
Si Si4 0.341004 0.333696 0.153749
Si Si5 0.923685 0.164161 0.352484
Si Si6 0.414798 0.165465 0.661406
O O1 0.282031 0.214198 0.773549
O O2 0.365291 0.188110 0.719834
O O3 0.325317 0.000000 0.898487
O O4 0.337555 0.254629 0.994765
O O5 0.527743 0.500000 0.170909
O O6 0.471629 0.689400 0.282121
O O7 0.552694 0.761616 0.219619
O O8 0.500000 0.712877 0.000000
O O9 0.746485 0.500000 0.621206
O O10 0.750000 0.750000 0.500000
O O11 0.697704 0.713512 0.730840
O O12 0.337602 0.500000 0.117128
O O13 0.387479 0.293139 0.228092
O O14 0.918820 0.264588 0.496768
O O15 0.917314 0.000000 0.403958
O O16 0.427393 0.000000 0.647694
#
# Coordination Sequence:
#
# PCOD8106905 Si02
#       6
#     8   8   8   8   8   8
#     4  10  22  38  55  80 114 147 179 221 275 327
#     4  10  21  38  59  81 108 143 181 225 276 323
#     4  10  21  37  57  83 113 145 183 224 269 323
#     4  10  21  37  59  85 109 140 186 230 267 319
#     4  10  21  37  57  82 110 141 181 227 273 321
#     4  11  23  37  55  81 112 146 183 222 268 325
#
# _framework density 19.295048999999999
#
# number of rings (size 3 to 8) (size 9 to 14) (size 15 to 20)
#    0.000    1.833    0.000    3.500    0.000    7.667 
#    0.000    0.000    0.000    0.000    0.000    0.000 
#    0.000    0.000    0.000    0.000    0.000    0.000 
#
# Total GULP energy -297740.439063 kJ/mol
# GULP energy per Si atom -12405.851628 kJ/mol
# Density = 1.925113 g / cm^3
# Si number density = 19.295049 Si / 1000 Ang^3
#
#
#
# Elastic Constant Matrix: (Units=GPa)
#
#
# Indices 1 2 3 4 5 6 
#
# 1 57.3039 19.6370 -11.4933 0.0000 11.0156 0.0000
# 2 19.6370 68.3023 45.3364 0.0000 5.6388 0.0000
# 3 -11.4933 45.3364 91.3387 0.0000 4.6396 0.0000
# 4 0.0000 0.0000 0.0000 39.8533 0.0000 2.8690
# 5 11.0156 5.6388 4.6396 0.0000 28.6265 0.0000
# 6 0.0000 0.0000 0.0000 2.8690 0.0000 28.5464
#
#
#
# Elastic Compliance Matrix: (Units=1/GPa)
#
#
# Indices 1 2 3 4 5 6 
#
# 1 0.026004 -0.013732 0.010546 0.000000 -0.009011 0.000000
# 2 -0.013732 0.029274 -0.016369 0.000000 0.002171 0.000000
# 3 0.010546 -0.016369 0.020612 0.000000 -0.004174 0.000000
# 4 0.000000 0.000000 0.000000 0.025275 0.000000 -0.002540
# 5 -0.009011 0.002171 -0.004174 0.000000 0.038649 0.000000
# 6 0.000000 0.000000 0.000000 -0.002540 0.000000 0.035286
#
#
# Mechanical properties :
#
#
# Convention : Reuss Voigt Hill
#
# Bulk Modulus (GPa) = 27.18849 35.98945 31.58897
# Shear Modulus (GPa) = 22.07794 30.30289 26.19041
#
# Velocity S-wave (km/s) = 3.38631 3.96725 3.68824
# Velocity P-wave (km/s) = 5.42319 6.29906 5.87746
#
# Compressibility (1/GPa) = 0.03678027
#
# Stress axis : x y z
#
# Youngs Moduli (GPa) = 38.45583 34.15944 48.51542
#
# Poissons Ratio (x) = 0.46908 -0.51163
# Poissons Ratio (y) = 0.52808 0.79414
# Poissons Ratio (z) = -0.40555 0.55915
#
# Static dielectric constant tensor:
#      x y z
#    x 3.914080 0.000000 0.033090 
#    y 0.000000 3.513920 0.000000 
#    z 0.033090 0.000000 3.472470 
# 
# 
# High freq. dielectric constant tensor:
#      x y z
#    x 1.770200 0.000000 0.000520 
#    y 0.000000 1.745470 0.000000 
#    z 0.000520 0.000000 1.761480 
# 
# From -- ./inp_files/108572.got.cif
#   From: 2010.06.25/outbox.cif.g09.slc.cpg/sg12_55_cif.got.tgz:108572.got - 2010.06.28 00:19:55.
