data_PCOD8106509
_publ_section_title
;
Structure prediction by ZEFSAII (Michael W. Deem and Ramdas Pophale) SiO2 
 PCOD8106509
Probable space group: C 2/M
;
_chemical_formula_sum "Si O2"
_cell_formula_units_Z 56
_cell_length_a 23.543728
_cell_length_b 9.299158
_cell_length_c 15.358674
_cell_angle_alpha 90.000000
_cell_angle_beta 58.738274
_cell_angle_gamma 90.000000
_cell_volume 2874.352194
_symmetry_space_group_name_H-M "C 2/M"
_symmetry_group_IT_number 12
_symmetry_cell_setting 'monoclinic'
loop_
_space_group_symop_operation_xyz
x,y,z
-x,y,-z
-x,-y,-z
x,-y,z
1/2+x,1/2+y,z
1/2-x,1/2+y,-z
1/2-x,1/2-y,-z
1/2+x,1/2-y,z
loop_
_atom_site_type_symbol
_atom_site_label
_atom_site_fract_x
_atom_site_fract_y
_atom_site_fract_z
Si Si1 0.161604 0.837493 0.029811
Si Si2 0.452041 0.666626 0.459184
Si Si3 0.209771 0.334760 0.603024
Si Si4 0.017537 0.164661 0.082305
Si Si5 0.315383 0.663032 0.658868
Si Si6 0.941936 0.329042 0.291779
Si Si7 0.199818 0.332159 0.158141
O O1 0.154301 0.735783 0.119236
O O2 0.096698 0.822372 0.023475
O O3 0.172225 0.000000 0.055080
O O4 0.223525 0.790700 0.920484
O O5 0.500000 0.715644 0.500000
O O6 0.465484 0.500000 0.425616
O O7 0.375444 0.693547 0.544715
O O8 0.467969 0.760975 0.361391
O O9 0.213225 0.500000 0.572590
O O10 0.250000 0.250000 0.500000
O O11 0.244966 0.309158 0.667965
O O12 0.133892 0.282374 0.667289
O O13 0.984803 0.268108 0.178715
O O14 0.994015 0.000000 0.116614
O O15 0.000000 0.218774 0.000000
O O16 0.319823 0.500000 0.690279
O O17 0.323013 0.770581 0.732115
O O18 0.950580 0.500000 0.289691
O O19 0.186505 0.500000 0.170095
#
# Coordination Sequence:
#
# PCOD8106509 Si02
#       7
#     8   8   8   8   8   8   8
#     4   9  20  40  60  82 114 152 195 238 286 348
#     4  10  22  40  62  87 117 160 205 237 280 350
#     4  10  21  38  59  84 115 150 190 232 282 341
#     4  10  23  42  64  86 113 156 205 243 284 348
#     4  10  21  37  58  85 117 153 192 235 285 343
#     4  11  24  40  60  90 122 153 191 245 304 348
#     4  10  21  36  59  89 116 147 189 241 295 341
#
# _framework density 19.482648999999999
#
# number of rings (size 3 to 8) (size 9 to 14) (size 15 to 20)
#    0.000    2.000    1.429    0.857    4.000    3.429 
#    0.000    0.000    0.000    0.000    0.000    0.000 
#    0.000    0.000    0.000    0.000    0.000    0.000 
#
# Total GULP energy -347303.794772 kJ/mol
# GULP energy per Si atom -12403.706956 kJ/mol
# Density = 1.943831 g / cm^3
# Si number density = 19.482649 Si / 1000 Ang^3
#
#
#
# Elastic Constant Matrix: (Units=GPa)
#
#
# Indices 1 2 3 4 5 6 
#
# 1 106.1737 34.9394 35.5286 0.0000 12.9619 0.0000
# 2 34.9394 82.7224 53.6307 0.0000 16.7425 -0.0001
# 3 35.5286 53.6307 101.7957 0.0000 21.9211 0.0000
# 4 0.0000 0.0000 0.0000 36.9186 0.0000 2.0560
# 5 12.9619 16.7425 21.9211 0.0000 29.0834 0.0000
# 6 0.0000 -0.0001 0.0000 2.0560 0.0000 26.4311
#
#
#
# Elastic Compliance Matrix: (Units=1/GPa)
#
#
# Indices 1 2 3 4 5 6 
#
# 1 0.011319 -0.003201 -0.001880 0.000000 -0.001785 0.000000
# 2 -0.003201 0.019646 -0.008482 0.000000 -0.003490 0.000000
# 3 -0.001880 -0.008482 0.016374 0.000000 -0.006621 0.000000
# 4 0.000000 0.000000 0.000000 0.027204 0.000000 -0.002116
# 5 -0.001785 -0.003490 -0.006621 0.000000 0.042179 0.000000
# 6 0.000000 0.000000 0.000000 -0.002116 0.000000 0.037999
#
#
# Mechanical properties :
#
#
# Convention : Reuss Voigt Hill
#
# Bulk Modulus (GPa) = 49.46977 59.87660 54.67318
# Shear Modulus (GPa) = 26.51350 29.59283 28.05316
#
# Velocity S-wave (km/s) = 3.69301 3.90158 3.79872
# Velocity P-wave (km/s) = 6.60540 7.14818 6.88214
#
# Compressibility (1/GPa) = 0.02021437
#
# Stress axis : x y z
#
# Youngs Moduli (GPa) = 88.34889 50.90181 61.07240
#
# Poissons Ratio (x) = 0.16292 0.11480
# Poissons Ratio (y) = 0.28278 0.51799
# Poissons Ratio (z) = 0.16607 0.43173
#
# Static dielectric constant tensor:
#      x y z
#    x 3.815340 0.000000 -0.048120 
#    y 0.000000 3.559650 0.000000 
#    z -0.048120 0.000000 3.389380 
# 
# 
# High freq. dielectric constant tensor:
#      x y z
#    x 1.770300 0.000000 0.000090 
#    y 0.000000 1.756710 0.000000 
#    z 0.000090 0.000000 1.753280 
# 
# From -- ./inp_files/238356.got.cif
#   From: 2010.06.25/outbox.cif.g09.slc.cpg/sg12_120_cif.got.tgz:238356.got - 2010.06.28 00:19:55.
