data_PCOD8106634
_publ_section_title
;
Structure prediction by ZEFSAII (Michael W. Deem and Ramdas Pophale) SiO2 
 PCOD8106634
Probable space group: C 2/M
;
_chemical_formula_sum "Si O2"
_cell_formula_units_Z 28
_cell_length_a 26.875392
_cell_length_b 10.900325
_cell_length_c 5.193533
_cell_angle_alpha 90.000000
_cell_angle_beta 115.802652
_cell_angle_gamma 90.000000
_cell_volume 1369.757657
_symmetry_space_group_name_H-M "C 2/M"
_symmetry_group_IT_number 12
_symmetry_cell_setting 'monoclinic'
loop_
_space_group_symop_operation_xyz
x,y,z
-x,y,-z
-x,-y,-z
x,-y,z
1/2+x,1/2+y,z
1/2-x,1/2+y,-z
1/2-x,1/2-y,-z
1/2+x,1/2-y,z
loop_
_atom_site_type_symbol
_atom_site_label
_atom_site_fract_x
_atom_site_fract_y
_atom_site_fract_z
Si Si1 0.537299 0.500000 0.334145
Si Si2 0.876858 0.784282 0.495476
Si Si3 0.259421 0.365012 0.200482
Si Si4 0.858053 0.362012 0.928169
O O1 0.500000 0.500000 0.500000
O O2 0.574134 0.379269 0.421530
O O3 0.500000 0.500000 0.000000
O O4 0.820466 0.853563 0.458584
O O5 0.891134 0.690831 0.758395
O O6 0.870534 0.715059 0.211829
O O7 0.256200 0.500000 0.053575
O O8 0.208248 0.360370 0.287391
O O9 0.250000 0.250000 0.000000
O O10 0.879051 0.500000 0.022487
#
# Coordination Sequence:
#
# PCOD8106634 Si02
#       4
#     4   8   8   8
#     4  12  26  44  66  90 118 164 222 276 308 346
#     4  11  21  40  61  88 123 164 204 259 309 361
#     4   9  18  34  56  92 128 167 201 243 308 389
#     4  10  21  36  62  94 128 160 195 241 313 395
#
# _framework density 20.441573999999999
#
# number of rings (size 3 to 8) (size 9 to 14) (size 15 to 20)
#    0.000    1.714    1.429    3.429    0.000    1.143 
#    2.571    2.857    0.000   17.143    0.000    0.000 
#    0.000    0.000    0.000    0.000    0.000    0.000 
#
# Total GULP energy -173463.279331 kJ/mol
# GULP energy per Si atom -12390.234238 kJ/mol
# Density = 2.039505 g / cm^3
# Si number density = 20.441574 Si / 1000 Ang^3
#
#
#
# Elastic Constant Matrix: (Units=GPa)
#
#
# Indices 1 2 3 4 5 6 
#
# 1 116.6459 74.4145 65.9911 0.0000 -3.6785 0.0000
# 2 74.4145 157.2728 54.3893 0.0000 9.6447 0.0000
# 3 65.9911 54.3893 118.5073 0.0000 -10.8988 0.0000
# 4 0.0000 0.0000 0.0000 30.8634 0.0000 -0.1857
# 5 -3.6785 9.6447 -10.8988 0.0000 26.2253 0.0000
# 6 0.0000 0.0000 0.0000 -0.1857 0.0000 30.5238
#
#
#
# Elastic Compliance Matrix: (Units=1/GPa)
#
#
# Indices 1 2 3 4 5 6 
#
# 1 0.015404 -0.005318 -0.005988 0.000000 0.001628 0.000000
# 2 -0.005318 0.009913 -0.002071 0.000000 -0.005252 0.000000
# 3 -0.005988 -0.002071 0.013221 0.000000 0.005416 0.000000
# 4 0.000000 0.000000 0.000000 0.032402 0.000000 0.000197
# 5 0.001628 -0.005252 0.005416 0.000000 0.042542 0.000000
# 6 0.000000 0.000000 0.000000 0.000197 0.000000 0.032763
#
#
# Mechanical properties :
#
#
# Convention : Reuss Voigt Hill
#
# Bulk Modulus (GPa) = 84.85355 86.89065 85.87210
# Shear Modulus (GPa) = 28.26027 30.69789 29.47908
#
# Velocity S-wave (km/s) = 3.72222 3.87943 3.80164
# Velocity P-wave (km/s) = 7.75072 7.91617 7.83388
#
# Compressibility (1/GPa) = 0.01178501
#
# Stress axis : x y z
#
# Youngs Moduli (GPa) = 64.91758 100.87806 75.63558
#
# Poissons Ratio (x) = 0.53644 0.45287
# Poissons Ratio (y) = 0.34522 0.15667
# Poissons Ratio (z) = 0.38870 0.20896
#
# Static dielectric constant tensor:
#      x y z
#    x 3.886140 0.000000 0.175530 
#    y 0.000000 4.055060 0.000000 
#    z 0.175530 0.000000 3.410120 
# 
# 
# High freq. dielectric constant tensor:
#      x y z
#    x 1.786120 0.000000 -0.005040 
#    y 0.000000 1.826910 0.000000 
#    z -0.005040 0.000000 1.770870 
# 
# From -- ./inp_files/18964.got.cif
#   From: 2010.06.25/outbox.cif.g09.slc.cpg/sg12_10_cif.got.tgz:18964.got - 2010.06.28 00:19:55.
