data_PCOD8106908
_publ_section_title
;
Structure prediction by ZEFSAII (Michael W. Deem and Ramdas Pophale) SiO2 
 PCOD8106908
Probable space group: C 2/M
;
_chemical_formula_sum "Si O2"
_cell_formula_units_Z 64
_cell_length_a 20.188953
_cell_length_b 9.186549
_cell_length_c 22.021692
_cell_angle_alpha 90.000000
_cell_angle_beta 124.605826
_cell_angle_gamma 90.000000
_cell_volume 3361.694163
_symmetry_space_group_name_H-M "C 2/M"
_symmetry_group_IT_number 12
_symmetry_cell_setting 'monoclinic'
loop_
_space_group_symop_operation_xyz
x,y,z
-x,y,-z
-x,-y,-z
x,-y,z
1/2+x,1/2+y,z
1/2-x,1/2+y,-z
1/2-x,1/2-y,-z
1/2+x,1/2-y,z
loop_
_atom_site_type_symbol
_atom_site_label
_atom_site_fract_x
_atom_site_fract_y
_atom_site_fract_z
Si Si1 0.514909 0.669972 0.410422
Si Si2 0.371768 0.330743 0.423393
Si Si3 0.048123 0.169324 0.202190
Si Si4 0.781935 0.669252 0.185734
Si Si5 0.267222 0.332050 0.707074
Si Si6 0.709608 0.831266 0.034695
Si Si7 0.029925 0.330817 0.728832
Si Si8 0.478665 0.833210 0.056767
O O1 0.510048 0.500000 0.391660
O O2 0.593826 0.703537 0.491746
O O3 0.436197 0.719903 0.406592
O O4 0.521646 0.761540 0.352479
O O5 0.354959 0.500000 0.407300
O O6 0.288256 0.248179 0.370827
O O7 0.141559 0.196195 0.265293
O O8 0.993564 0.256589 0.220618
O O9 0.030056 0.227486 0.125817
O O10 0.025981 0.000000 0.194083
O O11 0.761792 0.500000 0.163810
O O12 0.748492 0.725121 0.232897
O O13 0.738239 0.764331 0.112655
O O14 0.876617 0.698217 0.233484
O O15 0.243603 0.500000 0.692544
O O16 0.734392 0.000000 0.045834
O O17 0.750000 0.750000 0.000000
O O18 0.614835 0.810957 0.978700
O O19 0.009146 0.500000 0.722079
O O20 0.504447 0.000000 0.082073
O O21 0.500000 0.785926 0.000000
#
# Coordination Sequence:
#
# PCOD8106908 Si02
#       8
#     8   8   8   8   8   8   8   8
#     4   9  18  34  56  86 119 148 184 230 280 332
#     4   9  18  33  57  87 117 148 184 231 280 330
#     4  11  24  39  58  83 115 152 189 233 283 337
#     4  10  21  37  57  82 111 142 182 232 279 330
#     4  10  21  38  57  83 115 147 186 233 280 328
#     4  11  23  37  56  82 110 143 181 227 281 334
#     4  11  22  37  58  84 115 153 191 231 282 336
#     4  10  22  41  61  82 110 145 189 236 281 335
#
# _framework density 19.038019999999999
#
# number of rings (size 3 to 8) (size 9 to 14) (size 15 to 20)
#    0.000    1.875    1.250    3.375    0.000    7.250 
#    0.000    1.875    0.000    0.000    0.000    0.000 
#    0.000    0.000    0.000    0.000    0.000    0.000 
#
# Total GULP energy -396950.337536 kJ/mol
# GULP energy per Si atom -12404.698048 kJ/mol
# Density = 1.899469 g / cm^3
# Si number density = 19.038020 Si / 1000 Ang^3
#
#
#
# Elastic Constant Matrix: (Units=GPa)
#
#
# Indices 1 2 3 4 5 6 
#
# 1 51.3537 23.8209 -0.4520 0.0000 -4.9718 0.0000
# 2 23.8209 82.6038 46.3750 0.0000 3.3322 0.0000
# 3 -0.4520 46.3750 91.2374 0.0000 1.0772 0.0000
# 4 0.0000 0.0000 0.0000 41.3802 0.0000 -2.7334
# 5 -4.9718 3.3322 1.0772 0.0000 24.2189 0.0000
# 6 0.0000 0.0000 0.0000 -2.7334 0.0000 29.3232
#
#
#
# Elastic Compliance Matrix: (Units=1/GPa)
#
#
# Indices 1 2 3 4 5 6 
#
# 1 0.024996 -0.010483 0.005377 0.000000 0.006334 0.000000
# 2 -0.010483 0.021429 -0.010889 0.000000 -0.004616 0.000000
# 3 0.005377 -0.010889 0.016500 0.000000 0.001868 0.000000
# 4 0.000000 0.000000 0.000000 0.024316 0.000000 0.002267
# 5 0.006334 -0.004616 0.001868 0.000000 0.043142 0.000000
# 6 0.000000 0.000000 0.000000 0.002267 0.000000 0.034314
#
#
# Mechanical properties :
#
#
# Convention : Reuss Voigt Hill
#
# Bulk Modulus (GPa) = 32.32589 40.52030 36.42310
# Shear Modulus (GPa) = 24.15488 29.34786 26.75137
#
# Velocity S-wave (km/s) = 3.56584 3.93050 3.75261
# Velocity P-wave (km/s) = 5.82839 6.47523 6.16031
#
# Compressibility (1/GPa) = 0.03093495
#
# Stress axis : x y z
#
# Youngs Moduli (GPa) = 40.00671 46.66675 60.60624
#
# Poissons Ratio (x) = 0.48919 -0.32589
# Poissons Ratio (y) = 0.41937 0.65996
# Poissons Ratio (z) = -0.21513 0.50817
#
# Static dielectric constant tensor:
#      x y z
#    x 3.415670 0.000000 -0.017080 
#    y 0.000000 3.473430 0.000000 
#    z -0.017080 0.000000 3.502550 
# 
# 
# High freq. dielectric constant tensor:
#      x y z
#    x 1.735180 0.000000 -0.001300 
#    y 0.000000 1.741690 0.000000 
#    z -0.001300 0.000000 1.749050 
# 
# From -- ./inp_files/346286.got.cif
#   From: 2010.06.25/outbox.cif.g09.slc.cpg/sg12_174_cif.got.tgz:346286.got - 2010.06.28 00:19:55.
