data_PCOD8106533
_publ_section_title
;
Structure prediction by ZEFSAII (Michael W. Deem and Ramdas Pophale) SiO2 
 PCOD8106533
Probable space group: C 2/M
;
_chemical_formula_sum "Si O2"
_cell_formula_units_Z 44
_cell_length_a 29.897280
_cell_length_b 14.990998
_cell_length_c 5.251486
_cell_angle_alpha 90.000000
_cell_angle_beta 58.223639
_cell_angle_gamma 90.000000
_cell_volume 2000.873249
_symmetry_space_group_name_H-M "C 2/M"
_symmetry_group_IT_number 12
_symmetry_cell_setting 'monoclinic'
loop_
_space_group_symop_operation_xyz
x,y,z
-x,y,-z
-x,-y,-z
x,-y,z
1/2+x,1/2+y,z
1/2-x,1/2+y,-z
1/2-x,1/2-y,-z
1/2+x,1/2-y,z
loop_
_atom_site_type_symbol
_atom_site_label
_atom_site_fract_x
_atom_site_fract_y
_atom_site_fract_z
Si Si1 0.500000 0.185085 0.000000
Si Si2 0.659072 0.905955 0.577623
Si Si3 0.438351 0.902738 0.785758
Si Si4 0.675024 0.398273 0.184658
Si Si5 0.239099 0.147470 0.493697
Si Si6 0.603685 0.237076 0.474143
O O1 0.494295 0.124019 0.758133
O O2 0.553199 0.244586 0.816738
O O3 0.704268 0.899640 0.655666
O O4 0.655727 0.816400 0.417896
O O5 0.669152 0.000000 0.394370
O O6 0.601506 0.915575 0.864213
O O7 0.415894 0.818670 0.704808
O O8 0.443696 0.000000 0.630006
O O9 0.656082 0.500000 0.274624
O O10 0.715435 0.373751 0.288697
O O11 0.623050 0.336184 0.349465
O O12 0.701601 0.387559 0.830594
O O13 0.250000 0.250000 0.500000
#
# Coordination Sequence:
#
# PCOD8106533 Si02
#       6
#     4   8   8   8   8   8
#     4  10  23  40  61  92 124 166 219 278 349 404
#     4  10  21  36  59  93 131 169 214 262 325 402
#     4  10  21  38  62  94 131 169 212 272 340 410
#     4  12  27  45  69 100 140 183 229 277 331 393
#     4  12  24  45  68 101 137 182 223 276 330 395
#     4  11  23  40  63  89 127 169 222 276 338 396
#
# _framework density 21.990399
#
# number of rings (size 3 to 8) (size 9 to 14) (size 15 to 20)
#    0.000    1.091    1.818    4.636    5.091    2.909 
#    0.000    0.455    0.000    2.182    0.000    0.000 
#    0.000    0.000    0.000    0.000    0.000    0.000 
#
# Total GULP energy -272575.776201 kJ/mol
# GULP energy per Si atom -12389.808009 kJ/mol
# Density = 2.194035 g / cm^3
# Si number density = 21.990399 Si / 1000 Ang^3
#
#
#
# Elastic Constant Matrix: (Units=GPa)
#
#
# Indices 1 2 3 4 5 6 
#
# 1 112.8996 37.2139 14.6333 0.0000 -4.5458 0.0000
# 2 37.2139 172.2742 11.9091 0.0000 -11.7894 0.0000
# 3 14.6333 11.9091 28.9183 0.0000 -0.8966 0.0000
# 4 0.0000 0.0000 0.0000 20.3851 0.0000 10.4315
# 5 -4.5458 -11.7894 -0.8966 0.0000 37.8235 0.0000
# 6 0.0000 0.0000 0.0000 10.4315 0.0000 14.4512
#
#
#
# Elastic Compliance Matrix: (Units=1/GPa)
#
#
# Indices 1 2 3 4 5 6 
#
# 1 0.010042 -0.001835 -0.004309 0.000000 0.000533 0.000000
# 2 -0.001835 0.006436 -0.001668 0.000000 0.001746 0.000000
# 3 -0.004309 -0.001668 0.037443 0.000000 -0.000150 0.000000
# 4 0.000000 0.000000 0.000000 0.077790 0.000000 -0.056152
# 5 0.000533 0.001746 -0.000150 0.000000 0.027043 0.000000
# 6 0.000000 0.000000 0.000000 -0.056152 0.000000 0.109731
#
#
# Mechanical properties :
#
#
# Convention : Reuss Voigt Hill
#
# Bulk Modulus (GPa) = 26.11180 49.06721 37.58950
# Shear Modulus (GPa) = 16.84211 31.22101 24.03156
#
# Velocity S-wave (km/s) = 2.77046 3.77205 3.30937
# Velocity P-wave (km/s) = 4.70467 6.42905 5.63323
#
# Compressibility (1/GPa) = 0.03829687
#
# Stress axis : x y z
#
# Youngs Moduli (GPa) = 99.57911 155.37972 26.70726
#
# Poissons Ratio (x) = 0.28511 0.11509
# Poissons Ratio (y) = 0.18272 0.04454
# Poissons Ratio (z) = 0.42913 0.25914
#
# Static dielectric constant tensor:
#      x y z
#    x 4.147160 0.000000 -0.153470 
#    y 0.000000 4.209290 0.000000 
#    z -0.153470 0.000000 3.464320 
# 
# 
# High freq. dielectric constant tensor:
#      x y z
#    x 1.870550 0.000000 -0.005650 
#    y 0.000000 1.858160 0.000000 
#    z -0.005650 0.000000 1.867000 
# 
# From -- ./inp_files/28111.got.cif
#   From: 2010.06.25/outbox.cif.g09.slc.cpg/sg12_15_cif.got.tgz:28111.got - 2010.06.28 00:19:55.
