data_PCOD8106748
_publ_section_title
;
Structure prediction by ZEFSAII (Michael W. Deem and Ramdas Pophale) SiO2 
 PCOD8106748
Probable space group: C 2/M
;
_chemical_formula_sum "Si O2"
_cell_formula_units_Z 56
_cell_length_a 27.114336
_cell_length_b 8.944090
_cell_length_c 11.775499
_cell_angle_alpha 90.000000
_cell_angle_beta 76.504291
_cell_angle_gamma 90.000000
_cell_volume 2776.858674
_symmetry_space_group_name_H-M "C 2/M"
_symmetry_group_IT_number 12
_symmetry_cell_setting 'monoclinic'
loop_
_space_group_symop_operation_xyz
x,y,z
-x,y,-z
-x,-y,-z
x,-y,z
1/2+x,1/2+y,z
1/2-x,1/2+y,-z
1/2-x,1/2-y,-z
1/2+x,1/2-y,z
loop_
_atom_site_type_symbol
_atom_site_label
_atom_site_fract_x
_atom_site_fract_y
_atom_site_fract_z
Si Si1 0.871784 0.676146 0.426892
Si Si2 0.648720 0.327663 0.785569
Si Si3 0.243532 0.176290 0.882086
Si Si4 0.837775 0.676467 0.688624
Si Si5 0.057434 0.827097 0.993053
Si Si6 0.431254 0.176795 0.786257
Si Si7 0.979926 0.824063 0.387578
O O1 0.881514 0.500000 0.419461
O O2 0.841644 0.727953 0.331245
O O3 0.839716 0.724224 0.555464
O O4 0.924581 0.760564 0.400543
O O5 0.657085 0.500000 0.747262
O O6 0.689282 0.279116 0.858952
O O7 0.591957 0.300768 0.863349
O O8 0.286874 0.239630 0.773935
O O9 0.248624 0.000000 0.895609
O O10 0.250000 0.250000 0.000000
O O11 0.838156 0.500000 0.699704
O O12 0.887100 0.739297 0.727783
O O13 0.059199 0.000000 0.029685
O O14 0.081435 0.725927 0.079044
O O15 0.000000 0.775393 0.000000
O O16 0.484161 0.252460 0.725784
O O17 0.436643 0.000000 0.774735
O O18 0.000000 0.777996 0.500000
O O19 0.978608 0.000000 0.369095
#
# Coordination Sequence:
#
# PCOD8106748 Si02
#       7
#     8   8   8   8   8   8   8
#     4  11  22  38  60  85 118 156 196 238 289 354
#     4  10  22  39  59  85 119 157 196 246 300 345
#     4  10  21  40  63  86 116 153 196 246 297 349
#     4   9  20  37  57  84 117 151 187 239 297 342
#     4  10  21  37  55  78 114 153 191 240 295 348
#     4  11  21  35  58  85 115 150 194 242 288 347
#     4  11  22  36  56  84 119 156 192 234 286 344
#
# _framework density 20.166671999999998
#
# number of rings (size 3 to 8) (size 9 to 14) (size 15 to 20)
#    0.000    1.714    1.429    3.000    0.000    3.714 
#    0.000    2.143    0.000    0.000    0.000    0.000 
#    0.000    0.000    0.000    0.000    0.000    0.000 
#
# Total GULP energy -347305.466407 kJ/mol
# GULP energy per Si atom -12403.766657 kJ/mol
# Density = 2.012077 g / cm^3
# Si number density = 20.166672 Si / 1000 Ang^3
#
#
#
# Elastic Constant Matrix: (Units=GPa)
#
#
# Indices 1 2 3 4 5 6 
#
# 1 101.9178 17.9764 51.3144 0.0000 -0.5660 0.0000
# 2 17.9764 45.0271 32.5134 0.0000 9.0783 0.0000
# 3 51.3144 32.5134 137.3958 0.0000 6.1002 0.0000
# 4 0.0000 0.0000 0.0000 33.7730 0.0000 11.0970
# 5 -0.5660 9.0783 6.1002 0.0000 40.4575 0.0000
# 6 0.0000 0.0000 0.0000 11.0970 0.0000 18.4389
#
#
#
# Elastic Compliance Matrix: (Units=1/GPa)
#
#
# Indices 1 2 3 4 5 6 
#
# 1 0.012282 -0.002182 -0.004128 0.000000 0.001284 0.000000
# 2 -0.002182 0.028256 -0.005627 0.000000 -0.005523 0.000000
# 3 -0.004128 -0.005627 0.010166 0.000000 -0.000328 0.000000
# 4 0.000000 0.000000 0.000000 0.036908 0.000000 -0.022212
# 5 0.001284 -0.005523 -0.000328 0.000000 0.026024 0.000000
# 6 0.000000 0.000000 0.000000 -0.022212 0.000000 0.067601
#
#
# Mechanical properties :
#
#
# Convention : Reuss Voigt Hill
#
# Bulk Modulus (GPa) = 37.26873 54.21655 45.74264
# Shear Modulus (GPa) = 23.35872 30.70299 27.03086
#
# Velocity S-wave (km/s) = 3.40705 3.90611 3.66508
# Velocity P-wave (km/s) = 5.83076 6.87649 6.37511
#
# Compressibility (1/GPa) = 0.02683214
#
# Stress axis : x y z
#
# Youngs Moduli (GPa) = 81.41950 35.39051 98.36765
#
# Poissons Ratio (x) = 0.07721 0.40605
# Poissons Ratio (y) = 0.17762 0.55347
# Poissons Ratio (z) = 0.33609 0.19913
#
# Static dielectric constant tensor:
#      x y z
#    x 3.760700 0.000000 0.006420 
#    y 0.000000 3.463560 0.000000 
#    z 0.006420 0.000000 3.978310 
# 
# 
# High freq. dielectric constant tensor:
#      x y z
#    x 1.789510 0.000000 0.001600 
#    y 0.000000 1.769440 0.000000 
#    z 0.001600 0.000000 1.801440 
# 
# From -- ./inp_files/180784.got.cif
#   From: 2010.06.25/outbox.cif.g09.slc.cpg/sg12_91_cif.got.tgz:180784.got - 2010.06.28 00:19:55.
