data_PCOD8106575
_publ_section_title
;
Structure prediction by ZEFSAII (Michael W. Deem and Ramdas Pophale) SiO2 
 PCOD8106575
Probable space group: C 2/M
;
_chemical_formula_sum "Si O2"
_cell_formula_units_Z 60
_cell_length_a 18.295294
_cell_length_b 18.184441
_cell_length_c 9.081023
_cell_angle_alpha 90.000000
_cell_angle_beta 104.917113
_cell_angle_gamma 90.000000
_cell_volume 2919.347273
_symmetry_space_group_name_H-M "C 2/M"
_symmetry_group_IT_number 12
_symmetry_cell_setting 'monoclinic'
loop_
_space_group_symop_operation_xyz
x,y,z
-x,y,-z
-x,-y,-z
x,-y,z
1/2+x,1/2+y,z
1/2-x,1/2+y,-z
1/2-x,1/2-y,-z
1/2+x,1/2-y,z
loop_
_atom_site_type_symbol
_atom_site_label
_atom_site_fract_x
_atom_site_fract_y
_atom_site_fract_z
Si Si1 0.757153 0.670554 0.433417
Si Si2 0.586320 0.183771 0.032260
Si Si3 0.875785 0.847309 0.852028
Si Si4 0.000000 0.199262 0.500000
Si Si5 0.201756 0.418078 0.261458
Si Si6 0.338623 0.376921 0.148242
Si Si7 0.370963 0.221341 0.262799
Si Si8 0.011474 0.083466 0.282949
O O1 0.750000 0.750000 0.500000
O O2 0.678865 0.650073 0.315886
O O3 0.774442 0.610906 0.566331
O O4 0.823471 0.669684 0.346361
O O5 0.594512 0.266515 0.094293
O O6 0.636716 0.131806 0.159226
O O7 0.500000 0.158204 0.000000
O O8 0.610698 0.175869 0.874873
O O9 0.948934 0.897751 0.852244
O O10 0.831328 0.881394 0.967944
O O11 0.052732 0.253512 0.618318
O O12 0.045774 0.143518 0.415535
O O13 0.169393 0.500000 0.264594
O O14 0.274178 0.424606 0.191367
O O15 0.323157 0.293670 0.194958
O O16 0.421533 0.405494 0.233521
O O17 0.030157 0.000000 0.340520
#
# Coordination Sequence:
#
# PCOD8106575 Si02
#       8
#     8   8   8   4   8   8   8   8
#     4  12  22  40  66  94 129 168 211 268 318 378
#     4  11  23  43  71  97 124 165 223 276 320 378
#     4  11  22  39  65  97 128 169 220 264 307 377
#     4  10  21  36  60  92 129 160 210 266 313 382
#     4  12  27  44  65  95 132 170 214 267 329 390
#     4  10  21  41  63  92 130 169 218 260 310 380
#     4  10  21  38  67  98 121 162 215 268 319 369
#     4  11  23  36  57  93 138 178 209 252 319 389
#
# _framework density 20.552541000000002
#
# number of rings (size 3 to 8) (size 9 to 14) (size 15 to 20)
#    0.000    1.067    2.667    5.000    3.733    4.533 
#    0.000    2.000    0.000    0.800    0.000    0.000 
#    0.000    0.000    0.000    0.000    0.000    0.000 
#
# Total GULP energy -372041.736050 kJ/mol
# GULP energy per Si atom -12401.391202 kJ/mol
# Density = 2.050576 g / cm^3
# Si number density = 20.552541 Si / 1000 Ang^3
#
#
#
# Elastic Constant Matrix: (Units=GPa)
#
#
# Indices 1 2 3 4 5 6 
#
# 1 101.6330 23.3679 49.6132 0.0000 -13.6001 0.0000
# 2 23.3679 61.3226 24.7654 0.0000 -8.1172 0.0000
# 3 49.6132 24.7654 123.2498 0.0000 -0.5471 0.0000
# 4 0.0000 0.0000 0.0000 14.3162 0.0000 -3.8604
# 5 -13.6001 -8.1172 -0.5471 0.0000 37.3081 0.0000
# 6 0.0000 0.0000 0.0000 -3.8604 0.0000 15.7354
#
#
#
# Elastic Compliance Matrix: (Units=1/GPa)
#
#
# Indices 1 2 3 4 5 6 
#
# 1 0.013363 -0.002575 -0.004843 0.000000 0.004240 0.000000
# 2 -0.002575 0.018802 -0.002728 0.000000 0.003112 0.000000
# 3 -0.004843 -0.002728 0.010601 0.000000 -0.002203 0.000000
# 4 0.000000 0.000000 0.000000 0.074799 0.000000 0.018351
# 5 0.004240 0.003112 -0.002203 0.000000 0.028994 0.000000
# 6 0.000000 0.000000 0.000000 0.018351 0.000000 0.068053
#
#
# Mechanical properties :
#
#
# Convention : Reuss Voigt Hill
#
# Bulk Modulus (GPa) = 44.49367 53.52203 49.00785
# Shear Modulus (GPa) = 20.62748 26.03589 23.33169
#
# Velocity S-wave (km/s) = 3.17147 3.56307 3.37296
# Velocity P-wave (km/s) = 5.92509 6.55937 6.25029
#
# Compressibility (1/GPa) = 0.02247511
#
# Stress axis : x y z
#
# Youngs Moduli (GPa) = 74.83432 53.18589 94.32760
#
# Poissons Ratio (x) = 0.13696 0.45682
# Poissons Ratio (y) = 0.19270 0.25729
# Poissons Ratio (z) = 0.36241 0.14507
#
# Static dielectric constant tensor:
#      x y z
#    x 3.654920 0.000000 -0.135750 
#    y 0.000000 3.494200 0.000000 
#    z -0.135750 0.000000 4.089030 
# 
# 
# High freq. dielectric constant tensor:
#      x y z
#    x 1.802210 0.000000 -0.006470 
#    y 0.000000 1.773930 0.000000 
#    z -0.006470 0.000000 1.825750 
# 
# From -- ./inp_files/75932.got.cif
#   From: 2010.06.25/outbox.cif.g09.slc.cpg/sg12_38_cif.got.tgz:75932.got - 2010.06.28 00:19:55.
