data_PCOD8106693
_publ_section_title
;
Structure prediction by ZEFSAII (Michael W. Deem and Ramdas Pophale) SiO2 
 PCOD8106693
Probable space group: C 2/M
;
_chemical_formula_sum "Si O2"
_cell_formula_units_Z 56
_cell_length_a 22.773363
_cell_length_b 9.051926
_cell_length_c 14.648734
_cell_angle_alpha 90.000000
_cell_angle_beta 75.666573
_cell_angle_gamma 90.000000
_cell_volume 2925.731191
_symmetry_space_group_name_H-M "C 2/M"
_symmetry_group_IT_number 12
_symmetry_cell_setting 'monoclinic'
loop_
_space_group_symop_operation_xyz
x,y,z
-x,y,-z
-x,-y,-z
x,-y,z
1/2+x,1/2+y,z
1/2-x,1/2+y,-z
1/2-x,1/2-y,-z
1/2+x,1/2-y,z
loop_
_atom_site_type_symbol
_atom_site_label
_atom_site_fract_x
_atom_site_fract_y
_atom_site_fract_z
Si Si1 0.535588 0.174149 0.778873
Si Si2 0.354811 0.825752 0.619109
Si Si3 0.371541 0.671526 0.137909
Si Si4 0.875871 0.674330 0.411894
Si Si5 0.185040 0.175294 0.030741
Si Si6 0.900237 0.324686 0.794003
Si Si7 0.718938 0.673657 0.668709
O O1 0.567796 0.243351 0.854889
O O2 0.568443 0.227958 0.672866
O O3 0.466205 0.226495 0.802625
O O4 0.539864 0.000000 0.786247
O O5 0.387588 0.775928 0.512320
O O6 0.394035 0.774140 0.690783
O O7 0.286650 0.761618 0.650933
O O8 0.349136 0.000000 0.623793
O O9 0.386819 0.500000 0.138314
O O10 0.315376 0.713872 0.224358
O O11 0.354146 0.719435 0.042775
O O12 0.867426 0.500000 0.408225
O O13 0.813442 0.747441 0.403484
O O14 0.150718 0.238322 0.131255
O O15 0.193316 0.000000 0.035197
O O16 0.250000 0.250000 0.000000
O O17 0.890551 0.500000 0.809401
O O18 0.718223 0.500000 0.649993
#
# Coordination Sequence:
#
# PCOD8106693 Si02
#       7
#     8   8   8   8   8   8   8
#     4   9  19  34  53  78 106 136 177 223 262 299
#     4   9  17  30  50  73 102 139 176 214 260 309
#     4   9  19  35  55  75 102 139 173 208 260 320
#     4   9  17  30  49  75 103 134 173 217 260 306
#     4  11  23  39  59  83 107 135 170 211 260 315
#     4  10  21  37  54  75 106 142 177 217 260 308
#     4   9  16  29  49  73  99 131 168 209 261 318
#
# _framework density 19.140516000000002
#
# number of rings (size 3 to 8) (size 9 to 14) (size 15 to 20)
#    0.000    2.571    0.000    1.714    0.000    5.143 
#    0.000   10.000    0.000    0.000    0.000    5.000 
#    0.000    0.000    0.000    0.000    0.000    0.000 
#
# Total GULP energy -347180.424615 kJ/mol
# GULP energy per Si atom -12399.300879 kJ/mol
# Density = 1.909695 g / cm^3
# Si number density = 19.140516 Si / 1000 Ang^3
#
#
#
# Elastic Constant Matrix: (Units=GPa)
#
#
# Indices 1 2 3 4 5 6 
#
# 1 128.5305 35.7631 46.0178 0.0000 5.4710 0.0000
# 2 35.7631 34.5253 26.6324 0.0000 4.5501 0.0000
# 3 46.0178 26.6324 98.0495 0.0000 18.2889 0.0000
# 4 0.0000 0.0000 0.0000 24.9733 0.0000 1.5409
# 5 5.4710 4.5501 18.2889 0.0000 30.8422 0.0000
# 6 0.0000 0.0000 0.0000 1.5409 0.0000 28.5664
#
#
#
# Elastic Compliance Matrix: (Units=1/GPa)
#
#
# Indices 1 2 3 4 5 6 
#
# 1 0.011517 -0.009800 -0.002960 0.000000 0.001158 0.000000
# 2 -0.009800 0.044989 -0.007541 0.000000 -0.000427 0.000000
# 3 -0.002960 -0.007541 0.014989 0.000000 -0.007251 0.000000
# 4 0.000000 0.000000 0.000000 0.040176 0.000000 -0.002167
# 5 0.001158 -0.000427 -0.007251 0.000000 0.036580 0.000000
# 6 0.000000 0.000000 0.000000 -0.002167 0.000000 0.035123
#
#
# Mechanical properties :
#
#
# Convention : Reuss Voigt Hill
#
# Bulk Modulus (GPa) = 32.36858 53.10353 42.73605
# Shear Modulus (GPa) = 21.34261 27.05583 24.19922
#
# Velocity S-wave (km/s) = 3.34286 3.76378 3.55955
# Velocity P-wave (km/s) = 5.64334 6.83318 6.26657
#
# Compressibility (1/GPa) = 0.03089416
#
# Stress axis : x y z
#
# Youngs Moduli (GPa) = 86.82538 22.22779 66.71726
#
# Poissons Ratio (x) = 0.21783 0.19745
# Poissons Ratio (y) = 0.85088 0.50310
# Poissons Ratio (z) = 0.25696 0.16762
#
# Static dielectric constant tensor:
#      x y z
#    x 3.617230 0.000000 0.104540 
#    y 0.000000 3.262190 0.000000 
#    z 0.104540 0.000000 3.756860 
# 
# 
# High freq. dielectric constant tensor:
#      x y z
#    x 1.745190 0.000000 0.004020 
#    y 0.000000 1.718310 0.000000 
#    z 0.004020 0.000000 1.752660 
# 
# From -- ./inp_files/237463.got.cif
#   From: 2010.06.25/outbox.cif.g09.slc.cpg/sg12_119_cif.got.tgz:237463.got - 2010.06.28 00:19:55.
