data_PCOD8106468
_publ_section_title
;
Structure prediction by ZEFSAII (Michael W. Deem and Ramdas Pophale) SiO2 
 PCOD8106468
Probable space group: C 2/M
;
_chemical_formula_sum "Si O2"
_cell_formula_units_Z 40
_cell_length_a 11.006771
_cell_length_b 14.052449
_cell_length_c 13.637727
_cell_angle_alpha 90.000000
_cell_angle_beta 107.180147
_cell_angle_gamma 90.000000
_cell_volume 2015.256987
_symmetry_space_group_name_H-M "C 2/M"
_symmetry_group_IT_number 12
_symmetry_cell_setting 'monoclinic'
loop_
_space_group_symop_operation_xyz
x,y,z
-x,y,-z
-x,-y,-z
x,-y,z
1/2+x,1/2+y,z
1/2-x,1/2+y,-z
1/2-x,1/2-y,-z
1/2+x,1/2-y,z
loop_
_atom_site_type_symbol
_atom_site_label
_atom_site_fract_x
_atom_site_fract_y
_atom_site_fract_z
Si Si1 0.370215 0.801363 0.424988
Si Si2 0.096989 0.606775 0.203572
Si Si3 0.763565 0.109751 0.430392
Si Si4 0.175250 0.391577 0.790593
Si Si5 0.851968 0.237175 0.937704
O O1 0.500000 0.840064 0.500000
O O2 0.266656 0.854762 0.467116
O O3 0.369992 0.685629 0.422901
O O4 0.350859 0.829908 0.310029
O O5 0.130112 0.500000 0.177458
O O6 0.145995 0.622570 0.326645
O O7 0.163305 0.674585 0.140390
O O8 0.944820 0.623174 0.165124
O O9 0.812340 0.000000 0.442948
O O10 0.190752 0.500000 0.762841
O O11 0.306124 0.358174 0.871833
O O12 0.750000 0.250000 0.000000
O O13 0.000000 0.223540 0.000000
#
# Coordination Sequence:
#
# PCOD8106468 Si02
#       5
#     8   8   8   8   8
#     4  11  21  35  61  91 128 165 204 252 306 375
#     4  10  21  40  66  92 122 166 214 257 315 386
#     4  10  21  36  58  91 127 164 205 250 309 378
#     4  11  23  40  63  93 128 163 210 263 318 377
#     4  12  25  43  67  92 126 164 217 271 321 374
#
# _framework density 19.848586000000001
#
# number of rings (size 3 to 8) (size 9 to 14) (size 15 to 20)
#    0.000    1.200    6.000    0.600    0.000    2.800 
#    0.000    0.000    0.000    3.600    0.000    0.000 
#    0.000    0.000    0.000    0.000    0.000    0.000 
#
# Total GULP energy -247863.005110 kJ/mol
# GULP energy per Si atom -12393.150255 kJ/mol
# Density = 1.980341 g / cm^3
# Si number density = 19.848586 Si / 1000 Ang^3
#
#
#
# Elastic Constant Matrix: (Units=GPa)
#
#
# Indices 1 2 3 4 5 6 
#
# 1 79.2552 35.9971 34.8346 0.0000 -2.6055 0.0000
# 2 35.9971 129.0469 36.6554 0.0000 -21.0445 0.0000
# 3 34.8346 36.6554 73.8090 0.0000 -0.4216 0.0000
# 4 0.0000 0.0000 0.0000 14.0328 0.0000 5.8624
# 5 -2.6055 -21.0445 -0.4216 0.0000 32.1204 0.0000
# 6 0.0000 0.0000 0.0000 5.8624 0.0000 27.8545
#
#
#
# Elastic Compliance Matrix: (Units=1/GPa)
#
#
# Indices 1 2 3 4 5 6 
#
# 1 0.016774 -0.002953 -0.006454 0.000000 -0.000659 0.000000
# 2 -0.002953 0.010795 -0.003928 0.000000 0.006781 0.000000
# 3 -0.006454 -0.003928 0.018529 0.000000 -0.002854 0.000000
# 4 0.000000 0.000000 0.000000 0.078131 0.000000 -0.016444
# 5 -0.000659 0.006781 -0.002854 0.000000 0.035485 0.000000
# 6 0.000000 0.000000 0.000000 -0.016444 0.000000 0.039362
#
#
# Mechanical properties :
#
#
# Convention : Reuss Voigt Hill
#
# Bulk Modulus (GPa) = 51.47511 55.23171 53.35341
# Shear Modulus (GPa) = 21.53124 26.44315 23.98719
#
# Velocity S-wave (km/s) = 3.29716 3.65395 3.48013
# Velocity P-wave (km/s) = 6.36280 6.75934 6.56407
#
# Compressibility (1/GPa) = 0.01942687
#
# Stress axis : x y z
#
# Youngs Moduli (GPa) = 59.61725 92.63873 53.96994
#
# Poissons Ratio (x) = 0.27359 0.34830
# Poissons Ratio (y) = 0.17607 0.21201
# Poissons Ratio (z) = 0.38474 0.36391
#
# Static dielectric constant tensor:
#      x y z
#    x 3.535880 0.000000 0.182020 
#    y 0.000000 3.737430 0.000000 
#    z 0.182020 0.000000 3.894570 
# 
# 
# High freq. dielectric constant tensor:
#      x y z
#    x 1.755270 0.000000 -0.001710 
#    y 0.000000 1.781480 0.000000 
#    z -0.001710 0.000000 1.782310 
# 
# From -- ./inp_files/129824.got.cif
#   From: 2010.06.25/outbox.cif.g09.slc.cpg/sg12_65_cif.got.tgz:129824.got - 2010.06.28 00:19:55.
