data_PCOD8106143
_publ_section_title
;
Structure prediction by ZEFSAII (Michael W. Deem and Ramdas Pophale) SiO2 
 PCOD8106143
Probable space group: C 2/M
;
_chemical_formula_sum "Si O2"
_cell_formula_units_Z 40
_cell_length_a 9.991302
_cell_length_b 9.085097
_cell_length_c 22.155493
_cell_angle_alpha 90.000000
_cell_angle_beta 83.618972
_cell_angle_gamma 90.000000
_cell_volume 1998.638054
_symmetry_space_group_name_H-M "C 2/M"
_symmetry_group_IT_number 12
_symmetry_cell_setting 'monoclinic'
loop_
_space_group_symop_operation_xyz
x,y,z
-x,y,-z
-x,-y,-z
x,-y,z
1/2+x,1/2+y,z
1/2-x,1/2+y,-z
1/2-x,1/2-y,-z
1/2+x,1/2-y,z
loop_
_atom_site_type_symbol
_atom_site_label
_atom_site_fract_x
_atom_site_fract_y
_atom_site_fract_z
Si Si1 0.383180 0.829573 0.338826
Si Si2 0.476850 0.671814 0.933681
Si Si3 0.626720 0.668767 0.536846
Si Si4 0.238992 0.671620 0.133510
Si Si5 0.830734 0.670193 0.729882
O O1 0.412763 0.745526 0.398985
O O2 0.251207 0.765155 0.314006
O O3 0.510974 0.807954 0.289000
O O4 0.356539 0.000000 0.354766
O O5 0.445318 0.500000 0.937231
O O6 0.605232 0.708096 0.885801
O O7 0.347408 0.749692 0.913042
O O8 0.500000 0.732338 0.000000
O O9 0.500000 0.680822 0.500000
O O10 0.666899 0.500000 0.547138
O O11 0.750000 0.750000 0.500000
O O12 0.208139 0.500000 0.129715
O O13 0.201044 0.730400 0.201739
O O14 0.787726 0.500000 0.725187
#
# Coordination Sequence:
#
# PCOD8106143 Si02
#       5
#     8   8   8   8   8
#     4  11  23  38  59  86 114 148 189 231 280 336
#     4  10  21  36  55  82 114 148 189 236 285 338
#     4  11  24  41  62  88 117 151 190 231 279 333
#     4  10  21  37  57  82 112 148 190 234 283 338
#     4  10  22  39  58  83 115 149 188 235 283 335
#
# _framework density 20.013629999999999
#
# number of rings (size 3 to 8) (size 9 to 14) (size 15 to 20)
#    0.000    1.600    0.000    4.200    0.000    8.400 
#    0.000    0.000    0.000    0.000    0.000    0.000 
#    0.000    0.000    0.000    0.000    0.000    0.000 
#
# Total GULP energy -248138.521874 kJ/mol
# GULP energy per Si atom -12406.926094 kJ/mol
# Density = 1.996808 g / cm^3
# Si number density = 20.013630 Si / 1000 Ang^3
#
#
#
# Elastic Constant Matrix: (Units=GPa)
#
#
# Indices 1 2 3 4 5 6 
#
# 1 60.5917 33.9827 -0.0307 0.0000 6.9838 0.0000
# 2 33.9827 86.0465 29.3205 0.0000 4.9017 0.0000
# 3 -0.0307 29.3205 98.0833 0.0000 -0.1817 0.0000
# 4 0.0000 0.0000 0.0000 30.0383 0.0000 -2.6984
# 5 6.9838 4.9017 -0.1817 0.0000 39.2981 0.0000
# 6 0.0000 0.0000 0.0000 -2.6984 0.0000 8.7673
#
#
#
# Elastic Compliance Matrix: (Units=1/GPa)
#
#
# Indices 1 2 3 4 5 6 
#
# 1 0.022198 -0.009588 0.002868 0.000000 -0.002736 0.000000
# 2 -0.009588 0.017187 -0.005142 0.000000 -0.000464 0.000000
# 3 0.002868 -0.005142 0.011734 0.000000 0.000186 0.000000
# 4 0.000000 0.000000 0.000000 0.034237 0.000000 0.010538
# 5 -0.002736 -0.000464 0.000186 0.000000 0.025991 0.000000
# 6 0.000000 0.000000 0.000000 0.010538 0.000000 0.117304
#
#
# Mechanical properties :
#
#
# Convention : Reuss Voigt Hill
#
# Bulk Modulus (GPa) = 36.50274 41.25182 38.87728
# Shear Modulus (GPa) = 19.11999 27.71734 23.41866
#
# Velocity S-wave (km/s) = 3.09422 3.72549 3.42444
# Velocity P-wave (km/s) = 5.57173 6.25798 5.92480
#
# Compressibility (1/GPa) = 0.02739521
#
# Stress axis : x y z
#
# Youngs Moduli (GPa) = 45.04856 58.18426 85.22494
#
# Poissons Ratio (x) = 0.55789 -0.24444
# Poissons Ratio (y) = 0.43194 0.43819
# Poissons Ratio (z) = -0.12921 0.29916
#
# Static dielectric constant tensor:
#      x y z
#    x 3.520410 0.000000 -0.104500 
#    y 0.000000 3.689060 0.000000 
#    z -0.104500 0.000000 3.976470 
# 
# 
# High freq. dielectric constant tensor:
#      x y z
#    x 1.789350 0.000000 -0.004070 
#    y 0.000000 1.780060 0.000000 
#    z -0.004070 0.000000 1.798350 
# 
# From -- ./inp_files/260981.got.cif
#   From: 2010.06.25/outbox.cif.g09.slc.cpg/sg12_131_cif.got.tgz:260981.got - 2010.06.28 00:19:55.
