data_PCOD8106738
_publ_section_title
;
Structure prediction by ZEFSAII (Michael W. Deem and Ramdas Pophale) SiO2 
 PCOD8106738
Probable space group: C 2/M
;
_chemical_formula_sum "Si O2"
_cell_formula_units_Z 64
_cell_length_a 9.093634
_cell_length_b 27.486781
_cell_length_c 13.492971
_cell_angle_alpha 90.000000
_cell_angle_beta 76.379782
_cell_angle_gamma 90.000000
_cell_volume 3277.786602
_symmetry_space_group_name_H-M "C 2/M"
_symmetry_group_IT_number 12
_symmetry_cell_setting 'monoclinic'
loop_
_space_group_symop_operation_xyz
x,y,z
-x,y,-z
-x,-y,-z
x,-y,z
1/2+x,1/2+y,z
1/2-x,1/2+y,-z
1/2-x,1/2-y,-z
1/2+x,1/2-y,z
loop_
_atom_site_type_symbol
_atom_site_label
_atom_site_fract_x
_atom_site_fract_y
_atom_site_fract_z
Si Si1 0.661544 0.447812 0.274652
Si Si2 0.767843 0.697141 0.354682
Si Si3 0.700021 0.350364 0.771848
Si Si4 0.195389 0.945665 0.671714
Si Si5 0.320515 0.399190 0.530300
Si Si6 0.574676 0.789197 0.389001
Si Si7 0.323777 0.699380 0.019185
Si Si8 0.844767 0.850989 0.819336
O O1 0.729557 0.500000 0.230566
O O2 0.482391 0.451642 0.308012
O O3 0.724801 0.435492 0.373604
O O4 0.707570 0.406580 0.188875
O O5 0.751598 0.653160 0.434962
O O6 0.648668 0.737890 0.405704
O O7 0.738867 0.683320 0.245485
O O8 0.940252 0.716764 0.329809
O O9 0.738222 0.408543 0.755635
O O10 0.794361 0.323915 0.672098
O O11 0.741725 0.326293 0.871299
O O12 0.523634 0.343439 0.775714
O O13 0.249052 0.921376 0.559432
O O14 0.267105 0.000000 0.676637
O O15 0.500000 0.392013 0.500000
O O16 0.500000 0.811268 0.500000
O O17 0.500000 0.709986 0.000000
O O18 0.250000 0.750000 0.000000
O O19 0.290531 0.661163 0.937731
#
# Coordination Sequence:
#
# PCOD8106738 Si02
#       8
#     8   8   8   8   8   8   8   8
#     4   8  14  25  46  77 108 136 170 215 265 317
#     4  11  22  35  52  76 107 143 182 222 267 318
#     4  10  21  37  55  78 109 142 180 225 270 321
#     4   9  16  29  51  76 103 138 177 217 263 314
#     4   9  16  28  48  74 106 142 180 218 259 312
#     4  12  24  36  52  76 110 146 180 217 266 321
#     4  10  21  37  57  79 104 138 179 224 272 320
#     4   9  19  36  56  79 107 137 178 227 271 313
#
# _framework density 19.525371
#
# number of rings (size 3 to 8) (size 9 to 14) (size 15 to 20)
#    0.000    2.250    0.000    4.125    0.000    4.500 
#    0.000    0.625    0.000   10.125    0.000    0.000 
#    0.000    6.000    0.000    0.000    0.000    0.000 
#
# Total GULP energy -396589.416386 kJ/mol
# GULP energy per Si atom -12393.419262 kJ/mol
# Density = 1.948093 g / cm^3
# Si number density = 19.525371 Si / 1000 Ang^3
#
#
#
# Elastic Constant Matrix: (Units=GPa)
#
#
# Indices 1 2 3 4 5 6 
#
# 1 50.6660 35.2240 21.3300 0.0000 10.7069 0.0000
# 2 35.2240 160.0662 72.0202 0.0000 8.3317 0.0000
# 3 21.3300 72.0202 117.3762 0.0000 14.6584 0.0000
# 4 0.0000 0.0000 0.0000 21.3964 0.0000 6.9213
# 5 10.7069 8.3317 14.6584 0.0000 21.6136 0.0000
# 6 0.0000 0.0000 0.0000 6.9213 0.0000 17.0788
#
#
#
# Elastic Compliance Matrix: (Units=1/GPa)
#
#
# Indices 1 2 3 4 5 6 
#
# 1 0.025519 -0.004935 -0.000293 0.000000 -0.010541 0.000000
# 2 -0.004935 0.009586 -0.005276 0.000000 0.002328 0.000000
# 3 -0.000293 -0.005276 0.012605 0.000000 -0.006370 0.000000
# 4 0.000000 0.000000 0.000000 0.053788 0.000000 -0.021798
# 5 -0.010541 0.002328 -0.006370 0.000000 0.054912 0.000000
# 6 0.000000 0.000000 0.000000 -0.021798 0.000000 0.067386
#
#
# Mechanical properties :
#
#
# Convention : Reuss Voigt Hill
#
# Bulk Modulus (GPa) = 37.44915 65.02853 51.23884
# Shear Modulus (GPa) = 19.70796 25.32004 22.51400
#
# Velocity S-wave (km/s) = 3.18048 3.60498 3.39936
# Velocity P-wave (km/s) = 5.71914 7.12073 6.45807
#
# Compressibility (1/GPa) = 0.02670288
#
# Stress axis : x y z
#
# Youngs Moduli (GPa) = 39.18652 104.31831 79.33084
#
# Poissons Ratio (x) = 0.51484 0.02323
# Poissons Ratio (y) = 0.19340 0.41852
# Poissons Ratio (z) = 0.01148 0.55035
#
# Static dielectric constant tensor:
#      x y z
#    x 3.363300 0.000000 0.166820 
#    y 0.000000 4.066430 0.000000 
#    z 0.166820 0.000000 3.525770 
# 
# 
# High freq. dielectric constant tensor:
#      x y z
#    x 1.732350 0.000000 0.013540 
#    y 0.000000 1.770090 0.000000 
#    z 0.013540 0.000000 1.744060 
# 
# From -- ./inp_files/199781.got.cif
#   From: 2010.06.25/outbox.cif.g09.slc.cpg/sg12_100_cif.got.tgz:199781.got - 2010.06.28 00:19:55.
