data_PCOD8106722
_publ_section_title
;
Structure prediction by ZEFSAII (Michael W. Deem and Ramdas Pophale) SiO2 
 PCOD8106722
Probable space group: C 2/M
;
_chemical_formula_sum "Si O2"
_cell_formula_units_Z 40
_cell_length_a 14.596293
_cell_length_b 8.682520
_cell_length_c 16.345178
_cell_angle_alpha 90.000000
_cell_angle_beta 87.891389
_cell_angle_gamma 90.000000
_cell_volume 2070.064360
_symmetry_space_group_name_H-M "C 2/M"
_symmetry_group_IT_number 12
_symmetry_cell_setting 'monoclinic'
loop_
_space_group_symop_operation_xyz
x,y,z
-x,y,-z
-x,-y,-z
x,-y,z
1/2+x,1/2+y,z
1/2-x,1/2+y,-z
1/2-x,1/2-y,-z
1/2+x,1/2-y,z
loop_
_atom_site_type_symbol
_atom_site_label
_atom_site_fract_x
_atom_site_fract_y
_atom_site_fract_z
Si Si1 0.350933 0.317800 0.000775
Si Si2 0.143768 0.321279 0.580520
Si Si3 0.004541 0.817481 0.873926
Si Si4 0.988404 0.819328 0.690506
Si Si5 0.329658 0.178152 0.607004
O O1 0.342036 0.500000 0.999054
O O2 0.412628 0.257319 0.922667
O O3 0.250000 0.250000 0.000000
O O4 0.403230 0.263482 0.081997
O O5 0.166699 0.500000 0.592239
O O6 0.223098 0.220071 0.619321
O O7 0.135045 0.282057 0.485100
O O8 0.049273 0.277779 0.626002
O O9 0.006911 0.756281 0.781255
O O10 0.999960 0.000000 0.874952
O O11 0.883872 0.783125 0.669942
O O12 0.009028 0.000000 0.682195
O O13 0.343895 0.000000 0.628264
#
# Coordination Sequence:
#
# PCOD8106722 Si02
#       5
#     8   8   8   8   8
#     4   9  17  35  58  76 100 135 171 207 252 304
#     4  10  21  37  55  76 104 140 181 221 262 310
#     4   8  18  35  53  75 105 138 169 204 252 313
#     4  11  21  34  54  80 109 140 174 215 265 313
#     4  10  21  37  55  76 104 140 181 221 262 310
#
# _framework density 19.323072
#
# number of rings (size 3 to 8) (size 9 to 14) (size 15 to 20)
#    0.000    2.400    0.000    3.600    0.000    6.400 
#    0.000   10.000    0.000    0.000    0.000    0.000 
#    0.000    0.000    0.000    0.000    0.000    0.000 
#
# Total GULP energy -248005.083143 kJ/mol
# GULP energy per Si atom -12400.254157 kJ/mol
# Density = 1.927909 g / cm^3
# Si number density = 19.323072 Si / 1000 Ang^3
#
#
#
# Elastic Constant Matrix: (Units=GPa)
#
#
# Indices 1 2 3 4 5 6 
#
# 1 117.9453 22.0234 38.9767 0.0000 17.0255 0.0000
# 2 22.0234 41.2674 30.3905 0.0000 4.6453 0.0000
# 3 38.9767 30.3905 76.3027 0.0000 23.7035 0.0000
# 4 0.0000 0.0000 0.0000 19.1152 0.0000 2.1640
# 5 17.0255 4.6453 23.7035 0.0000 22.3406 0.0000
# 6 0.0000 0.0000 0.0000 2.1640 0.0000 38.9007
#
#
#
# Elastic Compliance Matrix: (Units=1/GPa)
#
#
# Indices 1 2 3 4 5 6 
#
# 1 0.010631 -0.003107 -0.002800 0.000000 -0.004485 0.000000
# 2 -0.003107 0.037104 -0.017198 0.000000 0.012900 0.000000
# 3 -0.002800 -0.017198 0.029254 0.000000 -0.025329 0.000000
# 4 0.000000 0.000000 0.000000 0.052646 0.000000 -0.002929
# 5 -0.004485 0.012900 -0.025329 0.000000 0.072372 0.000000
# 6 0.000000 0.000000 0.000000 -0.002929 0.000000 0.025869
#
#
# Mechanical properties :
#
#
# Convention : Reuss Voigt Hill
#
# Bulk Modulus (GPa) = 32.48963 46.47740 39.48352
# Shear Modulus (GPa) = 17.58420 25.67961 21.63191
#
# Velocity S-wave (km/s) = 3.01991 3.64945 3.34950
# Velocity P-wave (km/s) = 5.38611 6.47016 5.95286
#
# Compressibility (1/GPa) = 0.03077905
#
# Stress axis : x y z
#
# Youngs Moduli (GPa) = 94.06133 26.95163 34.18300
#
# Poissons Ratio (x) = 0.08374 0.09571
# Poissons Ratio (y) = 0.29224 0.58789
# Poissons Ratio (z) = 0.26336 0.46352
#
# Static dielectric constant tensor:
#      x y z
#    x 3.558870 0.000000 0.062470 
#    y 0.000000 3.258300 0.000000 
#    z 0.062470 0.000000 3.777330 
# 
# 
# High freq. dielectric constant tensor:
#      x y z
#    x 1.759200 0.000000 0.007160 
#    y 0.000000 1.735240 0.000000 
#    z 0.007160 0.000000 1.747780 
# 
# From -- ./inp_files/211336.got.cif
#   From: 2010.06.25/outbox.cif.g09.slc.cpg/sg12_106_cif.got.tgz:211336.got - 2010.06.28 00:19:55.
