data_PCOD8106242
_publ_section_title
;
Structure prediction by ZEFSAII (Michael W. Deem and Ramdas Pophale) SiO2 
 PCOD8106242
Probable space group: C 2/M
;
_chemical_formula_sum "Si O2"
_cell_formula_units_Z 64
_cell_length_a 20.291504
_cell_length_b 8.944742
_cell_length_c 20.002580
_cell_angle_alpha 90.000000
_cell_angle_beta 59.104375
_cell_angle_gamma 90.000000
_cell_volume 3115.358696
_symmetry_space_group_name_H-M "C 2/M"
_symmetry_group_IT_number 12
_symmetry_cell_setting 'monoclinic'
loop_
_space_group_symop_operation_xyz
x,y,z
-x,y,-z
-x,-y,-z
x,-y,z
1/2+x,1/2+y,z
1/2-x,1/2+y,-z
1/2-x,1/2-y,-z
1/2+x,1/2-y,z
loop_
_atom_site_type_symbol
_atom_site_label
_atom_site_fract_x
_atom_site_fract_y
_atom_site_fract_z
Si Si1 0.831945 0.168928 0.077135
Si Si2 0.410176 0.176311 0.339629
Si Si3 0.070132 0.176771 0.230412
Si Si4 0.399197 0.823609 0.916752
Si Si5 0.258199 0.170910 0.335083
Si Si6 0.805477 0.670403 0.758217
Si Si7 0.049030 0.338449 0.908719
Si Si8 0.823399 0.172929 0.492023
O O1 0.745361 0.181819 0.147944
O O2 0.884923 0.218455 0.112399
O O3 0.854002 0.000000 0.046387
O O4 0.843607 0.271248 0.005819
O O5 0.486905 0.248157 0.270782
O O6 0.338873 0.217463 0.327973
O O7 0.396741 0.244143 0.421347
O O8 0.420472 0.000000 0.340723
O O9 0.119185 0.232632 0.140748
O O10 0.117991 0.230836 0.270548
O O11 0.061880 0.000000 0.235781
O O12 0.488899 0.785129 0.884099
O O13 0.385872 0.000000 0.913246
O O14 0.243463 0.273815 0.279235
O O15 0.185299 0.190401 0.423394
O O16 0.263739 0.000000 0.308486
O O17 0.830120 0.500000 0.732266
O O18 0.085677 0.500000 0.869354
O O19 0.000000 0.363517 0.000000
O O20 0.750000 0.250000 0.500000
O O21 0.825699 0.000000 0.470021
#
# Coordination Sequence:
#
# PCOD8106242 Si02
#       8
#     8   8   8   8   8   8   8   8
#     4  10  21  36  56  84 114 150 197 249 299 352
#     4  10  21  39  64  94 126 160 197 244 298 357
#     4  12  26  42  61  85 118 159 202 251 303 358
#     4  10  21  38  59  83 113 153 197 245 301 360
#     4   9  20  38  63  93 124 159 197 239 292 351
#     4  11  25  42  59  84 121 160 201 250 301 355
#     4   8  16  31  52  79 109 143 181 230 291 348
#     4   9  17  33  59  93 127 159 198 245 293 349
#
# _framework density 20.543379999999999
#
# number of rings (size 3 to 8) (size 9 to 14) (size 15 to 20)
#    0.000    2.125    0.000    4.500    1.750    8.250 
#    0.000    0.625    0.000    3.750    0.000    0.000 
#    0.000    0.000    0.000    0.000    0.000    0.000 
#
# Total GULP energy -396666.925654 kJ/mol
# GULP energy per Si atom -12395.841427 kJ/mol
# Density = 2.049662 g / cm^3
# Si number density = 20.543380 Si / 1000 Ang^3
#
#
#
# Elastic Constant Matrix: (Units=GPa)
#
#
# Indices 1 2 3 4 5 6 
#
# 1 81.9851 50.0925 31.7724 0.0003 2.8807 0.0024
# 2 50.0925 146.3990 53.0711 0.0009 0.1649 0.0053
# 3 31.7724 53.0711 91.2893 0.0000 1.2646 0.0000
# 4 0.0003 0.0009 0.0000 29.4693 -0.0001 -2.2726
# 5 2.8807 0.1649 1.2646 -0.0001 13.7719 0.0004
# 6 0.0024 0.0053 0.0000 -2.2726 0.0004 28.5818
#
#
#
# Elastic Compliance Matrix: (Units=1/GPa)
#
#
# Indices 1 2 3 4 5 6 
#
# 1 0.016186 -0.004445 -0.003007 0.000000 -0.003056 -0.000001
# 2 -0.004445 0.009877 -0.004212 0.000000 0.001198 -0.000002
# 3 -0.003007 -0.004212 0.014458 0.000000 -0.000648 0.000001
# 4 0.000000 0.000000 0.000000 0.034143 0.000000 0.002715
# 5 -0.003056 0.001198 -0.000648 0.000000 0.073296 -0.000001
# 6 -0.000001 -0.000002 0.000001 0.002715 -0.000001 0.035203
#
#
# Mechanical properties :
#
#
# Convention : Reuss Voigt Hill
#
# Bulk Modulus (GPa) = 58.15937 65.50505 61.83221
# Shear Modulus (GPa) = 23.56033 26.68042 25.12038
#
# Velocity S-wave (km/s) = 3.39020 3.60771 3.50064
# Velocity P-wave (km/s) = 6.61034 7.02207 6.81931
#
# Compressibility (1/GPa) = 0.01719413
#
# Stress axis : x y z
#
# Youngs Moduli (GPa) = 61.78285 101.24700 69.16509
#
# Poissons Ratio (x) = 0.45001 0.20798
# Poissons Ratio (y) = 0.27460 0.29130
# Poissons Ratio (z) = 0.18579 0.42641
#
# Static dielectric constant tensor:
#      x y z
#    x 3.732620 0.000000 0.053320 
#    y 0.000000 3.833250 0.000000 
#    z 0.053320 0.000000 3.947980 
# 
# 
# High freq. dielectric constant tensor:
#      x y z
#    x 1.783010 0.000000 0.000570 
#    y 0.000000 1.809890 0.000000 
#    z 0.000570 0.000000 1.800850 
# 
# From -- ./inp_files/319931.got.cif
#   From: 2010.06.25/outbox.cif.g09.slc.cpg/sg12_160_cif.got.tgz:319931.got - 2010.06.28 00:19:55.
