data_PCOD8106922
_publ_section_title
;
Structure prediction by ZEFSAII (Michael W. Deem and Ramdas Pophale) SiO2 
 PCOD8106922
Probable space group: C 2/M
;
_chemical_formula_sum "Si O2"
_cell_formula_units_Z 64
_cell_length_a 17.919518
_cell_length_b 8.974983
_cell_length_c 30.443312
_cell_angle_alpha 90.000000
_cell_angle_beta 137.735477
_cell_angle_gamma 90.000000
_cell_volume 3292.905618
_symmetry_space_group_name_H-M "C 2/M"
_symmetry_group_IT_number 12
_symmetry_cell_setting 'monoclinic'
loop_
_space_group_symop_operation_xyz
x,y,z
-x,y,-z
-x,-y,-z
x,-y,z
1/2+x,1/2+y,z
1/2-x,1/2+y,-z
1/2-x,1/2-y,-z
1/2+x,1/2-y,z
loop_
_atom_site_type_symbol
_atom_site_label
_atom_site_fract_x
_atom_site_fract_y
_atom_site_fract_z
Si Si1 0.271405 0.328159 0.188168
Si Si2 0.049241 0.172157 0.807971
Si Si3 0.745402 0.324829 0.564659
Si Si4 0.546324 0.327877 0.068238
Si Si5 0.581541 0.175439 0.432843
Si Si6 0.178361 0.323854 0.306750
Si Si7 0.134934 0.825717 0.939375
Si Si8 0.665256 0.176584 0.695452
O O1 0.268180 0.500000 0.201434
O O2 0.349906 0.302830 0.180973
O O3 0.149980 0.277581 0.121321
O O4 0.316920 0.228933 0.247392
O O5 0.088034 0.229765 0.872381
O O6 0.948319 0.272949 0.747954
O O7 0.011331 0.000000 0.793245
O O8 0.729089 0.500000 0.554506
O O9 0.632449 0.248853 0.498699
O O10 0.849057 0.273008 0.579736
O O11 0.766739 0.272559 0.623555
O O12 0.581449 0.500000 0.089795
O O13 0.452635 0.280393 0.061781
O O14 0.500000 0.297260 0.000000
O O15 0.455740 0.231103 0.372902
O O16 0.586895 0.000000 0.441060
O O17 0.183792 0.500000 0.303276
O O18 0.241692 0.246910 0.294606
O O19 0.157147 0.000000 0.947934
O O20 0.250000 0.750000 0.000000
O O21 0.676250 0.000000 0.698505
#
# Coordination Sequence:
#
# PCOD8106922 Si02
#       8
#     8   8   8   8   8   8   8   8
#     4  11  23  38  59  86 113 147 194 241 287 340
#     4  10  22  39  58  83 115 150 189 235 285 335
#     4   9  19  36  57  82 112 144 183 234 283 330
#     4  10  21  37  58  85 117 154 194 234 282 339
#     4   9  19  36  58  82 108 146 191 229 277 340
#     4  11  23  38  58  85 115 149 191 234 282 340
#     4  10  21  37  57  82 113 148 186 230 281 334
#     4  11  23  39  58  81 114 151 188 235 288 342
#
# _framework density 19.435722999999999
#
# number of rings (size 3 to 8) (size 9 to 14) (size 15 to 20)
#    0.000    1.875    0.000    3.375    0.000    6.750 
#    0.000    5.000    0.000    0.000    0.000    0.000 
#    0.000    0.000    0.000    0.000    0.000    0.000 
#
# Total GULP energy -396973.618811 kJ/mol
# GULP energy per Si atom -12405.425588 kJ/mol
# Density = 1.939149 g / cm^3
# Si number density = 19.435723 Si / 1000 Ang^3
#
#
#
# Elastic Constant Matrix: (Units=GPa)
#
#
# Indices 1 2 3 4 5 6 
#
# 1 109.6245 38.4724 61.9676 0.0000 -4.8754 0.0000
# 2 38.4724 55.6410 46.6230 0.0000 3.0826 0.0000
# 3 61.9676 46.6230 138.3736 0.0000 -0.9302 0.0000
# 4 0.0000 0.0000 0.0000 39.0725 0.0000 3.0651
# 5 -4.8754 3.0826 -0.9302 0.0000 40.6876 0.0000
# 6 0.0000 0.0000 0.0000 3.0651 0.0000 24.2941
#
#
#
# Elastic Compliance Matrix: (Units=1/GPa)
#
#
# Indices 1 2 3 4 5 6 
#
# 1 0.013653 -0.006186 -0.004016 0.000000 0.002013 0.000000
# 2 -0.006186 0.028025 -0.006692 0.000000 -0.003017 0.000000
# 3 -0.004016 -0.006692 0.011282 0.000000 0.000284 0.000000
# 4 0.000000 0.000000 0.000000 0.025849 0.000000 -0.003261
# 5 0.002013 -0.003017 0.000284 0.000000 0.025054 0.000000
# 6 0.000000 0.000000 0.000000 -0.003261 0.000000 0.041574
#
#
# Mechanical properties :
#
#
# Convention : Reuss Voigt Hill
#
# Bulk Modulus (GPa) = 52.16512 66.41835 59.29173
# Shear Modulus (GPa) = 26.93723 31.24924 29.09323
#
# Velocity S-wave (km/s) = 3.72689 4.01412 3.87317
# Velocity P-wave (km/s) = 6.73927 7.46537 7.11159
#
# Compressibility (1/GPa) = 0.01916990
#
# Stress axis : x y z
#
# Youngs Moduli (GPa) = 73.24442 35.68267 88.63514
#
# Poissons Ratio (x) = 0.22075 0.35598
# Poissons Ratio (y) = 0.45312 0.59318
# Poissons Ratio (z) = 0.29417 0.23880
#
# Static dielectric constant tensor:
#      x y z
#    x 3.770170 0.000000 -0.269320 
#    y 0.000000 3.551930 0.000000 
#    z -0.269320 0.000000 4.014930 
# 
# 
# High freq. dielectric constant tensor:
#      x y z
#    x 1.766850 0.000000 -0.002430 
#    y 0.000000 1.753610 0.000000 
#    z -0.002430 0.000000 1.771550 
# 
# From -- ./inp_files/378479.got.cif
#   From: 2010.06.25/outbox.cif.g09.slc.cpg/sg12_190_cif.got.tgz:378479.got - 2010.06.28 00:19:55.
