data_PCOD8106280
_publ_section_title
;
Structure prediction by ZEFSAII (Michael W. Deem and Ramdas Pophale) SiO2 
 PCOD8106280
Probable space group: C 2/M
;
_chemical_formula_sum "Si O2"
_cell_formula_units_Z 56
_cell_length_a 9.768818
_cell_length_b 21.488388
_cell_length_c 16.831624
_cell_angle_alpha 90.000000
_cell_angle_beta 53.339908
_cell_angle_gamma 90.000000
_cell_volume 2834.327606
_symmetry_space_group_name_H-M "C 2/M"
_symmetry_group_IT_number 12
_symmetry_cell_setting 'monoclinic'
loop_
_space_group_symop_operation_xyz
x,y,z
-x,y,-z
-x,-y,-z
x,-y,z
1/2+x,1/2+y,z
1/2-x,1/2+y,-z
1/2-x,1/2-y,-z
1/2+x,1/2-y,z
loop_
_atom_site_type_symbol
_atom_site_label
_atom_site_fract_x
_atom_site_fract_y
_atom_site_fract_z
Si Si1 0.332976 0.131767 0.202840
Si Si2 0.332074 0.070909 0.930546
Si Si3 0.270449 0.428683 0.204181
Si Si4 0.951865 0.748743 0.925524
Si Si5 0.311761 0.427928 0.593095
Si Si6 0.009054 0.572211 0.583811
Si Si7 0.398513 0.629115 0.865105
O O1 0.461847 0.074539 0.141042
O O2 0.452613 0.193076 0.154390
O O3 0.251159 0.120021 0.317511
O O4 0.172197 0.134565 0.199303
O O5 0.249360 0.098748 0.877975
O O6 0.276250 0.000000 0.965441
O O7 0.264657 0.114886 0.023774
O O8 0.216805 0.500000 0.213214
O O9 0.460299 0.424737 0.174567
O O10 0.133847 0.395997 0.310130
O O11 0.001881 0.809834 0.857801
O O12 0.750000 0.750000 0.000000
O O13 0.000000 0.750637 0.000000
O O14 0.500000 0.409435 0.500000
O O15 0.303891 0.500000 0.625713
O O16 0.195125 0.418370 0.556229
O O17 0.961636 0.500000 0.590789
O O18 0.000000 0.604143 0.500000
#
# Coordination Sequence:
#
# PCOD8106280 Si02
#       7
#     8   8   8   8   8   8   8
#     4  12  24  40  60  91 124 160 211 263 312 369
#     4  11  21  37  57  85 128 167 197 244 309 373
#     4  10  21  36  56  88 125 162 201 248 311 372
#     4  12  23  43  63  88 120 164 219 261 303 368
#     4  10  22  40  65  94 127 165 203 256 321 380
#     4   9  18  35  58  86 119 156 202 248 297 368
#     4  12  25  37  60  89 124 163 210 254 304 375
#
# _framework density 19.757774000000001
#
# number of rings (size 3 to 8) (size 9 to 14) (size 15 to 20)
#    0.000    1.143    4.286    2.571    2.000    4.000 
#    0.000    0.000    0.000    1.714    0.000    0.000 
#    0.000    0.000    0.000    0.000    0.000    0.000 
#
# Total GULP energy -347092.244087 kJ/mol
# GULP energy per Si atom -12396.151575 kJ/mol
# Density = 1.971280 g / cm^3
# Si number density = 19.757774 Si / 1000 Ang^3
#
#
#
# Elastic Constant Matrix: (Units=GPa)
#
#
# Indices 1 2 3 4 5 6 
#
# 1 123.1825 26.7967 51.0069 0.0000 2.9394 0.0000
# 2 26.7967 61.4213 32.4447 0.0000 10.2811 0.0000
# 3 51.0069 32.4447 114.1837 0.0000 5.8227 0.0000
# 4 0.0000 0.0000 0.0000 21.5837 0.0000 -0.2388
# 5 2.9394 10.2811 5.8227 0.0000 38.7775 0.0000
# 6 0.0000 0.0000 0.0000 -0.2388 0.0000 22.1103
#
#
#
# Elastic Compliance Matrix: (Units=1/GPa)
#
#
# Indices 1 2 3 4 5 6 
#
# 1 0.010265 -0.002497 -0.003900 0.000000 0.000469 0.000000
# 2 -0.002497 0.020501 -0.004477 0.000000 -0.004574 0.000000
# 3 -0.003900 -0.004477 0.011787 0.000000 -0.000287 0.000000
# 4 0.000000 0.000000 0.000000 0.046337 0.000000 0.000500
# 5 0.000469 -0.004574 -0.000287 0.000000 0.027008 0.000000
# 6 0.000000 0.000000 0.000000 0.000500 0.000000 0.045233
#
#
# Mechanical properties :
#
#
# Convention : Reuss Voigt Hill
#
# Bulk Modulus (GPa) = 48.06429 57.69823 52.88126
# Shear Modulus (GPa) = 26.34187 29.06358 27.70273
#
# Velocity S-wave (km/s) = 3.65532 3.83952 3.74855
# Velocity P-wave (km/s) = 6.49575 6.99443 6.74969
#
# Compressibility (1/GPa) = 0.02080547
#
# Stress axis : x y z
#
# Youngs Moduli (GPa) = 97.41997 48.77914 84.84242
#
# Poissons Ratio (x) = 0.12180 0.33087
# Poissons Ratio (y) = 0.24324 0.37980
# Poissons Ratio (z) = 0.37993 0.21836
#
# Static dielectric constant tensor:
#      x y z
#    x 3.626870 0.000000 0.076300 
#    y 0.000000 3.725930 0.000000 
#    z 0.076300 0.000000 3.699380 
# 
# 
# High freq. dielectric constant tensor:
#      x y z
#    x 1.786850 0.000000 0.000320 
#    y 0.000000 1.736050 0.000000 
#    z 0.000320 0.000000 1.763880 
# 
# From -- ./inp_files/198777.got.cif
#   From: 2010.06.25/outbox.cif.g09.slc.cpg/sg12_100_cif.got.tgz:198777.got - 2010.06.28 00:19:55.
