data_PCOD8106774
_publ_section_title
;
Structure prediction by ZEFSAII (Michael W. Deem and Ramdas Pophale) SiO2 
 PCOD8106774
Probable space group: C 2/M
;
_chemical_formula_sum "Si O2"
_cell_formula_units_Z 64
_cell_length_a 22.791800
_cell_length_b 9.091134
_cell_length_c 19.529645
_cell_angle_alpha 90.000000
_cell_angle_beta 57.194052
_cell_angle_gamma 90.000000
_cell_volume 3401.215157
_symmetry_space_group_name_H-M "C 2/M"
_symmetry_group_IT_number 12
_symmetry_cell_setting 'monoclinic'
loop_
_space_group_symop_operation_xyz
x,y,z
-x,y,-z
-x,-y,-z
x,-y,z
1/2+x,1/2+y,z
1/2-x,1/2+y,-z
1/2-x,1/2-y,-z
1/2+x,1/2-y,z
loop_
_atom_site_type_symbol
_atom_site_label
_atom_site_fract_x
_atom_site_fract_y
_atom_site_fract_z
Si Si1 0.598482 0.836402 0.233551
Si Si2 0.480614 0.328370 0.228127
Si Si3 0.048743 0.171820 0.905186
Si Si4 0.248030 0.666910 0.071600
Si Si5 0.191143 0.329894 0.455165
Si Si6 0.817270 0.671447 0.693157
Si Si7 0.190954 0.324952 0.841852
Si Si8 0.654012 0.326730 0.608923
O O1 0.543543 0.730919 0.233468
O O2 0.669494 0.830804 0.146801
O O3 0.616988 0.787044 0.299840
O O4 0.566685 0.000000 0.253321
O O5 0.481453 0.500000 0.239162
O O6 0.490651 0.290948 0.141374
O O7 0.406943 0.265432 0.303062
O O8 0.116534 0.272917 0.861615
O O9 0.070097 0.000000 0.894514
O O10 0.000000 0.214428 0.000000
O O11 0.275633 0.500000 0.046225
O O12 0.298864 0.753335 0.090319
O O13 0.250000 0.750000 0.000000
O O14 0.185848 0.500000 0.478152
O O15 0.160574 0.299164 0.399005
O O16 0.271940 0.277645 0.405948
O O17 0.145013 0.240930 0.538787
O O18 0.796515 0.500000 0.718343
O O19 0.750266 0.769899 0.752461
O O20 0.193508 0.500000 0.845892
O O21 0.649225 0.500000 0.604555
#
# Coordination Sequence:
#
# PCOD8106774 Si02
#       8
#     8   8   8   8   8   8   8   8
#     4   9  20  36  54  78 106 140 180 225 273 319
#     4  10  21  37  56  77 108 148 184 220 272 336
#     4  10  22  39  57  78 104 143 187 226 274 331
#     4  10  21  37  57  80 107 141 182 230 279 326
#     4   9  17  32  57  82 106 137 180 227 269 322
#     4   9  18  36  58  79 107 144 183 226 272 322
#     4  11  22  35  54  82 111 140 177 224 275 328
#     4   9  18  32  51  80 112 140 173 220 275 328
#
# _framework density 18.816804000000001
#
# number of rings (size 3 to 8) (size 9 to 14) (size 15 to 20)
#    0.000    2.375    0.000    3.000    1.750    6.250 
#    0.000    3.125    0.000    3.750    0.000    0.000 
#    0.000    0.000    0.000    0.000    0.000    0.000 
#
# Total GULP energy -396782.835622 kJ/mol
# GULP energy per Si atom -12399.463613 kJ/mol
# Density = 1.877398 g / cm^3
# Si number density = 18.816804 Si / 1000 Ang^3
#
#
#
# Elastic Constant Matrix: (Units=GPa)
#
#
# Indices 1 2 3 4 5 6 
#
# 1 109.7486 40.3901 53.2257 0.0001 16.4351 0.0000
# 2 40.3901 71.0951 32.1365 0.0006 6.9163 -0.0003
# 3 53.2257 32.1365 100.9755 0.0004 29.3587 -0.0005
# 4 0.0001 0.0006 0.0004 28.9291 -0.0002 2.2632
# 5 16.4351 6.9163 29.3587 -0.0002 29.1432 0.0004
# 6 0.0000 -0.0003 -0.0005 2.2632 0.0004 33.5848
#
#
#
# Elastic Compliance Matrix: (Units=1/GPa)
#
#
# Indices 1 2 3 4 5 6 
#
# 1 0.013796 -0.005366 -0.005194 0.000000 -0.001275 0.000000
# 2 -0.005366 0.018594 -0.003799 0.000000 0.002440 0.000000
# 3 -0.005194 -0.003799 0.018012 0.000000 -0.014315 0.000000
# 4 0.000000 0.000000 0.000000 0.034751 0.000001 -0.002342
# 5 -0.001275 0.002440 -0.014315 0.000001 0.048874 -0.000001
# 6 0.000000 0.000000 0.000000 -0.002342 -0.000001 0.029933
#
#
# Mechanical properties :
#
#
# Convention : Reuss Voigt Hill
#
# Bulk Modulus (GPa) = 46.11439 59.25820 52.68630
# Shear Modulus (GPa) = 25.01181 28.73587 26.87384
#
# Velocity S-wave (km/s) = 3.64981 3.91210 3.78323
# Velocity P-wave (km/s) = 6.50552 7.20879 6.86616
#
# Compressibility (1/GPa) = 0.02168520
#
# Stress axis : x y z
#
# Youngs Moduli (GPa) = 72.48264 53.78096 55.51803
#
# Poissons Ratio (x) = 0.28860 0.28835
# Poissons Ratio (y) = 0.38896 0.21089
# Poissons Ratio (z) = 0.37647 0.20429
#
# Static dielectric constant tensor:
#      x y z
#    x 3.367740 0.000010 0.106730 
#    y 0.000010 3.575430 0.000010 
#    z 0.106730 0.000010 3.441880 
# 
# 
# High freq. dielectric constant tensor:
#      x y z
#    x 1.727480 0.000000 0.017610 
#    y 0.000000 1.723190 0.000000 
#    z 0.017610 0.000000 1.729150 
# 
# From -- ./inp_files/319935.got.cif
#   From: 2010.06.25/outbox.cif.g09.slc.cpg/sg12_160_cif.got.tgz:319935.got - 2010.06.28 00:19:55.
