data_PCOD8106229
_publ_section_title
;
Structure prediction by ZEFSAII (Michael W. Deem and Ramdas Pophale) SiO2 
 PCOD8106229
Probable space group: C 2/M
;
_chemical_formula_sum "Si O2"
_cell_formula_units_Z 56
_cell_length_a 16.273636
_cell_length_b 8.343804
_cell_length_c 23.470378
_cell_angle_alpha 90.000000
_cell_angle_beta 57.641767
_cell_angle_gamma 90.000000
_cell_volume 2692.034866
_symmetry_space_group_name_H-M "C 2/M"
_symmetry_group_IT_number 12
_symmetry_cell_setting 'monoclinic'
loop_
_space_group_symop_operation_xyz
x,y,z
-x,y,-z
-x,-y,-z
x,-y,z
1/2+x,1/2+y,z
1/2-x,1/2+y,-z
1/2-x,1/2-y,-z
1/2+x,1/2-y,z
loop_
_atom_site_type_symbol
_atom_site_label
_atom_site_fract_x
_atom_site_fract_y
_atom_site_fract_z
Si Si1 0.559236 0.187781 0.921362
Si Si2 0.470742 0.311296 0.838876
Si Si3 0.754356 0.815578 0.435182
Si Si4 0.923048 0.318745 0.302860
Si Si5 0.223445 0.181977 0.151625
Si Si6 0.915236 0.183650 0.568712
Si Si7 0.405411 0.684551 0.698840
O O1 0.496889 0.269526 0.893994
O O2 0.668442 0.261829 0.891169
O O3 0.566173 0.000000 0.904633
O O4 0.500000 0.224215 0.000000
O O5 0.469864 0.500000 0.829104
O O6 0.559666 0.239949 0.768161
O O7 0.363141 0.244991 0.857531
O O8 0.750000 0.750000 0.500000
O O9 0.856712 0.797715 0.365703
O O10 0.684134 0.700875 0.426881
O O11 0.721488 0.000000 0.446677
O O12 0.882510 0.500000 0.317613
O O13 0.026006 0.309327 0.295161
O O14 0.195527 0.193637 0.229045
O O15 0.236154 0.000000 0.126753
O O16 0.897975 0.255030 0.637875
O O17 0.000000 0.270566 0.500000
O O18 0.944511 0.000000 0.565479
O O19 0.443555 0.500000 0.686131
#
# Coordination Sequence:
#
# PCOD8106229 Si02
#       7
#     8   8   8   8   8   8   8
#     4  10  21  37  59  89 123 161 205 253 303 366
#     4  10  21  39  61  87 119 159 203 250 308 368
#     4  12  25  40  58  83 116 154 198 245 294 351
#     4  11  22  38  61  87 116 151 193 244 301 357
#     4   8  17  35  57  82 117 161 199 240 304 367
#     4  10  21  36  56  83 114 152 193 238 297 355
#     4   9  18  35  58  82 113 152 191 238 298 359
#
# _framework density 20.802109000000002
#
# number of rings (size 3 to 8) (size 9 to 14) (size 15 to 20)
#    0.000    2.000    0.000    4.714    2.000    2.857 
#    0.000    3.571    0.000    0.000    0.000    0.000 
#    0.000    0.000    0.000    0.000    0.000    0.000 
#
# Total GULP energy -346911.749814 kJ/mol
# GULP energy per Si atom -12389.705351 kJ/mol
# Density = 2.075476 g / cm^3
# Si number density = 20.802109 Si / 1000 Ang^3
#
#
#
# Elastic Constant Matrix: (Units=GPa)
#
#
# Indices 1 2 3 4 5 6 
#
# 1 112.9871 12.6844 66.2410 0.0000 6.2144 0.0001
# 2 12.6844 45.1780 22.0294 0.0001 0.9698 0.0004
# 3 66.2410 22.0294 144.1828 0.0000 5.3361 0.0000
# 4 0.0000 0.0001 0.0000 13.5953 0.0000 -1.7877
# 5 6.2144 0.9698 5.3361 0.0000 41.3743 0.0000
# 6 0.0001 0.0004 0.0000 -1.7877 0.0000 21.8639
#
#
#
# Elastic Compliance Matrix: (Units=1/GPa)
#
#
# Indices 1 2 3 4 5 6 
#
# 1 0.012187 -0.000743 -0.005444 0.000000 -0.001111 0.000000
# 2 -0.000743 0.023962 -0.003319 0.000000 -0.000022 -0.000001
# 3 -0.005444 -0.003319 0.009958 0.000000 -0.000389 0.000000
# 4 0.000000 0.000000 0.000000 0.074354 0.000000 0.006080
# 5 -0.001111 -0.000022 -0.000389 0.000000 0.024387 0.000000
# 6 0.000000 -0.000001 0.000000 0.006080 0.000000 0.046235
#
#
# Mechanical properties :
#
#
# Convention : Reuss Voigt Hill
#
# Bulk Modulus (GPa) = 36.90753 56.02864 46.46809
# Shear Modulus (GPa) = 22.81777 28.79291 25.80534
#
# Velocity S-wave (km/s) = 3.31554 3.72443 3.52592
# Velocity P-wave (km/s) = 5.69542 6.74446 6.24202
#
# Compressibility (1/GPa) = 0.02709474
#
# Stress axis : x y z
#
# Youngs Moduli (GPa) = 82.05505 41.73255 100.41801
#
# Poissons Ratio (x) = 0.03101 0.54671
# Poissons Ratio (y) = 0.06098 0.33328
# Poissons Ratio (z) = 0.44673 0.13851
#
# Static dielectric constant tensor:
#      x y z
#    x 3.802300 0.000000 0.006560 
#    y 0.000000 3.425830 0.000000 
#    z 0.006560 0.000000 3.916350 
# 
# 
# High freq. dielectric constant tensor:
#      x y z
#    x 1.812850 0.000000 0.001530 
#    y 0.000000 1.784260 0.000000 
#    z 0.001530 0.000000 1.825520 
# 
# From -- ./inp_files/338448.got.cif
#   From: 2010.06.25/outbox.cif.g09.slc.cpg/sg12_170_cif.got.tgz:338448.got - 2010.06.28 00:19:55.
