data_PCOD8106231
_publ_section_title
;
Structure prediction by ZEFSAII (Michael W. Deem and Ramdas Pophale) SiO2 
 PCOD8106231
Probable space group: C 2/M
;
_chemical_formula_sum "Si O2"
_cell_formula_units_Z 52
_cell_length_a 29.550167
_cell_length_b 18.276783
_cell_length_c 9.977322
_cell_angle_alpha 90.000000
_cell_angle_beta 150.462007
_cell_angle_gamma 90.000000
_cell_volume 2656.569121
_symmetry_space_group_name_H-M "C 2/M"
_symmetry_group_IT_number 12
_symmetry_cell_setting 'monoclinic'
loop_
_space_group_symop_operation_xyz
x,y,z
-x,y,-z
-x,-y,-z
x,-y,z
1/2+x,1/2+y,z
1/2-x,1/2+y,-z
1/2-x,1/2-y,-z
1/2+x,1/2-y,z
loop_
_atom_site_type_symbol
_atom_site_label
_atom_site_fract_x
_atom_site_fract_y
_atom_site_fract_z
Si Si1 0.500000 0.761992 0.500000
Si Si2 0.308836 0.178464 0.018317
Si Si3 0.392813 0.914288 0.718940
Si Si4 0.564657 0.376953 0.778452
Si Si5 0.423014 0.416690 0.894846
Si Si6 0.222556 0.586545 0.320780
Si Si7 0.743512 0.839524 0.825791
O O1 0.584775 0.809596 0.666335
O O2 0.463309 0.709251 0.285093
O O3 0.261374 0.144513 0.027660
O O4 0.308365 0.120485 0.898444
O O5 0.257462 0.252628 0.840307
O O6 0.348240 0.890689 0.745453
O O7 0.347636 0.866770 0.484091
O O8 0.376185 0.000000 0.646724
O O9 0.500000 0.895239 0.000000
O O10 0.500000 0.416085 0.500000
O O11 0.545541 0.413619 0.870771
O O12 0.670984 0.385629 0.011555
O O13 0.414732 0.500000 0.826666
O O14 0.322888 0.380724 0.617308
O O15 0.500000 0.377487 0.000000
O O16 0.223882 0.500000 0.306988
#
# Coordination Sequence:
#
# PCOD8106231 Si02
#       7
#     4   8   8   8   8   8   8
#     4   8  20  38  56  80 114 148 188 242 290 340
#     4  10  22  38  60  84 120 150 195 245 291 354
#     4  10  22  41  62  87 122 159 200 244 290 347
#     4   9  19  37  58  78 113 148 191 234 289 347
#     4  10  21  36  56  83 115 148 187 237 294 351
#     4  10  22  40  60  86 121 156 193 246 296 348
#     4  10  21  39  60  86 115 157 197 242 294 345
#
# _framework density 19.574117999999999
#
# number of rings (size 3 to 8) (size 9 to 14) (size 15 to 20)
#    0.462    1.846    1.538    0.000    4.308    1.538 
#    0.000    1.154    0.000    0.000    0.000    0.000 
#    0.000    0.000    0.000    0.000    0.000    0.000 
#
# Total GULP energy -322312.565160 kJ/mol
# GULP energy per Si atom -12396.637122 kJ/mol
# Density = 1.952957 g / cm^3
# Si number density = 19.574118 Si / 1000 Ang^3
#
#
#
# Elastic Constant Matrix: (Units=GPa)
#
#
# Indices 1 2 3 4 5 6 
#
# 1 154.5039 32.7596 68.7022 0.0000 5.4401 0.0000
# 2 32.7596 35.3413 32.3708 0.0000 -2.3290 0.0000
# 3 68.7022 32.3708 132.1044 0.0000 12.1515 0.0000
# 4 0.0000 0.0000 0.0000 19.8808 0.0000 -3.2384
# 5 5.4401 -2.3290 12.1515 0.0000 37.8057 0.0000
# 6 0.0000 0.0000 0.0000 -3.2384 0.0000 17.6315
#
#
#
# Elastic Compliance Matrix: (Units=1/GPa)
#
#
# Indices 1 2 3 4 5 6 
#
# 1 0.009142 -0.005421 -0.003374 0.000000 -0.000565 0.000000
# 2 -0.005421 0.040750 -0.007696 0.000000 0.005764 0.000000
# 3 -0.003374 -0.007696 0.011551 0.000000 -0.003701 0.000000
# 4 0.000000 0.000000 0.000000 0.051851 0.000000 0.009524
# 5 -0.000565 0.005764 -0.003701 0.000000 0.028077 0.000000
# 6 0.000000 0.000000 0.000000 0.009524 0.000000 0.058466
#
#
# Mechanical properties :
#
#
# Convention : Reuss Voigt Hill
#
# Bulk Modulus (GPa) = 35.13708 65.51277 50.32493
# Shear Modulus (GPa) = 20.63510 27.60474 24.11992
#
# Velocity S-wave (km/s) = 3.25037 3.75943 3.51413
# Velocity P-wave (km/s) = 5.66360 7.23783 6.49856
#
# Compressibility (1/GPa) = 0.02845996
#
# Stress axis : x y z
#
# Youngs Moduli (GPa) = 109.38606 24.54006 86.57372
#
# Poissons Ratio (x) = 0.13303 0.29210
# Poissons Ratio (y) = 0.59297 0.66630
# Poissons Ratio (z) = 0.36907 0.18887
#
# Static dielectric constant tensor:
#      x y z
#    x 3.661760 0.000000 0.228310 
#    y 0.000000 3.212980 0.000000 
#    z 0.228310 0.000000 3.540610 
# 
# 
# High freq. dielectric constant tensor:
#      x y z
#    x 1.772230 0.000000 0.011620 
#    y 0.000000 1.731000 0.000000 
#    z 0.011620 0.000000 1.764450 
# 
# From -- ./inp_files/113306.got.cif
#   From: 2010.06.25/outbox.cif.g09.slc.cpg/sg12_57_cif.got.tgz:113306.got - 2010.06.28 00:19:55.
