data_PCOD8106056
_publ_section_title
;
Structure prediction by ZEFSAII (Michael W. Deem and Ramdas Pophale) SiO2 
 PCOD8106056
Probable space group: C 2/M
;
_chemical_formula_sum "Si O2"
_cell_formula_units_Z 44
_cell_length_a 8.388469
_cell_length_b 22.864170
_cell_length_c 17.257644
_cell_angle_alpha 90.000000
_cell_angle_beta 43.106614
_cell_angle_gamma 90.000000
_cell_volume 2261.871712
_symmetry_space_group_name_H-M "C 2/M"
_symmetry_group_IT_number 12
_symmetry_cell_setting 'monoclinic'
loop_
_space_group_symop_operation_xyz
x,y,z
-x,y,-z
-x,-y,-z
x,-y,z
1/2+x,1/2+y,z
1/2-x,1/2+y,-z
1/2-x,1/2-y,-z
1/2+x,1/2-y,z
loop_
_atom_site_type_symbol
_atom_site_label
_atom_site_fract_x
_atom_site_fract_y
_atom_site_fract_z
Si Si1 0.765052 0.115548 0.034614
Si Si2 0.071009 0.712728 0.885008
Si Si3 0.517646 0.000000 0.819965
Si Si4 0.659541 0.096009 0.377293
Si Si5 0.036232 0.000000 0.653058
Si Si6 0.132790 0.500000 0.600451
Si Si7 0.981576 0.172023 0.821844
O O1 0.579123 0.167814 0.114177
O O2 0.640635 0.055160 0.101312
O O3 0.000000 0.124098 0.000000
O O4 0.841283 0.120036 0.916944
O O5 0.030269 0.775976 0.864346
O O6 0.341673 0.692345 0.793868
O O7 0.000000 0.714308 0.000000
O O8 0.623191 0.000000 0.695939
O O9 0.765348 0.000000 0.774999
O O10 0.500000 0.124438 0.500000
O O11 0.860993 0.057629 0.344463
O O12 0.503769 0.057691 0.375935
O O13 0.766930 0.149273 0.291948
O O14 0.112265 0.000000 0.533728
#
# Coordination Sequence:
#
# PCOD8106056 Si02
#       7
#     8   8   4   8   4   4   8
#     4  11  22  35  51  79 112 139 171 214 263 315
#     4  10  21  36  55  76 104 145 177 204 259 325
#     4  12  22  33  54  86 110 132 171 224 264 297
#     4   9  19  37  58  77 102 141 181 214 256 312
#     4   9  19  37  54  76 108 143 177 208 255 322
#     4   9  19  34  56  78 106 145 175 206 259 315
#     4  11  20  36  56  77 105 140 177 218 259 309
#
# _framework density 19.452915999999998
#
# number of rings (size 3 to 8) (size 9 to 14) (size 15 to 20)
#    0.000    1.818    0.000    7.636    0.000    1.455 
#    0.000    5.909    0.000    2.182    0.000    0.000 
#    0.000    0.000    0.000    0.000    0.000    0.000 
#
# Total GULP energy -272587.129744 kJ/mol
# GULP energy per Si atom -12390.324079 kJ/mol
# Density = 1.940864 g / cm^3
# Si number density = 19.452916 Si / 1000 Ang^3
#
#
#
# Elastic Constant Matrix: (Units=GPa)
#
#
# Indices 1 2 3 4 5 6 
#
# 1 85.1561 36.5348 28.7141 0.0000 -16.0532 0.0000
# 2 36.5348 115.8442 61.6819 0.0000 -3.9999 0.0000
# 3 28.7141 61.6819 88.7797 0.0000 -10.7849 0.0000
# 4 0.0000 0.0000 0.0000 24.4880 0.0000 -9.2623
# 5 -16.0532 -3.9999 -10.7849 0.0000 28.4395 0.0000
# 6 0.0000 0.0000 0.0000 -9.2623 0.0000 10.9734
#
#
#
# Elastic Compliance Matrix: (Units=1/GPa)
#
#
# Indices 1 2 3 4 5 6 
#
# 1 0.015271 -0.003832 -0.001358 0.000000 0.007566 0.000000
# 2 -0.003832 0.014747 -0.009453 0.000000 -0.003674 0.000000
# 3 -0.001358 -0.009453 0.018886 0.000000 0.005066 0.000000
# 4 0.000000 0.000000 0.000000 0.059988 0.000000 0.050634
# 5 0.007566 -0.003674 0.005066 0.000000 0.040838 0.000000
# 6 0.000000 0.000000 0.000000 0.050634 0.000000 0.133868
#
#
# Mechanical properties :
#
#
# Convention : Reuss Voigt Hill
#
# Bulk Modulus (GPa) = 50.96996 60.40463 55.68730
# Shear Modulus (GPa) = 15.65323 23.63680 19.64502
#
# Velocity S-wave (km/s) = 2.83975 3.48958 3.18130
# Velocity P-wave (km/s) = 6.08365 6.88152 6.49485
#
# Compressibility (1/GPa) = 0.01961940
#
# Stress axis : x y z
#
# Youngs Moduli (GPa) = 65.48181 67.80933 52.94941
#
# Poissons Ratio (x) = 0.25986 0.07188
# Poissons Ratio (y) = 0.25094 0.50052
# Poissons Ratio (z) = 0.08890 0.64099
#
# Static dielectric constant tensor:
#      x y z
#    x 3.869980 0.000000 -0.255570 
#    y 0.000000 3.413600 0.000000 
#    z -0.255570 0.000000 3.606320 
# 
# 
# High freq. dielectric constant tensor:
#      x y z
#    x 1.766870 0.000000 -0.012800 
#    y 0.000000 1.747990 0.000000 
#    z -0.012800 0.000000 1.744850 
# 
# From -- ./inp_files/120782.got.cif
#   From: 2010.06.25/outbox.cif.g09.slc.cpg/sg12_61_cif.got.tgz:120782.got - 2010.06.28 00:19:55.
