data_PCOD8106156
_publ_section_title
;
Structure prediction by ZEFSAII (Michael W. Deem and Ramdas Pophale) SiO2 
 PCOD8106156
Probable space group: C 2/M
;
_chemical_formula_sum "Si O2"
_cell_formula_units_Z 64
_cell_length_a 30.082192
_cell_length_b 8.868837
_cell_length_c 14.764795
_cell_angle_alpha 90.000000
_cell_angle_beta 120.985525
_cell_angle_gamma 90.000000
_cell_volume 3377.031217
_symmetry_space_group_name_H-M "C 2/M"
_symmetry_group_IT_number 12
_symmetry_cell_setting 'monoclinic'
loop_
_space_group_symop_operation_xyz
x,y,z
-x,y,-z
-x,-y,-z
x,-y,z
1/2+x,1/2+y,z
1/2-x,1/2+y,-z
1/2-x,1/2-y,-z
1/2+x,1/2-y,z
loop_
_atom_site_type_symbol
_atom_site_label
_atom_site_fract_x
_atom_site_fract_y
_atom_site_fract_z
Si Si1 0.780954 0.821063 0.274783
Si Si2 0.110098 0.322956 0.933810
Si Si3 0.536980 0.673985 0.458335
Si Si4 0.297991 0.178034 0.102801
Si Si5 0.398174 0.177834 0.720460
Si Si6 0.861400 0.676463 0.484652
Si Si7 0.501541 0.674080 0.780059
Si Si8 0.664061 0.178894 0.172318
O O1 0.803923 0.744771 0.209083
O O2 0.813129 0.769759 0.395979
O O3 0.722780 0.761911 0.230058
O O4 0.783549 0.000000 0.265791
O O5 0.100125 0.500000 0.927787
O O6 0.149007 0.281296 0.893431
O O7 0.055849 0.242504 0.864979
O O8 0.134358 0.261984 0.052732
O O9 0.500000 0.725738 0.500000
O O10 0.554174 0.500000 0.485846
O O11 0.587456 0.778307 0.517466
O O12 0.505822 0.703007 0.333850
O O13 0.289023 0.000000 0.097273
O O14 0.250000 0.250000 0.000000
O O15 0.369028 0.223706 0.597300
O O16 0.455045 0.249518 0.786962
O O17 0.363961 0.241765 0.767255
O O18 0.405550 0.000000 0.733813
O O19 0.850847 0.500000 0.461914
O O20 0.501323 0.500000 0.805025
O O21 0.664506 0.000000 0.174632
#
# Coordination Sequence:
#
# PCOD8106156 Si02
#       8
#     8   8   8   8   8   8   8   8
#     4  11  22  38  59  84 116 154 193 234 282 339
#     4  10  21  38  58  82 113 149 192 229 273 339
#     4   9  19  36  55  77 106 146 190 230 278 340
#     4  11  22  38  59  85 117 153 190 235 284 337
#     4   9  19  39  63  81 109 150 192 237 283 336
#     4  10  21  36  55  85 115 144 186 237 287 337
#     4  10  21  36  55  83 116 145 184 234 286 336
#     4   9  19  38  61  83 107 149 199 234 275 339
#
# _framework density 18.951557000000001
#
# number of rings (size 3 to 8) (size 9 to 14) (size 15 to 20)
#    0.000    2.125    1.250    1.500    1.750    3.250 
#    0.000    4.375    0.000    0.000    0.000    0.000 
#    0.000    0.000    0.000    0.000    0.000    0.000 
#
# Total GULP energy -396905.855766 kJ/mol
# GULP energy per Si atom -12403.307993 kJ/mol
# Density = 1.890842 g / cm^3
# Si number density = 18.951557 Si / 1000 Ang^3
#
#
#
# Elastic Constant Matrix: (Units=GPa)
#
#
# Indices 1 2 3 4 5 6 
#
# 1 160.2706 49.0672 88.1043 0.0000 -6.3894 0.0000
# 2 49.0672 59.6375 45.8310 0.0000 3.8828 0.0000
# 3 88.1043 45.8310 123.9274 0.0000 18.7755 0.0000
# 4 0.0000 0.0000 0.0000 34.1954 0.0000 4.7505
# 5 -6.3894 3.8828 18.7755 0.0000 32.5090 0.0000
# 6 0.0000 0.0000 0.0000 4.7505 0.0000 26.9556
#
#
#
# Elastic Compliance Matrix: (Units=1/GPa)
#
#
# Indices 1 2 3 4 5 6 
#
# 1 0.012567 -0.004285 -0.008549 0.000000 0.007919 0.000000
# 2 -0.004285 0.025061 -0.006182 0.000000 -0.000265 0.000000
# 3 -0.008549 -0.006182 0.018166 0.000000 -0.011433 0.000000
# 4 0.000000 0.000000 0.000000 0.029978 0.000000 -0.005283
# 5 0.007919 -0.000265 -0.011433 0.000000 0.038952 0.000000
# 6 0.000000 0.000000 0.000000 -0.005283 0.000000 0.038029
#
#
# Mechanical properties :
#
#
# Convention : Reuss Voigt Hill
#
# Bulk Modulus (GPa) = 56.30075 78.87115 67.58595
# Shear Modulus (GPa) = 24.18908 29.45420 26.82164
#
# Velocity S-wave (km/s) = 3.57650 3.94659 3.76609
# Velocity P-wave (km/s) = 6.84305 7.90411 7.39264
#
# Compressibility (1/GPa) = 0.01776175
#
# Stress axis : x y z
#
# Youngs Moduli (GPa) = 79.57533 39.90216 55.04928
#
# Poissons Ratio (x) = 0.17098 0.47063
# Poissons Ratio (y) = 0.34097 0.34030
# Poissons Ratio (z) = 0.68031 0.24666
#
# Static dielectric constant tensor:
#      x y z
#    x 3.689580 0.000000 -0.102390 
#    y 0.000000 3.368930 0.000000 
#    z -0.102390 0.000000 3.582350 
# 
# 
# High freq. dielectric constant tensor:
#      x y z
#    x 1.743830 0.000000 0.001000 
#    y 0.000000 1.727700 0.000000 
#    z 0.001000 0.000000 1.742500 
# 
# From -- ./inp_files/249688.got.cif
#   From: 2010.06.25/outbox.cif.g09.slc.cpg/sg12_125_cif.got.tgz:249688.got - 2010.06.28 00:19:55.
