data_PCOD8106314
_publ_section_title
;
Structure prediction by ZEFSAII (Michael W. Deem and Ramdas Pophale) SiO2 
 PCOD8106314
Probable space group: C 2/M
;
_chemical_formula_sum "Si O2"
_cell_formula_units_Z 56
_cell_length_a 20.142191
_cell_length_b 9.446303
_cell_length_c 28.756047
_cell_angle_alpha 90.000000
_cell_angle_beta 30.089639
_cell_angle_gamma 90.000000
_cell_volume 2743.105392
_symmetry_space_group_name_H-M "C 2/M"
_symmetry_group_IT_number 12
_symmetry_cell_setting 'monoclinic'
loop_
_space_group_symop_operation_xyz
x,y,z
-x,y,-z
-x,-y,-z
x,-y,z
1/2+x,1/2+y,z
1/2-x,1/2+y,-z
1/2-x,1/2-y,-z
1/2+x,1/2-y,z
loop_
_atom_site_type_symbol
_atom_site_label
_atom_site_fract_x
_atom_site_fract_y
_atom_site_fract_z
Si Si1 0.369590 0.339143 0.103377
Si Si2 0.344141 0.663501 0.593053
Si Si3 0.878467 0.335690 0.907541
Si Si4 0.327343 0.842841 0.517040
Si Si5 0.892043 0.658102 0.792162
Si Si6 0.439253 0.343346 0.376582
Si Si7 0.648334 0.165630 0.793988
O O1 0.394684 0.500000 0.105061
O O2 0.260557 0.333023 0.129337
O O3 0.325118 0.247905 0.174491
O O4 0.500000 0.275135 0.000000
O O5 0.500000 0.697442 0.500000
O O6 0.317661 0.500000 0.596205
O O7 0.280949 0.761185 0.591381
O O8 0.269782 0.702801 0.685848
O O9 0.848136 0.500000 0.934511
O O10 0.909229 0.304795 0.835410
O O11 0.007570 0.286080 0.857918
O O12 0.750000 0.250000 0.000000
O O13 0.441456 0.751482 0.422036
O O14 0.206926 0.857661 0.554833
O O15 0.381736 0.000000 0.496339
O O16 0.948095 0.500000 0.747796
O O17 0.969644 0.775310 0.717190
O O18 0.493368 0.500000 0.356699
O O19 0.646549 0.000000 0.806082
#
# Coordination Sequence:
#
# PCOD8106314 Si02
#       7
#     8   8   8   8   8   8   8
#     4  10  22  40  61  86 118 157 197 241 297 356
#     4  10  22  39  59  84 117 158 200 241 290 352
#     4  10  21  38  61  87 117 153 196 247 301 358
#     4  10  21  37  57  83 115 150 192 239 288 341
#     4  10  21  37  59  86 115 149 194 244 293 348
#     4  10  21  36  57  84 114 150 189 237 292 347
#     4  10  22  39  60  88 122 159 197 243 301 356
#
# _framework density 20.414819999999999
#
# number of rings (size 3 to 8) (size 9 to 14) (size 15 to 20)
#    0.000    2.000    0.000    2.571    2.000    6.857 
#    0.000    0.000    0.000    0.000    0.000    0.000 
#    0.000    0.000    0.000    0.000    0.000    0.000 
#
# Total GULP energy -347255.960271 kJ/mol
# GULP energy per Si atom -12401.998581 kJ/mol
# Density = 2.036836 g / cm^3
# Si number density = 20.414820 Si / 1000 Ang^3
#
#
#
# Elastic Constant Matrix: (Units=GPa)
#
#
# Indices 1 2 3 4 5 6 
#
# 1 56.2265 16.5152 -0.8513 0.0020 11.4218 -0.0040
# 2 16.5152 102.0604 42.1028 0.0034 18.6989 -0.0047
# 3 -0.8513 42.1028 92.4209 -0.0011 8.7692 -0.0026
# 4 0.0020 0.0034 -0.0011 36.3849 -0.0002 8.0624
# 5 11.4218 18.6989 8.7692 -0.0002 31.6852 0.0015
# 6 -0.0040 -0.0047 -0.0026 8.0624 0.0015 30.0212
#
#
#
# Elastic Compliance Matrix: (Units=1/GPa)
#
#
# Indices 1 2 3 4 5 6 
#
# 1 0.019916 -0.002998 0.002118 -0.000001 -0.005996 0.000003
# 2 -0.002998 0.013631 -0.005727 -0.000002 -0.005379 0.000002
# 3 0.002118 -0.005727 0.013556 0.000001 -0.001136 0.000000
# 4 -0.000001 -0.000002 0.000001 0.029223 0.000002 -0.007848
# 5 -0.005996 -0.005379 -0.001136 0.000002 0.037211 -0.000004
# 6 0.000003 0.000002 0.000000 -0.007848 -0.000004 0.035417
#
#
# Mechanical properties :
#
#
# Convention : Reuss Voigt Hill
#
# Bulk Modulus (GPa) = 29.50742 40.69344 35.10043
# Shear Modulus (GPa) = 28.82430 32.48099 30.65265
#
# Velocity S-wave (km/s) = 3.76164 3.99312 3.87911
# Velocity P-wave (km/s) = 5.77511 6.42157 6.10690
#
# Compressibility (1/GPa) = 0.03388978
#
# Stress axis : x y z
#
# Youngs Moduli (GPa) = 50.21106 73.36078 73.76642
#
# Poissons Ratio (x) = 0.21993 -0.15625
# Poissons Ratio (y) = 0.15053 0.42246
# Poissons Ratio (z) = -0.10635 0.42014
#
# Static dielectric constant tensor:
#      x y z
#    x 3.709870 -0.000010 0.026860 
#    y -0.000010 3.865900 -0.000010 
#    z 0.026860 -0.000010 3.866170 
# 
# 
# High freq. dielectric constant tensor:
#      x y z
#    x 1.797900 0.000000 0.003420 
#    y 0.000000 1.797980 0.000000 
#    z 0.003420 0.000000 1.799640 
# 
# From -- ./inp_files/380651.got.cif
#   From: 2010.06.25/outbox.cif.g09.slc.cpg/sg12_191_cif.got.tgz:380651.got - 2010.06.28 00:19:55.
