data_PCOD8106225
_publ_section_title
;
Structure prediction by ZEFSAII (Michael W. Deem and Ramdas Pophale) SiO2 
 PCOD8106225
Probable space group: C 2/M
;
_chemical_formula_sum "Si O2"
_cell_formula_units_Z 56
_cell_length_a 25.023963
_cell_length_b 8.701995
_cell_length_c 17.275037
_cell_angle_alpha 90.000000
_cell_angle_beta 47.325549
_cell_angle_gamma 90.000000
_cell_volume 2765.727576
_symmetry_space_group_name_H-M "C 2/M"
_symmetry_group_IT_number 12
_symmetry_cell_setting 'monoclinic'
loop_
_space_group_symop_operation_xyz
x,y,z
-x,y,-z
-x,-y,-z
x,-y,z
1/2+x,1/2+y,z
1/2-x,1/2+y,-z
1/2-x,1/2-y,-z
1/2+x,1/2-y,z
loop_
_atom_site_type_symbol
_atom_site_label
_atom_site_fract_x
_atom_site_fract_y
_atom_site_fract_z
Si Si1 0.340007 0.681907 0.307314
Si Si2 0.415434 0.825198 0.096145
Si Si3 0.811836 0.682314 0.789724
Si Si4 0.651800 0.321319 0.983116
Si Si5 0.071853 0.318236 0.204262
Si Si6 0.690672 0.180284 0.380399
Si Si7 0.091498 0.319063 0.614813
O O1 0.347075 0.500000 0.293770
O O2 0.401624 0.763843 0.195757
O O3 0.261810 0.743447 0.354869
O O4 0.353334 0.733647 0.381964
O O5 0.373015 0.714989 0.079268
O O6 0.388182 0.000000 0.113078
O O7 0.500000 0.812825 0.000000
O O8 0.818345 0.500000 0.777827
O O9 0.736311 0.727356 0.905747
O O10 0.877045 0.750474 0.777953
O O11 0.816770 0.753871 0.698162
O O12 0.640911 0.500000 0.011199
O O13 0.603269 0.226175 0.090248
O O14 0.070378 0.500000 0.211328
O O15 0.990294 0.254074 0.295504
O O16 0.618899 0.218515 0.500988
O O17 0.700864 0.000000 0.360623
O O18 0.095214 0.500000 0.628369
#
# Coordination Sequence:
#
# PCOD8106225 Si02
#       7
#     8   8   8   8   8   8   8
#     4  11  21  36  58  82 112 148 185 227 276 331
#     4  11  23  37  55  81 114 147 182 228 277 329
#     4   9  18  35  58  83 111 143 187 235 276 324
#     4  11  21  36  58  82 112 148 185 227 276 331
#     4  10  21  36  56  83 114 148 186 230 278 327
#     4   9  18  35  58  83 111 143 187 235 276 324
#     4  10  21  36  56  83 114 148 186 230 278 327
#
# _framework density 20.247836
#
# number of rings (size 3 to 8) (size 9 to 14) (size 15 to 20)
#    0.000    1.857    1.429    3.000    0.000    5.714 
#    0.000    4.286    0.000    0.000    0.000    2.000 
#    0.000    0.000    0.000    0.000    0.000    0.000 
#
# Total GULP energy -347242.394260 kJ/mol
# GULP energy per Si atom -12401.514081 kJ/mol
# Density = 2.020175 g / cm^3
# Si number density = 20.247836 Si / 1000 Ang^3
#
#
#
# Elastic Constant Matrix: (Units=GPa)
#
#
# Indices 1 2 3 4 5 6 
#
# 1 85.1283 16.9840 21.9954 -0.0049 -2.7587 -0.0010
# 2 16.9840 20.6769 21.3557 0.0048 -6.7541 0.0116
# 3 21.9954 21.3557 114.1351 -0.0012 -1.0813 -0.0051
# 4 -0.0049 0.0048 -0.0012 19.3848 -0.0047 0.1586
# 5 -2.7587 -6.7541 -1.0813 -0.0047 27.5284 -0.0013
# 6 -0.0010 0.0116 -0.0051 0.1586 -0.0013 22.9378
#
#
#
# Elastic Compliance Matrix: (Units=1/GPa)
#
#
# Indices 1 2 3 4 5 6 
#
# 1 0.014142 -0.011467 -0.000593 0.000006 -0.001420 0.000006
# 2 -0.011467 0.075431 -0.011744 -0.000018 0.016897 -0.000040
# 3 -0.000593 -0.011744 0.011049 0.000003 -0.002507 0.000008
# 4 0.000006 -0.000018 0.000003 0.051590 0.000005 -0.000357
# 5 -0.001420 0.016897 -0.002507 0.000005 0.040231 -0.000007
# 6 0.000006 -0.000040 0.000008 -0.000357 -0.000007 0.043599
#
#
# Mechanical properties :
#
#
# Convention : Reuss Voigt Hill
#
# Bulk Modulus (GPa) = 18.86301 37.84563 28.35432
# Shear Modulus (GPa) = 16.59354 24.61055 20.60205
#
# Velocity S-wave (km/s) = 2.86583 3.49014 3.19328
# Velocity P-wave (km/s) = 4.50411 5.91381 5.25643
#
# Compressibility (1/GPa) = 0.05301380
#
# Stress axis : x y z
#
# Youngs Moduli (GPa) = 70.71081 13.25714 90.50194
#
# Poissons Ratio (x) = 0.15203 0.05368
# Poissons Ratio (y) = 0.81087 1.06284
# Poissons Ratio (z) = 0.04194 0.15569
#
# Static dielectric constant tensor:
#      x y z
#    x 3.943020 -0.000030 -0.050220 
#    y -0.000030 3.344170 0.000020 
#    z -0.050220 0.000020 3.770480 
# 
# 
# High freq. dielectric constant tensor:
#      x y z
#    x 1.796260 0.000000 0.001000 
#    y 0.000000 1.756160 0.000000 
#    z 0.001000 0.000000 1.803990 
# 
# From -- ./inp_files/75899.got.cif
#   From: 2010.06.25/outbox.cif.g09.slc.cpg/sg12_38_cif.got.tgz:75899.got - 2010.06.28 00:19:55.
