data_PCOD8106953
_publ_section_title
;
Structure prediction by ZEFSAII (Michael W. Deem and Ramdas Pophale) SiO2 
 PCOD8106953
Probable space group: C 2/M
;
_chemical_formula_sum "Si O2"
_cell_formula_units_Z 56
_cell_length_a 9.747227
_cell_length_b 24.768309
_cell_length_c 16.213179
_cell_angle_alpha 90.000000
_cell_angle_beta 130.278514
_cell_angle_gamma 90.000000
_cell_volume 2986.203438
_symmetry_space_group_name_H-M "C 2/M"
_symmetry_group_IT_number 12
_symmetry_cell_setting 'monoclinic'
loop_
_space_group_symop_operation_xyz
x,y,z
-x,y,-z
-x,-y,-z
x,-y,z
1/2+x,1/2+y,z
1/2-x,1/2+y,-z
1/2-x,1/2-y,-z
1/2+x,1/2-y,z
loop_
_atom_site_type_symbol
_atom_site_label
_atom_site_fract_x
_atom_site_fract_y
_atom_site_fract_z
Si Si1 0.861872 0.000000 0.057514
Si Si2 0.496228 0.708671 0.370162
Si Si3 0.643777 0.299665 0.120417
Si Si4 0.706892 0.810543 0.392589
Si Si5 0.576947 0.110813 0.778026
Si Si6 0.339810 0.105911 0.000524
Si Si7 0.879338 0.201687 0.153362
Si Si8 0.241571 0.500000 0.822499
O O1 0.776071 0.052956 0.064690
O O2 0.075447 0.000000 0.160187
O O3 0.813467 0.000000 0.943004
O O4 0.553276 0.768462 0.360937
O O5 0.661705 0.678050 0.478587
O O6 0.326431 0.714404 0.365124
O O7 0.439231 0.676660 0.265158
O O8 0.769441 0.349216 0.194053
O O9 0.747631 0.251560 0.116066
O O10 0.551672 0.277602 0.168498
O O11 0.500000 0.322901 0.000000
O O12 0.615191 0.866713 0.328915
O O13 0.618093 0.052107 0.755312
O O14 0.574584 0.107037 0.875677
O O15 0.214187 0.157409 0.939814
O O16 0.500000 0.109070 0.000000
#
# Coordination Sequence:
#
# PCOD8106953 Si02
#       8
#     4   8   8   8   8   8   8   4
#     4   9  19  38  54  79 110 147 193 233 276 334
#     4  10  21  37  57  83 115 151 186 230 285 333
#     4  12  24  35  51  84 120 154 186 228 280 348
#     4  10  21  38  58  82 116 147 192 233 275 342
#     4  11  22  38  57  83 110 149 193 235 279 338
#     4  11  22  34  56  81 114 149 188 233 285 336
#     4  12  23  35  54  82 118 152 187 228 285 341
#     4   9  20  36  60  76 107 147 193 237 278 327
#
# _framework density 18.752908999999999
#
# number of rings (size 3 to 8) (size 9 to 14) (size 15 to 20)
#    0.000    1.286    2.857    3.643    4.000    0.000 
#    0.000    0.000    0.000    2.571    0.000    2.000 
#    0.000    0.000    0.000    0.000    0.000    0.000 
#
# Total GULP energy -347195.507599 kJ/mol
# GULP energy per Si atom -12399.839557 kJ/mol
# Density = 1.871023 g / cm^3
# Si number density = 18.752909 Si / 1000 Ang^3
#
#
#
# Elastic Constant Matrix: (Units=GPa)
#
#
# Indices 1 2 3 4 5 6 
#
# 1 91.8415 24.7350 12.3826 0.0000 1.6896 0.0000
# 2 24.7350 112.3769 26.8974 0.0000 16.7503 0.0000
# 3 12.3826 26.8974 81.6007 0.0000 7.8766 0.0000
# 4 0.0000 0.0000 0.0000 21.8936 0.0000 8.3148
# 5 1.6896 16.7503 7.8766 0.0000 26.2964 0.0000
# 6 0.0000 0.0000 0.0000 8.3148 0.0000 23.1581
#
#
#
# Elastic Compliance Matrix: (Units=1/GPa)
#
#
# Indices 1 2 3 4 5 6 
#
# 1 0.011681 -0.002488 -0.001064 0.000000 0.001153 0.000000
# 2 -0.002488 0.010983 -0.002660 0.000000 -0.006039 0.000000
# 3 -0.001064 -0.002660 0.013513 0.000000 -0.002285 0.000000
# 4 0.000000 0.000000 0.000000 0.052887 0.000000 -0.018989
# 5 0.001153 -0.006039 -0.002285 0.000000 0.042485 0.000000
# 6 0.000000 0.000000 0.000000 -0.018989 0.000000 0.049999
#
#
# Mechanical properties :
#
#
# Convention : Reuss Voigt Hill
#
# Bulk Modulus (GPa) = 42.09812 45.98325 44.04069
# Shear Modulus (GPa) = 24.76592 29.05657 26.91125
#
# Velocity S-wave (km/s) = 3.63801 3.94057 3.79231
# Velocity P-wave (km/s) = 6.33596 6.72889 6.53538
#
# Compressibility (1/GPa) = 0.02375403
#
# Stress axis : x y z
#
# Youngs Moduli (GPa) = 85.61155 91.04866 74.00018
#
# Poissons Ratio (x) = 0.22656 0.07871
# Poissons Ratio (y) = 0.21303 0.19682
# Poissons Ratio (z) = 0.09106 0.24217
#
# Static dielectric constant tensor:
#      x y z
#    x 3.639390 0.000000 0.061900 
#    y 0.000000 3.357930 0.000000 
#    z 0.061900 0.000000 3.572920 
# 
# 
# High freq. dielectric constant tensor:
#      x y z
#    x 1.748630 0.000000 0.004950 
#    y 0.000000 1.702610 0.000000 
#    z 0.004950 0.000000 1.716140 
# 
# From -- ./inp_files/199024.got.cif
#   From: 2010.06.25/outbox.cif.g09.slc.cpg/sg12_100_cif.got.tgz:199024.got - 2010.06.28 00:19:55.
