data_PCOD8106615
_publ_section_title
;
Structure prediction by ZEFSAII (Michael W. Deem and Ramdas Pophale) SiO2 
 PCOD8106615
Probable space group: C 2/M
;
_chemical_formula_sum "Si O2"
_cell_formula_units_Z 40
_cell_length_a 10.001332
_cell_length_b 21.280033
_cell_length_c 8.944164
_cell_angle_alpha 90.000000
_cell_angle_beta 89.179325
_cell_angle_gamma 90.000000
_cell_volume 1903.379306
_symmetry_space_group_name_H-M "C 2/M"
_symmetry_group_IT_number 12
_symmetry_cell_setting 'monoclinic'
loop_
_space_group_symop_operation_xyz
x,y,z
-x,y,-z
-x,-y,-z
x,-y,z
1/2+x,1/2+y,z
1/2-x,1/2+y,-z
1/2-x,1/2-y,-z
1/2+x,1/2-y,z
loop_
_atom_site_type_symbol
_atom_site_label
_atom_site_fract_x
_atom_site_fract_y
_atom_site_fract_z
Si Si1 0.505092 0.355685 0.823386
Si Si2 0.097102 0.250370 0.358964
Si Si3 0.522978 0.070556 0.832018
Si Si4 0.756089 0.870960 0.652095
Si Si5 0.220435 0.616135 0.322590
O O1 0.490844 0.282814 0.771623
O O2 0.383005 0.394800 0.747601
O O3 0.640828 0.387162 0.766449
O O4 0.500000 0.360882 0.000000
O O5 0.222164 0.202993 0.392946
O O6 0.154348 0.315615 0.301733
O O7 0.000000 0.260436 0.500000
O O8 0.622085 0.119112 0.748899
O O9 0.381511 0.067371 0.749561
O O10 0.583833 0.000000 0.831087
O O11 0.500000 0.095197 0.000000
O O12 0.743082 0.905807 0.493360
#
# Coordination Sequence:
#
# PCOD8106615 Si02
#       5
#     8   8   8   8   8
#     4  10  22  37  57  90 129 163 204 251 310 373
#     4  10  21  36  61  92 132 163 205 251 316 371
#     4  11  26  45  64  91 127 166 211 265 320 367
#     4  10  21  40  62  89 125 163 210 255 304 378
#     4  12  22  38  67  91 127 170 212 257 309 376
#
# _framework density 21.015253000000001
#
# number of rings (size 3 to 8) (size 9 to 14) (size 15 to 20)
#    1.200    0.200    2.000    4.200    2.800    3.200 
#    0.000    1.000    0.000    6.600    0.000    0.000 
#    0.000    0.000    0.000    0.000    0.000    0.000 
#
# Total GULP energy -247929.066086 kJ/mol
# GULP energy per Si atom -12396.453304 kJ/mol
# Density = 2.096742 g / cm^3
# Si number density = 21.015253 Si / 1000 Ang^3
#
#
#
# Elastic Constant Matrix: (Units=GPa)
#
#
# Indices 1 2 3 4 5 6 
#
# 1 140.8761 10.9014 67.8659 0.0000 -5.0801 0.0000
# 2 10.9014 30.4544 11.5822 0.0000 -3.0160 0.0000
# 3 67.8659 11.5822 180.9165 0.0000 -2.3118 0.0000
# 4 0.0000 0.0000 0.0000 12.3038 0.0000 2.2699
# 5 -5.0801 -3.0160 -2.3118 0.0000 41.7103 0.0000
# 6 0.0000 0.0000 0.0000 2.2699 0.0000 19.2162
#
#
#
# Elastic Compliance Matrix: (Units=1/GPa)
#
#
# Indices 1 2 3 4 5 6 
#
# 1 0.008798 -0.001868 -0.003171 0.000000 0.000761 0.000000
# 2 -0.001868 0.034277 -0.001466 0.000000 0.002170 0.000000
# 3 -0.003171 -0.001466 0.006809 0.000000 -0.000115 0.000000
# 4 0.000000 0.000000 0.000000 0.083087 0.000000 -0.009815
# 5 0.000761 0.002170 -0.000115 0.000000 0.024218 0.000000
# 6 0.000000 0.000000 0.000000 -0.009815 0.000000 0.053199
#
#
# Mechanical properties :
#
#
# Convention : Reuss Voigt Hill
#
# Bulk Modulus (GPa) = 27.11907 59.21623 43.16765
# Shear Modulus (GPa) = 21.21436 32.10588 26.66012
#
# Velocity S-wave (km/s) = 3.18067 3.91287 3.56562
# Velocity P-wave (km/s) = 5.14017 6.97517 6.12676
#
# Compressibility (1/GPa) = 0.03687442
#
# Stress axis : x y z
#
# Youngs Moduli (GPa) = 113.66163 29.17405 146.85743
#
# Poissons Ratio (x) = 0.05450 0.46569
# Poissons Ratio (y) = 0.21232 0.21529
# Poissons Ratio (z) = 0.36043 0.04277
#
# Static dielectric constant tensor:
#      x y z
#    x 3.939080 0.000000 0.141160 
#    y 0.000000 3.272820 0.000000 
#    z 0.141160 0.000000 3.797190 
# 
# 
# High freq. dielectric constant tensor:
#      x y z
#    x 1.839400 0.000000 0.003610 
#    y 0.000000 1.782820 0.000000 
#    z 0.003610 0.000000 1.830580 
# 
# From -- ./inp_files/39194.got.cif
#   From: 2010.06.25/outbox.cif.g09.slc.cpg/sg12_20_cif.got.tgz:39194.got - 2010.06.28 00:19:55.
