data_PCOD8106013
_publ_section_title
;
Structure prediction by ZEFSAII (Michael W. Deem and Ramdas Pophale) SiO2 
 PCOD8106013
Probable space group: C 2/M
;
_chemical_formula_sum "Si O2"
_cell_formula_units_Z 56
_cell_length_a 24.723492
_cell_length_b 9.066656
_cell_length_c 15.951472
_cell_angle_alpha 90.000000
_cell_angle_beta 56.279614
_cell_angle_gamma 90.000000
_cell_volume 2974.089267
_symmetry_space_group_name_H-M "C 2/M"
_symmetry_group_IT_number 12
_symmetry_cell_setting 'monoclinic'
loop_
_space_group_symop_operation_xyz
x,y,z
-x,y,-z
-x,-y,-z
x,-y,z
1/2+x,1/2+y,z
1/2-x,1/2+y,-z
1/2-x,1/2-y,-z
1/2+x,1/2-y,z
loop_
_atom_site_type_symbol
_atom_site_label
_atom_site_fract_x
_atom_site_fract_y
_atom_site_fract_z
Si Si1 0.016147 0.830908 0.295314
Si Si2 0.136206 0.169729 0.298338
Si Si3 0.916402 0.669399 0.496370
Si Si4 0.394055 0.830579 0.092260
Si Si5 0.737829 0.325071 0.771416
Si Si6 0.499051 0.830317 0.137697
Si Si7 0.276622 0.833635 0.555841
O O1 0.092607 0.816521 0.251913
O O2 0.003203 0.774791 0.213355
O O3 0.977187 0.735992 0.396121
O O4 0.993006 0.000000 0.320791
O O5 0.095689 0.241440 0.408583
O O6 0.204475 0.252783 0.223213
O O7 0.150382 0.000000 0.308409
O O8 0.930692 0.500000 0.507968
O O9 0.854286 0.680209 0.489010
O O10 0.331877 0.726324 0.135846
O O11 0.433988 0.790805 0.141905
O O12 0.371375 0.000000 0.115310
O O13 0.438450 0.801889 0.973539
O O14 0.744653 0.500000 0.773178
O O15 0.747204 0.269930 0.667656
O O16 0.496806 0.000000 0.169089
O O17 0.250000 0.750000 0.500000
O O18 0.253152 0.000000 0.566352
#
# Coordination Sequence:
#
# PCOD8106013 Si02
#       7
#     8   8   8   8   8   8   8
#     4  11  23  36  55  83 113 145 186 230 275 324
#     4  10  21  38  56  79 111 148 188 228 271 325
#     4  10  21  36  54  79 110 147 188 226 271 324
#     4   9  19  38  61  83 110 144 181 224 276 332
#     4  10  21  36  56  82 109 143 185 225 274 330
#     4   9  20  38  59  84 111 142 183 226 273 329
#     4   9  20  34  48  74 109 141 178 219 260 316
#
# _framework density 18.829294000000001
#
# number of rings (size 3 to 8) (size 9 to 14) (size 15 to 20)
#    0.000    2.286    0.000    3.857    2.000    8.571 
#    0.000    2.143    0.000    0.000    0.000    0.000 
#    0.000    0.000    0.000    0.000    0.000    0.000 
#
# Total GULP energy -347236.572616 kJ/mol
# GULP energy per Si atom -12401.306165 kJ/mol
# Density = 1.878644 g / cm^3
# Si number density = 18.829294 Si / 1000 Ang^3
#
#
#
# Elastic Constant Matrix: (Units=GPa)
#
#
# Indices 1 2 3 4 5 6 
#
# 1 84.8727 43.4886 34.9591 0.0000 -11.4897 0.0000
# 2 43.4886 101.4808 32.1498 0.0000 -9.1286 0.0001
# 3 34.9591 32.1498 51.9786 0.0000 -15.1113 0.0000
# 4 0.0000 0.0000 0.0000 34.3864 0.0000 -1.1530
# 5 -11.4897 -9.1286 -15.1113 0.0000 28.1353 0.0000
# 6 0.0000 0.0001 0.0000 -1.1530 0.0000 33.9079
#
#
#
# Elastic Compliance Matrix: (Units=1/GPa)
#
#
# Indices 1 2 3 4 5 6 
#
# 1 0.018044 -0.004838 -0.008837 0.000000 0.001052 0.000000
# 2 -0.004838 0.013553 -0.005244 0.000000 -0.000395 0.000000
# 3 -0.008837 -0.005244 0.031856 0.000000 0.011799 0.000000
# 4 0.000000 0.000000 0.000000 0.029114 0.000000 0.000990
# 5 0.001052 -0.000395 0.011799 0.000000 0.042182 0.000000
# 6 0.000000 0.000000 0.000000 0.000990 0.000000 0.029525
#
#
# Mechanical properties :
#
#
# Convention : Reuss Voigt Hill
#
# Bulk Modulus (GPa) = 39.03986 51.05856 45.04921
# Shear Modulus (GPa) = 23.73592 27.80156 25.76874
#
# Velocity S-wave (km/s) = 3.55432 3.84670 3.70340
# Velocity P-wave (km/s) = 6.13375 6.84872 6.50107
#
# Compressibility (1/GPa) = 0.02561485
#
# Stress axis : x y z
#
# Youngs Moduli (GPa) = 55.42008 73.78349 31.39127
#
# Poissons Ratio (x) = 0.35698 0.27741
# Poissons Ratio (y) = 0.26813 0.16461
# Poissons Ratio (z) = 0.48976 0.38690
#
# Static dielectric constant tensor:
#      x y z
#    x 3.539230 0.000000 -0.103310 
#    y 0.000000 3.507170 0.000000 
#    z -0.103310 0.000000 3.335900 
# 
# 
# High freq. dielectric constant tensor:
#      x y z
#    x 1.739470 0.000000 -0.007140 
#    y 0.000000 1.739000 0.000000 
#    z -0.007140 0.000000 1.712920 
# 
# From -- ./inp_files/287361.got.cif
#   From: 2010.06.25/outbox.cif.g09.slc.cpg/sg12_144_cif.got.tgz:287361.got - 2010.06.28 00:19:55.
