data_PCOD8106876
_publ_section_title
;
Structure prediction by ZEFSAII (Michael W. Deem and Ramdas Pophale) SiO2 
 PCOD8106876
Probable space group: C 2/M
;
_chemical_formula_sum "Si O2"
_cell_formula_units_Z 56
_cell_length_a 15.351851
_cell_length_b 8.856594
_cell_length_c 22.525244
_cell_angle_alpha 90.000000
_cell_angle_beta 110.344179
_cell_angle_gamma 90.000000
_cell_volume 2871.602877
_symmetry_space_group_name_H-M "C 2/M"
_symmetry_group_IT_number 12
_symmetry_cell_setting 'monoclinic'
loop_
_space_group_symop_operation_xyz
x,y,z
-x,y,-z
-x,-y,-z
x,-y,z
1/2+x,1/2+y,z
1/2-x,1/2+y,-z
1/2-x,1/2-y,-z
1/2+x,1/2-y,z
loop_
_atom_site_type_symbol
_atom_site_label
_atom_site_fract_x
_atom_site_fract_y
_atom_site_fract_z
Si Si1 0.659485 0.826813 0.119147
Si Si2 0.862828 0.821969 0.210159
Si Si3 0.871717 0.321993 0.574949
Si Si4 0.846545 0.821696 0.004338
Si Si5 0.308699 0.177731 0.431853
Si Si6 0.423200 0.821402 0.344741
Si Si7 0.529347 0.825690 0.868565
O O1 0.759093 0.773263 0.166890
O O2 0.629201 0.723180 0.056995
O O3 0.582321 0.808529 0.152498
O O4 0.664462 0.000000 0.098481
O O5 0.877494 0.766653 0.280015
O O6 0.938512 0.743809 0.185972
O O7 0.876341 0.000000 0.209311
O O8 0.862677 0.500000 0.576037
O O9 0.793077 0.250294 0.598020
O O10 0.859287 0.266368 0.504030
O O11 0.970674 0.268684 0.622984
O O12 0.840385 0.000000 0.009280
O O13 0.750000 0.750000 0.000000
O O14 0.926157 0.761692 0.066041
O O15 0.369829 0.230755 0.391069
O O16 0.296597 0.000000 0.429470
O O17 0.415381 0.000000 0.332361
O O18 0.559887 0.000000 0.878215
#
# Coordination Sequence:
#
# PCOD8106876 Si02
#       7
#     8   8   8   8   8   8   8
#     4  10  23  42  62  85 116 152 191 238 294 347
#     4  11  24  41  59  82 115 154 195 241 284 338
#     4   9  18  34  57  84 114 148 186 232 287 340
#     4  12  23  37  62  92 121 152 189 238 291 343
#     4   9  18  34  57  85 114 146 187 235 283 337
#     4  10  21  37  57  80 112 153 193 232 281 344
#     4  11  23  41  64  88 116 153 192 237 293 350
#
# _framework density 19.501304999999999
#
# number of rings (size 3 to 8) (size 9 to 14) (size 15 to 20)
#    0.000    1.714    1.429    3.000    0.000    7.429 
#    0.000    4.286    0.000    4.286    0.000    0.000 
#    0.000    0.000    0.000    0.000    0.000    0.000 
#
# Total GULP energy -347310.969269 kJ/mol
# GULP energy per Si atom -12403.963188 kJ/mol
# Density = 1.945692 g / cm^3
# Si number density = 19.501305 Si / 1000 Ang^3
#
#
#
# Elastic Constant Matrix: (Units=GPa)
#
#
# Indices 1 2 3 4 5 6 
#
# 1 105.8569 34.0400 24.0475 0.0000 4.6824 0.0000
# 2 34.0400 77.2692 29.7862 0.0000 -2.4449 0.0000
# 3 24.0475 29.7862 75.7068 0.0000 1.6056 0.0000
# 4 0.0000 0.0000 0.0000 33.4607 0.0000 -1.3784
# 5 4.6824 -2.4449 1.6056 0.0000 15.6198 0.0000
# 6 0.0000 0.0000 0.0000 -1.3784 0.0000 31.8864
#
#
#
# Elastic Compliance Matrix: (Units=1/GPa)
#
#
# Indices 1 2 3 4 5 6 
#
# 1 0.011472 -0.004487 -0.001795 0.000000 -0.003957 0.000000
# 2 -0.004487 0.017153 -0.005421 0.000000 0.004587 0.000000
# 3 -0.001795 -0.005421 0.015953 0.000000 -0.001950 0.000000
# 4 0.000000 0.000000 0.000000 0.029939 0.000000 0.001294
# 5 -0.003957 0.004587 -0.001950 0.000000 0.066126 0.000000
# 6 0.000000 0.000000 0.000000 0.001294 0.000000 0.031417
#
#
# Mechanical properties :
#
#
# Convention : Reuss Voigt Hill
#
# Bulk Modulus (GPa) = 47.22951 48.28668 47.75810
# Shear Modulus (GPa) = 24.68833 27.59065 26.13949
#
# Velocity S-wave (km/s) = 3.56193 3.76548 3.66512
# Velocity P-wave (km/s) = 6.41776 6.61208 6.51564
#
# Compressibility (1/GPa) = 0.02117320
#
# Stress axis : x y z
#
# Youngs Moduli (GPa) = 87.16531 58.29733 62.68404
#
# Poissons Ratio (x) = 0.26161 0.11250
# Poissons Ratio (y) = 0.39115 0.33980
# Poissons Ratio (z) = 0.15643 0.31602
#
# Static dielectric constant tensor:
#      x y z
#    x 3.748820 0.000000 0.037310 
#    y 0.000000 3.536570 0.000000 
#    z 0.037310 0.000000 3.523890 
# 
# 
# High freq. dielectric constant tensor:
#      x y z
#    x 1.774710 0.000000 0.000850 
#    y 0.000000 1.757190 0.000000 
#    z 0.000850 0.000000 1.752800 
# 
# From -- ./inp_files/339093.got.cif
#   From: 2010.06.25/outbox.cif.g09.slc.cpg/sg12_170_cif.got.tgz:339093.got - 2010.06.28 00:19:55.
