data_PCOD8106153
_publ_section_title
;
Structure prediction by ZEFSAII (Michael W. Deem and Ramdas Pophale) SiO2 
 PCOD8106153
Probable space group: C 2/M
;
_chemical_formula_sum "Si O2"
_cell_formula_units_Z 64
_cell_length_a 26.989118
_cell_length_b 21.777494
_cell_length_c 17.839721
_cell_angle_alpha 90.000000
_cell_angle_beta 160.803192
_cell_angle_gamma 90.000000
_cell_volume 3447.743897
_symmetry_space_group_name_H-M "C 2/M"
_symmetry_group_IT_number 12
_symmetry_cell_setting 'monoclinic'
loop_
_space_group_symop_operation_xyz
x,y,z
-x,y,-z
-x,-y,-z
x,-y,z
1/2+x,1/2+y,z
1/2-x,1/2+y,-z
1/2-x,1/2-y,-z
1/2+x,1/2-y,z
loop_
_atom_site_type_symbol
_atom_site_label
_atom_site_fract_x
_atom_site_fract_y
_atom_site_fract_z
Si Si1 0.627819 0.233404 0.125923
Si Si2 0.103998 0.072467 0.911953
Si Si3 0.888249 0.928913 0.902791
Si Si4 0.600358 0.331822 0.438021
Si Si5 0.593830 0.233490 0.316206
Si Si6 0.405875 0.291878 0.292396
Si Si7 0.855496 0.339341 0.467293
Si Si8 0.824368 0.340188 0.143030
O O1 0.718942 0.174901 0.291759
O O2 0.742107 0.288603 0.269925
O O3 0.500000 0.257388 0.000000
O O4 0.542024 0.210778 0.929790
O O5 0.960711 0.098644 0.658645
O O6 0.121664 0.000000 0.920579
O O7 0.069576 0.085316 0.950283
O O8 0.254826 0.108269 0.099400
O O9 0.723652 0.904710 0.648256
O O10 0.881090 0.000000 0.878301
O O11 0.000000 0.899136 0.000000
O O12 0.543168 0.296738 0.282506
O O13 0.529230 0.291572 0.403201
O O14 0.750000 0.250000 0.500000
O O15 0.612531 0.178552 0.401526
O O16 0.500000 0.313728 0.500000
O O17 0.325762 0.225632 0.188117
O O18 0.273832 0.338079 0.074935
O O19 0.003313 0.352868 0.629869
#
# Coordination Sequence:
#
# PCOD8106153 Si02
#       8
#     8   8   8   8   8   8   8   8
#     4  11  20  33  53  89 123 155 193 229 295 359
#     4  10  23  42  63  82 113 159 202 250 291 343
#     4  10  23  40  59  84 114 155 200 238 290 352
#     4  10  21  36  57  86 115 153 197 236 293 358
#     4  11  21  34  54  88 123 157 188 233 296 354
#     4  10  21  36  55  82 117 151 182 237 291 347
#     4  11  22  34  55  87 122 155 186 242 290 349
#     4  10  22  36  55  88 115 149 200 231 290 352
#
# _framework density 18.562864000000001
#
# number of rings (size 3 to 8) (size 9 to 14) (size 15 to 20)
#    0.000    1.625    5.000    1.125    5.250    0.500 
#    0.000    1.250    0.000    7.125    0.000    0.000 
#    0.000    0.000    0.000    0.000    0.000    0.000 
#
# Total GULP energy -396419.449184 kJ/mol
# GULP energy per Si atom -12388.107787 kJ/mol
# Density = 1.852061 g / cm^3
# Si number density = 18.562864 Si / 1000 Ang^3
#
#
#
# Elastic Constant Matrix: (Units=GPa)
#
#
# Indices 1 2 3 4 5 6 
#
# 1 99.7257 48.7081 46.8642 0.0000 9.6486 0.0000
# 2 48.7081 75.0169 40.5885 0.0000 -0.5616 0.0000
# 3 46.8642 40.5885 135.6691 0.0000 -0.1959 0.0000
# 4 0.0000 0.0000 0.0000 24.9705 0.0000 1.2762
# 5 9.6486 -0.5616 -0.1959 0.0000 40.2343 0.0000
# 6 0.0000 0.0000 0.0000 1.2762 0.0000 23.1467
#
#
#
# Elastic Compliance Matrix: (Units=1/GPa)
#
#
# Indices 1 2 3 4 5 6 
#
# 1 0.016151 -0.008942 -0.002909 0.000000 -0.004012 0.000000
# 2 -0.008942 0.020858 -0.003148 0.000000 0.002420 0.000000
# 3 -0.002909 -0.003148 0.009319 0.000000 0.000699 0.000000
# 4 0.000000 0.000000 0.000000 0.040161 0.000000 -0.002214
# 5 -0.004012 0.002420 0.000699 0.000000 0.025854 0.000000
# 6 0.000000 0.000000 0.000000 -0.002214 0.000000 0.043325
#
#
# Mechanical properties :
#
#
# Convention : Reuss Voigt Hill
#
# Bulk Modulus (GPa) = 61.24399 64.74813 62.99606
# Shear Modulus (GPa) = 26.16332 29.28700 27.72516
#
# Velocity S-wave (km/s) = 3.75833 3.97636 3.86888
# Velocity P-wave (km/s) = 7.20401 7.48586 7.34629
#
# Compressibility (1/GPa) = 0.01632813
#
# Stress axis : x y z
#
# Youngs Moduli (GPa) = 61.91758 47.94390 107.31289
#
# Poissons Ratio (x) = 0.42873 0.31221
# Poissons Ratio (y) = 0.55369 0.33778
# Poissons Ratio (z) = 0.18014 0.15091
#
# Static dielectric constant tensor:
#      x y z
#    x 3.443350 0.000000 0.153780 
#    y 0.000000 3.126260 0.000000 
#    z 0.153780 0.000000 3.749980 
# 
# 
# High freq. dielectric constant tensor:
#      x y z
#    x 1.731160 0.000000 0.007280 
#    y 0.000000 1.677470 0.000000 
#    z 0.007280 0.000000 1.731960 
# 
# From -- ./inp_files/294308.got.cif
#   From: 2010.06.25/outbox.cif.g09.slc.cpg/sg12_148_cif.got.tgz:294308.got - 2010.06.28 00:19:55.
