data_PCOD8106352
_publ_section_title
;
Structure prediction by ZEFSAII (Michael W. Deem and Ramdas Pophale) SiO2 
 PCOD8106352
Probable space group: C 2/M
;
_chemical_formula_sum "Si O2"
_cell_formula_units_Z 56
_cell_length_a 17.591642
_cell_length_b 14.779202
_cell_length_c 11.194805
_cell_angle_alpha 90.000000
_cell_angle_beta 87.775128
_cell_angle_gamma 90.000000
_cell_volume 2908.348084
_symmetry_space_group_name_H-M "C 2/M"
_symmetry_group_IT_number 12
_symmetry_cell_setting 'monoclinic'
loop_
_space_group_symop_operation_xyz
x,y,z
-x,y,-z
-x,-y,-z
x,-y,z
1/2+x,1/2+y,z
1/2-x,1/2+y,-z
1/2-x,1/2-y,-z
1/2+x,1/2-y,z
loop_
_atom_site_type_symbol
_atom_site_label
_atom_site_fract_x
_atom_site_fract_y
_atom_site_fract_z
Si Si1 0.480299 0.264318 0.363588
Si Si2 0.354911 0.603953 0.275836
Si Si3 0.743654 0.599135 0.177316
Si Si4 0.291122 0.100301 0.575143
Si Si5 0.372490 0.100744 0.333676
Si Si6 0.245562 0.342010 0.071785
Si Si7 0.359750 0.233864 0.745340
O O1 0.500000 0.289012 0.500000
O O2 0.429994 0.342213 0.306937
O O3 0.439992 0.167519 0.362125
O O4 0.551863 0.257160 0.269750
O O5 0.377200 0.500000 0.250047
O O6 0.297764 0.613809 0.391100
O O7 0.314827 0.644976 0.160339
O O8 0.721673 0.500000 0.231005
O O9 0.829066 0.626926 0.214234
O O10 0.684088 0.672299 0.229108
O O11 0.748894 0.584536 0.033237
O O12 0.304002 0.105264 0.433665
O O13 0.339133 0.183711 0.623932
O O14 0.316351 0.000000 0.622675
O O15 0.408342 0.000000 0.326273
O O16 0.165193 0.338230 0.149318
O O17 0.250000 0.250000 0.000000
#
# Coordination Sequence:
#
# PCOD8106352 Si02
#       7
#     8   8   8   8   8   8   8
#     4  12  24  36  55  85 125 161 187 231 295 360
#     4  10  22  38  58  84 118 157 198 240 286 344
#     4  10  21  38  63  87 111 148 195 244 286 336
#     4   9  18  35  59  83 108 149 197 246 292 336
#     4  10  21  37  58  84 115 149 195 247 296 346
#     4   9  18  39  64  84 107 144 198 249 284 330
#     4  10  21  36  57  87 117 150 192 238 288 347
#
# _framework density 19.254916000000001
#
# number of rings (size 3 to 8) (size 9 to 14) (size 15 to 20)
#    0.000    2.000    1.429    3.000    2.000    3.429 
#    0.000    6.429    0.000    6.000    0.000    0.000 
#    0.000    0.000    0.000    0.000    0.000    0.000 
#
# Total GULP energy -346909.279791 kJ/mol
# GULP energy per Si atom -12389.617135 kJ/mol
# Density = 1.921109 g / cm^3
# Si number density = 19.254916 Si / 1000 Ang^3
#
#
#
# Elastic Constant Matrix: (Units=GPa)
#
#
# Indices 1 2 3 4 5 6 
#
# 1 122.5151 62.6336 51.7801 0.0000 1.7359 0.0000
# 2 62.6336 118.7332 38.6269 0.0000 5.8890 0.0000
# 3 51.7801 38.6269 98.0874 0.0000 13.8106 0.0000
# 4 0.0000 0.0000 0.0000 26.8989 0.0000 4.2765
# 5 1.7359 5.8890 13.8106 0.0000 24.9193 0.0000
# 6 0.0000 0.0000 0.0000 4.2765 0.0000 21.6668
#
#
#
# Elastic Compliance Matrix: (Units=1/GPa)
#
#
# Indices 1 2 3 4 5 6 
#
# 1 0.013070 -0.005348 -0.005254 0.000000 0.003265 0.000000
# 2 -0.005348 0.011849 -0.001628 0.000000 -0.001525 0.000000
# 3 -0.005254 -0.001628 0.014647 0.000000 -0.007367 0.000000
# 4 0.000000 0.000000 0.000000 0.038381 0.000000 -0.007575
# 5 0.003265 -0.001525 -0.007367 0.000000 0.044345 0.000000
# 6 0.000000 0.000000 0.000000 -0.007575 0.000000 0.047649
#
#
# Mechanical properties :
#
#
# Convention : Reuss Voigt Hill
#
# Bulk Modulus (GPa) = 66.19551 71.71299 68.95425
# Shear Modulus (GPa) = 25.07092 27.11669 26.09380
#
# Velocity S-wave (km/s) = 3.61231 3.75680 3.68527
# Velocity P-wave (km/s) = 7.20080 7.49286 7.34828
#
# Compressibility (1/GPa) = 0.01510676
#
# Stress axis : x y z
#
# Youngs Moduli (GPa) = 76.50991 84.39875 68.27456
#
# Poissons Ratio (x) = 0.45133 0.35868
# Poissons Ratio (y) = 0.40914 0.11117
# Poissons Ratio (z) = 0.40195 0.13742
#
# Static dielectric constant tensor:
#      x y z
#    x 3.267260 0.000000 -0.088350 
#    y 0.000000 3.843520 0.000000 
#    z -0.088350 0.000000 4.218640 
# 
# 
# High freq. dielectric constant tensor:
#      x y z
#    x 1.718790 0.000000 -0.002050 
#    y 0.000000 1.768170 0.000000 
#    z -0.002050 0.000000 1.753920 
# 
# From -- ./inp_files/143719.got.cif
#   From: 2010.06.25/outbox.cif.g09.slc.cpg/sg12_72_cif.got.tgz:143719.got - 2010.06.28 00:19:55.
