data_PCOD8106573
_publ_section_title
;
Structure prediction by ZEFSAII (Michael W. Deem and Ramdas Pophale) SiO2 
 PCOD8106573
Probable space group: C 2/M
;
_chemical_formula_sum "Si O2"
_cell_formula_units_Z 60
_cell_length_a 20.937477
_cell_length_b 13.399180
_cell_length_c 17.096816
_cell_angle_alpha 90.000000
_cell_angle_beta 40.394226
_cell_angle_gamma 90.000000
_cell_volume 3108.291445
_symmetry_space_group_name_H-M "C 2/M"
_symmetry_group_IT_number 12
_symmetry_cell_setting 'monoclinic'
loop_
_space_group_symop_operation_xyz
x,y,z
-x,y,-z
-x,-y,-z
x,-y,z
1/2+x,1/2+y,z
1/2-x,1/2+y,-z
1/2-x,1/2-y,-z
1/2+x,1/2-y,z
loop_
_atom_site_type_symbol
_atom_site_label
_atom_site_fract_x
_atom_site_fract_y
_atom_site_fract_z
Si Si1 0.000000 0.235207 0.500000
Si Si2 0.803692 0.789998 0.288727
Si Si3 0.481076 0.116318 0.244725
Si Si4 0.192878 0.888695 0.871966
Si Si5 0.765279 0.387858 0.490953
Si Si6 0.329985 0.385278 0.577974
Si Si7 0.019038 0.740706 0.068406
Si Si8 0.092086 0.614849 0.294997
O O1 0.067521 0.163645 0.490556
O O2 0.067652 0.307917 0.386136
O O3 0.773980 0.866451 0.248100
O O4 0.753542 0.817655 0.417789
O O5 0.762338 0.679968 0.303052
O O6 0.921107 0.798584 0.186732
O O7 0.366072 0.149356 0.354425
O O8 0.538015 0.157007 0.115432
O O9 0.534633 0.154023 0.272669
O O10 0.491084 0.000000 0.228006
O O11 0.110762 0.814964 0.981625
O O12 0.291412 0.879517 0.832001
O O13 0.149030 0.000000 0.917383
O O14 0.780319 0.500000 0.508646
O O15 0.676557 0.384085 0.510851
O O16 0.321439 0.500000 0.616374
O O17 0.000000 0.693911 0.000000
O O18 0.062535 0.500000 0.344345
#
# Coordination Sequence:
#
# PCOD8106573 Si02
#       8
#     4   8   8   8   8   8   8   8
#     4  12  22  38  64  88 124 164 196 240 306 378
#     4  11  20  37  62  90 119 160 200 244 306 365
#     4  10  21  38  60  89 121 154 198 251 298 351
#     4  10  22  41  60  88 123 156 200 255 302 352
#     4  10  21  36  60  92 123 153 197 255 308 359
#     4  11  23  37  56  87 126 163 196 238 294 362
#     4  10  23  37  61  87 115 161 205 243 299 352
#     4  10  22  38  63  92 120 155 201 253 305 359
#
# _framework density 19.303208999999999
#
# number of rings (size 3 to 8) (size 9 to 14) (size 15 to 20)
#    0.000    1.600    2.667    2.000    1.867    3.733 
#    0.000    2.000    0.000    0.000    0.000    0.000 
#    0.000    0.000    0.000    0.000    0.000    0.000 
#
# Total GULP energy -371906.058420 kJ/mol
# GULP energy per Si atom -12396.868614 kJ/mol
# Density = 1.925927 g / cm^3
# Si number density = 19.303209 Si / 1000 Ang^3
#
#
#
# Elastic Constant Matrix: (Units=GPa)
#
#
# Indices 1 2 3 4 5 6 
#
# 1 111.9486 40.1922 34.5614 0.0000 -7.4795 0.0000
# 2 40.1922 98.0448 44.6941 0.0000 -1.9560 0.0000
# 3 34.5614 44.6941 96.0144 0.0000 2.3364 0.0000
# 4 0.0000 0.0000 0.0000 29.8419 0.0000 2.5657
# 5 -7.4795 -1.9560 2.3364 0.0000 27.2357 0.0000
# 6 0.0000 0.0000 0.0000 2.5657 0.0000 29.1613
#
#
#
# Elastic Compliance Matrix: (Units=1/GPa)
#
#
# Indices 1 2 3 4 5 6 
#
# 1 0.011114 -0.003349 -0.002515 0.000000 0.003027 0.000000
# 2 -0.003349 0.014013 -0.005331 0.000000 0.000544 0.000000
# 3 -0.002515 -0.005331 0.013857 0.000000 -0.002262 0.000000
# 4 0.000000 0.000000 0.000000 0.033765 0.000000 -0.002971
# 5 0.003027 0.000544 -0.002262 0.000000 0.037781 0.000000
# 6 0.000000 0.000000 0.000000 -0.002971 0.000000 0.034553
#
#
# Mechanical properties :
#
#
# Convention : Reuss Voigt Hill
#
# Bulk Modulus (GPa) = 60.26297 60.54480 60.40389
# Shear Modulus (GPa) = 28.90087 29.68513 29.29300
#
# Velocity S-wave (km/s) = 3.87357 3.92578 3.89976
# Velocity P-wave (km/s) = 7.16191 7.20987 7.18593
#
# Compressibility (1/GPa) = 0.01659394
#
# Stress axis : x y z
#
# Youngs Moduli (GPa) = 89.97807 71.36127 72.16567
#
# Poissons Ratio (x) = 0.23899 0.18152
# Poissons Ratio (y) = 0.30133 0.38470
# Poissons Ratio (z) = 0.22632 0.38041
#
# Static dielectric constant tensor:
#      x y z
#    x 3.780580 0.000000 0.064900 
#    y 0.000000 3.590650 0.000000 
#    z 0.064900 0.000000 3.343400 
# 
# 
# High freq. dielectric constant tensor:
#      x y z
#    x 1.763820 0.000000 -0.001370 
#    y 0.000000 1.755510 0.000000 
#    z -0.001370 0.000000 1.727880 
# 
# From -- ./inp_files/233424.got.cif
#   From: 2010.06.25/outbox.cif.g09.slc.cpg/sg12_117_cif.got.tgz:233424.got - 2010.06.28 00:19:55.
