data_PCOD8106701
_publ_section_title
;
Structure prediction by ZEFSAII (Michael W. Deem and Ramdas Pophale) SiO2 
 PCOD8106701
Probable space group: C 2/M
;
_chemical_formula_sum "Si O2"
_cell_formula_units_Z 56
_cell_length_a 14.407034
_cell_length_b 8.846725
_cell_length_c 29.421271
_cell_angle_alpha 90.000000
_cell_angle_beta 53.665217
_cell_angle_gamma 90.000000
_cell_volume 3020.794220
_symmetry_space_group_name_H-M "C 2/M"
_symmetry_group_IT_number 12
_symmetry_cell_setting 'monoclinic'
loop_
_space_group_symop_operation_xyz
x,y,z
-x,y,-z
-x,-y,-z
x,-y,z
1/2+x,1/2+y,z
1/2-x,1/2+y,-z
1/2-x,1/2-y,-z
1/2+x,1/2-y,z
loop_
_atom_site_type_symbol
_atom_site_label
_atom_site_fract_x
_atom_site_fract_y
_atom_site_fract_z
Si Si1 0.056277 0.178207 0.344674
Si Si2 0.306555 0.674255 0.939889
Si Si3 0.544868 0.820971 0.855470
Si Si4 0.406090 0.172151 0.060345
Si Si5 0.293822 0.322095 0.265494
Si Si6 0.907137 0.177882 0.562876
Si Si7 0.329563 0.322090 0.358362
O O1 0.168856 0.253930 0.289987
O O2 0.048619 0.224287 0.399857
O O3 0.942895 0.239272 0.351528
O O4 0.068742 0.000000 0.334624
O O5 0.338605 0.500000 0.941362
O O6 0.412986 0.771148 0.891635
O O7 0.220197 0.684131 0.922936
O O8 0.250000 0.750000 0.000000
O O9 0.594451 0.757940 0.889062
O O10 0.612579 0.741726 0.795725
O O11 0.556152 0.000000 0.846392
O O12 0.448270 0.000000 0.054099
O O13 0.500000 0.253544 0.000000
O O14 0.285950 0.500000 0.262477
O O15 0.335456 0.274915 0.303812
O O16 0.784141 0.250313 0.586392
O O17 0.000000 0.240118 0.500000
O O18 0.892291 0.000000 0.562818
O O19 0.319895 0.500000 0.367265
#
# Coordination Sequence:
#
# PCOD8106701 Si02
#       7
#     8   8   8   8   8   8   8
#     4   9  18  35  56  76 103 143 183 215 260 319
#     4  11  21  36  57  80 106 136 171 210 255 309
#     4  11  22  38  58  79 105 139 176 213 262 320
#     4   9  18  35  56  76 102 137 169 199 249 316
#     4  10  21  37  54  77 106 134 174 225 269 307
#     4   9  18  32  51  79 113 143 176 222 268 307
#     4   9  19  35  55  76 104 144 183 218 261 317
#
# _framework density 18.538170999999998
#
# number of rings (size 3 to 8) (size 9 to 14) (size 15 to 20)
#    0.000    2.286    1.429    1.286    0.000    3.143 
#    0.000    9.286    0.000    0.000    0.000    0.000 
#    0.000    0.000    0.000    0.000    0.000    0.000 
#
# Total GULP energy -347203.520156 kJ/mol
# GULP energy per Si atom -12400.125720 kJ/mol
# Density = 1.849598 g / cm^3
# Si number density = 18.538171 Si / 1000 Ang^3
#
#
#
# Elastic Constant Matrix: (Units=GPa)
#
#
# Indices 1 2 3 4 5 6 
#
# 1 129.7447 22.7928 53.6289 0.0000 -13.7410 0.0000
# 2 22.7928 23.4797 19.6631 0.0000 -1.8183 0.0000
# 3 53.6289 19.6631 143.3512 0.0000 -16.2446 0.0000
# 4 0.0000 0.0000 0.0000 31.5426 0.0000 -7.3750
# 5 -13.7410 -1.8183 -16.2446 0.0000 24.4027 0.0000
# 6 0.0000 0.0000 0.0000 -7.3750 0.0000 28.3103
#
#
#
# Elastic Compliance Matrix: (Units=1/GPa)
#
#
# Indices 1 2 3 4 5 6 
#
# 1 0.010482 -0.007859 -0.002424 0.000000 0.003703 0.000000
# 2 -0.007859 0.054027 -0.004884 0.000000 -0.003651 0.000000
# 3 -0.002424 -0.004884 0.009039 0.000000 0.004288 0.000000
# 4 0.000000 0.000000 0.000000 0.033759 0.000000 0.008794
# 5 0.003703 -0.003651 0.004288 0.000000 0.045647 0.000000
# 6 0.000000 0.000000 0.000000 0.008794 0.000000 0.037614
#
#
# Mechanical properties :
#
#
# Convention : Reuss Voigt Hill
#
# Bulk Modulus (GPa) = 23.14103 54.30503 38.72303
# Shear Modulus (GPa) = 21.24892 30.21716 25.73304
#
# Velocity S-wave (km/s) = 3.38927 4.04170 3.72978
# Velocity P-wave (km/s) = 5.27505 7.15106 6.28347
#
# Compressibility (1/GPa) = 0.04321329
#
# Stress axis : x y z
#
# Youngs Moduli (GPa) = 95.40058 18.50936 110.63734
#
# Poissons Ratio (x) = 0.14546 0.26816
# Poissons Ratio (y) = 0.74974 0.54039
# Poissons Ratio (z) = 0.23123 0.09041
#
# Static dielectric constant tensor:
#      x y z
#    x 3.537830 0.000000 0.083790 
#    y 0.000000 3.316550 0.000000 
#    z 0.083790 0.000000 3.456030 
# 
# 
# High freq. dielectric constant tensor:
#      x y z
#    x 1.725710 0.000000 -0.002080 
#    y 0.000000 1.707390 0.000000 
#    z -0.002080 0.000000 1.722750 
# 
# From -- ./inp_files/308985.got.cif
#   From: 2010.06.25/outbox.cif.g09.slc.cpg/sg12_155_cif.got.tgz:308985.got - 2010.06.28 00:19:55.
