data_PCOD8106034
_publ_section_title
;
Structure prediction by ZEFSAII (Michael W. Deem and Ramdas Pophale) SiO2 
 PCOD8106034
Probable space group: C 2/M
;
_chemical_formula_sum "Si O2"
_cell_formula_units_Z 56
_cell_length_a 24.863903
_cell_length_b 8.736253
_cell_length_c 14.853861
_cell_angle_alpha 90.000000
_cell_angle_beta 105.755126
_cell_angle_gamma 90.000000
_cell_volume 3105.299124
_symmetry_space_group_name_H-M "C 2/M"
_symmetry_group_IT_number 12
_symmetry_cell_setting 'monoclinic'
loop_
_space_group_symop_operation_xyz
x,y,z
-x,y,-z
-x,-y,-z
x,-y,z
1/2+x,1/2+y,z
1/2-x,1/2+y,-z
1/2-x,1/2-y,-z
1/2+x,1/2-y,z
loop_
_atom_site_type_symbol
_atom_site_label
_atom_site_fract_x
_atom_site_fract_y
_atom_site_fract_z
Si Si1 0.240315 0.180008 0.092930
Si Si2 0.443379 0.678139 0.785093
Si Si3 0.920450 0.677211 0.395711
Si Si4 0.431684 0.321191 0.102385
Si Si5 0.043768 0.677466 0.392772
Si Si6 0.846304 0.821394 0.219953
Si Si7 0.624137 0.820911 0.090163
O O1 0.288717 0.230915 0.183014
O O2 0.181735 0.231681 0.106336
O O3 0.240269 0.000000 0.082021
O O4 0.250000 0.250000 0.000000
O O5 0.431727 0.500000 0.796522
O O6 0.506746 0.722989 0.837457
O O7 0.431807 0.719337 0.676012
O O8 0.401779 0.777965 0.825834
O O9 0.909365 0.500000 0.369286
O O10 0.918610 0.707341 0.501851
O O11 0.872682 0.778666 0.328024
O O12 0.980365 0.727443 0.384203
O O13 0.426559 0.500000 0.077414
O O14 0.388459 0.271910 0.159971
O O15 0.419135 0.226460 0.007132
O O16 0.045907 0.500000 0.366106
O O17 0.833367 0.000000 0.210814
O O18 0.636030 0.000000 0.090597
#
# Coordination Sequence:
#
# PCOD8106034 Si02
#       7
#     8   8   8   8   8   8   8
#     4  12  24  40  60  82 109 146 188 234 279 327
#     4  11  22  37  56  81 115 153 188 230 279 332
#     4   9  18  33  54  82 115 149 185 230 280 328
#     4  10  21  36  54  80 116 152 185 227 277 329
#     4   9  18  33  54  81 114 149 187 230 276 330
#     4  11  21  35  57  85 116 148 184 231 279 329
#     4  12  25  39  57  81 110 150 192 232 277 334
#
# _framework density 18.03369
#
# number of rings (size 3 to 8) (size 9 to 14) (size 15 to 20)
#    0.000    1.429    2.857    4.714    0.000    4.000 
#    0.000    1.429    0.000    0.857    0.000    0.000 
#    0.000    0.000    0.000    0.000    0.000    0.000 
#
# Total GULP energy -347355.399487 kJ/mol
# GULP energy per Si atom -12405.549982 kJ/mol
# Density = 1.799264 g / cm^3
# Si number density = 18.033690 Si / 1000 Ang^3
#
#
#
# Elastic Constant Matrix: (Units=GPa)
#
#
# Indices 1 2 3 4 5 6 
#
# 1 77.4829 35.3498 40.9159 0.0000 -1.9802 0.0000
# 2 35.3498 92.5087 41.8971 0.0000 1.4151 0.0000
# 3 40.9159 41.8971 111.9568 0.0000 -1.6853 0.0000
# 4 0.0000 0.0000 0.0000 35.4275 0.0000 0.0266
# 5 -1.9802 1.4151 -1.6853 0.0000 24.7864 0.0000
# 6 0.0000 0.0000 0.0000 0.0266 0.0000 27.0547
#
#
#
# Elastic Compliance Matrix: (Units=1/GPa)
#
#
# Indices 1 2 3 4 5 6 
#
# 1 0.017495 -0.004599 -0.004653 0.000000 0.001344 0.000000
# 2 -0.004599 0.014253 -0.003675 0.000000 -0.001431 0.000000
# 3 -0.004653 -0.003675 0.012017 0.000000 0.000655 0.000000
# 4 0.000000 0.000000 0.000000 0.028227 0.000000 -0.000028
# 5 0.001344 -0.001431 0.000655 0.000000 0.040578 0.000000
# 6 0.000000 0.000000 0.000000 -0.000028 0.000000 0.036962
#
#
# Mechanical properties :
#
#
# Convention : Reuss Voigt Hill
#
# Bulk Modulus (GPa) = 55.82341 57.58598 56.70470
# Shear Modulus (GPa) = 27.56990 28.37275 27.97133
#
# Velocity S-wave (km/s) = 3.91423 3.97081 3.94262
# Velocity P-wave (km/s) = 7.17290 7.28182 7.22757
#
# Compressibility (1/GPa) = 0.01791363
#
# Stress axis : x y z
#
# Youngs Moduli (GPa) = 57.15778 70.15911 83.21214
#
# Poissons Ratio (x) = 0.32265 0.38716
# Poissons Ratio (y) = 0.26286 0.30579
# Poissons Ratio (z) = 0.26594 0.25782
#
# Static dielectric constant tensor:
#      x y z
#    x 3.313500 0.000000 0.037260 
#    y 0.000000 3.336820 0.000000 
#    z 0.037260 0.000000 3.364250 
# 
# 
# High freq. dielectric constant tensor:
#      x y z
#    x 1.680540 0.000000 0.001870 
#    y 0.000000 1.704770 0.000000 
#    z 0.001870 0.000000 1.700690 
# 
# From -- ./inp_files/237802.got.cif
#   From: 2010.06.25/outbox.cif.g09.slc.cpg/sg12_119_cif.got.tgz:237802.got - 2010.06.28 00:19:55.
