data_PCOD8106817
_publ_section_title
;
Structure prediction by ZEFSAII (Michael W. Deem and Ramdas Pophale) SiO2 
 PCOD8106817
Probable space group: C 2/M
;
_chemical_formula_sum "Si O2"
_cell_formula_units_Z 56
_cell_length_a 15.829783
_cell_length_b 8.879368
_cell_length_c 19.560545
_cell_angle_alpha 90.000000
_cell_angle_beta 90.154460
_cell_angle_gamma 90.000000
_cell_volume 2749.390260
_symmetry_space_group_name_H-M "C 2/M"
_symmetry_group_IT_number 12
_symmetry_cell_setting 'monoclinic'
loop_
_space_group_symop_operation_xyz
x,y,z
-x,y,-z
-x,-y,-z
x,-y,z
1/2+x,1/2+y,z
1/2-x,1/2+y,-z
1/2-x,1/2-y,-z
1/2+x,1/2-y,z
loop_
_atom_site_type_symbol
_atom_site_label
_atom_site_fract_x
_atom_site_fract_y
_atom_site_fract_z
Si Si1 0.494319 0.178590 0.422673
Si Si2 0.410404 0.671956 0.204110
Si Si3 0.151891 0.678864 0.336561
Si Si4 0.338455 0.327687 0.349844
Si Si5 0.158974 0.331159 0.925160
Si Si6 0.417658 0.823799 0.805085
Si Si7 0.857986 0.168577 0.941430
O O1 0.500000 0.238349 0.500000
O O2 0.575193 0.246191 0.381965
O O3 0.406032 0.230167 0.390625
O O4 0.496035 0.000000 0.419908
O O5 0.441565 0.500000 0.195011
O O6 0.349226 0.686743 0.268613
O O7 0.359034 0.721283 0.137530
O O8 0.487686 0.784178 0.216986
O O9 0.147261 0.500000 0.339258
O O10 0.243190 0.732661 0.365221
O O11 0.141767 0.730134 0.257571
O O12 0.348857 0.500000 0.373582
O O13 0.124283 0.500000 0.911476
O O14 0.258079 0.333639 0.935949
O O15 0.113640 0.266463 0.992987
O O16 0.397177 0.736685 0.873660
O O17 0.408337 0.000000 0.819051
O O18 0.893333 0.000000 0.950708
#
# Coordination Sequence:
#
# PCOD8106817 Si02
#       7
#     8   8   8   8   8   8   8
#     4  10  21  39  62  89 123 159 197 242 292 350
#     4  11  22  36  56  83 115 149 194 250 303 349
#     4   9  19  37  60  86 119 159 198 240 296 355
#     4  10  21  38  61  87 119 158 199 243 295 356
#     4  10  21  37  57  81 111 151 196 241 296 360
#     4  11  21  36  59  82 112 154 198 242 298 361
#     4  10  21  37  56  81 114 148 191 249 300 349
#
# _framework density 20.368151999999998
#
# number of rings (size 3 to 8) (size 9 to 14) (size 15 to 20)
#    0.000    1.857    1.429    2.571    0.000    4.857 
#    0.000    5.000    0.000    0.000    0.000    0.000 
#    0.000    0.000    0.000    0.000    0.000    0.000 
#
# Total GULP energy -347206.596170 kJ/mol
# GULP energy per Si atom -12400.235577 kJ/mol
# Density = 2.032179 g / cm^3
# Si number density = 20.368152 Si / 1000 Ang^3
#
#
#
# Elastic Constant Matrix: (Units=GPa)
#
#
# Indices 1 2 3 4 5 6 
#
# 1 82.3300 22.1123 43.8726 0.0000 -2.1712 0.0000
# 2 22.1123 48.8279 22.3361 0.0000 1.8384 0.0000
# 3 43.8726 22.3361 113.3677 0.0000 10.7060 0.0000
# 4 0.0000 0.0000 0.0000 24.4559 0.0000 4.0123
# 5 -2.1712 1.8384 10.7060 0.0000 25.4639 0.0000
# 6 0.0000 0.0000 0.0000 4.0123 0.0000 30.7037
#
#
#
# Elastic Compliance Matrix: (Units=1/GPa)
#
#
# Indices 1 2 3 4 5 6 
#
# 1 0.016756 -0.005054 -0.005892 0.000000 0.004271 0.000000
# 2 -0.005054 0.024034 -0.002682 0.000000 -0.001039 0.000000
# 3 -0.005892 -0.002682 0.012141 0.000000 -0.005413 0.000000
# 4 0.000000 0.000000 0.000000 0.041786 0.000000 -0.005460
# 5 0.004271 -0.001039 -0.005413 0.000000 0.041986 0.000000
# 6 0.000000 0.000000 0.000000 -0.005460 0.000000 0.033283
#
#
# Mechanical properties :
#
#
# Convention : Reuss Voigt Hill
#
# Bulk Modulus (GPa) = 38.94615 46.79640 42.87128
# Shear Modulus (GPa) = 24.29548 26.53833 25.41690
#
# Velocity S-wave (km/s) = 3.45747 3.61353 3.53636
# Velocity P-wave (km/s) = 5.92464 6.35888 6.14559
#
# Compressibility (1/GPa) = 0.02567648
#
# Stress axis : x y z
#
# Youngs Moduli (GPa) = 59.68008 41.60690 82.36841
#
# Poissons Ratio (x) = 0.21027 0.48532
# Poissons Ratio (y) = 0.30160 0.22087
# Poissons Ratio (z) = 0.35164 0.11157
#
# Static dielectric constant tensor:
#      x y z
#    x 3.769150 0.000000 -0.120380 
#    y 0.000000 3.668700 0.000000 
#    z -0.120380 0.000000 3.854070 
# 
# 
# High freq. dielectric constant tensor:
#      x y z
#    x 1.798260 0.000000 -0.001330 
#    y 0.000000 1.782680 0.000000 
#    z -0.001330 0.000000 1.800430 
# 
# From -- ./inp_files/308970.got.cif
#   From: 2010.06.25/outbox.cif.g09.slc.cpg/sg12_155_cif.got.tgz:308970.got - 2010.06.28 00:19:55.
