data_PCOD8106590
_publ_section_title
;
Structure prediction by ZEFSAII (Michael W. Deem and Ramdas Pophale) SiO2 
 PCOD8106590
Probable space group: C 2/M
;
_chemical_formula_sum "Si O2"
_cell_formula_units_Z 40
_cell_length_a 16.756242
_cell_length_b 25.280990
_cell_length_c 8.659057
_cell_angle_alpha 90.000000
_cell_angle_beta 35.149358
_cell_angle_gamma 90.000000
_cell_volume 2111.761913
_symmetry_space_group_name_H-M "C 2/M"
_symmetry_group_IT_number 12
_symmetry_cell_setting 'monoclinic'
loop_
_space_group_symop_operation_xyz
x,y,z
-x,y,-z
-x,-y,-z
x,-y,z
1/2+x,1/2+y,z
1/2-x,1/2+y,-z
1/2-x,1/2-y,-z
1/2+x,1/2-y,z
loop_
_atom_site_type_symbol
_atom_site_label
_atom_site_fract_x
_atom_site_fract_y
_atom_site_fract_z
Si Si1 0.356605 0.859876 0.419002
Si Si2 0.616518 0.297547 0.932666
Si Si3 0.850199 0.325560 0.090064
Si Si4 0.157533 0.438698 0.304464
Si Si5 0.865116 0.135765 0.799996
O O1 0.269014 0.813739 0.637469
O O2 0.325664 0.859367 0.285521
O O3 0.319593 0.915804 0.558460
O O4 0.516689 0.849596 0.205696
O O5 0.613757 0.234749 0.933317
O O6 0.500000 0.319440 0.000000
O O7 0.584552 0.323320 0.148858
O O8 0.717775 0.329179 0.192075
O O9 0.194921 0.500000 0.249563
O O10 0.000000 0.428862 0.500000
O O11 0.267692 0.411318 0.015220
O O12 0.000000 0.111730 0.500000
#
# Coordination Sequence:
#
# PCOD8106590 Si02
#       5
#     8   8   8   8   8
#     4  10  21  36  61  83 119 156 199 243 282 359
#     4  11  22  36  57  85 124 167 192 233 292 351
#     4  11  21  37  56  88 123 159 196 237 290 346
#     4  10  21  42  64  84 114 155 199 250 304 346
#     4  11  24  38  60  89 121 155 201 246 289 351
#
# _framework density 18.941528999999999
#
# number of rings (size 3 to 8) (size 9 to 14) (size 15 to 20)
#    0.000    1.400    4.000    2.400    2.800    0.400 
#    0.000    3.000    0.000   20.400    0.000    0.000 
#    0.000    0.000    0.000    0.000    0.000    0.000 
#
# Total GULP energy -247978.921117 kJ/mol
# GULP energy per Si atom -12398.946056 kJ/mol
# Density = 1.889842 g / cm^3
# Si number density = 18.941529 Si / 1000 Ang^3
#
#
#
# Elastic Constant Matrix: (Units=GPa)
#
#
# Indices 1 2 3 4 5 6 
#
# 1 130.2695 47.6517 46.8144 0.0000 4.7391 0.0000
# 2 47.6517 102.4399 46.1579 0.0000 10.4687 0.0000
# 3 46.8144 46.1579 144.6059 0.0000 5.6463 0.0000
# 4 0.0000 0.0000 0.0000 16.2016 0.0000 0.7084
# 5 4.7391 10.4687 5.6463 0.0000 21.8875 0.0000
# 6 0.0000 0.0000 0.0000 0.7084 0.0000 17.6011
#
#
#
# Elastic Compliance Matrix: (Units=1/GPa)
#
#
# Indices 1 2 3 4 5 6 
#
# 1 0.009717 -0.003639 -0.001990 0.000000 0.000150 0.000000
# 2 -0.003639 0.013233 -0.002859 0.000000 -0.004804 0.000000
# 3 -0.001990 -0.002859 0.008487 0.000000 -0.000391 0.000000
# 4 0.000000 0.000000 0.000000 0.061831 0.000000 -0.002489
# 5 0.000150 -0.004804 -0.000391 0.000000 0.048055 0.000000
# 6 0.000000 0.000000 0.000000 -0.002489 0.000000 0.056915
#
#
# Mechanical properties :
#
#
# Convention : Reuss Voigt Hill
#
# Bulk Modulus (GPa) = 69.14127 73.17370 71.15748
# Shear Modulus (GPa) = 22.72375 26.91746 24.82061
#
# Velocity S-wave (km/s) = 3.46740 3.77381 3.62384
# Velocity P-wave (km/s) = 7.25342 7.59632 7.42685
#
# Compressibility (1/GPa) = 0.01446314
#
# Stress axis : x y z
#
# Youngs Moduli (GPa) = 102.91084 75.56662 117.82226
#
# Poissons Ratio (x) = 0.27496 0.23449
# Poissons Ratio (y) = 0.37446 0.33680
# Poissons Ratio (z) = 0.20481 0.21601
#
# Static dielectric constant tensor:
#      x y z
#    x 3.565750 0.000000 0.019090 
#    y 0.000000 3.191780 0.000000 
#    z 0.019090 0.000000 3.687410 
# 
# 
# High freq. dielectric constant tensor:
#      x y z
#    x 1.742790 0.000000 -0.000170 
#    y 0.000000 1.710240 0.000000 
#    z -0.000170 0.000000 1.755050 
# 
# From -- ./inp_files/41903.got.cif
#   From: 2010.06.25/outbox.cif.g09.slc.cpg/sg12_21_cif.got.tgz:41903.got - 2010.06.28 00:19:55.
