data_PCOD8106444
_publ_section_title
;
Structure prediction by ZEFSAII (Michael W. Deem and Ramdas Pophale) SiO2 
 PCOD8106444
Probable space group: C 2/M
;
_chemical_formula_sum "Si O2"
_cell_formula_units_Z 56
_cell_length_a 14.456502
_cell_length_b 9.566069
_cell_length_c 26.077108
_cell_angle_alpha 90.000000
_cell_angle_beta 126.613661
_cell_angle_gamma 90.000000
_cell_volume 2894.649947
_symmetry_space_group_name_H-M "C 2/M"
_symmetry_group_IT_number 12
_symmetry_cell_setting 'monoclinic'
loop_
_space_group_symop_operation_xyz
x,y,z
-x,y,-z
-x,-y,-z
x,-y,z
1/2+x,1/2+y,z
1/2-x,1/2+y,-z
1/2-x,1/2-y,-z
1/2+x,1/2-y,z
loop_
_atom_site_type_symbol
_atom_site_label
_atom_site_fract_x
_atom_site_fract_y
_atom_site_fract_z
Si Si1 0.273899 0.339813 0.685415
Si Si2 0.370349 0.662078 0.294641
Si Si3 0.817785 0.658198 0.452353
Si Si4 0.920202 0.157920 0.566566
Si Si5 0.962031 0.158715 0.216169
Si Si6 0.882202 0.661272 0.989911
Si Si7 0.342375 0.162811 0.094591
O O1 0.242707 0.500000 0.686145
O O2 0.239887 0.248419 0.723220
O O3 0.204531 0.285464 0.612504
O O4 0.409023 0.321830 0.720840
O O5 0.348768 0.500000 0.297986
O O6 0.481193 0.715384 0.363073
O O7 0.381574 0.691244 0.238088
O O8 0.863099 0.500000 0.466231
O O9 0.914840 0.749659 0.513038
O O10 0.698181 0.667980 0.442368
O O11 0.946092 0.000000 0.558080
O O12 0.935830 0.268308 0.162815
O O13 0.942568 0.000000 0.189742
O O14 0.852140 0.500000 0.967032
O O15 0.779172 0.759566 0.936344
O O16 0.893837 0.682700 0.054734
O O17 0.000000 0.705736 0.000000
O O18 0.325398 0.000000 0.102104
#
# Coordination Sequence:
#
# PCOD8106444 Si02
#       7
#     8   8   8   8   8   8   8
#     4  10  21  37  56  78 106 142 184 229 277 331
#     4  10  21  37  56  77 104 142 185 227 274 333
#     4   9  17  32  53  75 101 135 176 223 279 335
#     4   9  17  32  53  75 100 134 178 224 275 334
#     4  10  21  40  59  75 109 155 187 218 271 330
#     4   9  19  38  62  87 118 154 185 216 263 320
#     4  10  21  36  58  89 118 145 185 230 266 308
#
# _framework density 19.346036000000002
#
# number of rings (size 3 to 8) (size 9 to 14) (size 15 to 20)
#    0.000    2.429    1.429    0.429    0.000    4.857 
#    0.000    7.143    0.000    0.000    0.000    0.000 
#    0.000    0.000    0.000    0.000    0.000    0.000 
#
# Total GULP energy -347216.777082 kJ/mol
# GULP energy per Si atom -12400.599182 kJ/mol
# Density = 1.930200 g / cm^3
# Si number density = 19.346036 Si / 1000 Ang^3
#
#
#
# Elastic Constant Matrix: (Units=GPa)
#
#
# Indices 1 2 3 4 5 6 
#
# 1 75.2719 36.5813 19.6492 0.0000 -11.8854 0.0000
# 2 36.5813 84.2812 49.6173 0.0000 -9.7172 0.0000
# 3 19.6492 49.6173 86.9745 0.0000 -8.9253 0.0000
# 4 0.0000 0.0000 0.0000 37.7780 0.0000 0.0337
# 5 -11.8854 -9.7172 -8.9253 0.0000 17.5516 0.0000
# 6 0.0000 0.0000 0.0000 0.0337 0.0000 28.9903
#
#
#
# Elastic Compliance Matrix: (Units=1/GPa)
#
#
# Indices 1 2 3 4 5 6 
#
# 1 0.017980 -0.007439 0.001064 0.000000 0.008598 0.000000
# 2 -0.007439 0.021363 -0.010350 0.000000 0.001527 0.000000
# 3 0.001064 -0.010350 0.017564 0.000000 0.003922 0.000000
# 4 0.000000 0.000000 0.000000 0.026470 0.000000 -0.000031
# 5 0.008598 0.001527 0.003922 0.000000 0.065637 0.000000
# 6 0.000000 0.000000 0.000000 -0.000031 0.000000 0.034494
#
#
# Mechanical properties :
#
#
# Convention : Reuss Voigt Hill
#
# Bulk Modulus (GPa) = 42.63007 50.91370 46.77188
# Shear Modulus (GPa) = 22.24408 26.24265 24.24336
#
# Velocity S-wave (km/s) = 3.39455 3.68705 3.54382
# Velocity P-wave (km/s) = 6.11942 6.67085 6.40108
#
# Compressibility (1/GPa) = 0.02345762
#
# Stress axis : x y z
#
# Youngs Moduli (GPa) = 55.61587 46.80962 56.93431
#
# Poissons Ratio (x) = 0.34824 -0.06059
# Poissons Ratio (y) = 0.41375 0.58926
# Poissons Ratio (z) = -0.05919 0.48447
#
# Static dielectric constant tensor:
#      x y z
#    x 3.415830 0.000000 -0.094960 
#    y 0.000000 3.549020 0.000000 
#    z -0.094960 0.000000 3.487470 
# 
# 
# High freq. dielectric constant tensor:
#      x y z
#    x 1.750950 0.000000 -0.004230 
#    y 0.000000 1.747260 0.000000 
#    z -0.004230 0.000000 1.749010 
# 
# From -- ./inp_files/359669.got.cif
#   From: 2010.06.25/outbox.cif.g09.slc.cpg/sg12_180_cif.got.tgz:359669.got - 2010.06.28 00:19:55.
