data_PCOD8106591
_publ_section_title
;
Structure prediction by ZEFSAII (Michael W. Deem and Ramdas Pophale) SiO2 
 PCOD8106591
Probable space group: C 2/M
;
_chemical_formula_sum "Si O2"
_cell_formula_units_Z 44
_cell_length_a 8.523149
_cell_length_b 23.923946
_cell_length_c 12.123646
_cell_angle_alpha 90.000000
_cell_angle_beta 66.235046
_cell_angle_gamma 90.000000
_cell_volume 2262.482129
_symmetry_space_group_name_H-M "C 2/M"
_symmetry_group_IT_number 12
_symmetry_cell_setting 'monoclinic'
loop_
_space_group_symop_operation_xyz
x,y,z
-x,y,-z
-x,-y,-z
x,-y,z
1/2+x,1/2+y,z
1/2-x,1/2+y,-z
1/2-x,1/2-y,-z
1/2+x,1/2-y,z
loop_
_atom_site_type_symbol
_atom_site_label
_atom_site_fract_x
_atom_site_fract_y
_atom_site_fract_z
Si Si1 0.024672 0.406023 0.740941
Si Si2 0.890576 0.119761 0.632035
Si Si3 0.378080 0.000000 0.637135
Si Si4 0.363234 0.000000 0.132231
Si Si5 0.573515 0.305902 0.157523
Si Si6 0.270681 0.811938 0.879387
Si Si7 0.483586 0.500000 0.691392
O O1 0.193877 0.376104 0.643711
O O2 0.103852 0.443482 0.813385
O O3 0.920229 0.442990 0.685757
O O4 0.890921 0.363951 0.828344
O O5 0.910053 0.154409 0.740584
O O6 0.951532 0.055482 0.628383
O O7 0.000000 0.146265 0.500000
O O8 0.500000 0.000000 0.500000
O O9 0.176435 0.000000 0.676989
O O10 0.156463 0.000000 0.166455
O O11 0.500000 0.000000 0.000000
O O12 0.612950 0.242099 0.177451
O O13 0.383094 0.311674 0.164159
O O14 0.709182 0.320074 0.022693
#
# Coordination Sequence:
#
# PCOD8106591 Si02
#       7
#     8   8   4   4   8   8   4
#     4  10  22  36  58  86 117 150 198 238 292 348
#     4  11  22  39  60  88 119 158 197 241 292 354
#     4  11  21  39  58  85 121 159 196 242 293 358
#     4   9  21  37  54  86 115 154 190 242 294 345
#     4  10  22  39  62  86 118 153 197 242 298 350
#     4  10  21  40  61  88 114 152 196 246 296 351
#     4  10  21  36  61  83 120 158 199 239 293 353
#
# _framework density 19.447666999999999
#
# number of rings (size 3 to 8) (size 9 to 14) (size 15 to 20)
#    0.000    1.818    0.000    4.091    5.091    1.455 
#    0.000    5.455    0.000    0.000    0.000    0.000 
#    0.000    0.000    0.000    0.000    0.000    0.000 
#
# Total GULP energy -272598.662895 kJ/mol
# GULP energy per Si atom -12390.848313 kJ/mol
# Density = 1.940340 g / cm^3
# Si number density = 19.447667 Si / 1000 Ang^3
#
#
#
# Elastic Constant Matrix: (Units=GPa)
#
#
# Indices 1 2 3 4 5 6 
#
# 1 138.3398 42.0592 57.0385 0.0000 -24.4028 0.0000
# 2 42.0592 114.9292 51.2107 0.0000 -1.0392 0.0000
# 3 57.0385 51.2107 119.8958 0.0000 -18.9672 0.0000
# 4 0.0000 0.0000 0.0000 -25.5067 0.0000 -61.8088
# 5 -24.4028 -1.0392 -18.9672 0.0000 31.6958 0.0000
# 6 0.0000 0.0000 0.0000 -61.8088 0.0000 -25.3792
#
#
#
# Elastic Compliance Matrix: (Units=1/GPa)
#
#
# Indices 1 2 3 4 5 6 
#
# 1 0.010214 -0.002403 -0.002873 0.000000 0.006065 0.000000
# 2 -0.002403 0.011516 -0.004428 0.000000 -0.004122 0.000000
# 3 -0.002873 -0.004428 0.012400 0.000000 0.005063 0.000000
# 4 0.000000 0.000000 0.000000 0.007999 0.000000 -0.019480
# 5 0.006065 -0.004122 0.005063 0.000000 0.039114 0.000000
# 6 0.000000 0.000000 0.000000 -0.019480 0.000000 0.008039
#
#
# Mechanical properties :
#
#
# Convention : Reuss Voigt Hill
#
# Bulk Modulus (GPa) = 67.92623 74.86461 71.39542
# Shear Modulus (GPa) = 44.01588 11.01908 27.51748
#
# Velocity S-wave (km/s) = 4.76258 2.38292 3.76566
# Velocity P-wave (km/s) = 8.07752 6.79339 7.46312
#
# Compressibility (1/GPa) = 0.01472185
#
# Stress axis : x y z
#
# Youngs Moduli (GPa) = 97.90864 86.83582 80.64755
#
# Poissons Ratio (x) = 0.20864 0.23172
# Poissons Ratio (y) = 0.23524 0.35709
# Poissons Ratio (z) = 0.28131 0.38450
#
# Static dielectric constant tensor:
#      x y z
#    x 4.177990 0.000000 -0.646410 
#    y 0.000000 3.591870 0.000000 
#    z -0.646410 0.000000 3.940650 
# 
# 
# High freq. dielectric constant tensor:
#      x y z
#    x 1.770890 0.000000 -0.021460 
#    y 0.000000 1.760930 0.000000 
#    z -0.021460 0.000000 1.753090 
# 
# From -- ./inp_files/120796.got.cif
#   From: 2010.06.25/outbox.cif.g09.slc.cpg/sg12_61_cif.got.tgz:120796.got - 2010.06.28 00:19:55.
