data_PCOD8106376
_publ_section_title
;
Structure prediction by ZEFSAII (Michael W. Deem and Ramdas Pophale) SiO2 
 PCOD8106376
Probable space group: C 2/M
;
_chemical_formula_sum "Si O2"
_cell_formula_units_Z 44
_cell_length_a 22.495201
_cell_length_b 13.016877
_cell_length_c 9.220879
_cell_angle_alpha 90.000000
_cell_angle_beta 56.726427
_cell_angle_gamma 90.000000
_cell_volume 2257.390584
_symmetry_space_group_name_H-M "C 2/M"
_symmetry_group_IT_number 12
_symmetry_cell_setting 'monoclinic'
loop_
_space_group_symop_operation_xyz
x,y,z
-x,y,-z
-x,-y,-z
x,-y,z
1/2+x,1/2+y,z
1/2-x,1/2+y,-z
1/2-x,1/2-y,-z
1/2+x,1/2-y,z
loop_
_atom_site_type_symbol
_atom_site_label
_atom_site_fract_x
_atom_site_fract_y
_atom_site_fract_z
Si Si1 0.274411 0.500000 0.862530
Si Si2 0.928451 0.616860 0.182467
Si Si3 0.675629 0.694613 0.733726
Si Si4 0.677062 0.500000 0.897743
Si Si5 0.928496 0.672698 0.510506
Si Si6 0.668164 0.000000 0.241852
Si Si7 0.191514 0.184391 0.388173
O O1 0.282907 0.598085 0.753089
O O2 0.333221 0.500000 0.914026
O O3 0.195405 0.500000 0.038170
O O4 0.901106 0.500000 0.187231
O O5 0.871155 0.701434 0.208353
O O6 0.944544 0.625102 0.331670
O O7 0.000000 0.639930 0.000000
O O8 0.641850 0.603578 0.877350
O O9 0.752267 0.722383 0.698573
O O10 0.687528 0.645683 0.559134
O O11 0.762194 0.500000 0.746142
O O12 0.880224 0.598466 0.670493
O O13 0.886800 0.779570 0.552808
O O14 0.000000 0.695862 0.500000
#
# Coordination Sequence:
#
# PCOD8106376 Si02
#       7
#     4   8   8   4   8   4   8
#     4  10  23  36  61  89 126 154 208 261 296 368
#     4  10  23  40  60  95 125 159 209 255 309 375
#     4  10  21  38  64  85 126 162 202 261 309 361
#     4  10  21  38  59  90 124 158 198 262 301 361
#     4  11  22  39  62  84 129 166 198 249 318 374
#     4  10  21  36  57  89 124 153 198 252 307 363
#     4  10  21  38  58  93 115 165 211 251 304 367
#
# _framework density 19.491533
#
# number of rings (size 3 to 8) (size 9 to 14) (size 15 to 20)
#    0.545    1.273    2.727    0.818    1.273    5.818 
#    0.000    0.909    0.000    0.000    0.000    0.000 
#    0.000    0.000    0.000    0.000    0.000    0.000 
#
# Total GULP energy -272712.905455 kJ/mol
# GULP energy per Si atom -12396.041157 kJ/mol
# Density = 1.944717 g / cm^3
# Si number density = 19.491533 Si / 1000 Ang^3
#
#
#
# Elastic Constant Matrix: (Units=GPa)
#
#
# Indices 1 2 3 4 5 6 
#
# 1 107.3176 55.1867 35.9298 0.0000 5.2669 0.0000
# 2 55.1867 107.9530 65.4435 0.0000 17.6102 0.0000
# 3 35.9298 65.4435 138.3752 0.0000 6.7853 0.0000
# 4 0.0000 0.0000 0.0000 -42.8384 0.0000 3.5773
# 5 5.2669 17.6102 6.7853 0.0000 26.4368 0.0000
# 6 0.0000 0.0000 0.0000 3.5773 0.0000 14.4222
#
#
#
# Elastic Compliance Matrix: (Units=1/GPa)
#
#
# Indices 1 2 3 4 5 6 
#
# 1 0.012742 -0.006691 -0.000241 0.000000 0.001980 0.000000
# 2 -0.006691 0.017994 -0.006330 0.000000 -0.009029 0.000000
# 3 -0.000241 -0.006330 0.010202 0.000000 0.001646 0.000000
# 4 0.000000 0.000000 0.000000 -0.022870 0.000000 0.005673
# 5 0.001980 -0.009029 0.001646 0.000000 0.043023 0.000000
# 6 0.000000 0.000000 0.000000 0.005673 0.000000 0.067930
#
#
# Mechanical properties :
#
#
# Convention : Reuss Voigt Hill
#
# Bulk Modulus (GPa) = 69.37537 74.08511 71.73024
# Shear Modulus (GPa) = 31.18145 12.74317 21.96231
#
# Velocity S-wave (km/s) = 4.00402 2.55969 3.36037
# Velocity P-wave (km/s) = 7.55288 6.84305 7.20671
#
# Compressibility (1/GPa) = 0.01441434
#
# Stress axis : x y z
#
# Youngs Moduli (GPa) = 78.47820 55.57429 98.01559
#
# Poissons Ratio (x) = 0.37183 0.02366
# Poissons Ratio (y) = 0.52508 0.62045
# Poissons Ratio (z) = 0.01894 0.35179
#
# Static dielectric constant tensor:
#      x y z
#    x 3.428270 0.000000 0.073200 
#    y 0.000000 3.540160 0.000000 
#    z 0.073200 0.000000 3.576070 
# 
# 
# High freq. dielectric constant tensor:
#      x y z
#    x 1.743500 0.000000 0.011260 
#    y 0.000000 1.758300 0.000000 
#    z 0.011260 0.000000 1.759260 
# 
# From -- ./inp_files/94848.got.cif
#   From: 2010.06.25/outbox.cif.g09.slc.cpg/sg12_48_cif.got.tgz:94848.got - 2010.06.28 00:19:55.
