data_PCOD8106059
_publ_section_title
;
Structure prediction by ZEFSAII (Michael W. Deem and Ramdas Pophale) SiO2 
 PCOD8106059
Probable space group: C 2/M
;
_chemical_formula_sum "Si O2"
_cell_formula_units_Z 52
_cell_length_a 5.553730
_cell_length_b 27.538775
_cell_length_c 17.346080
_cell_angle_alpha 90.000000
_cell_angle_beta 91.373035
_cell_angle_gamma 90.000000
_cell_volume 2652.198417
_symmetry_space_group_name_H-M "C 2/M"
_symmetry_group_IT_number 12
_symmetry_cell_setting 'monoclinic'
loop_
_space_group_symop_operation_xyz
x,y,z
-x,y,-z
-x,-y,-z
x,-y,z
1/2+x,1/2+y,z
1/2-x,1/2+y,-z
1/2-x,1/2-y,-z
1/2+x,1/2-y,z
loop_
_atom_site_type_symbol
_atom_site_label
_atom_site_fract_x
_atom_site_fract_y
_atom_site_fract_z
Si Si1 0.627909 0.054987 0.292000
Si Si2 0.462890 0.445746 0.148030
Si Si3 0.748026 0.056272 0.466169
Si Si4 0.663246 0.273608 0.161401
Si Si5 0.000000 0.793196 0.000000
Si Si6 0.178583 0.629947 0.070518
Si Si7 0.837403 0.373948 0.198903
O O1 0.836645 0.058289 0.230269
O O2 0.749658 0.064540 0.374829
O O3 0.432658 0.098566 0.276973
O O4 0.511798 0.000000 0.288755
O O5 0.521942 0.500000 0.124223
O O6 0.299459 0.422645 0.080080
O O7 0.710836 0.416672 0.150124
O O8 0.500000 0.079347 0.500000
O O9 0.000000 0.079716 0.500000
O O10 0.749471 0.000000 0.489775
O O11 0.414681 0.250641 0.191478
O O12 0.673971 0.266820 0.065169
O O13 0.662446 0.327203 0.202664
O O14 0.863480 0.826966 0.059844
O O15 0.056022 0.645924 0.149183
O O16 0.000000 0.625694 0.000000
#
# Coordination Sequence:
#
# PCOD8106059 Si02
#       7
#     8   8   8   8   4   8   8
#     4   9  20  35  57  84 115 160 193 220 276 337
#     4  10  21  36  55  77 106 152 198 234 279 334
#     4   9  18  32  52  84 123 156 188 225 263 318
#     4  12  26  40  61  85 107 142 188 239 305 362
#     4  12  22  40  57  78 102 142 181 246 306 362
#     4  11  20  36  56  75 105 142 187 242 293 338
#     4  11  22  37  57  77 114 142 189 244 285 341
#
# _framework density 19.606377999999999
#
# number of rings (size 3 to 8) (size 9 to 14) (size 15 to 20)
#    0.000    1.538    3.077    1.846    4.308    0.923 
#    0.000    2.692    0.000    0.000    0.000    0.000 
#    0.000    3.692    0.000    0.000    0.000    0.000 
#
# Total GULP energy -322113.180658 kJ/mol
# GULP energy per Si atom -12388.968487 kJ/mol
# Density = 1.956175 g / cm^3
# Si number density = 19.606378 Si / 1000 Ang^3
#
#
#
# Elastic Constant Matrix: (Units=GPa)
#
#
# Indices 1 2 3 4 5 6 
#
# 1 93.6495 25.4659 2.7200 0.0000 13.9004 0.0000
# 2 25.4659 91.1500 7.9661 0.0000 13.4423 0.0000
# 3 2.7200 7.9661 45.5961 0.0000 18.4104 0.0000
# 4 0.0000 0.0000 0.0000 19.0255 0.0000 3.3109
# 5 13.9004 13.4423 18.4104 0.0000 27.1497 0.0000
# 6 0.0000 0.0000 0.0000 3.3109 0.0000 25.8448
#
#
#
# Elastic Compliance Matrix: (Units=1/GPa)
#
#
# Indices 1 2 3 4 5 6 
#
# 1 0.012317 -0.002676 0.002402 0.000000 -0.006610 0.000000
# 2 -0.002676 0.012422 -0.000111 0.000000 -0.004705 0.000000
# 3 0.002402 -0.000111 0.030683 0.000000 -0.021981 0.000000
# 4 0.000000 0.000000 0.000000 0.053759 0.000000 -0.006887
# 5 -0.006610 -0.004705 -0.021981 0.000000 0.057452 0.000000
# 6 0.000000 0.000000 0.000000 -0.006887 0.000000 0.039575
#
#
# Mechanical properties :
#
#
# Convention : Reuss Voigt Hill
#
# Bulk Modulus (GPa) = 18.29782 33.63330 25.96556
# Shear Modulus (GPa) = 22.20277 27.35358 24.77818
#
# Velocity S-wave (km/s) = 3.36880 3.73921 3.55883
# Velocity P-wave (km/s) = 4.94820 5.98613 5.49174
#
# Compressibility (1/GPa) = 0.05465131
#
# Stress axis : x y z
#
# Youngs Moduli (GPa) = 81.18709 80.50097 32.59119
#
# Poissons Ratio (x) = 0.21545 -0.07827
# Poissons Ratio (y) = 0.21729 0.00361
# Poissons Ratio (z) = -0.19498 0.00893
#
# Static dielectric constant tensor:
#      x y z
#    x 3.896840 0.000000 0.078930 
#    y 0.000000 3.756250 0.000000 
#    z 0.078930 0.000000 3.277160 
# 
# 
# High freq. dielectric constant tensor:
#      x y z
#    x 1.785730 0.000000 0.010600 
#    y 0.000000 1.749290 0.000000 
#    z 0.010600 0.000000 1.716720 
# 
# From -- ./inp_files/253471.got.cif
#   From: 2010.06.25/outbox.cif.g09.slc.cpg/sg12_127_cif.got.tgz:253471.got - 2010.06.28 00:19:55.
