data_PCOD8106075
_publ_section_title
;
Structure prediction by ZEFSAII (Michael W. Deem and Ramdas Pophale) SiO2 
 PCOD8106075
Probable space group: C 2/M
;
_chemical_formula_sum "Si O2"
_cell_formula_units_Z 64
_cell_length_a 14.665713
_cell_length_b 8.972969
_cell_length_c 25.982420
_cell_angle_alpha 90.000000
_cell_angle_beta 89.805192
_cell_angle_gamma 90.000000
_cell_volume 3419.136488
_symmetry_space_group_name_H-M "C 2/M"
_symmetry_group_IT_number 12
_symmetry_cell_setting 'monoclinic'
loop_
_space_group_symop_operation_xyz
x,y,z
-x,y,-z
-x,-y,-z
x,-y,z
1/2+x,1/2+y,z
1/2-x,1/2+y,-z
1/2-x,1/2-y,-z
1/2+x,1/2-y,z
loop_
_atom_site_type_symbol
_atom_site_label
_atom_site_fract_x
_atom_site_fract_y
_atom_site_fract_z
Si Si1 0.896096 0.675873 0.495238
Si Si2 0.139544 0.823316 0.865065
Si Si3 0.231654 0.826101 0.692217
Si Si4 0.756214 0.825844 0.424819
Si Si5 0.823789 0.826848 0.874271
Si Si6 0.009595 0.826282 0.056619
Si Si7 0.092296 0.328431 0.759252
Si Si8 0.115369 0.671049 0.227079
O O1 0.898788 0.500000 0.487710
O O2 0.846510 0.744443 0.445602
O O3 0.836303 0.722504 0.545319
O O4 0.000000 0.737367 0.500000
O O5 0.236036 0.771384 0.886946
O O6 0.063076 0.756369 0.903386
O O7 0.127813 0.760319 0.808329
O O8 0.135170 0.000000 0.861343
O O9 0.257863 0.780661 0.634344
O O10 0.142332 0.734777 0.708900
O O11 0.315837 0.780672 0.728300
O O12 0.209227 0.000000 0.696620
O O13 0.773455 0.000000 0.431835
O O14 0.872630 0.777022 0.821787
O O15 0.889728 0.797408 0.922328
O O16 0.798203 0.000000 0.869271
O O17 0.986989 0.000000 0.052467
O O18 0.000000 0.752327 0.000000
O O19 0.117896 0.500000 0.767329
O O20 0.985305 0.305924 0.750412
O O21 0.132011 0.500000 0.210000
#
# Coordination Sequence:
#
# PCOD8106075 Si02
#       8
#     8   8   8   8   8   8   8   8
#     4   9  18  34  58  83 109 145 187 229 279 331
#     4  11  21  36  58  81 109 146 182 223 280 333
#     4  10  21  37  55  78 113 153 184 222 280 336
#     4   9  19  35  54  80 113 147 186 228 274 328
#     4  11  21  35  58  84 109 141 184 227 269 329
#     4   9  20  38  58  81 111 146 182 225 279 335
#     4  11  22  35  55  83 110 142 188 233 272 327
#     4  10  21  36  55  79 110 146 182 224 278 332
#
# _framework density 18.718177000000001
#
# number of rings (size 3 to 8) (size 9 to 14) (size 15 to 20)
#    0.000    2.000    2.500    1.125    0.000    2.750 
#    0.000    2.500    0.000    5.250    0.000    0.000 
#    0.000    0.000    0.000    0.000    0.000    0.000 
#
# Total GULP energy -396867.019839 kJ/mol
# GULP energy per Si atom -12402.094370 kJ/mol
# Density = 1.867557 g / cm^3
# Si number density = 18.718177 Si / 1000 Ang^3
#
#
#
# Elastic Constant Matrix: (Units=GPa)
#
#
# Indices 1 2 3 4 5 6 
#
# 1 106.2092 26.3362 29.5029 0.0000 -3.2195 0.0000
# 2 26.3362 50.7279 26.8323 0.0000 -0.9975 0.0000
# 3 29.5029 26.8323 102.0482 0.0000 2.3548 0.0000
# 4 0.0000 0.0000 0.0000 18.1903 0.0000 2.3276
# 5 -3.2195 -0.9975 2.3548 0.0000 26.0554 0.0000
# 6 0.0000 0.0000 0.0000 2.3276 0.0000 29.5730
#
#
#
# Elastic Compliance Matrix: (Units=1/GPa)
#
#
# Indices 1 2 3 4 5 6 
#
# 1 0.011188 -0.004708 -0.002029 0.000000 0.001386 0.000000
# 2 -0.004708 0.024932 -0.005214 0.000000 0.000844 0.000000
# 3 -0.002029 -0.005214 0.011792 0.000000 -0.001516 0.000000
# 4 0.000000 0.000000 0.000000 0.055534 0.000000 -0.004371
# 5 0.001386 0.000844 -0.001516 0.000000 0.038720 0.000000
# 6 0.000000 0.000000 0.000000 -0.004371 0.000000 0.034159
#
#
# Mechanical properties :
#
#
# Convention : Reuss Voigt Hill
#
# Bulk Modulus (GPa) = 41.64863 47.14759 44.39811
# Shear Modulus (GPa) = 24.01196 26.51799 25.26498
#
# Velocity S-wave (km/s) = 3.58553 3.76799 3.67789
# Velocity P-wave (km/s) = 6.28013 6.64629 6.46580
#
# Compressibility (1/GPa) = 0.02401040
#
# Stress axis : x y z
#
# Youngs Moduli (GPa) = 89.37821 40.10930 84.80571
#
# Poissons Ratio (x) = 0.18885 0.17204
# Poissons Ratio (y) = 0.42083 0.44216
# Poissons Ratio (z) = 0.18131 0.20912
#
# Static dielectric constant tensor:
#      x y z
#    x 3.654200 0.000000 -0.074640 
#    y 0.000000 3.326090 0.000000 
#    z -0.074640 0.000000 3.505530 
# 
# 
# High freq. dielectric constant tensor:
#      x y z
#    x 1.738280 0.000000 -0.001070 
#    y 0.000000 1.714480 0.000000 
#    z -0.001070 0.000000 1.723400 
# 
# From -- ./inp_files/338786.got.cif
#   From: 2010.06.25/outbox.cif.g09.slc.cpg/sg12_170_cif.got.tgz:338786.got - 2010.06.28 00:19:55.
