data_PCOD8106426
_publ_section_title
;
Structure prediction by ZEFSAII (Michael W. Deem and Ramdas Pophale) SiO2 
 PCOD8106426
Probable space group: C 2/M
;
_chemical_formula_sum "Si O2"
_cell_formula_units_Z 48
_cell_length_a 26.520948
_cell_length_b 11.883096
_cell_length_c 8.136603
_cell_angle_alpha 90.000000
_cell_angle_beta 77.790482
_cell_angle_gamma 90.000000
_cell_volume 2506.256802
_symmetry_space_group_name_H-M "C 2/M"
_symmetry_group_IT_number 12
_symmetry_cell_setting 'monoclinic'
loop_
_space_group_symop_operation_xyz
x,y,z
-x,y,-z
-x,-y,-z
x,-y,z
1/2+x,1/2+y,z
1/2-x,1/2+y,-z
1/2-x,1/2-y,-z
1/2+x,1/2-y,z
loop_
_atom_site_type_symbol
_atom_site_label
_atom_site_fract_x
_atom_site_fract_y
_atom_site_fract_z
Si Si1 0.682799 0.128146 0.324202
Si Si2 0.422037 0.500000 0.642332
Si Si3 0.870518 0.810769 0.855183
Si Si4 0.030507 0.000000 0.743528
Si Si5 0.554441 0.269716 0.918152
Si Si6 0.283444 0.287868 0.128864
Si Si7 0.145645 0.632631 0.712059
O O1 0.653442 0.198875 0.206493
O O2 0.745228 0.146207 0.278481
O O3 0.661846 0.161701 0.516327
O O4 0.670170 0.000000 0.291792
O O5 0.385062 0.394209 0.699406
O O6 0.470622 0.500000 0.732248
O O7 0.435662 0.500000 0.443372
O O8 0.921711 0.783071 0.918718
O O9 0.829562 0.863055 0.016851
O O10 0.044362 0.109715 0.839348
O O11 0.589914 0.190142 0.780361
O O12 0.500000 0.210765 0.000000
O O13 0.310072 0.181972 0.200597
O O14 0.250000 0.250000 0.000000
O O15 0.141412 0.500000 0.747504
#
# Coordination Sequence:
#
# PCOD8106426 Si02
#       7
#     8   4   8   4   8   8   8
#     4  10  21  40  60  85 118 153 193 239 292 345
#     4  11  21  36  59  86 121 150 193 240 292 347
#     4  10  21  36  58  88 114 153 192 241 289 344
#     4  11  22  37  60  85 118 157 188 243 294 338
#     4  11  21  38  60  85 117 152 197 242 288 349
#     4   9  20  36  60  85 113 150 192 236 282 343
#     4  10  22  40  61  84 118 154 191 241 293 345
#
# _framework density 19.152068
#
# number of rings (size 3 to 8) (size 9 to 14) (size 15 to 20)
#    0.000    1.833    1.667    2.250    1.167    6.333 
#    6.000    0.000    0.000    2.000    0.000    0.000 
#    0.000    0.000    0.000    0.000    0.000    0.000 
#
# Total GULP energy -297430.321349 kJ/mol
# GULP energy per Si atom -12392.930056 kJ/mol
# Density = 1.910848 g / cm^3
# Si number density = 19.152068 Si / 1000 Ang^3
#
#
#
# Elastic Constant Matrix: (Units=GPa)
#
#
# Indices 1 2 3 4 5 6 
#
# 1 128.8198 48.1057 63.5486 0.0000 -13.6753 0.0000
# 2 48.1057 89.6663 55.5359 0.0000 -8.8621 0.0000
# 3 63.5486 55.5359 122.5572 0.0000 -20.8654 0.0000
# 4 0.0000 0.0000 0.0000 5.4352 0.0000 -0.1642
# 5 -13.6753 -8.8621 -20.8654 0.0000 41.2916 0.0000
# 6 0.0000 0.0000 0.0000 -0.1642 0.0000 26.5646
#
#
#
# Elastic Compliance Matrix: (Units=1/GPa)
#
#
# Indices 1 2 3 4 5 6 
#
# 1 0.011130 -0.003340 -0.004105 0.000000 0.000895 0.000000
# 2 -0.003340 0.016508 -0.005836 0.000000 -0.000512 0.000000
# 3 -0.004105 -0.005836 0.013663 0.000000 0.004292 0.000000
# 4 0.000000 0.000000 0.000000 0.184021 0.000000 0.001138
# 5 0.000895 -0.000512 0.004292 0.000000 0.026573 0.000000
# 6 0.000000 0.000000 0.000000 0.001138 0.000000 0.037651
#
#
# Mechanical properties :
#
#
# Convention : Reuss Voigt Hill
#
# Bulk Modulus (GPa) = 67.84632 75.04707 71.44669
# Shear Modulus (GPa) = 15.57519 26.24849 20.91184
#
# Velocity S-wave (km/s) = 2.85483 3.70608 3.30795
# Velocity P-wave (km/s) = 6.80945 7.58837 7.20944
#
# Compressibility (1/GPa) = 0.01473919
#
# Stress axis : x y z
#
# Youngs Moduli (GPa) = 89.84413 60.57527 73.18813
#
# Poissons Ratio (x) = 0.20234 0.30047
# Poissons Ratio (y) = 0.30010 0.42712
# Poissons Ratio (z) = 0.36885 0.35351
#
# Static dielectric constant tensor:
#      x y z
#    x 3.986520 0.000000 -0.420260 
#    y 0.000000 3.313750 0.000000 
#    z -0.420260 0.000000 3.806580 
# 
# 
# High freq. dielectric constant tensor:
#      x y z
#    x 1.756110 0.000000 -0.014250 
#    y 0.000000 1.725420 0.000000 
#    z -0.014250 0.000000 1.764760 
# 
# From -- ./inp_files/94370.got.cif
#   From: 2010.06.25/outbox.cif.g09.slc.cpg/sg12_48_cif.got.tgz:94370.got - 2010.06.28 00:19:55.
