data_PCOD8106921
_publ_section_title
;
Structure prediction by ZEFSAII (Michael W. Deem and Ramdas Pophale) SiO2 
 PCOD8106921
Probable space group: C 2/M
;
_chemical_formula_sum "Si O2"
_cell_formula_units_Z 48
_cell_length_a 31.393867
_cell_length_b 9.073238
_cell_length_c 15.703812
_cell_angle_alpha 90.000000
_cell_angle_beta 33.605462
_cell_angle_gamma 90.000000
_cell_volume 2475.751408
_symmetry_space_group_name_H-M "C 2/M"
_symmetry_group_IT_number 12
_symmetry_cell_setting 'monoclinic'
loop_
_space_group_symop_operation_xyz
x,y,z
-x,y,-z
-x,-y,-z
x,-y,z
1/2+x,1/2+y,z
1/2-x,1/2+y,-z
1/2-x,1/2-y,-z
1/2+x,1/2-y,z
loop_
_atom_site_type_symbol
_atom_site_label
_atom_site_fract_x
_atom_site_fract_y
_atom_site_fract_z
Si Si1 0.799249 0.671976 0.298789
Si Si2 0.224986 0.673908 0.127966
Si Si3 0.427835 0.329300 0.561121
Si Si4 0.646119 0.670508 0.952668
Si Si5 0.523432 0.669793 0.709834
Si Si6 0.850335 0.671867 0.401669
O O1 0.785889 0.500000 0.307832
O O2 0.852363 0.734381 0.135680
O O3 0.842150 0.707544 0.315565
O O4 0.716129 0.748651 0.433717
O O5 0.224762 0.500000 0.113953
O O6 0.141337 0.726660 0.294830
O O7 0.285044 0.720510 0.100737
O O8 0.250000 0.750000 0.000000
O O9 0.500000 0.293371 0.500000
O O10 0.403588 0.500000 0.610055
O O11 0.449827 0.287026 0.428723
O O12 0.653491 0.500000 0.915089
O O13 0.566866 0.703411 0.133215
O O14 0.541302 0.500000 0.700302
O O15 0.567433 0.768662 0.705514
O O16 0.843952 0.500000 0.431352
#
# Coordination Sequence:
#
# PCOD8106921 Si02
#       6
#     8   8   8   8   8   8
#     4  10  21  37  58  83 111 147 189 231 280 335
#     4  11  23  39  60  86 115 147 186 230 277 329
#     4  10  21  39  61  84 114 149 185 229 279 330
#     4  10  22  39  58  83 115 149 186 230 278 329
#     4  10  21  37  58  83 112 149 189 227 276 335
#     4  10  21  37  57  82 113 147 186 234 282 330
#
# _framework density 19.388052999999999
#
# number of rings (size 3 to 8) (size 9 to 14) (size 15 to 20)
#    0.000    1.833    0.000    3.500    0.000   11.000 
#    0.000    5.000    0.000    0.000    0.000    0.000 
#    0.000    0.000    0.000    0.000    0.000    0.000 
#
# Total GULP energy -297759.330960 kJ/mol
# GULP energy per Si atom -12406.638790 kJ/mol
# Density = 1.934392 g / cm^3
# Si number density = 19.388053 Si / 1000 Ang^3
#
#
#
# Elastic Constant Matrix: (Units=GPa)
#
#
# Indices 1 2 3 4 5 6 
#
# 1 116.7034 55.6995 56.1272 0.0000 -4.6668 0.0000
# 2 55.6995 82.1937 55.7517 -0.0001 4.8574 0.0000
# 3 56.1272 55.7517 132.4931 0.0000 8.1103 0.0000
# 4 0.0000 -0.0001 0.0000 39.4072 0.0000 -1.0195
# 5 -4.6668 4.8574 8.1103 0.0000 32.9143 0.0000
# 6 0.0000 0.0000 0.0000 -1.0195 0.0000 32.0858
#
#
#
# Elastic Compliance Matrix: (Units=1/GPa)
#
#
# Indices 1 2 3 4 5 6 
#
# 1 0.013706 -0.007579 -0.002847 0.000000 0.003763 0.000000
# 2 -0.007579 0.021236 -0.005551 0.000000 -0.002841 0.000000
# 3 -0.002847 -0.005551 0.011234 0.000000 -0.002353 0.000000
# 4 0.000000 0.000000 0.000000 0.025397 0.000000 0.000807
# 5 0.003763 -0.002841 -0.002353 0.000000 0.031914 0.000000
# 6 0.000000 0.000000 0.000000 0.000807 0.000000 0.031192
#
#
# Mechanical properties :
#
#
# Convention : Reuss Voigt Hill
#
# Bulk Modulus (GPa) = 70.32313 74.06077 72.19195
# Shear Modulus (GPa) = 29.17600 31.80224 30.48912
#
# Velocity S-wave (km/s) = 3.88344 4.05446 3.96987
# Velocity P-wave (km/s) = 7.51387 7.75888 7.63736
#
# Compressibility (1/GPa) = 0.01422007
#
# Stress axis : x y z
#
# Youngs Moduli (GPa) = 72.96130 47.09069 89.01827
#
# Poissons Ratio (x) = 0.35690 0.25347
# Poissons Ratio (y) = 0.55298 0.49416
# Poissons Ratio (z) = 0.20775 0.26141
#
# Static dielectric constant tensor:
#      x y z
#    x 3.635920 0.000000 0.007940 
#    y 0.000000 3.533940 0.000000 
#    z 0.007940 0.000000 3.555080 
# 
# 
# High freq. dielectric constant tensor:
#      x y z
#    x 1.765170 0.000000 0.002240 
#    y 0.000000 1.756270 0.000000 
#    z 0.002240 0.000000 1.761120 
# 
# From -- ./inp_files/248774.got.cif
#   From: 2010.06.25/outbox.cif.g09.slc.cpg/sg12_125_cif.got.tgz:248774.got - 2010.06.28 00:19:55.
