data_PCOD8106141
_publ_section_title
;
Structure prediction by ZEFSAII (Michael W. Deem and Ramdas Pophale) SiO2 
 PCOD8106141
Probable space group: C 2/M
;
_chemical_formula_sum "Si O2"
_cell_formula_units_Z 56
_cell_length_a 10.147285
_cell_length_b 9.122998
_cell_length_c 33.558377
_cell_angle_alpha 90.000000
_cell_angle_beta 112.247295
_cell_angle_gamma 90.000000
_cell_volume 2875.359846
_symmetry_space_group_name_H-M "C 2/M"
_symmetry_group_IT_number 12
_symmetry_cell_setting 'monoclinic'
loop_
_space_group_symop_operation_xyz
x,y,z
-x,y,-z
-x,-y,-z
x,-y,z
1/2+x,1/2+y,z
1/2-x,1/2+y,-z
1/2-x,1/2-y,-z
1/2+x,1/2-y,z
loop_
_atom_site_type_symbol
_atom_site_label
_atom_site_fract_x
_atom_site_fract_y
_atom_site_fract_z
Si Si1 0.881934 0.170699 0.830494
Si Si2 0.019314 0.669813 0.305076
Si Si3 0.162131 0.671920 0.023708
Si Si4 0.637901 0.171652 0.403479
Si Si5 0.709686 0.669960 0.878048
Si Si6 0.271904 0.829320 0.742416
Si Si7 0.067645 0.672295 0.548843
O O1 0.770521 0.235107 0.849073
O O2 0.864883 0.249720 0.786422
O O3 0.041963 0.198024 0.863762
O O4 0.848176 0.000000 0.821250
O O5 0.973223 0.500000 0.299756
O O6 0.067666 0.722529 0.354131
O O7 0.151371 0.698043 0.290850
O O8 0.886290 0.765582 0.276288
O O9 0.183587 0.500000 0.020893
O O10 0.216021 0.724016 0.072986
O O11 0.250000 0.750000 0.000000
O O12 0.000000 0.720328 0.000000
O O13 0.783435 0.253339 0.426884
O O14 0.534209 0.218816 0.426966
O O15 0.669317 0.000000 0.406767
O O16 0.742775 0.500000 0.873082
O O17 0.261895 0.000000 0.751811
O O18 0.092765 0.500000 0.550023
O O19 0.000000 0.730249 0.500000
#
# Coordination Sequence:
#
# PCOD8106141 Si02
#       7
#     8   8   8   8   8   8   8
#     4  11  23  38  58  83 111 146 186 228 277 331
#     4  10  22  39  58  83 113 145 185 230 277 332
#     4  10  21  37  58  85 116 150 189 233 280 331
#     4  10  21  37  57  82 112 146 186 231 277 330
#     4  10  22  39  58  84 116 149 189 233 278 332
#     4  11  23  38  58  83 110 143 183 226 276 333
#     4  10  21  36  55  82 114 148 188 232 279 332
#
# _framework density 19.475823999999999
#
# number of rings (size 3 to 8) (size 9 to 14) (size 15 to 20)
#    0.000    1.714    0.000    3.857    0.000    6.857 
#    0.000    0.000    0.000    0.000    0.000    0.000 
#    0.000    0.000    0.000    0.000    0.000    0.000 
#
# Total GULP energy -347381.272174 kJ/mol
# GULP energy per Si atom -12406.474006 kJ/mol
# Density = 1.943150 g / cm^3
# Si number density = 19.475824 Si / 1000 Ang^3
#
#
#
# Elastic Constant Matrix: (Units=GPa)
#
#
# Indices 1 2 3 4 5 6 
#
# 1 109.1027 49.5179 41.6206 0.0000 1.7124 0.0000
# 2 49.5179 69.3398 41.7901 0.0000 0.9211 0.0000
# 3 41.6206 41.7901 130.1767 0.0000 -0.4122 0.0000
# 4 0.0000 0.0000 0.0000 34.8299 0.0000 6.4085
# 5 1.7124 0.9211 -0.4122 0.0000 41.4097 0.0000
# 6 0.0000 0.0000 0.0000 6.4085 0.0000 36.4381
#
#
#
# Elastic Compliance Matrix: (Units=1/GPa)
#
#
# Indices 1 2 3 4 5 6 
#
# 1 0.013815 -0.008924 -0.001553 0.000000 -0.000388 0.000000
# 2 -0.008924 0.023655 -0.004741 0.000000 -0.000204 0.000000
# 3 -0.001553 -0.004741 0.009701 0.000000 0.000266 0.000000
# 4 0.000000 0.000000 0.000000 0.029671 0.000000 -0.005218
# 5 -0.000388 -0.000204 0.000266 0.000000 0.024172 0.000000
# 6 0.000000 0.000000 0.000000 -0.005218 0.000000 0.028362
#
#
# Mechanical properties :
#
#
# Convention : Reuss Voigt Hill
#
# Bulk Modulus (GPa) = 59.75966 63.83069 61.79518
# Shear Modulus (GPa) = 30.23135 34.24827 32.23981
#
# Velocity S-wave (km/s) = 3.94413 4.19800 4.07305
# Velocity P-wave (km/s) = 7.17581 7.50620 7.34286
#
# Compressibility (1/GPa) = 0.01673370
#
# Stress axis : x y z
#
# Youngs Moduli (GPa) = 72.38662 42.27426 103.07840
#
# Poissons Ratio (x) = 0.37727 0.16010
# Poissons Ratio (y) = 0.64600 0.48872
# Poissons Ratio (z) = 0.11243 0.20043
#
# Static dielectric constant tensor:
#      x y z
#    x 3.488000 0.000000 -0.003150 
#    y 0.000000 3.289260 0.000000 
#    z -0.003150 0.000000 3.806640 
# 
# 
# High freq. dielectric constant tensor:
#      x y z
#    x 1.770960 0.000000 -0.000640 
#    y 0.000000 1.755480 0.000000 
#    z -0.000640 0.000000 1.777710 
# 
# From -- ./inp_files/373626.got.cif
#   From: 2010.06.25/outbox.cif.g09.slc.cpg/sg12_187_cif.got.tgz:373626.got - 2010.06.28 00:19:55.
