data_PCOD8106619
_publ_section_title
;
Structure prediction by ZEFSAII (Michael W. Deem and Ramdas Pophale) SiO2 
 PCOD8106619
Probable space group: C 2/M
;
_chemical_formula_sum "Si O2"
_cell_formula_units_Z 48
_cell_length_a 26.632393
_cell_length_b 15.572863
_cell_length_c 13.334274
_cell_angle_alpha 90.000000
_cell_angle_beta 156.509250
_cell_angle_gamma 90.000000
_cell_volume 2204.379809
_symmetry_space_group_name_H-M "C 2/M"
_symmetry_group_IT_number 12
_symmetry_cell_setting 'monoclinic'
loop_
_space_group_symop_operation_xyz
x,y,z
-x,y,-z
-x,-y,-z
x,-y,z
1/2+x,1/2+y,z
1/2-x,1/2+y,-z
1/2-x,1/2-y,-z
1/2+x,1/2-y,z
loop_
_atom_site_type_symbol
_atom_site_label
_atom_site_fract_x
_atom_site_fract_y
_atom_site_fract_z
Si Si1 0.988145 0.096328 0.590414
Si Si2 0.284795 0.902954 0.382046
Si Si3 0.935339 0.400650 0.054989
Si Si4 0.768529 0.646508 0.920933
Si Si5 0.139858 0.245274 0.216473
Si Si6 0.261515 0.343471 0.909255
O O1 0.000000 0.133228 0.500000
O O2 0.037880 0.000000 0.689733
O O3 0.840903 0.102047 0.347958
O O4 0.087211 0.150976 0.836949
O O5 0.414937 0.884602 0.679565
O O6 0.177548 0.834284 0.214208
O O7 0.311833 0.893970 0.312335
O O8 0.238815 0.000000 0.321422
O O9 0.903914 0.500000 0.970567
O O10 0.896389 0.378411 0.098363
O O11 0.863080 0.336433 0.847362
O O12 0.774538 0.615028 0.048051
O O13 0.726136 0.744721 0.841645
O O14 0.250000 0.250000 0.500000
O O15 0.000000 0.224424 0.000000
#
# Coordination Sequence:
#
# PCOD8106619 Si02
#       6
#     8   8   8   8   8   8
#     4   9  18  33  52  79 119 170 223 270 317 371
#     4  11  25  44  68 103 141 177 226 285 348 411
#     4  11  25  44  69 102 141 182 225 275 346 426
#     4  10  21  36  61  95 134 183 228 267 328 405
#     4  12  26  49  78 101 133 175 228 293 353 415
#     4  10  21  36  61  94 137 180 223 278 329 389
#
# _framework density 21.774833000000001
#
# number of rings (size 3 to 8) (size 9 to 14) (size 15 to 20)
#    0.000    1.500    3.333    1.000    2.333    5.333 
#    0.000    3.333    0.000    0.000    0.000    0.000 
#    0.000    0.000    0.000    0.000    0.000    0.000 
#
# Total GULP energy -297433.564338 kJ/mol
# GULP energy per Si atom -12393.065181 kJ/mol
# Density = 2.172527 g / cm^3
# Si number density = 21.774833 Si / 1000 Ang^3
#
#
#
# Elastic Constant Matrix: (Units=GPa)
#
#
# Indices 1 2 3 4 5 6 
#
# 1 98.4562 48.2001 46.3492 0.0000 4.3817 0.0000
# 2 48.2001 137.2165 51.7983 0.0000 -3.1583 0.0000
# 3 46.3492 51.7983 106.8469 0.0000 -6.7832 0.0000
# 4 0.0000 0.0000 0.0000 35.9313 0.0000 6.0760
# 5 4.3817 -3.1583 -6.7832 0.0000 36.4740 0.0000
# 6 0.0000 0.0000 0.0000 6.0760 0.0000 18.2762
#
#
#
# Elastic Compliance Matrix: (Units=1/GPa)
#
#
# Indices 1 2 3 4 5 6 
#
# 1 0.014091 -0.003231 -0.004727 0.000000 -0.002852 0.000000
# 2 -0.003231 0.009661 -0.003243 0.000000 0.000622 0.000000
# 3 -0.004727 -0.003243 0.013155 0.000000 0.002734 0.000000
# 4 0.000000 0.000000 0.000000 0.029489 0.000000 -0.009804
# 5 -0.002852 0.000622 0.002734 0.000000 0.028322 0.000000
# 6 0.000000 0.000000 0.000000 -0.009804 0.000000 0.057975
#
#
# Mechanical properties :
#
#
# Convention : Reuss Voigt Hill
#
# Bulk Modulus (GPa) = 68.93766 70.57940 69.75853
# Shear Modulus (GPa) = 27.78871 31.21443 29.50157
#
# Velocity S-wave (km/s) = 3.57625 3.79028 3.68482
# Velocity P-wave (km/s) = 6.98432 7.18600 7.08588
#
# Compressibility (1/GPa) = 0.01450586
#
# Stress axis : x y z
#
# Youngs Moduli (GPa) = 70.96850 103.50886 76.01475
#
# Poissons Ratio (x) = 0.33442 0.35934
# Poissons Ratio (y) = 0.22929 0.24649
# Poissons Ratio (z) = 0.33548 0.33564
#
# Static dielectric constant tensor:
#      x y z
#    x 3.872190 0.000000 0.046190 
#    y 0.000000 3.870870 0.000000 
#    z 0.046190 0.000000 4.023270 
# 
# 
# High freq. dielectric constant tensor:
#      x y z
#    x 1.834530 0.000000 -0.000130 
#    y 0.000000 1.861110 0.000000 
#    z -0.000130 0.000000 1.856310 
# 
# From -- ./inp_files/251490.got.cif
#   From: 2010.06.25/outbox.cif.g09.slc.cpg/sg12_126_cif.got.tgz:251490.got - 2010.06.28 00:19:55.
