data_PCOD8106877
_publ_section_title
;
Structure prediction by ZEFSAII (Michael W. Deem and Ramdas Pophale) SiO2 
 PCOD8106877
Probable space group: C 2/M
;
_chemical_formula_sum "Si O2"
_cell_formula_units_Z 64
_cell_length_a 20.354455
_cell_length_b 8.952651
_cell_length_c 19.453418
_cell_angle_alpha 90.000000
_cell_angle_beta 82.506930
_cell_angle_gamma 90.000000
_cell_volume 3514.653620
_symmetry_space_group_name_H-M "C 2/M"
_symmetry_group_IT_number 12
_symmetry_cell_setting 'monoclinic'
loop_
_space_group_symop_operation_xyz
x,y,z
-x,y,-z
-x,-y,-z
x,-y,z
1/2+x,1/2+y,z
1/2-x,1/2+y,-z
1/2-x,1/2-y,-z
1/2+x,1/2-y,z
loop_
_atom_site_type_symbol
_atom_site_label
_atom_site_fract_x
_atom_site_fract_y
_atom_site_fract_z
Si Si1 0.312215 0.823781 0.455916
Si Si2 0.912096 0.671299 0.077231
Si Si3 0.430379 0.177757 0.533905
Si Si4 0.938950 0.671653 0.915539
Si Si5 0.286044 0.331352 0.324382
Si Si6 0.844568 0.175772 0.822584
Si Si7 0.865574 0.329901 0.679632
Si Si8 0.206494 0.823898 0.831233
O O1 0.250000 0.750000 0.500000
O O2 0.376314 0.764423 0.487349
O O3 0.319819 0.775659 0.375530
O O4 0.304349 0.000000 0.461462
O O5 0.894085 0.500000 0.095999
O O6 0.856156 0.777784 0.115378
O O7 0.983172 0.711712 0.100652
O O8 0.913952 0.698740 0.995918
O O9 0.500000 0.246113 0.500000
O O10 0.414948 0.230873 0.613883
O O11 0.431547 0.000000 0.533358
O O12 0.927336 0.500000 0.895640
O O13 0.898072 0.779701 0.872121
O O14 0.310752 0.500000 0.333662
O O15 0.207140 0.322576 0.343319
O O16 0.306789 0.275354 0.245711
O O17 0.872480 0.226507 0.745075
O O18 0.773626 0.248555 0.849949
O O19 0.835225 0.000000 0.823991
O O20 0.882065 0.500000 0.699330
O O21 0.218050 0.000000 0.834235
#
# Coordination Sequence:
#
# PCOD8106877 Si02
#       8
#     8   8   8   8   8   8   8   8
#     4  11  20  32  54  80 103 134 178 222 264 316
#     4   9  19  37  61  85 110 141 183 227 265 319
#     4   9  18  34  54  76 103 135 177 221 263 317
#     4   9  19  38  60  82 111 147 181 219 271 325
#     4   9  18  34  53  77 105 138 176 217 267 320
#     4  11  22  35  55  83 111 142 188 231 265 321
#     4   9  17  34  56  75 104 142 177 218 273 326
#     4  10  21  37  57  80 113 149 180 222 279 326
#
# _framework density 18.209475000000001
#
# number of rings (size 3 to 8) (size 9 to 14) (size 15 to 20)
#    0.000    2.375    1.250    3.375    0.000    4.000 
#    2.250    1.250    0.000    2.625    0.000    0.000 
#    0.000    0.000    0.000    0.000    0.000    0.000 
#
# Total GULP energy -396815.579257 kJ/mol
# GULP energy per Si atom -12400.486852 kJ/mol
# Density = 1.816803 g / cm^3
# Si number density = 18.209475 Si / 1000 Ang^3
#
#
#
# Elastic Constant Matrix: (Units=GPa)
#
#
# Indices 1 2 3 4 5 6 
#
# 1 118.2410 46.4367 67.7761 0.0000 -3.0684 0.0000
# 2 46.4367 83.4776 45.1871 0.0000 6.9428 0.0000
# 3 67.7761 45.1871 96.2262 0.0000 1.9907 0.0000
# 4 0.0000 0.0000 0.0000 32.4069 0.0000 0.1273
# 5 -3.0684 6.9428 1.9907 0.0000 34.1301 0.0000
# 6 0.0000 0.0000 0.0000 0.1273 0.0000 27.2220
#
#
#
# Elastic Compliance Matrix: (Units=1/GPa)
#
#
# Indices 1 2 3 4 5 6 
#
# 1 0.015142 -0.003810 -0.008931 0.000000 0.002657 0.000000
# 2 -0.003810 0.017299 -0.005367 0.000000 -0.003548 0.000000
# 3 -0.008931 -0.005367 0.019220 0.000000 -0.000832 0.000000
# 4 0.000000 0.000000 0.000000 0.030858 0.000000 -0.000144
# 5 0.002657 -0.003548 -0.000832 0.000000 0.030309 0.000000
# 6 0.000000 0.000000 0.000000 -0.000144 0.000000 0.036736
#
#
# Mechanical properties :
#
#
# Convention : Reuss Voigt Hill
#
# Bulk Modulus (GPa) = 64.74206 68.52720 66.63463
# Shear Modulus (GPa) = 26.18821 27.98812 27.08816
#
# Velocity S-wave (km/s) = 3.79643 3.92472 3.86111
# Velocity P-wave (km/s) = 7.40597 7.63232 7.52000
#
# Compressibility (1/GPa) = 0.01544591
#
# Stress axis : x y z
#
# Youngs Moduli (GPa) = 66.04321 57.80831 52.02939
#
# Poissons Ratio (x) = 0.22022 0.46467
# Poissons Ratio (y) = 0.25160 0.27922
# Poissons Ratio (z) = 0.58982 0.31024
#
# Static dielectric constant tensor:
#      x y z
#    x 3.349640 0.000000 -0.012010 
#    y 0.000000 3.186050 0.000000 
#    z -0.012010 0.000000 3.483540 
# 
# 
# High freq. dielectric constant tensor:
#      x y z
#    x 1.696860 0.000000 -0.000610 
#    y 0.000000 1.691940 0.000000 
#    z -0.000610 0.000000 1.713200 
# 
# From -- ./inp_files/281336.got.cif
#   From: 2010.06.25/outbox.cif.g09.slc.cpg/sg12_141_cif.got.tgz:281336.got - 2010.06.28 00:19:55.
