data_PCOD8106899
_publ_section_title
;
Structure prediction by ZEFSAII (Michael W. Deem and Ramdas Pophale) SiO2 
 PCOD8106899
Probable space group: C 2/M
;
_chemical_formula_sum "Si O2"
_cell_formula_units_Z 56
_cell_length_a 9.054350
_cell_length_b 25.013090
_cell_length_c 15.593105
_cell_angle_alpha 90.000000
_cell_angle_beta 118.969008
_cell_angle_gamma 90.000000
_cell_volume 3089.631034
_symmetry_space_group_name_H-M "C 2/M"
_symmetry_group_IT_number 12
_symmetry_cell_setting 'monoclinic'
loop_
_space_group_symop_operation_xyz
x,y,z
-x,y,-z
-x,-y,-z
x,-y,z
1/2+x,1/2+y,z
1/2-x,1/2+y,-z
1/2-x,1/2-y,-z
1/2+x,1/2-y,z
loop_
_atom_site_type_symbol
_atom_site_label
_atom_site_fract_x
_atom_site_fract_y
_atom_site_fract_z
Si Si1 0.936590 0.655039 0.303964
Si Si2 0.569136 0.350365 0.274709
Si Si3 0.065014 0.236535 0.425294
Si Si4 0.707050 0.062596 0.404822
Si Si5 0.734021 0.693757 0.899644
Si Si6 0.484844 0.439137 0.621288
Si Si7 0.559079 0.805732 0.882461
O O1 0.742528 0.649874 0.272951
O O2 0.949365 0.658421 0.204736
O O3 0.987326 0.708977 0.366945
O O4 0.047909 0.603345 0.363482
O O5 0.550615 0.308837 0.348723
O O6 0.414974 0.345919 0.165935
O O7 0.548418 0.409980 0.300438
O O8 0.250000 0.250000 0.500000
O O9 0.000000 0.216537 0.500000
O O10 0.820864 0.070953 0.352220
O O11 0.838710 0.079515 0.515124
O O12 0.647241 0.000000 0.395608
O O13 0.641972 0.749480 0.886754
O O14 0.867796 0.701971 0.860695
O O15 0.825367 0.669142 0.009519
O O16 0.454817 0.500000 0.631762
#
# Coordination Sequence:
#
# PCOD8106899 Si02
#       7
#     8   8   8   8   8   8   8
#     4  12  24  37  56  85 115 152 191 229 287 336
#     4  12  24  36  58  84 113 154 189 232 283 336
#     4  12  26  38  49  78 119 154 189 223 273 334
#     4   9  20  38  60  82 111 151 193 236 279 330
#     4  10  21  37  57  82 110 149 189 232 284 334
#     4   9  20  38  59  83 110 150 196 234 278 332
#     4  10  21  37  57  81 113 146 189 235 279 341
#
# _framework density 18.125142
#
# number of rings (size 3 to 8) (size 9 to 14) (size 15 to 20)
#    0.000    1.429    2.857    3.429    6.000    2.286 
#    0.000    1.429    0.000    0.857    0.000    6.000 
#    0.000    0.000    0.000    0.000    0.000    0.000 
#
# Total GULP energy -346898.012092 kJ/mol
# GULP energy per Si atom -12389.214718 kJ/mol
# Density = 1.808389 g / cm^3
# Si number density = 18.125142 Si / 1000 Ang^3
#
#
#
# Elastic Constant Matrix: (Units=GPa)
#
#
# Indices 1 2 3 4 5 6 
#
# 1 136.1776 28.5656 56.0598 0.0000 7.3920 0.0000
# 2 28.5656 38.2305 33.7881 0.0000 -0.2136 0.0000
# 3 56.0598 33.7881 88.5318 0.0000 6.7794 0.0000
# 4 0.0000 0.0000 0.0000 24.6448 0.0000 -0.8047
# 5 7.3920 -0.2136 6.7794 0.0000 32.3095 0.0000
# 6 0.0000 0.0000 0.0000 -0.8047 0.0000 29.4026
#
#
#
# Elastic Compliance Matrix: (Units=1/GPa)
#
#
# Indices 1 2 3 4 5 6 
#
# 1 0.010187 -0.003022 -0.005200 0.000000 -0.001259 0.000000
# 2 -0.003022 0.040756 -0.013938 0.000000 0.003885 0.000000
# 3 -0.005200 -0.013938 0.020148 0.000000 -0.003130 0.000000
# 4 0.000000 0.000000 0.000000 0.040613 0.000000 0.001111
# 5 -0.001259 0.003885 -0.003130 0.000000 0.031921 0.000000
# 6 0.000000 0.000000 0.000000 0.001111 0.000000 0.034041
#
#
# Mechanical properties :
#
#
# Convention : Reuss Voigt Hill
#
# Bulk Modulus (GPa) = 37.35795 55.52965 46.44380
# Shear Modulus (GPa) = 21.65356 26.90648 24.28002
#
# Velocity S-wave (km/s) = 3.46015 3.85708 3.66399
# Velocity P-wave (km/s) = 6.05139 7.10911 6.60147
#
# Compressibility (1/GPa) = 0.02676807
#
# Stress axis : x y z
#
# Youngs Moduli (GPa) = 98.16911 24.53649 49.63384
#
# Poissons Ratio (x) = 0.07415 0.25812
# Poissons Ratio (y) = 0.29669 0.69181
# Poissons Ratio (z) = 0.51052 0.34199
#
# Static dielectric constant tensor:
#      x y z
#    x 3.482210 0.000000 0.046630 
#    y 0.000000 3.154020 0.000000 
#    z 0.046630 0.000000 3.730560 
# 
# 
# High freq. dielectric constant tensor:
#      x y z
#    x 1.719500 0.000000 0.005300 
#    y 0.000000 1.681990 0.000000 
#    z 0.005300 0.000000 1.702390 
# 
# From -- ./inp_files/198762.got.cif
#   From: 2010.06.25/outbox.cif.g09.slc.cpg/sg12_100_cif.got.tgz:198762.got - 2010.06.28 00:19:55.
