data_PCOD8106849
_publ_section_title
;
Structure prediction by ZEFSAII (Michael W. Deem and Ramdas Pophale) SiO2 
 PCOD8106849
Probable space group: C 2/M
;
_chemical_formula_sum "Si O2"
_cell_formula_units_Z 56
_cell_length_a 7.826283
_cell_length_b 18.936778
_cell_length_c 17.827329
_cell_angle_alpha 90.000000
_cell_angle_beta 112.147819
_cell_angle_gamma 90.000000
_cell_volume 2447.143306
_symmetry_space_group_name_H-M "C 2/M"
_symmetry_group_IT_number 12
_symmetry_cell_setting 'monoclinic'
loop_
_space_group_symop_operation_xyz
x,y,z
-x,y,-z
-x,-y,-z
x,-y,z
1/2+x,1/2+y,z
1/2-x,1/2+y,-z
1/2-x,1/2-y,-z
1/2+x,1/2-y,z
loop_
_atom_site_type_symbol
_atom_site_label
_atom_site_fract_x
_atom_site_fract_y
_atom_site_fract_z
Si Si1 0.860842 0.299496 0.651920
Si Si2 0.498028 0.337582 0.153461
Si Si3 0.901234 0.318906 0.167183
Si Si4 0.127410 0.922249 0.312905
Si Si5 0.020507 0.173264 0.414575
Si Si6 0.031679 0.422756 0.421879
Si Si7 0.126326 0.582241 0.092746
O O1 0.030119 0.308032 0.736478
O O2 0.841943 0.232315 0.594105
O O3 0.834553 0.367821 0.594370
O O4 0.665033 0.301210 0.660923
O O5 0.685234 0.344067 0.133247
O O6 0.422950 0.257892 0.132864
O O7 0.550384 0.360562 0.246541
O O8 0.329081 0.388791 0.102131
O O9 0.030496 0.375366 0.145563
O O10 0.078910 0.902925 0.391233
O O11 0.346366 0.925692 0.341889
O O12 0.044293 0.000000 0.279656
O O13 0.000000 0.171897 0.500000
O O14 0.124986 0.500000 0.439707
O O15 0.000000 0.394263 0.500000
O O16 0.142498 0.500000 0.118778
O O17 0.000000 0.592181 0.000000
#
# Coordination Sequence:
#
# PCOD8106849 Si02
#       7
#     8   8   8   8   8   8   8
#     4  12  22  39  61  87 128 164 225 284 335 409
#     4  12  23  46  74 106 144 187 239 302 349 425
#     4  12  24  44  77 106 143 189 241 291 358 422
#     4  11  23  40  62  91 129 175 229 288 352 414
#     4  12  24  37  60  89 126 178 229 288 356 411
#     4  10  21  37  56  83 123 166 214 277 337 395
#     4  11  28  51  75 112 153 184 227 290 359 436
#
# _framework density 22.883824000000001
#
# number of rings (size 3 to 8) (size 9 to 14) (size 15 to 20)
#    0.000    0.571    4.286    4.714    0.000    3.714 
#    0.000    1.429    0.000    0.000    0.000    0.000 
#    0.000    0.000    0.000    0.000    0.000    0.000 
#
# Total GULP energy -346929.467682 kJ/mol
# GULP energy per Si atom -12390.338131 kJ/mol
# Density = 2.283174 g / cm^3
# Si number density = 22.883824 Si / 1000 Ang^3
#
#
#
# Elastic Constant Matrix: (Units=GPa)
#
#
# Indices 1 2 3 4 5 6 
#
# 1 113.7165 45.0940 10.3960 0.0000 16.6806 0.0000
# 2 45.0940 133.5561 23.3131 0.0000 -0.0584 0.0000
# 3 10.3960 23.3131 57.2824 0.0000 8.1981 0.0000
# 4 0.0000 0.0000 0.0000 23.5258 0.0000 4.0047
# 5 16.6806 -0.0584 8.1981 0.0000 34.6401 0.0000
# 6 0.0000 0.0000 0.0000 4.0047 0.0000 29.8236
#
#
#
# Elastic Compliance Matrix: (Units=1/GPa)
#
#
# Indices 1 2 3 4 5 6 
#
# 1 0.011062 -0.003791 0.000309 0.000000 -0.005406 0.000000
# 2 -0.003791 0.009382 -0.003513 0.000000 0.002673 0.000000
# 3 0.000309 -0.003513 0.019514 0.000000 -0.004773 0.000000
# 4 0.000000 0.000000 0.000000 0.043501 0.000000 -0.005841
# 5 -0.005406 0.002673 -0.004773 0.000000 0.032606 0.000000
# 6 0.000000 0.000000 0.000000 -0.005841 0.000000 0.034315
#
#
# Mechanical properties :
#
#
# Convention : Reuss Voigt Hill
#
# Bulk Modulus (GPa) = 38.50881 51.35125 44.93003
# Shear Modulus (GPa) = 28.89749 32.64802 30.77276
#
# Velocity S-wave (km/s) = 3.55743 3.78125 3.67105
# Velocity P-wave (km/s) = 5.80846 6.44612 6.13558
#
# Compressibility (1/GPa) = 0.02596809
#
# Stress axis : x y z
#
# Youngs Moduli (GPa) = 90.39946 106.58773 51.24525
#
# Poissons Ratio (x) = 0.40411 -0.01584
# Poissons Ratio (y) = 0.34273 0.18001
# Poissons Ratio (z) = -0.02795 0.37442
#
# Static dielectric constant tensor:
#      x y z
#    x 4.355120 0.000000 0.257600 
#    y 0.000000 4.340630 0.000000 
#    z 0.257600 0.000000 3.864820 
# 
# 
# High freq. dielectric constant tensor:
#      x y z
#    x 1.909830 0.000000 0.016240 
#    y 0.000000 1.915590 0.000000 
#    z 0.016240 0.000000 1.885260 
# 
# From -- ./inp_files/300875.got.cif
#   From: 2010.06.25/outbox.cif.g09.slc.cpg/sg12_151_cif.got.tgz:300875.got - 2010.06.28 00:19:55.
