data_PCOD8106815
_publ_section_title
;
Structure prediction by ZEFSAII (Michael W. Deem and Ramdas Pophale) SiO2 
 PCOD8106815
Probable space group: C 2/M
;
_chemical_formula_sum "Si O2"
_cell_formula_units_Z 44
_cell_length_a 14.275679
_cell_length_b 18.298960
_cell_length_c 9.382992
_cell_angle_alpha 90.000000
_cell_angle_beta 76.882482
_cell_angle_gamma 90.000000
_cell_volume 2387.161752
_symmetry_space_group_name_H-M "C 2/M"
_symmetry_group_IT_number 12
_symmetry_cell_setting 'monoclinic'
loop_
_space_group_symop_operation_xyz
x,y,z
-x,y,-z
-x,-y,-z
x,-y,z
1/2+x,1/2+y,z
1/2-x,1/2+y,-z
1/2-x,1/2-y,-z
1/2+x,1/2-y,z
loop_
_atom_site_type_symbol
_atom_site_label
_atom_site_fract_x
_atom_site_fract_y
_atom_site_fract_z
Si Si1 0.500000 0.685424 0.000000
Si Si2 0.439154 0.809068 0.823021
Si Si3 0.163215 0.081830 0.876071
Si Si4 0.339532 0.821032 0.313735
Si Si5 0.780766 0.321785 0.652867
Si Si6 0.683433 0.915711 0.944756
O O1 0.437600 0.734764 0.914421
O O2 0.572268 0.633995 0.889434
O O3 0.545967 0.826002 0.734124
O O4 0.375793 0.796708 0.704338
O O5 0.399553 0.873736 0.937858
O O6 0.241204 0.102774 0.729783
O O7 0.127825 0.000000 0.860095
O O8 0.213937 0.089640 0.012105
O O9 0.300468 0.740003 0.295017
O O10 0.304505 0.841284 0.482935
O O11 0.298244 0.879117 0.215152
O O12 0.651046 0.000000 0.939059
#
# Coordination Sequence:
#
# PCOD8106815 Si02
#       6
#     4   8   8   8   8   8
#     4  12  19  34  61  84 104 142 192 228 269 320
#     4  11  20  35  57  85 108 144 182 231 266 320
#     4  10  21  37  56  81 112 145 181 229 272 322
#     4  11  20  36  55  83 107 152 179 226 272 319
#     4  10  22  36  55  80 116 141 187 221 273 326
#     4  10  21  37  57  82 113 144 182 224 274 326
#
# _framework density 18.431930999999999
#
# number of rings (size 3 to 8) (size 9 to 14) (size 15 to 20)
#    0.000    1.455    3.636    1.909    0.000    5.091 
#    0.000    0.000    0.000    5.455    0.000    6.364 
#    0.000    0.000    0.000    0.000    0.000    0.000 
#
# Total GULP energy -272808.592331 kJ/mol
# GULP energy per Si atom -12400.390561 kJ/mol
# Density = 1.838998 g / cm^3
# Si number density = 18.431931 Si / 1000 Ang^3
#
#
#
# Elastic Constant Matrix: (Units=GPa)
#
#
# Indices 1 2 3 4 5 6 
#
# 1 59.2376 33.0775 33.7017 0.0000 -1.9553 0.0000
# 2 33.0775 123.9199 61.3798 0.0000 -4.3174 0.0000
# 3 33.7017 61.3798 118.5532 0.0000 8.1121 0.0000
# 4 0.0000 0.0000 0.0000 20.0623 0.0000 1.6613
# 5 -1.9553 -4.3174 8.1121 0.0000 24.8221 0.0000
# 6 0.0000 0.0000 0.0000 1.6613 0.0000 19.2719
#
#
#
# Elastic Compliance Matrix: (Units=1/GPa)
#
#
# Indices 1 2 3 4 5 6 
#
# 1 0.021428 -0.003397 -0.004509 0.000000 0.002571 0.000000
# 2 -0.003397 0.011755 -0.005362 0.000000 0.003529 0.000000
# 3 -0.004509 -0.005362 0.012869 0.000000 -0.005493 0.000000
# 4 0.000000 0.000000 0.000000 0.050203 0.000000 -0.004328
# 5 0.002571 0.003529 -0.005493 0.000000 0.042898 0.000000
# 6 0.000000 0.000000 0.000000 -0.004328 0.000000 0.052262
#
#
# Mechanical properties :
#
#
# Convention : Reuss Voigt Hill
#
# Bulk Modulus (GPa) = 51.23783 62.00320 56.62052
# Shear Modulus (GPa) = 22.27604 24.40136 23.33870
#
# Velocity S-wave (km/s) = 3.48020 3.64244 3.56225
# Velocity P-wave (km/s) = 6.63384 7.16951 6.90687
#
# Compressibility (1/GPa) = 0.01951683
#
# Stress axis : x y z
#
# Youngs Moduli (GPa) = 46.66825 85.06758 77.70753
#
# Poissons Ratio (x) = 0.28897 0.35035
# Poissons Ratio (y) = 0.15853 0.41667
# Poissons Ratio (z) = 0.21041 0.45614
#
# Static dielectric constant tensor:
#      x y z
#    x 3.412890 0.000000 0.097400 
#    y 0.000000 3.415640 0.000000 
#    z 0.097400 0.000000 3.377760 
# 
# 
# High freq. dielectric constant tensor:
#      x y z
#    x 1.720710 0.000000 0.000790 
#    y 0.000000 1.714220 0.000000 
#    z 0.000790 0.000000 1.712120 
# 
# From -- ./inp_files/61043.got.cif
#   From: 2010.06.25/outbox.cif.g09.slc.cpg/sg12_31_cif.got.tgz:61043.got - 2010.06.28 00:19:55.
