data_PCOD8106178
_publ_section_title
;
Structure prediction by ZEFSAII (Michael W. Deem and Ramdas Pophale) SiO2 
 PCOD8106178
Probable space group: C 2/M
;
_chemical_formula_sum "Si O2"
_cell_formula_units_Z 56
_cell_length_a 29.877068
_cell_length_b 8.859597
_cell_length_c 15.640702
_cell_angle_alpha 90.000000
_cell_angle_beta 134.720816
_cell_angle_gamma 90.000000
_cell_volume 2941.704783
_symmetry_space_group_name_H-M "C 2/M"
_symmetry_group_IT_number 12
_symmetry_cell_setting 'monoclinic'
loop_
_space_group_symop_operation_xyz
x,y,z
-x,y,-z
-x,-y,-z
x,-y,z
1/2+x,1/2+y,z
1/2-x,1/2+y,-z
1/2-x,1/2-y,-z
1/2+x,1/2-y,z
loop_
_atom_site_type_symbol
_atom_site_label
_atom_site_fract_x
_atom_site_fract_y
_atom_site_fract_z
Si Si1 0.699690 0.326204 0.993035
Si Si2 0.596734 0.178498 0.115763
Si Si3 0.488024 0.179567 0.848310
Si Si4 0.592199 0.327395 0.718887
Si Si5 0.722564 0.178581 0.202327
Si Si6 0.352858 0.823620 0.372874
Si Si7 0.024466 0.677087 0.359497
O O1 0.718568 0.500000 0.033924
O O2 0.698544 0.236854 0.079357
O O3 0.750000 0.250000 0.000000
O O4 0.630879 0.312574 0.858720
O O5 0.571081 0.236484 0.173048
O O6 0.669062 0.227806 0.199059
O O7 0.590631 0.000000 0.104948
O O8 0.552231 0.239541 0.978833
O O9 0.481866 0.245794 0.744429
O O10 0.487041 0.000000 0.840693
O O11 0.584433 0.500000 0.679996
O O12 0.629748 0.241788 0.695719
O O13 0.523709 0.256449 0.640658
O O14 0.788107 0.251329 0.319500
O O15 0.730902 0.000000 0.208286
O O16 0.405647 0.786228 0.513848
O O17 0.342652 0.000000 0.347728
O O18 0.009910 0.500000 0.342585
#
# Coordination Sequence:
#
# PCOD8106178 Si02
#       7
#     8   8   8   8   8   8   8
#     4  11  22  35  53  78 108 141 175 215 264 320
#     4   8  15  28  53  84 108 133 168 217 272 322
#     4   8  14  30  54  81 108 132 169 220 269 318
#     4  11  23  37  55  79 106 139 178 222 272 321
#     4  11  21  34  54  81 110 142 180 222 270 316
#     4  11  23  37  52  73 106 147 186 222 264 319
#     4  10  21  36  56  79 104 140 184 226 266 314
#
# _framework density 19.036581000000002
#
# number of rings (size 3 to 8) (size 9 to 14) (size 15 to 20)
#    0.000    2.000    1.429    3.857    0.000    5.714 
#    0.000    0.714    0.000    1.714    0.000    7.000 
#    0.000    0.000    0.000    0.000    0.000    0.000 
#
# Total GULP energy -347189.193077 kJ/mol
# GULP energy per Si atom -12399.614038 kJ/mol
# Density = 1.899325 g / cm^3
# Si number density = 19.036581 Si / 1000 Ang^3
#
#
#
# Elastic Constant Matrix: (Units=GPa)
#
#
# Indices 1 2 3 4 5 6 
#
# 1 132.3373 35.6460 41.2968 0.0000 26.9137 0.0000
# 2 35.6460 65.2744 28.5418 0.0000 20.2164 0.0000
# 3 41.2968 28.5418 78.2425 0.0000 16.3699 0.0000
# 4 0.0000 0.0000 0.0000 24.2079 0.0000 7.1577
# 5 26.9137 20.2164 16.3699 0.0000 27.3914 0.0000
# 6 0.0000 0.0000 0.0000 7.1577 0.0000 20.9255
#
#
#
# Elastic Compliance Matrix: (Units=1/GPa)
#
#
# Indices 1 2 3 4 5 6 
#
# 1 0.010574 -0.002215 -0.003362 0.000000 -0.006746 0.000000
# 2 -0.002215 0.022018 -0.004478 0.000000 -0.011398 0.000000
# 3 -0.003362 -0.004478 0.016922 0.000000 -0.003505 0.000000
# 4 0.000000 0.000000 0.000000 0.045957 0.000000 -0.015720
# 5 -0.006746 -0.011398 -0.003505 0.000000 0.053643 0.000000
# 6 0.000000 0.000000 0.000000 -0.015720 0.000000 0.053166
#
#
# Mechanical properties :
#
#
# Convention : Reuss Voigt Hill
#
# Bulk Modulus (GPa) = 34.00906 54.09148 44.05027
# Shear Modulus (GPa) = 21.53413 25.86293 23.69853
#
# Velocity S-wave (km/s) = 3.36698 3.68991 3.53213
# Velocity P-wave (km/s) = 5.74624 6.82862 6.31068
#
# Compressibility (1/GPa) = 0.02940393
#
# Stress axis : x y z
#
# Youngs Moduli (GPa) = 94.57131 45.41798 59.09524
#
# Poissons Ratio (x) = 0.10062 0.19865
# Poissons Ratio (y) = 0.20951 0.26462
# Poissons Ratio (z) = 0.31791 0.20338
#
# Static dielectric constant tensor:
#      x y z
#    x 3.693490 0.000000 0.026690 
#    y 0.000000 3.333820 0.000000 
#    z 0.026690 0.000000 3.572070 
# 
# 
# High freq. dielectric constant tensor:
#      x y z
#    x 1.745680 0.000000 0.008920 
#    y 0.000000 1.718580 0.000000 
#    z 0.008920 0.000000 1.735870 
# 
# From -- ./inp_files/237857.got.cif
#   From: 2010.06.25/outbox.cif.g09.slc.cpg/sg12_119_cif.got.tgz:237857.got - 2010.06.28 00:19:55.
