data_PCOD8106115
_publ_section_title
;
Structure prediction by ZEFSAII (Michael W. Deem and Ramdas Pophale) SiO2 
 PCOD8106115
Probable space group: C 2/M
;
_chemical_formula_sum "Si O2"
_cell_formula_units_Z 40
_cell_length_a 5.094012
_cell_length_b 16.905692
_cell_length_c 24.699044
_cell_angle_alpha 90.000000
_cell_angle_beta 108.683842
_cell_angle_gamma 90.000000
_cell_volume 2014.934338
_symmetry_space_group_name_H-M "C 2/M"
_symmetry_group_IT_number 12
_symmetry_cell_setting 'monoclinic'
loop_
_space_group_symop_operation_xyz
x,y,z
-x,y,-z
-x,-y,-z
x,-y,z
1/2+x,1/2+y,z
1/2-x,1/2+y,-z
1/2-x,1/2-y,-z
1/2+x,1/2-y,z
loop_
_atom_site_type_symbol
_atom_site_label
_atom_site_fract_x
_atom_site_fract_y
_atom_site_fract_z
Si Si1 0.216700 0.091848 0.669791
Si Si2 0.314900 0.409437 0.037707
Si Si3 0.998346 0.197291 0.851980
Si Si4 0.869459 0.800741 0.436098
Si Si5 0.179433 0.092655 0.258469
O O1 0.141943 0.130280 0.608076
O O2 0.506699 0.122720 0.713359
O O3 0.978252 0.112128 0.696539
O O4 0.243134 0.000000 0.659360
O O5 0.387621 0.500000 0.057766
O O6 0.370564 0.354523 0.092151
O O7 0.500000 0.380108 0.000000
O O8 0.000000 0.400047 0.000000
O O9 0.203344 0.268686 0.850893
O O10 0.963302 0.140788 0.798506
O O11 0.559406 0.770498 0.426624
O O12 0.000000 0.835726 0.500000
O O13 0.162947 0.000000 0.242759
#
# Coordination Sequence:
#
# PCOD8106115 Si02
#       5
#     8   8   8   8   8
#     4  10  21  37  59  83 108 145 189 233 276 321
#     4  10  22  41  63  84 111 151 190 224 273 333
#     4  12  25  38  58  88 117 146 184 231 280 326
#     4  10  21  36  55  81 113 148 183 224 278 335
#     4  10  22  40  58  80 113 149 186 227 276 333
#
# _framework density 19.851762999999998
#
# number of rings (size 3 to 8) (size 9 to 14) (size 15 to 20)
#    0.000    1.600    0.000    4.200    0.000    7.600 
#    0.000    8.000    0.000    7.200    0.000    0.000 
#    0.000    0.000    0.000    0.000    0.000    0.000 
#
# Total GULP energy -248114.645534 kJ/mol
# GULP energy per Si atom -12405.732277 kJ/mol
# Density = 1.980658 g / cm^3
# Si number density = 19.851763 Si / 1000 Ang^3
#
#
#
# Elastic Constant Matrix: (Units=GPa)
#
#
# Indices 1 2 3 4 5 6 
#
# 1 79.7969 15.8431 7.0368 0.0000 1.3032 0.0000
# 2 15.8431 60.5585 62.4483 0.0000 -3.6067 0.0000
# 3 7.0368 62.4483 123.0869 0.0000 -3.3718 0.0000
# 4 0.0000 0.0000 0.0000 49.6716 0.0000 1.7079
# 5 1.3032 -3.6067 -3.3718 0.0000 24.5322 0.0000
# 6 0.0000 0.0000 0.0000 1.7079 0.0000 28.3831
#
#
#
# Elastic Compliance Matrix: (Units=1/GPa)
#
#
# Indices 1 2 3 4 5 6 
#
# 1 0.013521 -0.005831 0.002150 0.000000 -0.001280 0.000000
# 2 -0.005831 0.037323 -0.018514 0.000000 0.003252 0.000000
# 3 0.002150 -0.018514 0.017382 0.000000 -0.000447 0.000000
# 4 0.000000 0.000000 0.000000 0.020174 0.000000 -0.001214
# 5 -0.001280 0.003252 -0.000447 0.000000 0.041248 0.000000
# 6 0.000000 0.000000 0.000000 -0.001214 0.000000 0.035305
#
#
# Mechanical properties :
#
#
# Convention : Reuss Voigt Hill
#
# Bulk Modulus (GPa) = 41.95012 48.23320 45.09166
# Shear Modulus (GPa) = 23.01098 32.39164 27.70131
#
# Velocity S-wave (km/s) = 3.40831 4.04378 3.73957
# Velocity P-wave (km/s) = 6.05527 6.79355 6.43501
#
# Compressibility (1/GPa) = 0.02383784
#
# Stress axis : x y z
#
# Youngs Moduli (GPa) = 73.96027 26.79280 57.53052
#
# Poissons Ratio (x) = 0.15622 -0.12370
# Poissons Ratio (y) = 0.43125 1.06510
# Poissons Ratio (z) = -0.15903 0.49603
#
# Static dielectric constant tensor:
#      x y z
#    x 3.919110 0.000000 -0.012010 
#    y 0.000000 3.510580 0.000000 
#    z -0.012010 0.000000 3.627160 
# 
# 
# High freq. dielectric constant tensor:
#      x y z
#    x 1.795460 0.000000 -0.002040 
#    y 0.000000 1.766680 0.000000 
#    z -0.002040 0.000000 1.785310 
# 
# From -- ./inp_files/252537.got.cif
#   From: 2010.06.25/outbox.cif.g09.slc.cpg/sg12_127_cif.got.tgz:252537.got - 2010.06.28 00:19:55.
