data_PCOD8106000
_publ_section_title
;
Structure prediction by ZEFSAII (Michael W. Deem and Ramdas Pophale) SiO2 
 PCOD8106000
Probable space group: C 2/M
;
_chemical_formula_sum "Si O2"
_cell_formula_units_Z 40
_cell_length_a 14.441045
_cell_length_b 8.952662
_cell_length_c 22.301003
_cell_angle_alpha 90.000000
_cell_angle_beta 132.767248
_cell_angle_gamma 90.000000
_cell_volume 2116.611531
_symmetry_space_group_name_H-M "C 2/M"
_symmetry_group_IT_number 12
_symmetry_cell_setting 'monoclinic'
loop_
_space_group_symop_operation_xyz
x,y,z
-x,y,-z
-x,-y,-z
x,-y,z
1/2+x,1/2+y,z
1/2-x,1/2+y,-z
1/2-x,1/2-y,-z
1/2+x,1/2-y,z
loop_
_atom_site_type_symbol
_atom_site_label
_atom_site_fract_x
_atom_site_fract_y
_atom_site_fract_z
Si Si1 0.022738 0.177118 0.295529
Si Si2 0.478075 0.823356 0.394436
Si Si3 0.305111 0.176834 0.425627
Si Si4 0.886819 0.326840 0.126407
Si Si5 0.095626 0.173201 0.989704
O O1 0.946550 0.240051 0.318760
O O2 0.164498 0.241954 0.364799
O O3 0.963519 0.234521 0.208528
O O4 0.018927 0.000000 0.293519
O O5 0.613843 0.770720 0.480959
O O6 0.371081 0.769652 0.393468
O O7 0.474258 0.000000 0.381868
O O8 0.303308 0.000000 0.424741
O O9 0.920888 0.500000 0.146898
O O10 0.931288 0.270827 0.080864
O O11 0.738913 0.298379 0.073528
O O12 0.073814 0.000000 0.963965
O O13 0.000000 0.224816 0.000000
#
# Coordination Sequence:
#
# PCOD8106000 Si02
#       5
#     8   8   8   8   8
#     4  11  21  33  50  76 108 137 166 207 258 302
#     4   9  17  34  55  73  96 133 180 218 250 294
#     4   8  17  33  53  73  98 136 176 212 253 302
#     4  10  21  36  54  79 106 132 167 207 248 300
#     4   9  19  38  61  79  99 131 167 205 252 302
#
# _framework density 18.898130999999999
#
# number of rings (size 3 to 8) (size 9 to 14) (size 15 to 20)
#    0.000    2.600    0.000    3.000    0.000    2.800 
#    0.000   13.000    0.000    0.000    0.000    0.000 
#    0.000    0.000    0.000    0.000    0.000    0.000 
#
# Total GULP energy -247987.567087 kJ/mol
# GULP energy per Si atom -12399.378354 kJ/mol
# Density = 1.885512 g / cm^3
# Si number density = 18.898131 Si / 1000 Ang^3
#
#
#
# Elastic Constant Matrix: (Units=GPa)
#
#
# Indices 1 2 3 4 5 6 
#
# 1 99.2498 31.2554 36.4116 0.0000 -15.8689 0.0000
# 2 31.2554 65.4250 37.2241 0.0000 -8.8152 0.0000
# 3 36.4116 37.2241 87.4990 0.0000 -16.8072 0.0000
# 4 0.0000 0.0000 0.0000 33.7772 0.0000 -3.5888
# 5 -15.8689 -8.8152 -16.8072 0.0000 22.1774 0.0000
# 6 0.0000 0.0000 0.0000 -3.5888 0.0000 22.0321
#
#
#
# Elastic Compliance Matrix: (Units=1/GPa)
#
#
# Indices 1 2 3 4 5 6 
#
# 1 0.013263 -0.004020 -0.002684 0.000000 0.005858 0.000000
# 2 -0.004020 0.021444 -0.007450 0.000000 0.000002 0.000000
# 3 -0.002684 -0.007450 0.017295 0.000000 0.008225 0.000000
# 4 0.000000 0.000000 0.000000 0.030127 0.000000 0.004907
# 5 0.005858 0.000002 0.008225 0.000000 0.055517 0.000000
# 6 0.000000 0.000000 0.000000 0.004907 0.000000 0.046188
#
#
# Mechanical properties :
#
#
# Convention : Reuss Voigt Hill
#
# Bulk Modulus (GPa) = 42.20283 51.32845 46.76564
# Shear Modulus (GPa) = 22.72340 25.41620 24.06980
#
# Velocity S-wave (km/s) = 3.47135 3.67127 3.57271
# Velocity P-wave (km/s) = 6.20058 6.72239 6.46675
#
# Compressibility (1/GPa) = 0.02369509
#
# Stress axis : x y z
#
# Youngs Moduli (GPa) = 75.39927 46.63363 57.82124
#
# Poissons Ratio (x) = 0.18745 0.15518
# Poissons Ratio (y) = 0.30308 0.43074
# Poissons Ratio (z) = 0.20235 0.34740
#
# Static dielectric constant tensor:
#      x y z
#    x 3.674950 0.000000 0.121000 
#    y 0.000000 3.222430 0.000000 
#    z 0.121000 0.000000 3.490250 
# 
# 
# High freq. dielectric constant tensor:
#      x y z
#    x 1.739670 0.000000 -0.006700 
#    y 0.000000 1.717180 0.000000 
#    z -0.006700 0.000000 1.734460 
# 
# From -- ./inp_files/211348.got.cif
#   From: 2010.06.25/outbox.cif.g09.slc.cpg/sg12_106_cif.got.tgz:211348.got - 2010.06.28 00:19:55.
