data_PCOD8106382
_publ_section_title
;
Structure prediction by ZEFSAII (Michael W. Deem and Ramdas Pophale) SiO2 
 PCOD8106382
Probable space group: C 2/M
;
_chemical_formula_sum "Si O2"
_cell_formula_units_Z 52
_cell_length_a 22.556486
_cell_length_b 16.816032
_cell_length_c 9.214095
_cell_angle_alpha 90.000000
_cell_angle_beta 47.514554
_cell_angle_gamma 90.000000
_cell_volume 2577.386799
_symmetry_space_group_name_H-M "C 2/M"
_symmetry_group_IT_number 12
_symmetry_cell_setting 'monoclinic'
loop_
_space_group_symop_operation_xyz
x,y,z
-x,y,-z
-x,-y,-z
x,-y,z
1/2+x,1/2+y,z
1/2-x,1/2+y,-z
1/2-x,1/2-y,-z
1/2+x,1/2-y,z
loop_
_atom_site_type_symbol
_atom_site_label
_atom_site_fract_x
_atom_site_fract_y
_atom_site_fract_z
Si Si1 0.518030 0.911328 0.315427
Si Si2 0.338394 0.592129 0.275625
Si Si3 0.000000 0.177128 0.000000
Si Si4 0.773993 0.337269 0.308056
Si Si5 0.204446 0.412713 0.012913
Si Si6 0.268590 0.176446 0.749182
Si Si7 0.089021 0.311407 0.692493
O O1 0.500000 0.868086 0.500000
O O2 0.611353 0.908759 0.134695
O O3 0.478824 0.874299 0.236895
O O4 0.482353 0.000000 0.385012
O O5 0.341151 0.500000 0.322151
O O6 0.426243 0.619953 0.073823
O O7 0.303897 0.652132 0.458676
O O8 0.274403 0.599619 0.251090
O O9 0.961588 0.231394 0.190323
O O10 0.783015 0.253415 0.209341
O O11 0.856244 0.343796 0.265070
O O12 0.758623 0.401639 0.208063
O O13 0.229867 0.500000 0.029811
O O14 0.229771 0.342901 0.082414
O O15 0.357242 0.195377 0.541557
#
# Coordination Sequence:
#
# PCOD8106382 Si02
#       7
#     8   8   4   8   8   8   8
#     4  10  21  36  57  91 127 160 197 241 306 377
#     4  11  23  39  64  90 119 159 206 260 313 362
#     4  12  21  40  61  88 124 152 208 260 309 360
#     4  11  22  42  61  91 120 159 211 259 299 363
#     4  11  23  38  61  92 127 162 200 248 308 372
#     4  11  21  41  62  87 121 163 206 249 305 367
#     4  11  21  38  65  86 122 163 203 256 304 361
#
# _framework density 20.175474999999999
#
# number of rings (size 3 to 8) (size 9 to 14) (size 15 to 20)
#    0.000    1.077    4.615    3.462    0.000    3.077 
#    0.000    1.923    0.000    0.000    0.000    3.231 
#    0.000    0.000    0.000    0.000    0.000    0.000 
#
# Total GULP energy -322122.526635 kJ/mol
# GULP energy per Si atom -12389.327947 kJ/mol
# Density = 2.012955 g / cm^3
# Si number density = 20.175475 Si / 1000 Ang^3
#
#
#
# Elastic Constant Matrix: (Units=GPa)
#
#
# Indices 1 2 3 4 5 6 
#
# 1 101.5034 55.1145 40.2402 0.0000 14.5975 0.0000
# 2 55.1145 92.2809 15.2000 0.0000 2.3485 0.0000
# 3 40.2402 15.2000 86.9768 0.0000 1.7892 0.0000
# 4 0.0000 0.0000 0.0000 41.8037 0.0000 25.5571
# 5 14.5975 2.3485 1.7892 0.0000 31.8039 0.0000
# 6 0.0000 0.0000 0.0000 25.5571 0.0000 75.6829
#
#
#
# Elastic Compliance Matrix: (Units=1/GPa)
#
#
# Indices 1 2 3 4 5 6 
#
# 1 0.019222 -0.010138 -0.006963 0.000000 -0.007682 0.000000
# 2 -0.010138 0.016521 0.001735 0.000000 0.003336 0.000000
# 3 -0.006963 0.001735 0.014369 0.000000 0.002260 0.000000
# 4 0.000000 0.000000 0.000000 0.030145 0.000000 -0.010179
# 5 -0.007682 0.003336 0.002260 0.000000 0.034595 0.000000
# 6 0.000000 0.000000 0.000000 -0.010179 0.000000 0.016650
#
#
# Mechanical properties :
#
#
# Convention : Reuss Voigt Hill
#
# Bulk Modulus (GPa) = 51.60318 55.76336 53.68327
# Shear Modulus (GPa) = 29.63930 41.20519 35.42225
#
# Velocity S-wave (km/s) = 3.83701 4.52413 4.19466
# Velocity P-wave (km/s) = 6.72777 7.41549 7.07999
#
# Compressibility (1/GPa) = 0.01937865
#
# Stress axis : x y z
#
# Youngs Moduli (GPa) = 52.02410 60.53045 69.59259
#
# Poissons Ratio (x) = 0.61364 0.48460
# Poissons Ratio (y) = 0.52741 -0.12071
# Poissons Ratio (z) = 0.36226 -0.10499
#
# Static dielectric constant tensor:
#      x y z
#    x 3.701510 0.000000 0.119370 
#    y 0.000000 3.738960 0.000000 
#    z 0.119370 0.000000 3.866360 
# 
# 
# High freq. dielectric constant tensor:
#      x y z
#    x 1.781960 0.000000 -0.001440 
#    y 0.000000 1.781220 0.000000 
#    z -0.001440 0.000000 1.783910 
# 
# From -- ./inp_files/88357.got.cif
#   From: 2010.06.25/outbox.cif.g09.slc.cpg/sg12_45_cif.got.tgz:88357.got - 2010.06.28 00:19:55.
