data_PCOD8106272
_publ_section_title
;
Structure prediction by ZEFSAII (Michael W. Deem and Ramdas Pophale) SiO2 
 PCOD8106272
Probable space group: C 2/M
;
_chemical_formula_sum "Si O2"
_cell_formula_units_Z 56
_cell_length_a 16.159606
_cell_length_b 9.035987
_cell_length_c 28.076391
_cell_angle_alpha 90.000000
_cell_angle_beta 135.769943
_cell_angle_gamma 90.000000
_cell_volume 2859.680046
_symmetry_space_group_name_H-M "C 2/M"
_symmetry_group_IT_number 12
_symmetry_cell_setting 'monoclinic'
loop_
_space_group_symop_operation_xyz
x,y,z
-x,y,-z
-x,-y,-z
x,-y,z
1/2+x,1/2+y,z
1/2-x,1/2+y,-z
1/2-x,1/2-y,-z
1/2+x,1/2-y,z
loop_
_atom_site_type_symbol
_atom_site_label
_atom_site_fract_x
_atom_site_fract_y
_atom_site_fract_z
Si Si1 0.736256 0.162600 0.812097
Si Si2 0.538160 0.165325 0.069861
Si Si3 0.456106 0.825576 0.343592
Si Si4 0.641417 0.175890 0.342281
Si Si5 0.539959 0.162957 0.809113
Si Si6 0.868993 0.828991 0.063867
Si Si7 0.901651 0.174240 0.421042
O O1 0.662255 0.212376 0.735170
O O2 0.650109 0.143753 0.820452
O O3 0.826723 0.290802 0.864135
O O4 0.795743 0.000000 0.827484
O O5 0.461957 0.294189 0.061504
O O6 0.517436 0.000000 0.082366
O O7 0.500000 0.164943 0.000000
O O8 0.573797 0.767801 0.362750
O O9 0.442060 0.746605 0.388308
O O10 0.467177 0.000000 0.356848
O O11 0.570863 0.229451 0.266108
O O12 0.776310 0.233818 0.391221
O O13 0.636009 0.000000 0.341933
O O14 0.573127 0.276870 0.863435
O O15 0.509037 0.000000 0.817799
O O16 0.840113 0.000000 0.055673
O O17 0.750000 0.750000 0.000000
O O18 0.000000 0.216836 0.500000
O O19 0.892934 0.000000 0.408645
#
# Coordination Sequence:
#
# PCOD8106272 Si02
#       7
#     8   8   8   8   8   8   8
#     4   9  19  36  58  83 110 142 183 237 291 344
#     4  11  24  39  56  80 110 146 188 232 282 343
#     4   9  19  37  59  83 114 152 197 240 291 355
#     4   8  17  36  59  82 115 158 193 234 296 358
#     4   9  18  36  60  82 108 146 189 231 287 350
#     4  12  25  39  56  80 112 147 187 235 285 337
#     4  10  21  36  56  86 121 156 198 246 295 350
#
# _framework density 19.582609999999999
#
# number of rings (size 3 to 8) (size 9 to 14) (size 15 to 20)
#    0.000    2.286    0.000    4.286    2.000    5.429 
#    0.000    2.857    0.000    0.000    0.000    0.000 
#    0.000    0.000    0.000    0.000    0.000    0.000 
#
# Total GULP energy -347007.513232 kJ/mol
# GULP energy per Si atom -12393.125473 kJ/mol
# Density = 1.953804 g / cm^3
# Si number density = 19.582610 Si / 1000 Ang^3
#
#
#
# Elastic Constant Matrix: (Units=GPa)
#
#
# Indices 1 2 3 4 5 6 
#
# 1 107.6718 41.8577 92.0867 0.0000 -2.3202 0.0000
# 2 41.8577 86.7192 55.1294 0.0000 -4.7520 0.0000
# 3 92.0867 55.1294 128.5331 0.0000 7.0815 0.0000
# 4 0.0000 0.0000 0.0000 132.6988 0.0000 -19.1761
# 5 -2.3202 -4.7520 7.0815 0.0000 35.4127 0.0000
# 6 0.0000 0.0000 0.0000 -19.1761 0.0000 31.1328
#
#
#
# Elastic Compliance Matrix: (Units=1/GPa)
#
#
# Indices 1 2 3 4 5 6 
#
# 1 0.024920 -0.000291 -0.018016 0.000000 0.005196 0.000000
# 2 -0.000291 0.016306 -0.006982 0.000000 0.003565 0.000000
# 3 -0.018016 -0.006982 0.024064 0.000000 -0.006929 0.000000
# 4 0.000000 0.000000 0.000000 0.008272 0.000000 0.005095
# 5 0.005196 0.003565 -0.006929 0.000000 0.030443 0.000000
# 6 0.000000 0.000000 0.000000 0.005095 0.000000 0.035259
#
#
# Mechanical properties :
#
#
# Convention : Reuss Voigt Hill
#
# Bulk Modulus (GPa) = 67.96603 77.89687 72.93145
# Shear Modulus (GPa) = 25.67466 48.77222 37.22344
#
# Velocity S-wave (km/s) = 3.62483 4.99599 4.36459
# Velocity P-wave (km/s) = 7.23201 8.55248 7.91981
#
# Compressibility (1/GPa) = 0.01471323
#
# Stress axis : x y z
#
# Youngs Moduli (GPa) = 40.12761 61.32836 41.55662
#
# Poissons Ratio (x) = 0.01784 0.74867
# Poissons Ratio (y) = 0.01168 0.29013
# Poissons Ratio (z) = 0.72292 0.42817
#
# Static dielectric constant tensor:
#      x y z
#    x 3.661700 0.000000 0.110440 
#    y 0.000000 3.384590 0.000000 
#    z 0.110440 0.000000 3.631390 
# 
# 
# High freq. dielectric constant tensor:
#      x y z
#    x 1.767460 0.000000 0.001150 
#    y 0.000000 1.743490 0.000000 
#    z 0.001150 0.000000 1.768730 
# 
# From -- ./inp_files/377733.got.cif
#   From: 2010.06.25/outbox.cif.g09.slc.cpg/sg12_189_cif.got.tgz:377733.got - 2010.06.28 00:19:55.
