data_PCOD8106040
_publ_section_title
;
Structure prediction by ZEFSAII (Michael W. Deem and Ramdas Pophale) SiO2 
 PCOD8106040
Probable space group: C 2/M
;
_chemical_formula_sum "Si O2"
_cell_formula_units_Z 44
_cell_length_a 9.132515
_cell_length_b 18.315548
_cell_length_c 18.416666
_cell_angle_alpha 90.000000
_cell_angle_beta 132.047080
_cell_angle_gamma 90.000000
_cell_volume 2287.563706
_symmetry_space_group_name_H-M "C 2/M"
_symmetry_group_IT_number 12
_symmetry_cell_setting 'monoclinic'
loop_
_space_group_symop_operation_xyz
x,y,z
-x,y,-z
-x,-y,-z
x,-y,z
1/2+x,1/2+y,z
1/2-x,1/2+y,-z
1/2-x,1/2-y,-z
1/2+x,1/2-y,z
loop_
_atom_site_type_symbol
_atom_site_label
_atom_site_fract_x
_atom_site_fract_y
_atom_site_fract_z
Si Si1 0.911538 0.808081 0.126065
Si Si2 0.445337 0.587201 0.263792
Si Si3 0.738346 0.709889 0.716848
Si Si4 0.500000 0.732637 0.000000
Si Si5 0.850545 0.294285 0.597070
Si Si6 0.306219 0.920643 0.481727
O O1 0.963252 0.882307 0.187244
O O2 0.048200 0.741124 0.195006
O O3 0.953065 0.819554 0.053769
O O4 0.688437 0.785584 0.072472
O O5 0.410722 0.500000 0.250342
O O6 0.270983 0.630062 0.248004
O O7 0.639224 0.612393 0.373117
O O8 0.712212 0.704241 0.621616
O O9 0.566040 0.763120 0.689109
O O10 0.750000 0.250000 0.500000
O O11 0.857706 0.376753 0.571166
O O12 0.500000 0.926798 0.500000
O O13 0.234503 0.000000 0.484318
#
# Coordination Sequence:
#
# PCOD8106040 Si02
#       6
#     8   8   8   4   8   8
#     4  11  20  41  62  95 116 154 194 252 302 374
#     4  11  23  39  60  89 127 162 196 249 308 355
#     4  12  22  37  60  88 122 159 205 245 297 352
#     4  10  22  36  72  90 116 144 206 248 310 364
#     4  12  21  33  56  86 117 160 211 249 275 342
#     4  10  21  36  54  81 122 166 202 245 296 340
#
# _framework density 19.234437
#
# number of rings (size 3 to 8) (size 9 to 14) (size 15 to 20)
#    0.000    0.909    5.455    2.727    0.000    0.727 
#    0.000    2.727    0.000    3.273    0.000    0.000 
#    0.000    0.000    0.000    0.000    0.000    0.000 
#
# Total GULP energy -272718.543111 kJ/mol
# GULP energy per Si atom -12396.297414 kJ/mol
# Density = 1.919066 g / cm^3
# Si number density = 19.234437 Si / 1000 Ang^3
#
#
#
# Elastic Constant Matrix: (Units=GPa)
#
#
# Indices 1 2 3 4 5 6 
#
# 1 108.1665 48.1035 40.7802 0.0000 -14.8017 0.0000
# 2 48.1035 113.2561 48.6389 0.0000 -7.8859 0.0000
# 3 40.7802 48.6389 77.4413 0.0000 1.7409 0.0000
# 4 0.0000 0.0000 0.0000 31.8484 0.0000 -10.0999
# 5 -14.8017 -7.8859 1.7409 0.0000 46.8435 0.0000
# 6 0.0000 0.0000 0.0000 -10.0999 0.0000 30.7143
#
#
#
# Elastic Compliance Matrix: (Units=1/GPa)
#
#
# Indices 1 2 3 4 5 6 
#
# 1 0.013033 -0.003134 -0.004979 0.000000 0.003776 0.000000
# 2 -0.003134 0.013102 -0.006611 0.000000 0.001461 0.000000
# 3 -0.004979 -0.006611 0.019764 0.000000 -0.003421 0.000000
# 4 0.000000 0.000000 0.000000 0.035054 0.000000 0.011527
# 5 0.003776 0.001461 -0.003421 0.000000 0.022914 0.000000
# 6 0.000000 0.000000 0.000000 0.011527 0.000000 0.036349
#
#
# Mechanical properties :
#
#
# Convention : Reuss Voigt Hill
#
# Bulk Modulus (GPa) = 60.79290 63.76768 62.28029
# Shear Modulus (GPa) = 28.54726 32.63734 30.59230
#
# Velocity S-wave (km/s) = 3.85668 4.12371 3.99243
# Velocity P-wave (km/s) = 7.17683 7.47651 7.32820
#
# Compressibility (1/GPa) = 0.01644929
#
# Stress axis : x y z
#
# Youngs Moduli (GPa) = 76.72980 76.32601 50.59592
#
# Poissons Ratio (x) = 0.23921 0.25194
# Poissons Ratio (y) = 0.24048 0.33450
# Poissons Ratio (z) = 0.38207 0.50461
#
# Static dielectric constant tensor:
#      x y z
#    x 3.817940 0.000000 -0.023120 
#    y 0.000000 3.808290 0.000000 
#    z -0.023120 0.000000 3.948340 
# 
# 
# High freq. dielectric constant tensor:
#      x y z
#    x 1.756610 0.000000 -0.004450 
#    y 0.000000 1.726620 0.000000 
#    z -0.004450 0.000000 1.754520 
# 
# From -- ./inp_files/195428.got.cif
#   From: 2010.06.25/outbox.cif.g09.slc.cpg/sg12_98_cif.got.tgz:195428.got - 2010.06.28 00:19:55.
