data_PCOD8106497
_publ_section_title
;
Structure prediction by ZEFSAII (Michael W. Deem and Ramdas Pophale) SiO2 
 PCOD8106497
Probable space group: C 2/M
;
_chemical_formula_sum "Si O2"
_cell_formula_units_Z 64
_cell_length_a 17.675381
_cell_length_b 13.701617
_cell_length_c 15.412706
_cell_angle_alpha 90.000000
_cell_angle_beta 64.055943
_cell_angle_gamma 90.000000
_cell_volume 3356.496904
_symmetry_space_group_name_H-M "C 2/M"
_symmetry_group_IT_number 12
_symmetry_cell_setting 'monoclinic'
loop_
_space_group_symop_operation_xyz
x,y,z
-x,y,-z
-x,-y,-z
x,-y,z
1/2+x,1/2+y,z
1/2-x,1/2+y,-z
1/2-x,1/2-y,-z
1/2+x,1/2-y,z
loop_
_atom_site_type_symbol
_atom_site_label
_atom_site_fract_x
_atom_site_fract_y
_atom_site_fract_z
Si Si1 0.242629 0.889325 0.325917
Si Si2 0.579852 0.393743 0.522871
Si Si3 0.038460 0.295126 0.073198
Si Si4 0.618486 0.611322 0.094438
Si Si5 0.338117 0.268325 0.770308
Si Si6 0.928747 0.389198 0.274714
Si Si7 0.500510 0.206503 0.600487
Si Si8 0.197021 0.610881 0.073437
O O1 0.166278 0.872010 0.429991
O O2 0.236498 0.820139 0.244947
O O3 0.329957 0.864590 0.329300
O O4 0.241225 0.000000 0.292269
O O5 0.500000 0.396938 0.500000
O O6 0.586240 0.500000 0.567607
O O7 0.560067 0.300974 0.593396
O O8 0.059118 0.179105 0.064181
O O9 0.124290 0.355609 0.043793
O O10 0.974292 0.318969 0.183126
O O11 0.000000 0.324350 0.000000
O O12 0.586124 0.500000 0.105700
O O13 0.613629 0.652455 0.194406
O O14 0.715186 0.621197 0.018887
O O15 0.403938 0.228167 0.668237
O O16 0.300339 0.178708 0.843340
O O17 0.944541 0.500000 0.236843
O O18 0.966129 0.377571 0.352638
O O19 0.500000 0.173536 0.500000
O O20 0.180297 0.500000 0.111646
#
# Coordination Sequence:
#
# PCOD8106497 Si02
#       8
#     8   8   8   8   8   8   8   8
#     4  10  21  36  59  87 116 151 196 254 303 347
#     4   9  17  33  56  84 114 144 189 244 295 342
#     4  11  23  39  61  86 122 162 197 245 309 359
#     4  10  22  39  62  91 119 154 202 251 304 363
#     4  11  19  36  61  89 119 156 204 244 298 358
#     4  11  25  41  57  86 123 158 203 251 297 360
#     4  11  21  38  61  90 116 165 202 241 299 353
#     4  10  22  39  61  88 121 156 202 255 297 352
#
# _framework density 19.067499000000002
#
# number of rings (size 3 to 8) (size 9 to 14) (size 15 to 20)
#    0.000    1.625    5.000    2.250    3.500    2.500 
#    0.000    0.000    0.000    0.750    0.000    0.000 
#    0.000    0.000    0.000    0.000    0.000    0.000 
#
# Total GULP energy -396681.915877 kJ/mol
# GULP energy per Si atom -12396.309871 kJ/mol
# Density = 1.902410 g / cm^3
# Si number density = 19.067499 Si / 1000 Ang^3
#
#
#
# Elastic Constant Matrix: (Units=GPa)
#
#
# Indices 1 2 3 4 5 6 
#
# 1 92.5134 29.2983 35.2564 0.0000 -1.5490 0.0000
# 2 29.2983 93.1455 16.0982 0.0000 -1.2384 0.0000
# 3 35.2564 16.0982 77.1986 0.0000 4.5008 0.0000
# 4 0.0000 0.0000 0.0000 37.7601 0.0000 -6.1337
# 5 -1.5490 -1.2384 4.5008 0.0000 31.5114 0.0000
# 6 0.0000 0.0000 0.0000 -6.1337 0.0000 26.2176
#
#
#
# Elastic Compliance Matrix: (Units=1/GPa)
#
#
# Indices 1 2 3 4 5 6 
#
# 1 0.014135 -0.003421 -0.005823 0.000000 0.001392 0.000000
# 2 -0.003421 0.011984 -0.000962 0.000000 0.000440 0.000000
# 3 -0.005823 -0.000962 0.015966 0.000000 -0.002604 0.000000
# 4 0.000000 0.000000 0.000000 0.027529 0.000000 0.006441
# 5 0.001392 0.000440 -0.002604 0.000000 0.032192 0.000000
# 6 0.000000 0.000000 0.000000 0.006441 0.000000 0.039649
#
#
# Mechanical properties :
#
#
# Convention : Reuss Voigt Hill
#
# Bulk Modulus (GPa) = 46.14353 47.12925 46.63639
# Shear Modulus (GPa) = 29.56955 31.24479 30.40717
#
# Velocity S-wave (km/s) = 3.94227 4.05241 3.99772
# Velocity P-wave (km/s) = 6.70631 6.83130 6.76910
#
# Compressibility (1/GPa) = 0.02167151
#
# Stress axis : x y z
#
# Youngs Moduli (GPa) = 70.74515 83.44334 62.63476
#
# Poissons Ratio (x) = 0.28548 0.36474
# Poissons Ratio (y) = 0.24203 0.06027
# Poissons Ratio (z) = 0.41197 0.08029
#
# Static dielectric constant tensor:
#      x y z
#    x 3.444730 0.000000 -0.138870 
#    y 0.000000 3.887590 0.000000 
#    z -0.138870 0.000000 3.403210 
# 
# 
# High freq. dielectric constant tensor:
#      x y z
#    x 1.727780 0.000000 -0.019130 
#    y 0.000000 1.747450 0.000000 
#    z -0.019130 0.000000 1.735330 
# 
# From -- ./inp_files/225258.got.cif
#   From: 2010.06.25/outbox.cif.g09.slc.cpg/sg12_113_cif.got.tgz:225258.got - 2010.06.28 00:19:55.
