data_PCOD8106779
_publ_section_title
;
Structure prediction by ZEFSAII (Michael W. Deem and Ramdas Pophale) SiO2 
 PCOD8106779
Probable space group: C 2/M
;
_chemical_formula_sum "Si O2"
_cell_formula_units_Z 56
_cell_length_a 18.016504
_cell_length_b 8.960094
_cell_length_c 26.159808
_cell_angle_alpha 90.000000
_cell_angle_beta 44.193625
_cell_angle_gamma 90.000000
_cell_volume 2943.768032
_symmetry_space_group_name_H-M "C 2/M"
_symmetry_group_IT_number 12
_symmetry_cell_setting 'monoclinic'
loop_
_space_group_symop_operation_xyz
x,y,z
-x,y,-z
-x,-y,-z
x,-y,z
1/2+x,1/2+y,z
1/2-x,1/2+y,-z
1/2-x,1/2-y,-z
1/2+x,1/2-y,z
loop_
_atom_site_type_symbol
_atom_site_label
_atom_site_fract_x
_atom_site_fract_y
_atom_site_fract_z
Si Si1 0.927562 0.671268 0.643911
Si Si2 0.561870 0.823840 0.767774
Si Si3 0.245801 0.171823 0.932438
Si Si4 0.386901 0.827530 0.774834
Si Si5 0.329166 0.170937 0.499389
Si Si6 0.795909 0.823239 0.623040
Si Si7 0.420602 0.329322 0.910529
O O1 0.890467 0.500000 0.653535
O O2 0.886202 0.741188 0.718332
O O3 0.881531 0.774336 0.622409
O O4 0.054281 0.682300 0.582106
O O5 0.481003 0.760906 0.764320
O O6 0.679629 0.765224 0.697559
O O7 0.523849 0.765182 0.842528
O O8 0.558789 0.000000 0.771621
O O9 0.271352 0.196599 0.859379
O O10 0.319358 0.287449 0.926111
O O11 0.277663 0.000000 0.930806
O O12 0.121436 0.198743 0.009889
O O13 0.414308 0.000000 0.753244
O O14 0.250000 0.250000 0.500000
O O15 0.328054 0.250698 0.554140
O O16 0.294164 0.000000 0.523697
O O17 0.797934 0.000000 0.615637
O O18 0.451742 0.500000 0.886728
#
# Coordination Sequence:
#
# PCOD8106779 Si02
#       7
#     8   8   8   8   8   8   8
#     4  10  21  37  56  78 106 140 175 212 259 313
#     4   9  18  33  51  71  99 136 175 215 263 315
#     4   8  14  25  42  67 100 135 168 206 257 313
#     4   8  14  29  52  72  95 132 173 209 251 307
#     4  11  23  39  60  85 111 138 172 214 259 309
#     4  11  23  38  56  78 106 141 179 217 261 313
#     4   9  15  23  41  71 101 128 166 215 261 306
#
# _framework density 19.023237999999999
#
# number of rings (size 3 to 8) (size 9 to 14) (size 15 to 20)
#    0.000    2.571    0.000    3.429    0.000    6.857 
#    0.000    2.857    0.000    0.857    0.000    6.000 
#    0.000    0.000    0.000    0.000    0.000    0.000 
#
# Total GULP energy -346963.729417 kJ/mol
# GULP energy per Si atom -12391.561765 kJ/mol
# Density = 1.897994 g / cm^3
# Si number density = 19.023238 Si / 1000 Ang^3
#
#
#
# Elastic Constant Matrix: (Units=GPa)
#
#
# Indices 1 2 3 4 5 6 
#
# 1 77.4330 25.8645 36.4716 0.0000 19.1722 0.0001
# 2 25.8645 54.1851 33.7382 0.0000 9.7942 0.0002
# 3 36.4716 33.7382 133.2908 0.0000 30.1415 0.0000
# 4 0.0000 0.0000 0.0000 29.8229 0.0000 -1.1299
# 5 19.1722 9.7942 30.1415 0.0000 17.4039 0.0000
# 6 0.0001 0.0002 0.0000 -1.1299 0.0000 20.8296
#
#
#
# Elastic Compliance Matrix: (Units=1/GPa)
#
#
# Indices 1 2 3 4 5 6 
#
# 1 0.019382 -0.006174 0.000496 0.000000 -0.018736 0.000000
# 2 -0.006174 0.024089 -0.004735 0.000000 0.001445 0.000000
# 3 0.000496 -0.004735 0.013292 0.000000 -0.020902 0.000000
# 4 0.000000 0.000000 0.000000 0.033600 0.000000 0.001823
# 5 -0.018736 0.001445 -0.020902 0.000000 0.113485 0.000000
# 6 0.000000 0.000000 0.000000 0.001823 0.000000 0.048107
#
#
# Mechanical properties :
#
#
# Convention : Reuss Voigt Hill
#
# Bulk Modulus (GPa) = 27.82595 50.78417 39.30506
# Shear Modulus (GPa) = 17.55866 24.86690 21.21278
#
# Velocity S-wave (km/s) = 3.04141 3.61942 3.34293
# Velocity P-wave (km/s) = 5.19544 6.64987 5.96714
#
# Compressibility (1/GPa) = 0.03593767
#
# Stress axis : x y z
#
# Youngs Moduli (GPa) = 51.59425 41.51224 75.23537
#
# Poissons Ratio (x) = 0.25630 -0.03734
# Poissons Ratio (y) = 0.31855 0.35623
# Poissons Ratio (z) = -0.02561 0.19655
#
# Static dielectric constant tensor:
#      x y z
#    x 2.803450 0.000000 -0.038820 
#    y 0.000000 3.369570 0.000000 
#    z -0.038820 0.000000 4.015080 
# 
# 
# High freq. dielectric constant tensor:
#      x y z
#    x 1.692160 0.000000 0.010840 
#    y 0.000000 1.725670 0.000000 
#    z 0.010840 0.000000 1.770660 
# 
# From -- ./inp_files/362990.got.cif
#   From: 2010.06.25/outbox.cif.g09.slc.cpg/sg12_182_cif.got.tgz:362990.got - 2010.06.28 00:19:55.
