data_PCOD8106419
_publ_section_title
;
Structure prediction by ZEFSAII (Michael W. Deem and Ramdas Pophale) SiO2 
 PCOD8106419
Probable space group: C 2/M
;
_chemical_formula_sum "Si O2"
_cell_formula_units_Z 56
_cell_length_a 19.145785
_cell_length_b 9.056282
_cell_length_c 18.741012
_cell_angle_alpha 90.000000
_cell_angle_beta 60.325556
_cell_angle_gamma 90.000000
_cell_volume 2823.333421
_symmetry_space_group_name_H-M "C 2/M"
_symmetry_group_IT_number 12
_symmetry_cell_setting 'monoclinic'
loop_
_space_group_symop_operation_xyz
x,y,z
-x,y,-z
-x,-y,-z
x,-y,z
1/2+x,1/2+y,z
1/2-x,1/2+y,-z
1/2-x,1/2-y,-z
1/2+x,1/2-y,z
loop_
_atom_site_type_symbol
_atom_site_label
_atom_site_fract_x
_atom_site_fract_y
_atom_site_fract_z
Si Si1 0.792382 0.835067 0.690292
Si Si2 0.938345 0.831480 0.318205
Si Si3 0.827297 0.672721 0.995602
Si Si4 0.533245 0.676352 0.407868
Si Si5 0.716338 0.836874 0.582971
Si Si6 0.855362 0.327464 0.146678
Si Si7 0.989942 0.171134 0.869211
O O1 0.878803 0.756546 0.656637
O O2 0.783367 0.840257 0.609726
O O3 0.717223 0.758219 0.768537
O O4 0.795704 0.000000 0.721047
O O5 0.860665 0.735530 0.341685
O O6 0.976538 0.772329 0.372287
O O7 0.997516 0.812887 0.221824
O O8 0.911366 0.000000 0.341699
O O9 0.825319 0.500000 0.977220
O O10 0.907950 0.743808 0.924463
O O11 0.750000 0.750000 0.000000
O O12 0.827704 0.697388 0.079976
O O13 0.500000 0.739330 0.500000
O O14 0.540523 0.500000 0.408920
O O15 0.750000 0.750000 0.500000
O O16 0.694270 0.000000 0.567706
O O17 0.871162 0.500000 0.155938
O O18 0.937328 0.240493 0.121863
O O19 0.982041 0.000000 0.895482
#
# Coordination Sequence:
#
# PCOD8106419 Si02
#       7
#     8   8   8   8   8   8   8
#     4   9  18  33  57  84 111 150 198 245 289 343
#     4  10  21  36  58  87 117 152 197 245 296 353
#     4  11  25  42  65  93 123 157 200 248 298 362
#     4   9  17  31  54  82 112 149 197 246 290 341
#     4  11  21  35  58  85 117 153 195 245 294 349
#     4  10  21  40  64  88 117 158 207 248 293 360
#     4  11  23  39  62  91 126 160 198 249 305 362
#
# _framework density 19.834710000000001
#
# number of rings (size 3 to 8) (size 9 to 14) (size 15 to 20)
#    0.000    1.857    1.429    2.571    2.000    5.714 
#    0.000    0.000    0.000    4.714    0.000    0.000 
#    0.000    0.000    0.000    0.000    0.000    0.000 
#
# Total GULP energy -347149.470026 kJ/mol
# GULP energy per Si atom -12398.195358 kJ/mol
# Density = 1.978957 g / cm^3
# Si number density = 19.834710 Si / 1000 Ang^3
#
#
#
# Elastic Constant Matrix: (Units=GPa)
#
#
# Indices 1 2 3 4 5 6 
#
# 1 121.6339 46.2579 40.3797 0.0000 -9.5169 0.0000
# 2 46.2579 91.1975 44.3575 0.0000 -3.8489 0.0001
# 3 40.3797 44.3575 101.8456 0.0000 -4.4943 0.0000
# 4 0.0000 0.0000 0.0000 27.9544 0.0000 -0.4936
# 5 -9.5169 -3.8489 -4.4943 0.0000 41.8180 0.0000
# 6 0.0000 0.0001 0.0000 -0.4936 0.0000 27.0170
#
#
#
# Elastic Compliance Matrix: (Units=1/GPa)
#
#
# Indices 1 2 3 4 5 6 
#
# 1 0.010751 -0.004241 -0.002336 0.000000 0.001805 0.000000
# 2 -0.004241 0.015602 -0.005117 0.000000 -0.000079 0.000000
# 3 -0.002336 -0.005117 0.012991 0.000000 0.000394 0.000000
# 4 0.000000 0.000000 0.000000 0.035784 0.000000 0.000654
# 5 0.001805 -0.000079 0.000394 0.000000 0.024359 0.000000
# 6 0.000000 0.000000 0.000000 0.000654 0.000000 0.037026
#
#
# Mechanical properties :
#
#
# Convention : Reuss Voigt Hill
#
# Bulk Modulus (GPa) = 62.67249 64.07413 63.37331
# Shear Modulus (GPa) = 30.26283 31.60335 30.93309
#
# Velocity S-wave (km/s) = 3.91032 3.99599 3.95339
# Velocity P-wave (km/s) = 7.21481 7.32562 7.27043
#
# Compressibility (1/GPa) = 0.01595596
#
# Stress axis : x y z
#
# Youngs Moduli (GPa) = 93.01555 64.09458 76.97630
#
# Poissons Ratio (x) = 0.27182 0.17980
# Poissons Ratio (y) = 0.39447 0.39391
# Poissons Ratio (z) = 0.21727 0.32799
#
# Static dielectric constant tensor:
#      x y z
#    x 3.847190 0.000000 -0.135330 
#    y 0.000000 5.539920 0.000000 
#    z -0.135330 0.000000 3.754080 
# 
# 
# High freq. dielectric constant tensor:
#      x y z
#    x 1.783250 0.000000 -0.003290 
#    y 0.000000 1.743050 0.000000 
#    z -0.003290 0.000000 1.789380 
# 
# From -- ./inp_files/275261.got.cif
#   From: 2010.06.25/outbox.cif.g09.slc.cpg/sg12_138_cif.got.tgz:275261.got - 2010.06.28 00:19:55.
