data_PCOD8106925
_publ_section_title
;
Structure prediction by ZEFSAII (Michael W. Deem and Ramdas Pophale) SiO2 
 PCOD8106925
Probable space group: C 2/M
;
_chemical_formula_sum "Si O2"
_cell_formula_units_Z 48
_cell_length_a 10.000186
_cell_length_b 8.994774
_cell_length_c 26.302191
_cell_angle_alpha 90.000000
_cell_angle_beta 90.445526
_cell_angle_gamma 90.000000
_cell_volume 2365.795117
_symmetry_space_group_name_H-M "C 2/M"
_symmetry_group_IT_number 12
_symmetry_cell_setting 'monoclinic'
loop_
_space_group_symop_operation_xyz
x,y,z
-x,y,-z
-x,-y,-z
x,-y,z
1/2+x,1/2+y,z
1/2-x,1/2+y,-z
1/2-x,1/2-y,-z
1/2+x,1/2-y,z
loop_
_atom_site_type_symbol
_atom_site_label
_atom_site_fract_x
_atom_site_fract_y
_atom_site_fract_z
Si Si1 0.038606 0.327345 0.612077
Si Si2 0.768846 0.672844 0.553657
Si Si3 0.263407 0.329008 0.226917
Si Si4 0.474869 0.675327 0.056394
Si Si5 0.211093 0.673699 0.111722
Si Si6 0.533278 0.328403 0.284623
O O1 0.074636 0.500000 0.616616
O O2 0.170280 0.240855 0.595118
O O3 0.920696 0.300959 0.571345
O O4 0.994116 0.269006 0.666264
O O5 0.735670 0.500000 0.547913
O O6 0.750000 0.750000 0.500000
O O7 0.219383 0.500000 0.234692
O O8 0.253204 0.280111 0.168471
O O9 0.416312 0.304515 0.243412
O O10 0.171417 0.224248 0.260673
O O11 0.493697 0.500000 0.057637
O O12 0.327190 0.722929 0.073214
O O13 0.577417 0.741599 0.096907
O O14 0.500000 0.739585 0.000000
O O15 0.183117 0.500000 0.107652
O O16 0.546465 0.500000 0.300748
#
# Coordination Sequence:
#
# PCOD8106925 Si02
#       6
#     8   8   8   8   8   8
#     4  11  24  41  61  88 121 154 192 239 288 340
#     4  11  24  41  62  89 120 155 196 241 289 342
#     4  10  22  39  57  82 116 149 187 237 286 336
#     4  10  21  37  57  83 115 149 188 236 286 338
#     4  10  21  37  57  82 113 149 189 234 284 339
#     4  11  23  39  61  87 115 151 193 235 284 342
#
# _framework density 20.289162999999999
#
# number of rings (size 3 to 8) (size 9 to 14) (size 15 to 20)
#    0.000    1.500    0.000    4.500    0.000   13.000 
#    0.000    0.000    0.000    0.000    0.000    0.000 
#    0.000    0.000    0.000    0.000    0.000    0.000 
#
# Total GULP energy -297768.310932 kJ/mol
# GULP energy per Si atom -12407.012956 kJ/mol
# Density = 2.024298 g / cm^3
# Si number density = 20.289163 Si / 1000 Ang^3
#
#
#
# Elastic Constant Matrix: (Units=GPa)
#
#
# Indices 1 2 3 4 5 6 
#
# 1 53.9069 30.8887 -5.5797 0.0000 -7.5590 0.0000
# 2 30.8887 74.3495 22.9180 0.0000 3.4685 0.0000
# 3 -5.5797 22.9180 85.3007 0.0000 -1.6706 0.0000
# 4 0.0000 0.0000 0.0000 31.2064 0.0000 0.6467
# 5 -7.5590 3.4685 -1.6706 0.0000 40.3888 0.0000
# 6 0.0000 0.0000 0.0000 0.6467 0.0000 38.5241
#
#
#
# Elastic Compliance Matrix: (Units=1/GPa)
#
#
# Indices 1 2 3 4 5 6 
#
# 1 0.027858 -0.013611 0.005609 0.000000 0.006615 0.000000
# 2 -0.013611 0.021397 -0.006730 0.000000 -0.004663 0.000000
# 3 0.005609 -0.006730 0.013942 0.000000 0.002204 0.000000
# 4 0.000000 0.000000 0.000000 0.032056 0.000000 -0.000538
# 5 0.006615 -0.004663 0.002204 0.000000 0.026489 0.000000
# 6 0.000000 0.000000 0.000000 -0.000538 0.000000 0.025967
#
#
# Mechanical properties :
#
#
# Convention : Reuss Voigt Hill
#
# Bulk Modulus (GPa) = 29.64663 34.44569 32.04616
# Shear Modulus (GPa) = 26.53693 33.04588 29.79140
#
# Velocity S-wave (km/s) = 3.62046 4.04015 3.83605
# Velocity P-wave (km/s) = 5.66752 6.22720 5.95394
#
# Compressibility (1/GPa) = 0.03373065
#
# Stress axis : x y z
#
# Youngs Moduli (GPa) = 35.89679 46.73575 71.72795
#
# Poissons Ratio (x) = 0.63612 -0.40230
# Poissons Ratio (y) = 0.48859 0.48276
# Poissons Ratio (z) = -0.20133 0.31455
#
# Static dielectric constant tensor:
#      x y z
#    x 3.850360 0.000000 -0.099030 
#    y 0.000000 3.739470 0.000000 
#    z -0.099030 0.000000 3.918610 
# 
# 
# High freq. dielectric constant tensor:
#      x y z
#    x 1.803760 0.000000 0.000140 
#    y 0.000000 1.793340 0.000000 
#    z 0.000140 0.000000 1.808190 
# 
# From -- ./inp_files/371864.got.cif
#   From: 2010.06.25/outbox.cif.g09.slc.cpg/sg12_186_cif.got.tgz:371864.got - 2010.06.28 00:19:55.
