data_PCOD8106369
_publ_section_title
;
Structure prediction by ZEFSAII (Michael W. Deem and Ramdas Pophale) SiO2 
 PCOD8106369
Probable space group: C 2/M
;
_chemical_formula_sum "Si O2"
_cell_formula_units_Z 56
_cell_length_a 13.830728
_cell_length_b 18.285274
_cell_length_c 14.140472
_cell_angle_alpha 90.000000
_cell_angle_beta 52.443732
_cell_angle_gamma 90.000000
_cell_volume 2834.976562
_symmetry_space_group_name_H-M "C 2/M"
_symmetry_group_IT_number 12
_symmetry_cell_setting 'monoclinic'
loop_
_space_group_symop_operation_xyz
x,y,z
-x,y,-z
-x,-y,-z
x,-y,z
1/2+x,1/2+y,z
1/2-x,1/2+y,-z
1/2-x,1/2-y,-z
1/2+x,1/2-y,z
loop_
_atom_site_type_symbol
_atom_site_label
_atom_site_fract_x
_atom_site_fract_y
_atom_site_fract_z
Si Si1 0.940183 0.915777 0.933834
Si Si2 0.740121 0.191075 0.088454
Si Si3 0.377004 0.798153 0.129084
Si Si4 0.542759 0.638232 0.681588
Si Si5 0.307375 0.583016 0.722250
Si Si6 0.036433 0.698335 0.712705
Si Si7 0.231128 0.583856 0.556178
O O1 0.016095 0.872933 0.808672
O O2 0.932018 0.000000 0.909707
O O3 0.803616 0.883798 0.017847
O O4 0.000000 0.903876 0.000000
O O5 0.812000 0.223731 0.135156
O O6 0.602401 0.171349 0.197270
O O7 0.750000 0.250000 0.000000
O O8 0.286824 0.866230 0.164466
O O9 0.405386 0.787803 0.220794
O O10 0.500000 0.814663 0.000000
O O11 0.443907 0.598797 0.674585
O O12 0.542860 0.724269 0.654584
O O13 0.673954 0.603227 0.582791
O O14 0.272584 0.500000 0.767269
O O15 0.298015 0.597778 0.616027
O O16 0.112799 0.635597 0.613489
O O17 0.187826 0.500000 0.571917
#
# Coordination Sequence:
#
# PCOD8106369 Si02
#       7
#     8   8   8   8   8   8   8
#     4  11  24  39  60  89 118 156 203 248 298 352
#     4  12  20  37  59  86 119 156 197 244 298 353
#     4  11  20  35  56  84 122 156 191 242 294 351
#     4  12  20  39  62  88 117 157 204 247 291 351
#     4  10  21  36  57  88 120 153 195 240 295 354
#     4  11  23  36  61  88 118 158 200 242 297 358
#     4  10  23  40  59  87 123 157 195 246 301 354
#
# _framework density 19.753250999999999
#
# number of rings (size 3 to 8) (size 9 to 14) (size 15 to 20)
#    0.000    1.000    4.286    3.429    0.000    2.000 
#    0.000    0.000    0.000    0.000    0.000    6.000 
#    0.000    0.000    0.000    0.000    0.000    0.000 
#
# Total GULP energy -347309.717081 kJ/mol
# GULP energy per Si atom -12403.918467 kJ/mol
# Density = 1.970829 g / cm^3
# Si number density = 19.753251 Si / 1000 Ang^3
#
#
#
# Elastic Constant Matrix: (Units=GPa)
#
#
# Indices 1 2 3 4 5 6 
#
# 1 58.9340 34.9844 46.0343 -0.0001 -24.8136 0.0001
# 2 34.9844 120.5993 47.1276 0.0000 -19.9432 0.0000
# 3 46.0343 47.1276 103.9162 0.0000 -31.7745 0.0000
# 4 -0.0001 0.0000 0.0000 30.0680 0.0000 -8.1903
# 5 -24.8136 -19.9432 -31.7745 0.0000 35.3548 0.0000
# 6 0.0001 0.0000 0.0000 -8.1903 0.0000 37.7485
#
#
#
# Elastic Compliance Matrix: (Units=1/GPa)
#
#
# Indices 1 2 3 4 5 6 
#
# 1 0.030650 -0.003686 -0.008224 0.000000 0.012041 0.000000
# 2 -0.003686 0.010644 -0.002964 0.000000 0.000753 0.000000
# 3 -0.008224 -0.002964 0.017009 0.000000 0.007842 0.000000
# 4 0.000000 0.000000 0.000000 0.035347 0.000000 0.007669
# 5 0.012041 0.000753 0.007842 0.000000 0.044208 0.000000
# 6 0.000000 0.000000 0.000000 0.007669 0.000000 0.028155
#
#
# Mechanical properties :
#
#
# Convention : Reuss Voigt Hill
#
# Bulk Modulus (GPa) = 35.02169 59.97135 47.49652
# Shear Modulus (GPa) = 24.35695 30.98781 27.67238
#
# Velocity S-wave (km/s) = 3.51531 3.96504 3.74692
# Velocity P-wave (km/s) = 5.85189 7.16855 6.54342
#
# Compressibility (1/GPa) = 0.02855374
#
# Stress axis : x y z
#
# Youngs Moduli (GPa) = 32.62615 93.94911 58.79397
#
# Poissons Ratio (x) = 0.34631 0.48355
# Poissons Ratio (y) = 0.12027 0.17426
# Poissons Ratio (z) = 0.26833 0.27846
#
# Static dielectric constant tensor:
#      x y z
#    x 3.644440 0.000000 -0.117420 
#    y 0.000000 3.814320 0.000000 
#    z -0.117420 0.000000 3.501150 
# 
# 
# High freq. dielectric constant tensor:
#      x y z
#    x 1.766410 0.000000 -0.005970 
#    y 0.000000 1.778110 0.000000 
#    z -0.005970 0.000000 1.765480 
# 
# From -- ./inp_files/145637.got.cif
#   From: 2010.06.25/outbox.cif.g09.slc.cpg/sg12_73_cif.got.tgz:145637.got - 2010.06.28 00:19:55.
