data_PCOD8106599
_publ_section_title
;
Structure prediction by ZEFSAII (Michael W. Deem and Ramdas Pophale) SiO2 
 PCOD8106599
Probable space group: C 2/M
;
_chemical_formula_sum "Si O2"
_cell_formula_units_Z 44
_cell_length_a 9.907734
_cell_length_b 16.302964
_cell_length_c 14.579288
_cell_angle_alpha 90.000000
_cell_angle_beta 67.841004
_cell_angle_gamma 90.000000
_cell_volume 2180.992725
_symmetry_space_group_name_H-M "C 2/M"
_symmetry_group_IT_number 12
_symmetry_cell_setting 'monoclinic'
loop_
_space_group_symop_operation_xyz
x,y,z
-x,y,-z
-x,-y,-z
x,-y,z
1/2+x,1/2+y,z
1/2-x,1/2+y,-z
1/2-x,1/2-y,-z
1/2+x,1/2-y,z
loop_
_atom_site_type_symbol
_atom_site_label
_atom_site_fract_x
_atom_site_fract_y
_atom_site_fract_z
Si Si1 0.309548 0.800459 0.687102
Si Si2 0.152547 0.326556 0.001974
Si Si3 0.960916 0.408926 0.789910
Si Si4 0.077350 0.905988 0.644814
Si Si5 0.740677 0.366517 0.211283
Si Si6 0.000000 0.201591 0.500000
O O1 0.431305 0.850899 0.710900
O O2 0.179411 0.860825 0.692176
O O3 0.248011 0.730516 0.769965
O O4 0.383480 0.759219 0.579918
O O5 0.128668 0.380918 0.097916
O O6 0.250000 0.250000 0.000000
O O7 0.233621 0.380824 0.903637
O O8 0.000000 0.294523 0.000000
O O9 0.908356 0.500000 0.778371
O O10 0.133692 0.410888 0.763104
O O11 0.912637 0.905507 0.723092
O O12 0.088369 0.857011 0.546632
O O13 0.128422 0.000000 0.617879
#
# Coordination Sequence:
#
# PCOD8106599 Si02
#       6
#     8   8   8   8   8   4
#     4  11  22  41  63  88 117 156 201 244 298 361
#     4  10  21  36  61  88 120 163 205 235 283 352
#     4  11  23  39  60  90 125 157 197 250 296 343
#     4  11  23  39  62  91 120 149 195 256 302 345
#     4  10  21  38  63  85 121 164 202 232 291 359
#     4  10  23  42  63  84 116 158 202 234 299 378
#
# _framework density 20.174301
#
# number of rings (size 3 to 8) (size 9 to 14) (size 15 to 20)
#    0.000    1.455    1.818    4.091    2.545    5.455 
#    0.000    5.455    0.000    2.727    0.000    0.000 
#    0.000    0.000    0.000    0.000    0.000    0.000 
#
# Total GULP energy -272863.890285 kJ/mol
# GULP energy per Si atom -12402.904104 kJ/mol
# Density = 2.012838 g / cm^3
# Si number density = 20.174301 Si / 1000 Ang^3
#
#
#
# Elastic Constant Matrix: (Units=GPa)
#
#
# Indices 1 2 3 4 5 6 
#
# 1 72.9594 33.2603 35.0765 0.0000 4.8422 0.0000
# 2 33.2603 128.8502 31.2019 0.0000 0.7869 0.0000
# 3 35.0765 31.2019 102.5638 0.0000 -6.8286 0.0000
# 4 0.0000 0.0000 0.0000 15.2194 0.0000 1.5037
# 5 4.8422 0.7869 -6.8286 0.0000 28.1753 0.0000
# 6 0.0000 0.0000 0.0000 1.5037 0.0000 26.9902
#
#
#
# Elastic Compliance Matrix: (Units=1/GPa)
#
#
# Indices 1 2 3 4 5 6 
#
# 1 0.018150 -0.003331 -0.005484 0.000000 -0.004355 0.000000
# 2 -0.003331 0.009010 -0.001607 0.000000 -0.000069 0.000000
# 3 -0.005484 -0.001607 0.012380 0.000000 0.003988 0.000000
# 4 0.000000 0.000000 0.000000 0.066069 0.000000 -0.003681
# 5 -0.004355 -0.000069 0.003988 0.000000 0.037209 0.000000
# 6 0.000000 0.000000 0.000000 -0.003681 0.000000 0.037256
#
#
# Mechanical properties :
#
#
# Convention : Reuss Voigt Hill
#
# Bulk Modulus (GPa) = 53.48240 55.93898 54.71069
# Shear Modulus (GPa) = 24.13721 27.73263 25.93492
#
# Velocity S-wave (km/s) = 3.46270 3.71165 3.58934
# Velocity P-wave (km/s) = 6.52340 6.79386 6.66000
#
# Compressibility (1/GPa) = 0.01869774
#
# Stress axis : x y z
#
# Youngs Moduli (GPa) = 55.09594 110.98617 80.77668
#
# Poissons Ratio (x) = 0.36964 0.44298
# Poissons Ratio (y) = 0.18350 0.12978
# Poissons Ratio (z) = 0.30215 0.17831
#
# Static dielectric constant tensor:
#      x y z
#    x 3.640750 0.000000 0.111910 
#    y 0.000000 3.626350 0.000000 
#    z 0.111910 0.000000 3.850960 
# 
# 
# High freq. dielectric constant tensor:
#      x y z
#    x 1.789050 0.000000 0.004600 
#    y 0.000000 1.788310 0.000000 
#    z 0.004600 0.000000 1.793350 
# 
# From -- ./inp_files/195382.got.cif
#   From: 2010.06.25/outbox.cif.g09.slc.cpg/sg12_98_cif.got.tgz:195382.got - 2010.06.28 00:19:55.
