data_PCOD8106279
_publ_section_title
;
Structure prediction by ZEFSAII (Michael W. Deem and Ramdas Pophale) SiO2 
 PCOD8106279
Probable space group: C 2/M
;
_chemical_formula_sum "Si O2"
_cell_formula_units_Z 56
_cell_length_a 23.770284
_cell_length_b 11.210081
_cell_length_c 11.889770
_cell_angle_alpha 90.000000
_cell_angle_beta 76.530167
_cell_angle_gamma 90.000000
_cell_volume 3081.079637
_symmetry_space_group_name_H-M "C 2/M"
_symmetry_group_IT_number 12
_symmetry_cell_setting 'monoclinic'
loop_
_space_group_symop_operation_xyz
x,y,z
-x,y,-z
-x,-y,-z
x,-y,z
1/2+x,1/2+y,z
1/2-x,1/2+y,-z
1/2-x,1/2-y,-z
1/2+x,1/2-y,z
loop_
_atom_site_type_symbol
_atom_site_label
_atom_site_fract_x
_atom_site_fract_y
_atom_site_fract_z
Si Si1 0.135644 0.862189 0.066300
Si Si2 0.395440 0.638467 0.584713
Si Si3 0.479860 0.000000 0.827344
Si Si4 0.660487 0.237568 0.830498
Si Si5 0.035719 0.755163 0.248958
Si Si6 0.716946 0.362742 0.229259
Si Si7 0.906132 0.500000 0.079119
Si Si8 0.086889 0.860387 0.679676
O O1 0.079321 0.788154 0.128390
O O2 0.189426 0.829362 0.121500
O O3 0.119643 0.000000 0.088570
O O4 0.152263 0.835703 0.930988
O O5 0.411186 0.500000 0.595589
O O6 0.439484 0.713486 0.640266
O O7 0.329500 0.663596 0.651235
O O8 0.403752 0.678763 0.453299
O O9 0.475826 0.885711 0.748794
O O10 0.541180 0.000000 0.859673
O O11 0.427989 0.000000 0.941124
O O12 0.728269 0.220879 0.774653
O O13 0.632830 0.114973 0.883835
O O14 0.632513 0.285521 0.729908
O O15 0.977454 0.828140 0.251604
O O16 0.736621 0.500000 0.222756
O O17 0.098329 0.000000 0.691680
#
# Coordination Sequence:
#
# PCOD8106279 Si02
#       8
#     8   8   4   8   8   8   4   8
#     4  10  21  36  56  88 115 142 187 235 285 334
#     4   9  20  40  61  84 110 146 192 237 287 329
#     4  11  22  38  56  85 120 153 188 221 279 344
#     4  12  21  36  58  83 115 151 191 226 281 339
#     4  11  20  37  61  84 113 148 185 233 279 340
#     4   9  19  36  60  80 108 150 189 233 279 333
#     4  11  22  38  53  82 121 160 181 217 283 353
#     4  11  23  37  58  85 114 149 187 235 287 333
#
# _framework density 18.175446000000001
#
# number of rings (size 3 to 8) (size 9 to 14) (size 15 to 20)
#    0.000    1.571    3.571    3.429    0.000    2.286 
#    0.000    3.571    6.286    0.000    0.000    0.000 
#    0.000    0.000    0.000    0.000    0.000    0.000 
#
# Total GULP energy -347337.195925 kJ/mol
# GULP energy per Si atom -12404.899854 kJ/mol
# Density = 1.813408 g / cm^3
# Si number density = 18.175446 Si / 1000 Ang^3
#
#
#
# Elastic Constant Matrix: (Units=GPa)
#
#
# Indices 1 2 3 4 5 6 
#
# 1 104.8856 29.9040 46.9927 0.0000 1.8174 0.0000
# 2 29.9040 55.7138 26.6838 0.0000 3.8543 0.0000
# 3 46.9927 26.6838 76.3269 0.0000 10.1773 0.0000
# 4 0.0000 0.0000 0.0000 29.3624 0.0000 3.2485
# 5 1.8174 3.8543 10.1773 0.0000 22.6292 0.0000
# 6 0.0000 0.0000 0.0000 3.2485 0.0000 33.1310
#
#
#
# Elastic Compliance Matrix: (Units=1/GPa)
#
#
# Indices 1 2 3 4 5 6 
#
# 1 0.014070 -0.004107 -0.007627 0.000000 0.003000 0.000000
# 2 -0.004107 0.022759 -0.005271 0.000000 -0.001176 0.000000
# 3 -0.007627 -0.005271 0.020679 0.000000 -0.007790 0.000000
# 4 0.000000 0.000000 0.000000 0.034431 0.000000 -0.003376
# 5 0.003000 -0.001176 -0.007790 0.000000 0.047653 0.000000
# 6 0.000000 0.000000 0.000000 -0.003376 0.000000 0.030514
#
#
# Mechanical properties :
#
#
# Convention : Reuss Voigt Hill
#
# Bulk Modulus (GPa) = 42.55663 49.34301 45.94982
# Shear Modulus (GPa) = 23.59051 25.91423 24.75237
#
# Velocity S-wave (km/s) = 3.60659 3.78005 3.69434
# Velocity P-wave (km/s) = 6.38815 6.80138 6.59800
#
# Compressibility (1/GPa) = 0.02349810
#
# Stress axis : x y z
#
# Youngs Moduli (GPa) = 71.07180 43.93829 48.35859
#
# Poissons Ratio (x) = 0.18044 0.36883
# Poissons Ratio (y) = 0.29187 0.25492
# Poissons Ratio (z) = 0.54206 0.23162
#
# Static dielectric constant tensor:
#      x y z
#    x 3.359190 0.000000 -0.040900 
#    y 0.000000 3.272560 0.000000 
#    z -0.040900 0.000000 3.329130 
# 
# 
# High freq. dielectric constant tensor:
#      x y z
#    x 1.709870 0.000000 -0.004280 
#    y 0.000000 1.700950 0.000000 
#    z -0.004280 0.000000 1.702910 
# 
# From -- ./inp_files/165657.got.cif
#   From: 2010.06.25/outbox.cif.g09.slc.cpg/sg12_83_cif.got.tgz:165657.got - 2010.06.28 00:19:55.
