data_PCOD8106414
_publ_section_title
;
Structure prediction by ZEFSAII (Michael W. Deem and Ramdas Pophale) SiO2 
 PCOD8106414
Probable space group: C 2/M
;
_chemical_formula_sum "Si O2"
_cell_formula_units_Z 48
_cell_length_a 27.039196
_cell_length_b 9.268045
_cell_length_c 13.349309
_cell_angle_alpha 90.000000
_cell_angle_beta 46.192015
_cell_angle_gamma 90.000000
_cell_volume 2414.213037
_symmetry_space_group_name_H-M "C 2/M"
_symmetry_group_IT_number 12
_symmetry_cell_setting 'monoclinic'
loop_
_space_group_symop_operation_xyz
x,y,z
-x,y,-z
-x,-y,-z
x,-y,z
1/2+x,1/2+y,z
1/2-x,1/2+y,-z
1/2-x,1/2-y,-z
1/2+x,1/2-y,z
loop_
_atom_site_type_symbol
_atom_site_label
_atom_site_fract_x
_atom_site_fract_y
_atom_site_fract_z
Si Si1 0.533465 0.170195 0.559357
Si Si2 0.187260 0.155710 0.113067
Si Si3 0.716053 0.832944 0.639707
Si Si4 0.575142 0.832032 0.939706
Si Si5 0.938640 0.171615 0.836011
Si Si6 0.166894 0.158155 0.372574
O O1 0.500000 0.220789 0.500000
O O2 0.504665 0.251566 0.697090
O O3 0.612673 0.213171 0.455840
O O4 0.524886 0.000000 0.584990
O O5 0.119001 0.221998 0.161771
O O6 0.184522 0.139994 0.233781
O O7 0.198347 0.000000 0.046772
O O8 0.250000 0.250000 0.000000
O O9 0.750000 0.750000 0.500000
O O10 0.637078 0.786983 0.776591
O O11 0.763491 0.798357 0.668640
O O12 0.716602 0.000000 0.609852
O O13 0.583733 0.000000 0.957206
O O14 0.500000 0.802834 0.000000
O O15 0.581274 0.732516 0.028157
O O16 0.950159 0.000000 0.825572
O O17 0.139856 0.000000 0.449206
#
# Coordination Sequence:
#
# PCOD8106414 Si02
#       6
#     8   8   8   8   8   8
#     4  11  23  38  60  92 125 163 207 253 307 369
#     4  10  21  36  58  86 119 157 198 247 306 370
#     4  10  23  42  65  92 125 166 208 259 314 369
#     4  10  23  44  67  92 126 166 210 260 314 370
#     4  11  23  39  62  91 125 162 202 254 312 371
#     4  10  21  39  60  85 122 164 203 249 309 371
#
# _framework density 19.882255000000001
#
# number of rings (size 3 to 8) (size 9 to 14) (size 15 to 20)
#    0.000    1.667    1.667    2.000    2.333    5.667 
#    0.000    0.000    0.000    0.000    0.000    0.000 
#    0.000    0.000    0.000    0.000    0.000    0.000 
#
# Total GULP energy -297474.179154 kJ/mol
# GULP energy per Si atom -12394.757465 kJ/mol
# Density = 1.983700 g / cm^3
# Si number density = 19.882255 Si / 1000 Ang^3
#
#
#
# Elastic Constant Matrix: (Units=GPa)
#
#
# Indices 1 2 3 4 5 6 
#
# 1 117.5247 39.0155 52.3891 0.0000 -6.6786 0.0000
# 2 39.0155 83.9451 61.0360 0.0000 0.8475 -0.0001
# 3 52.3891 61.0360 141.2431 0.0000 -6.2292 0.0000
# 4 0.0000 0.0000 0.0000 40.4293 0.0000 -0.9989
# 5 -6.6786 0.8475 -6.2292 0.0000 35.8156 0.0000
# 6 0.0000 -0.0001 0.0000 -0.9989 0.0000 -66.3208
#
#
#
# Elastic Compliance Matrix: (Units=1/GPa)
#
#
# Indices 1 2 3 4 5 6 
#
# 1 0.010797 -0.003172 -0.002561 0.000000 0.001643 0.000000
# 2 -0.003172 0.018409 -0.006877 0.000000 -0.002223 0.000000
# 3 -0.002561 -0.006877 0.011073 0.000000 0.001611 0.000000
# 4 0.000000 0.000000 0.000000 0.024725 0.000000 -0.000372
# 5 0.001643 -0.002223 0.001611 0.000000 0.028560 0.000000
# 6 0.000000 0.000000 0.000000 -0.000372 0.000000 -0.015073
#
#
# Mechanical properties :
#
#
# Convention : Reuss Voigt Hill
#
# Bulk Modulus (GPa) = 66.40874 71.95490 69.18182
# Shear Modulus (GPa) = 45.98428 14.66963 30.32695
#
# Velocity S-wave (km/s) = 4.81441 2.71924 3.90978
# Velocity P-wave (km/s) = 8.02360 6.79177 7.43325
#
# Compressibility (1/GPa) = 0.01505826
#
# Stress axis : x y z
#
# Youngs Moduli (GPa) = 92.61646 54.31984 90.31138
#
# Poissons Ratio (x) = 0.17232 0.23133
# Poissons Ratio (y) = 0.29382 0.62105
# Poissons Ratio (z) = 0.23724 0.37354
#
# Static dielectric constant tensor:
#      x y z
#    x 3.697930 0.000000 -0.179890 
#    y 0.000000 3.551690 0.000000 
#    z -0.179890 0.000000 3.607490 
# 
# 
# High freq. dielectric constant tensor:
#      x y z
#    x 1.781010 0.000000 -0.005500 
#    y 0.000000 1.775150 0.000000 
#    z -0.005500 0.000000 1.778840 
# 
# From -- ./inp_files/244686.got.cif
#   From: 2010.06.25/outbox.cif.g09.slc.cpg/sg12_123_cif.got.tgz:244686.got - 2010.06.28 00:19:55.
