data_PCOD8106698
_publ_section_title
;
Structure prediction by ZEFSAII (Michael W. Deem and Ramdas Pophale) SiO2 
 PCOD8106698
Probable space group: C 2/M
;
_chemical_formula_sum "Si O2"
_cell_formula_units_Z 56
_cell_length_a 19.982048
_cell_length_b 9.180171
_cell_length_c 30.899340
_cell_angle_alpha 90.000000
_cell_angle_beta 147.545462
_cell_angle_gamma 90.000000
_cell_volume 3041.691153
_symmetry_space_group_name_H-M "C 2/M"
_symmetry_group_IT_number 12
_symmetry_cell_setting 'monoclinic'
loop_
_space_group_symop_operation_xyz
x,y,z
-x,y,-z
-x,-y,-z
x,-y,z
1/2+x,1/2+y,z
1/2-x,1/2+y,-z
1/2-x,1/2-y,-z
1/2+x,1/2-y,z
loop_
_atom_site_type_symbol
_atom_site_label
_atom_site_fract_x
_atom_site_fract_y
_atom_site_fract_z
Si Si1 0.614890 0.168866 0.161773
Si Si2 0.237674 0.830185 0.304845
Si Si3 0.234661 0.170251 0.593230
Si Si4 0.912763 0.327978 0.988762
Si Si5 0.036906 0.331189 0.342536
Si Si6 0.301631 0.331541 0.184357
Si Si7 0.518576 0.169613 0.430032
O O1 0.641670 0.270889 0.216987
O O2 0.473459 0.211350 0.068503
O O3 0.714161 0.200014 0.177962
O O4 0.621521 0.000000 0.179422
O O5 0.211290 0.745507 0.334622
O O6 0.376832 0.799110 0.364770
O O7 0.212719 0.000000 0.298564
O O8 0.330473 0.200630 0.606676
O O9 0.102536 0.239962 0.508934
O O10 0.216232 0.000000 0.591963
O O11 0.919480 0.500000 0.986328
O O12 0.770328 0.281119 0.899515
O O13 0.000000 0.254734 0.000000
O O14 0.003142 0.500000 0.325032
O O15 0.041896 0.271561 0.394250
O O16 0.929201 0.255912 0.256163
O O17 0.337801 0.500000 0.202048
O O18 0.553310 0.000000 0.453702
#
# Coordination Sequence:
#
# PCOD8106698 Si02
#       7
#     8   8   8   8   8   8   8
#     4   9  16  29  51  78 107 137 172 211 252 302
#     4  11  22  36  55  77 107 140 170 212 264 312
#     4  11  24  38  54  76 103 137 178 218 256 305
#     4   7  12  24  44  74 108 135 163 207 256 297
#     4  10  21  37  54  76 108 140 169 212 264 308
#     4   9  16  28  51  80 106 136 173 210 251 304
#     4  10  21  38  57  76 102 135 171 214 267 312
#
# _framework density 18.410810000000001
#
# number of rings (size 3 to 8) (size 9 to 14) (size 15 to 20)
#    0.000    2.429    1.429    3.429    0.000    4.571 
#    0.000    0.714    0.000    3.429    0.000    0.000 
#    0.000    0.000    0.000    0.000    0.000    0.000 
#
# Total GULP energy -347063.427567 kJ/mol
# GULP energy per Si atom -12395.122413 kJ/mol
# Density = 1.836891 g / cm^3
# Si number density = 18.410810 Si / 1000 Ang^3
#
#
#
# Elastic Constant Matrix: (Units=GPa)
#
#
# Indices 1 2 3 4 5 6 
#
# 1 42.0175 22.7547 9.4007 0.0000 -14.4939 0.0000
# 2 22.7547 58.9706 40.4657 0.0000 -8.4292 0.0001
# 3 9.4007 40.4657 123.9414 0.0000 -15.9481 0.0000
# 4 0.0000 0.0000 0.0000 31.1937 0.0000 0.6089
# 5 -14.4939 -8.4292 -15.9481 0.0000 16.9226 0.0000
# 6 0.0000 0.0001 0.0000 0.6089 0.0000 21.3362
#
#
#
# Elastic Compliance Matrix: (Units=1/GPa)
#
#
# Indices 1 2 3 4 5 6 
#
# 1 0.043162 -0.016099 0.006495 0.000000 0.035070 0.000000
# 2 -0.016099 0.028197 -0.009049 0.000000 -0.008272 0.000000
# 3 0.006495 -0.009049 0.012138 0.000000 0.012494 0.000000
# 4 0.000000 0.000000 0.000000 0.032076 0.000000 -0.000915
# 5 0.035070 -0.008272 0.012494 0.000000 0.096784 0.000000
# 6 0.000000 0.000000 0.000000 -0.000915 0.000000 0.046895
#
#
# Mechanical properties :
#
#
# Convention : Reuss Voigt Hill
#
# Bulk Modulus (GPa) = 21.64941 41.13019 31.38980
# Shear Modulus (GPa) = 16.02798 24.04440 20.03619
#
# Velocity S-wave (km/s) = 2.95375 3.61777 3.30249
# Velocity P-wave (km/s) = 4.83916 6.31188 5.62393
#
# Compressibility (1/GPa) = 0.04619063
#
# Stress axis : x y z
#
# Youngs Moduli (GPa) = 23.16846 35.46489 82.38641
#
# Poissons Ratio (x) = 0.57094 -0.53510
# Poissons Ratio (y) = 0.37298 0.74554
# Poissons Ratio (z) = -0.15048 0.32093
#
# Static dielectric constant tensor:
#      x y z
#    x 3.133930 0.000000 -0.111210 
#    y 0.000000 3.203840 0.000000 
#    z -0.111210 0.000000 3.705900 
# 
# 
# High freq. dielectric constant tensor:
#      x y z
#    x 1.679730 0.000000 -0.007490 
#    y 0.000000 1.697980 0.000000 
#    z -0.007490 0.000000 1.733220 
# 
# From -- ./inp_files/275126.got.cif
#   From: 2010.06.25/outbox.cif.g09.slc.cpg/sg12_138_cif.got.tgz:275126.got - 2010.06.28 00:19:55.
