data_PCOD8106412
_publ_section_title
;
Structure prediction by ZEFSAII (Michael W. Deem and Ramdas Pophale) SiO2 
 PCOD8106412
Probable space group: C 2/M
;
_chemical_formula_sum "Si O2"
_cell_formula_units_Z 64
_cell_length_a 29.786310
_cell_length_b 9.288806
_cell_length_c 19.100164
_cell_angle_alpha 90.000000
_cell_angle_beta 37.942207
_cell_angle_gamma 90.000000
_cell_volume 3249.334291
_symmetry_space_group_name_H-M "C 2/M"
_symmetry_group_IT_number 12
_symmetry_cell_setting 'monoclinic'
loop_
_space_group_symop_operation_xyz
x,y,z
-x,y,-z
-x,-y,-z
x,-y,z
1/2+x,1/2+y,z
1/2-x,1/2+y,-z
1/2-x,1/2-y,-z
1/2+x,1/2-y,z
loop_
_atom_site_type_symbol
_atom_site_label
_atom_site_fract_x
_atom_site_fract_y
_atom_site_fract_z
Si Si1 0.080557 0.170644 0.917592
Si Si2 0.543583 0.837705 0.620227
Si Si3 0.799723 0.835105 0.340205
Si Si4 0.580832 0.161816 0.420061
Si Si5 0.903058 0.164561 0.807915
Si Si6 0.697225 0.666466 0.193703
Si Si7 0.154063 0.832404 0.970513
Si Si8 0.838346 0.835361 0.453111
O O1 0.139581 0.226209 0.788074
O O2 0.105642 0.219861 0.964160
O O3 0.076197 0.000000 0.917826
O O4 0.000000 0.235586 0.000000
O O5 0.590076 0.836840 0.492081
O O6 0.464066 0.771511 0.703598
O O7 0.585233 0.741730 0.625732
O O8 0.534647 0.000000 0.659711
O O9 0.830549 0.822349 0.379963
O O10 0.726823 0.740475 0.423907
O O11 0.779247 0.000000 0.347228
O O12 0.500000 0.212861 0.500000
O O13 0.636418 0.275905 0.321007
O O14 0.595336 0.000000 0.372869
O O15 0.829302 0.191017 0.853779
O O16 0.929321 0.000000 0.766174
O O17 0.890475 0.200648 0.904500
O O18 0.710227 0.500000 0.193699
O O19 0.771058 0.748060 0.118819
O O20 0.173435 0.000000 0.939813
O O21 0.841389 0.000000 0.474101
#
# Coordination Sequence:
#
# PCOD8106412 Si02
#       8
#     8   8   8   8   8   8   8   8
#     4   9  19  36  61  88 111 145 195 242 280 332
#     4  11  23  37  59  86 115 152 195 241 288 349
#     4   9  19  37  60  85 114 150 193 238 286 343
#     4  10  21  39  59  82 113 152 195 235 283 345
#     4  10  22  39  59  86 118 155 198 243 292 341
#     4  11  23  38  59  87 121 154 191 244 295 346
#     4  10  22  39  62  87 115 155 200 239 283 347
#     4  10  21  36  58  86 118 152 187 237 293 349
#
# _framework density 19.696342000000001
#
# number of rings (size 3 to 8) (size 9 to 14) (size 15 to 20)
#    0.000    2.000    1.250    1.500    3.500    2.750 
#    0.000    0.000    0.000    0.750    0.000    0.000 
#    0.000    0.000    0.000    0.000    0.000    0.000 
#
# Total GULP energy -396876.999575 kJ/mol
# GULP energy per Si atom -12402.406237 kJ/mol
# Density = 1.965151 g / cm^3
# Si number density = 19.696342 Si / 1000 Ang^3
#
#
#
# Elastic Constant Matrix: (Units=GPa)
#
#
# Indices 1 2 3 4 5 6 
#
# 1 115.5238 50.6323 47.2502 -0.0035 -9.8903 0.0015
# 2 50.6323 82.9343 42.4743 -0.0060 -7.1963 0.0045
# 3 47.2502 42.4743 102.4607 -0.0005 4.4711 0.0001
# 4 -0.0035 -0.0060 -0.0005 21.1532 0.0006 0.3337
# 5 -9.8903 -7.1963 4.4711 0.0006 27.9159 -0.0014
# 6 0.0015 0.0045 0.0001 0.3337 -0.0014 25.2984
#
#
#
# Elastic Compliance Matrix: (Units=1/GPa)
#
#
# Indices 1 2 3 4 5 6 
#
# 1 0.013026 -0.005669 -0.003821 0.000000 0.003766 0.000000
# 2 -0.005669 0.018500 -0.005212 0.000004 0.003595 -0.000003
# 3 -0.003821 -0.005212 0.013897 -0.000002 -0.004923 0.000001
# 4 0.000000 0.000004 -0.000002 0.047284 0.000000 -0.000624
# 5 0.003766 0.003595 -0.004923 0.000000 0.038871 0.000001
# 6 0.000000 -0.000003 0.000001 -0.000624 0.000001 0.039536
#
#
# Mechanical properties :
#
#
# Convention : Reuss Voigt Hill
#
# Bulk Modulus (GPa) = 62.42364 64.62583 63.52473
# Shear Modulus (GPa) = 24.28856 25.57765 24.93311
#
# Velocity S-wave (km/s) = 3.51543 3.60752 3.56177
# Velocity P-wave (km/s) = 6.94547 7.08763 7.01691
#
# Compressibility (1/GPa) = 0.01601957
#
# Stress axis : x y z
#
# Youngs Moduli (GPa) = 76.76865 54.05516 71.95592
#
# Poissons Ratio (x) = 0.30642 0.27498
# Poissons Ratio (y) = 0.43518 0.37501
# Poissons Ratio (z) = 0.29337 0.28171
#
# Static dielectric constant tensor:
#      x y z
#    x 3.693200 -0.000020 0.019270 
#    y -0.000020 3.512630 0.000030 
#    z 0.019270 0.000030 3.634380 
# 
# 
# High freq. dielectric constant tensor:
#      x y z
#    x 1.776990 0.000000 0.001620 
#    y 0.000000 1.754270 0.000000 
#    z 0.001620 0.000000 1.764910 
# 
# From -- ./inp_files/295481.got.cif
#   From: 2010.06.25/outbox.cif.g09.slc.cpg/sg12_148_cif.got.tgz:295481.got - 2010.06.28 00:19:55.
