data_PCOD8106752
_publ_section_title
;
Structure prediction by ZEFSAII (Michael W. Deem and Ramdas Pophale) SiO2 
 PCOD8106752
Probable space group: C 2/M
;
_chemical_formula_sum "Si O2"
_cell_formula_units_Z 40
_cell_length_a 30.908045
_cell_length_b 7.651113
_cell_length_c 19.924434
_cell_angle_alpha 90.000000
_cell_angle_beta 25.560858
_cell_angle_gamma 90.000000
_cell_volume 2032.976235
_symmetry_space_group_name_H-M "C 2/M"
_symmetry_group_IT_number 12
_symmetry_cell_setting 'monoclinic'
loop_
_space_group_symop_operation_xyz
x,y,z
-x,y,-z
-x,-y,-z
x,-y,z
1/2+x,1/2+y,z
1/2-x,1/2+y,-z
1/2-x,1/2-y,-z
1/2+x,1/2-y,z
loop_
_atom_site_type_symbol
_atom_site_label
_atom_site_fract_x
_atom_site_fract_y
_atom_site_fract_z
Si Si1 0.529483 0.697134 0.529249
Si Si2 0.989417 0.000000 0.123560
Si Si3 0.763886 0.201658 0.703745
Si Si4 0.638133 0.202337 0.137497
Si Si5 0.409373 0.800889 0.947144
Si Si6 0.163075 0.000000 0.771966
O O1 0.500000 0.791825 0.500000
O O2 0.561207 0.500000 0.467118
O O3 0.628370 0.780123 0.424564
O O4 0.437007 0.694508 0.709486
O O5 0.002512 0.825547 0.149932
O O6 0.878596 0.000000 0.245903
O O7 0.071019 0.000000 0.951380
O O8 0.727500 0.323606 0.693309
O O9 0.768696 0.000000 0.671893
O O10 0.690731 0.221204 0.869361
O O11 0.618566 0.257588 0.088566
O O12 0.617522 0.000000 0.177674
O O13 0.750000 0.250000 0.000000
O O14 0.449179 0.000000 0.894639
#
# Coordination Sequence:
#
# PCOD8106752 Si02
#       6
#     8   4   8   8   8   4
#     4  10  21  37  55  79 111 148 183 224 272 328
#     4   9  18  32  56  82 109 142 173 233 282 318
#     4   9  18  34  55  78 111 147 177 228 277 321
#     4  11  23  36  54  81 110 146 184 225 268 328
#     4   9  19  35  54  80 110 144 183 224 273 326
#     4   9  18  32  53  86 110 132 186 227 274 336
#
# _framework density 19.675585999999999
#
# number of rings (size 3 to 8) (size 9 to 14) (size 15 to 20)
#    0.000    2.400    0.000    1.800    4.200    4.400 
#    3.600    4.000    0.000    1.200    0.000    0.000 
#    0.000    0.000    0.000    0.000    0.000    0.000 
#
# Total GULP energy -247976.685907 kJ/mol
# GULP energy per Si atom -12398.834295 kJ/mol
# Density = 1.963080 g / cm^3
# Si number density = 19.675586 Si / 1000 Ang^3
#
#
#
# Elastic Constant Matrix: (Units=GPa)
#
#
# Indices 1 2 3 4 5 6 
#
# 1 185.5366 72.4270 58.0443 0.0025 -29.5534 -0.0014
# 2 72.4270 95.6128 26.1576 0.0146 -14.1497 -0.0099
# 3 58.0443 26.1576 75.2733 0.0186 -13.4811 -0.0031
# 4 0.0025 0.0146 0.0186 19.4862 -0.0008 -2.4390
# 5 -29.5534 -14.1497 -13.4811 -0.0008 31.4639 -0.0018
# 6 -0.0014 -0.0099 -0.0031 -2.4390 -0.0018 29.6917
#
#
#
# Elastic Compliance Matrix: (Units=1/GPa)
#
#
# Indices 1 2 3 4 5 6 
#
# 1 0.009731 -0.005366 -0.004803 0.000007 0.004669 -0.000001
# 2 -0.005366 0.014944 -0.000817 -0.000009 0.001330 0.000004
# 3 -0.004803 -0.000817 0.017761 -0.000016 0.002732 0.000000
# 4 0.000007 -0.000009 -0.000016 0.051851 -0.000002 0.004259
# 5 0.004669 0.001330 0.002732 -0.000002 0.037937 0.000003
# 6 -0.000001 0.000004 0.000000 0.004259 0.000003 0.034029
#
#
# Mechanical properties :
#
#
# Convention : Reuss Voigt Hill
#
# Bulk Modulus (GPa) = 48.86425 74.40893 61.63659
# Shear Modulus (GPa) = 25.63493 29.44795 27.54144
#
# Velocity S-wave (km/s) = 3.61346 3.87288 3.74542
# Velocity P-wave (km/s) = 6.50372 7.60914 7.07804
#
# Compressibility (1/GPa) = 0.02046486
#
# Stress axis : x y z
#
# Youngs Moduli (GPa) = 102.76758 66.91597 56.30200
#
# Poissons Ratio (x) = 0.35909 0.27039
# Poissons Ratio (y) = 0.55147 0.04599
# Poissons Ratio (z) = 0.49354 0.05466
#
# Static dielectric constant tensor:
#      x y z
#    x 3.825070 -0.000010 -0.183990 
#    y -0.000010 3.669530 0.000010 
#    z -0.183990 0.000010 3.271950 
# 
# 
# High freq. dielectric constant tensor:
#      x y z
#    x 1.766770 0.000000 -0.009840 
#    y 0.000000 1.771170 0.000000 
#    z -0.009840 0.000000 1.740720 
# 
# From -- ./inp_files/220620.got.cif
#   From: 2010.06.25/outbox.cif.g09.slc.cpg/sg12_111_cif.got.tgz:220620.got - 2010.06.28 00:19:55.
