data_PCOD8106623
_publ_section_title
;
Structure prediction by ZEFSAII (Michael W. Deem and Ramdas Pophale) SiO2 
 PCOD8106623
Probable space group: C 2/M
;
_chemical_formula_sum "Si O2"
_cell_formula_units_Z 52
_cell_length_a 22.616487
_cell_length_b 23.644435
_cell_length_c 5.342548
_cell_angle_alpha 90.000000
_cell_angle_beta 58.066562
_cell_angle_gamma 90.000000
_cell_volume 2424.587507
_symmetry_space_group_name_H-M "C 2/M"
_symmetry_group_IT_number 12
_symmetry_cell_setting 'monoclinic'
loop_
_space_group_symop_operation_xyz
x,y,z
-x,y,-z
-x,-y,-z
x,-y,z
1/2+x,1/2+y,z
1/2-x,1/2+y,-z
1/2-x,1/2-y,-z
1/2+x,1/2-y,z
loop_
_atom_site_type_symbol
_atom_site_label
_atom_site_fract_x
_atom_site_fract_y
_atom_site_fract_z
Si Si1 0.576285 0.833588 0.213685
Si Si2 0.731017 0.130355 0.359726
Si Si3 0.959138 0.066660 0.341964
Si Si4 0.000000 0.388403 0.000000
Si Si5 0.386357 0.063645 0.573836
Si Si6 0.179393 0.137663 0.347432
Si Si7 0.324179 0.761256 0.718879
O O1 0.500000 0.826858 0.500000
O O2 0.618545 0.890131 0.196571
O O3 0.622586 0.779379 0.177763
O O4 0.561131 0.845400 0.956551
O O5 0.678368 0.076966 0.466075
O O6 0.770843 0.123665 0.531032
O O7 0.685090 0.188821 0.465644
O O8 0.781891 0.130404 0.004865
O O9 0.884238 0.095073 0.505393
O O10 0.000000 0.086403 0.500000
O O11 0.946805 0.000000 0.374063
O O12 0.000000 0.085175 0.000000
O O13 0.036675 0.429432 0.719153
O O14 0.379641 0.000000 0.692124
O O15 0.149958 0.201776 0.453361
O O16 0.250000 0.750000 0.000000
#
# Coordination Sequence:
#
# PCOD8106623 Si02
#       7
#     8   8   8   4   8   8   8
#     4   9  20  39  55  85 120 159 202 257 308 366
#     4  10  23  39  61  90 127 161 206 259 311 366
#     4  10  22  41  66  93 126 164 204 258 319 379
#     4  10  21  36  62  82 120 162 211 252 312 366
#     4  10  22  37  58  86 121 163 211 258 306 365
#     4  11  22  41  64  92 124 163 209 252 313 380
#     4   9  20  38  63  86 122 163 205 252 313 369
#
# _framework density 21.446944999999999
#
# number of rings (size 3 to 8) (size 9 to 14) (size 15 to 20)
#    0.000    2.154    0.000    1.615    6.462    5.231 
#    8.308    0.000    8.462    0.000    0.000    0.000 
#    0.000    0.000    0.000    0.000    0.000    0.000 
#
# Total GULP energy -322155.213205 kJ/mol
# GULP energy per Si atom -12390.585123 kJ/mol
# Density = 2.139813 g / cm^3
# Si number density = 21.446945 Si / 1000 Ang^3
#
#
#
# Elastic Constant Matrix: (Units=GPa)
#
#
# Indices 1 2 3 4 5 6 
#
# 1 149.2408 53.3898 22.8387 0.0000 13.7283 0.0000
# 2 53.3898 68.4410 14.3676 0.0000 -10.5082 0.0000
# 3 22.8387 14.3676 71.1377 0.0000 6.1615 0.0000
# 4 0.0000 0.0000 0.0000 21.0315 0.0000 -10.8023
# 5 13.7283 -10.5082 6.1615 0.0000 36.4733 0.0000
# 6 0.0000 0.0000 0.0000 -10.8023 0.0000 34.1927
#
#
#
# Elastic Compliance Matrix: (Units=1/GPa)
#
#
# Indices 1 2 3 4 5 6 
#
# 1 0.010731 -0.009152 -0.001034 0.000000 -0.006501 0.000000
# 2 -0.009152 0.024014 -0.002851 0.000000 0.010845 0.000000
# 3 -0.001034 -0.002851 0.015225 0.000000 -0.003004 0.000000
# 4 0.000000 0.000000 0.000000 0.056758 0.000000 0.017931
# 5 -0.006501 0.010845 -0.003004 0.000000 0.033496 0.000000
# 6 0.000000 0.000000 0.000000 0.017931 0.000000 0.034911
#
#
# Mechanical properties :
#
#
# Convention : Reuss Voigt Hill
#
# Bulk Modulus (GPa) = 41.84731 52.22353 47.03542
# Shear Modulus (GPa) = 23.90344 31.55439 27.72891
#
# Velocity S-wave (km/s) = 3.34209 3.83988 3.59960
# Velocity P-wave (km/s) = 5.86917 6.63796 6.26537
#
# Compressibility (1/GPa) = 0.02389640
#
# Stress axis : x y z
#
# Youngs Moduli (GPa) = 93.18841 41.64178 65.68083
#
# Poissons Ratio (x) = 0.38112 0.06789
# Poissons Ratio (y) = 0.85288 0.18727
# Poissons Ratio (z) = 0.09632 0.11873
#
# Static dielectric constant tensor:
#      x y z
#    x 4.287780 0.000000 0.182870 
#    y 0.000000 4.295560 0.000000 
#    z 0.182870 0.000000 3.882660 
# 
# 
# High freq. dielectric constant tensor:
#      x y z
#    x 1.858790 0.000000 -0.002280 
#    y 0.000000 1.829180 0.000000 
#    z -0.002280 0.000000 1.830990 
# 
# From -- ./inp_files/21813.got.cif
#   From: 2010.06.25/outbox.cif.g09.slc.cpg/sg12_11_cif.got.tgz:21813.got - 2010.06.28 00:19:55.
