data_PCOD8106490
_publ_section_title
;
Structure prediction by ZEFSAII (Michael W. Deem and Ramdas Pophale) SiO2 
 PCOD8106490
Probable space group: C 2/M
;
_chemical_formula_sum "Si O2"
_cell_formula_units_Z 56
_cell_length_a 12.110877
_cell_length_b 28.323581
_cell_length_c 9.050329
_cell_angle_alpha 90.000000
_cell_angle_beta 110.995034
_cell_angle_gamma 90.000000
_cell_volume 2898.373209
_symmetry_space_group_name_H-M "C 2/M"
_symmetry_group_IT_number 12
_symmetry_cell_setting 'monoclinic'
loop_
_space_group_symop_operation_xyz
x,y,z
-x,y,-z
-x,-y,-z
x,-y,z
1/2+x,1/2+y,z
1/2-x,1/2+y,-z
1/2-x,1/2-y,-z
1/2+x,1/2-y,z
loop_
_atom_site_type_symbol
_atom_site_label
_atom_site_fract_x
_atom_site_fract_y
_atom_site_fract_z
Si Si1 0.274192 0.875756 0.679300
Si Si2 0.840919 0.117947 0.677504
Si Si3 0.975878 0.445351 0.659266
Si Si4 0.608237 0.610906 0.858810
Si Si5 0.631844 0.202906 0.071488
Si Si6 0.737955 0.053771 0.837146
Si Si7 0.683233 0.309306 0.080237
O O1 0.190723 0.864954 0.500674
O O2 0.382509 0.910253 0.690551
O O3 0.191009 0.900422 0.759854
O O4 0.311576 0.825317 0.764420
O O5 0.758382 0.073293 0.680589
O O6 0.807089 0.161435 0.765882
O O7 0.974769 0.098596 0.753338
O O8 0.932851 0.500000 0.650623
O O9 0.000000 0.432205 0.500000
O O10 0.099392 0.439011 0.809617
O O11 0.667154 0.580991 0.017590
O O12 0.600744 0.665034 0.916768
O O13 0.634754 0.258593 0.104562
O O14 0.500000 0.184017 0.000000
O O15 0.689179 0.193404 0.938488
O O16 0.774543 0.000000 0.861759
#
# Coordination Sequence:
#
# PCOD8106490 Si02
#       7
#     8   8   8   8   8   8   8
#     4  11  24  35  58  89 118 149 195 242 299 341
#     4  11  21  38  60  82 119 157 195 237 289 359
#     4  10  21  39  60  83 121 158 188 236 303 360
#     4  10  22  38  59  83 116 155 193 245 287 346
#     4  10  21  36  59  86 118 149 193 253 286 342
#     4  10  21  38  62  87 110 153 202 238 284 349
#     4   9  20  39  58  83 113 159 198 229 301 348
#
# _framework density 19.321183000000001
#
# number of rings (size 3 to 8) (size 9 to 14) (size 15 to 20)
#    0.000    1.857    1.429    3.000    6.000    2.286 
#    0.000    1.429    0.000    2.571    0.000    0.000 
#    0.000    0.000    0.000    0.000    0.000    0.000 
#
# Total GULP energy -347016.741829 kJ/mol
# GULP energy per Si atom -12393.455065 kJ/mol
# Density = 1.927721 g / cm^3
# Si number density = 19.321183 Si / 1000 Ang^3
#
#
#
# Elastic Constant Matrix: (Units=GPa)
#
#
# Indices 1 2 3 4 5 6 
#
# 1 92.6079 51.0841 35.9715 0.0000 1.2757 0.0000
# 2 51.0841 106.3128 41.4064 0.0000 -4.2658 0.0000
# 3 35.9715 41.4064 104.2555 0.0000 0.4960 0.0000
# 4 0.0000 0.0000 0.0000 14.4568 0.0000 -3.9905
# 5 1.2757 -4.2658 0.4960 0.0000 32.1955 0.0000
# 6 0.0000 0.0000 0.0000 -3.9905 0.0000 29.8330
#
#
#
# Elastic Compliance Matrix: (Units=1/GPa)
#
#
# Indices 1 2 3 4 5 6 
#
# 1 0.015418 -0.006383 -0.002778 0.000000 -0.001414 0.000000
# 2 -0.006383 0.013847 -0.003307 0.000000 0.002139 0.000000
# 3 -0.002778 -0.003307 0.011866 0.000000 -0.000511 0.000000
# 4 0.000000 0.000000 0.000000 0.071824 0.000000 0.009607
# 5 -0.001414 0.002139 -0.000511 0.000000 0.031408 0.000000
# 6 0.000000 0.000000 0.000000 0.009607 0.000000 0.034805
#
#
# Mechanical properties :
#
#
# Convention : Reuss Voigt Hill
#
# Bulk Modulus (GPa) = 61.74881 62.23335 61.99108
# Shear Modulus (GPa) = 23.86607 26.94465 25.40536
#
# Velocity S-wave (km/s) = 3.51839 3.73844 3.63008
# Velocity P-wave (km/s) = 6.96663 7.13543 7.05154
#
# Compressibility (1/GPa) = 0.01619464
#
# Stress axis : x y z
#
# Youngs Moduli (GPa) = 64.86048 72.21590 84.27269
#
# Poissons Ratio (x) = 0.46097 0.23408
# Poissons Ratio (y) = 0.41402 0.27873
# Poissons Ratio (z) = 0.18016 0.23885
#
# Static dielectric constant tensor:
#      x y z
#    x 3.700630 0.000000 -0.046680 
#    y 0.000000 3.559430 0.000000 
#    z -0.046680 0.000000 3.452220 
# 
# 
# High freq. dielectric constant tensor:
#      x y z
#    x 1.767520 0.000000 0.002220 
#    y 0.000000 1.747900 0.000000 
#    z 0.002220 0.000000 1.742980 
# 
# From -- ./inp_files/54791.got.cif
#   From: 2010.06.25/outbox.cif.g09.slc.cpg/sg12_28_cif.got.tgz:54791.got - 2010.06.28 00:19:55.
