data_PCOD8106920
_publ_section_title
;
Structure prediction by ZEFSAII (Michael W. Deem and Ramdas Pophale) SiO2 
 PCOD8106920
Probable space group: C 2/M
;
_chemical_formula_sum "Si O2"
_cell_formula_units_Z 48
_cell_length_a 19.879100
_cell_length_b 8.633075
_cell_length_c 20.930216
_cell_angle_alpha 90.000000
_cell_angle_beta 134.959216
_cell_angle_gamma 90.000000
_cell_volume 2541.732617
_symmetry_space_group_name_H-M "C 2/M"
_symmetry_group_IT_number 12
_symmetry_cell_setting 'monoclinic'
loop_
_space_group_symop_operation_xyz
x,y,z
-x,y,-z
-x,-y,-z
x,-y,z
1/2+x,1/2+y,z
1/2-x,1/2+y,-z
1/2-x,1/2-y,-z
1/2+x,1/2-y,z
loop_
_atom_site_type_symbol
_atom_site_label
_atom_site_fract_x
_atom_site_fract_y
_atom_site_fract_z
Si Si1 0.505525 0.180327 0.577857
Si Si2 0.999031 0.823370 0.228805
Si Si3 0.353531 0.680775 0.563806
Si Si4 0.654280 0.320814 0.768722
Si Si5 0.997748 0.679706 0.092978
Si Si6 0.857955 0.180444 0.902575
O O1 0.500000 0.219887 0.500000
O O2 0.406125 0.230711 0.542053
O O3 0.592617 0.276506 0.665620
O O4 0.523653 0.000000 0.602859
O O5 0.092395 0.790663 0.333357
O O6 0.001242 0.709821 0.170478
O O7 0.905662 0.787100 0.207669
O O8 0.997956 0.000000 0.203844
O O9 0.350270 0.500000 0.544748
O O10 0.250000 0.750000 0.500000
O O11 0.682580 0.500000 0.782632
O O12 0.747553 0.217451 0.834401
O O13 0.980480 0.500000 0.068731
O O14 0.096968 0.729818 0.127354
O O15 0.910399 0.772547 0.003167
O O16 0.872061 0.000000 0.899908
#
# Coordination Sequence:
#
# PCOD8106920 Si02
#       6
#     8   8   8   8   8   8
#     4  10  21  37  57  82 113 147 183 225 274 328
#     4   9  20  38  57  80 111 145 181 224 275 326
#     4  10  21  37  58  82 111 146 185 230 274 324
#     4  10  21  38  59  83 112 144 183 229 272 322
#     4  11  22  37  58  83 111 143 183 228 272 323
#     4  11  22  38  59  81 111 147 182 224 274 326
#
# _framework density 18.884754999999998
#
# number of rings (size 3 to 8) (size 9 to 14) (size 15 to 20)
#    0.000    1.833    0.000    6.500    0.000    7.333 
#    0.000    1.667    0.000    0.000    0.000    0.000 
#    0.000    0.000    0.000    0.000    0.000    0.000 
#
# Total GULP energy -297722.100189 kJ/mol
# GULP energy per Si atom -12405.087508 kJ/mol
# Density = 1.884177 g / cm^3
# Si number density = 18.884755 Si / 1000 Ang^3
#
#
#
# Elastic Constant Matrix: (Units=GPa)
#
#
# Indices 1 2 3 4 5 6 
#
# 1 97.5587 30.0418 68.4668 0.0000 1.1326 0.0000
# 2 30.0418 73.6892 27.3298 0.0000 -9.6462 0.0000
# 3 68.4668 27.3298 85.1000 0.0000 3.8836 0.0000
# 4 0.0000 0.0000 0.0000 34.1297 0.0000 2.1348
# 5 1.1326 -9.6462 3.8836 0.0000 41.5481 0.0000
# 6 0.0000 0.0000 0.0000 2.1348 0.0000 35.0072
#
#
#
# Elastic Compliance Matrix: (Units=1/GPa)
#
#
# Indices 1 2 3 4 5 6 
#
# 1 0.024117 -0.002927 -0.018481 0.000000 0.000391 0.000000
# 2 -0.002927 0.016473 -0.003127 0.000000 0.004197 0.000000
# 3 -0.018481 -0.003127 0.027753 0.000000 -0.002816 0.000000
# 4 0.000000 0.000000 0.000000 0.029412 0.000000 -0.001794
# 5 0.000391 0.004197 -0.002816 0.000000 0.025295 0.000000
# 6 0.000000 0.000000 0.000000 -0.001794 0.000000 0.028675
#
#
# Mechanical properties :
#
#
# Convention : Reuss Voigt Hill
#
# Bulk Modulus (GPa) = 51.88729 56.44720 54.16724
# Shear Modulus (GPa) = 24.12906 30.83763 27.48334
#
# Velocity S-wave (km/s) = 3.57837 4.04535 3.81900
# Velocity P-wave (km/s) = 6.67895 7.19549 6.94202
#
# Compressibility (1/GPa) = 0.01927254
#
# Stress axis : x y z
#
# Youngs Moduli (GPa) = 41.46446 60.70622 36.03263
#
# Poissons Ratio (x) = 0.17767 0.66593
# Poissons Ratio (y) = 0.12135 0.11268
# Poissons Ratio (z) = 0.76631 0.18983
#
# Static dielectric constant tensor:
#      x y z
#    x 3.452190 0.000000 0.042780 
#    y 0.000000 3.608700 0.000000 
#    z 0.042780 0.000000 3.373540 
# 
# 
# High freq. dielectric constant tensor:
#      x y z
#    x 1.736120 0.000000 0.002240 
#    y 0.000000 1.749120 0.000000 
#    z 0.002240 0.000000 1.733650 
# 
# From -- ./inp_files/320311.got.cif
#   From: 2010.06.25/outbox.cif.g09.slc.cpg/sg12_161_cif.got.tgz:320311.got - 2010.06.28 00:19:55.
