data_PCOD8106805
_publ_section_title
;
Structure prediction by ZEFSAII (Michael W. Deem and Ramdas Pophale) SiO2 
 PCOD8106805
Probable space group: C 2/M
;
_chemical_formula_sum "Si O2"
_cell_formula_units_Z 56
_cell_length_a 19.566802
_cell_length_b 8.838255
_cell_length_c 27.960677
_cell_angle_alpha 90.000000
_cell_angle_beta 37.952935
_cell_angle_gamma 90.000000
_cell_volume 2973.849853
_symmetry_space_group_name_H-M "C 2/M"
_symmetry_group_IT_number 12
_symmetry_cell_setting 'monoclinic'
loop_
_space_group_symop_operation_xyz
x,y,z
-x,y,-z
-x,-y,-z
x,-y,z
1/2+x,1/2+y,z
1/2-x,1/2+y,-z
1/2-x,1/2-y,-z
1/2+x,1/2-y,z
loop_
_atom_site_type_symbol
_atom_site_label
_atom_site_fract_x
_atom_site_fract_y
_atom_site_fract_z
Si Si1 0.504547 0.822353 0.203703
Si Si2 0.133509 0.176567 0.051604
Si Si3 0.072196 0.679007 0.504861
Si Si4 0.674935 0.679011 0.633791
Si Si5 0.846341 0.828227 0.803597
Si Si6 0.110143 0.671415 0.967573
Si Si7 0.521609 0.325869 0.630903
O O1 0.532635 0.749194 0.137156
O O2 0.389256 0.755778 0.286928
O O3 0.605355 0.785365 0.183813
O O4 0.492191 0.000000 0.204262
O O5 0.139533 0.000000 0.059210
O O6 0.250000 0.250000 0.000000
O O7 0.111305 0.206413 0.008567
O O8 0.071081 0.500000 0.503772
O O9 0.198887 0.738916 0.433071
O O10 0.019819 0.729357 0.583810
O O11 0.000000 0.743718 0.500000
O O12 0.666812 0.500000 0.644619
O O13 0.618996 0.726632 0.613957
O O14 0.714149 0.804567 0.874183
O O15 0.901628 0.796575 0.721600
O O16 0.877507 0.000000 0.802103
O O17 0.112269 0.500000 0.987022
O O18 0.000000 0.705310 0.000000
O O19 0.539024 0.500000 0.607353
#
# Coordination Sequence:
#
# PCOD8106805 Si02
#       7
#     8   8   8   8   8   8   8
#     4  11  21  34  57  88 113 142 189 240 284 332
#     4  12  23  37  59  85 116 152 193 239 285 334
#     4  10  21  37  56  80 113 148 180 221 277 335
#     4   9  19  37  58  80 111 145 182 229 279 333
#     4   9  18  35  57  81 114 150 184 230 285 335
#     4  10  21  38  59  83 116 156 193 234 285 341
#     4   9  18  33  56  82 106 142 185 226 274 326
#
# _framework density 18.830808999999999
#
# number of rings (size 3 to 8) (size 9 to 14) (size 15 to 20)
#    0.000    2.000    1.429    3.857    0.000    3.429 
#    2.571    0.000    0.000    0.000    0.000    0.000 
#    0.000    0.000    0.000    0.000    0.000    0.000 
#
# Total GULP energy -347211.403231 kJ/mol
# GULP energy per Si atom -12400.407258 kJ/mol
# Density = 1.878795 g / cm^3
# Si number density = 18.830809 Si / 1000 Ang^3
#
#
#
# Elastic Constant Matrix: (Units=GPa)
#
#
# Indices 1 2 3 4 5 6 
#
# 1 103.7769 27.5664 76.1301 0.0005 -3.6456 -0.0022
# 2 27.5664 67.7595 38.6941 0.0013 5.7878 -0.0043
# 3 76.1301 38.6941 152.7987 0.0000 1.2868 -0.0003
# 4 0.0005 0.0013 0.0000 31.2454 0.0001 7.5502
# 5 -3.6456 5.7878 1.2868 0.0001 28.3239 0.0005
# 6 -0.0022 -0.0043 -0.0003 7.5502 0.0005 23.4731
#
#
#
# Elastic Compliance Matrix: (Units=1/GPa)
#
#
# Indices 1 2 3 4 5 6 
#
# 1 0.015689 -0.002513 -0.007205 0.000000 0.002860 0.000001
# 2 -0.002513 0.017975 -0.003267 -0.000002 -0.003848 0.000004
# 3 -0.007205 -0.003267 0.010968 0.000001 -0.000758 -0.000001
# 4 0.000000 -0.000002 0.000001 0.034702 0.000000 -0.011162
# 5 0.002860 -0.003848 -0.000758 0.000000 0.036495 -0.000001
# 6 0.000001 0.000004 -0.000001 -0.011162 -0.000001 0.046192
#
#
# Mechanical properties :
#
#
# Convention : Reuss Voigt Hill
#
# Bulk Modulus (GPa) = 53.58440 67.67960 60.63200
# Shear Modulus (GPa) = 25.74499 28.73812 27.24156
#
# Velocity S-wave (km/s) = 3.70154 3.91080 3.80761
# Velocity P-wave (km/s) = 6.84003 7.51075 7.18322
#
# Compressibility (1/GPa) = 0.01866215
#
# Stress axis : x y z
#
# Youngs Moduli (GPa) = 63.73716 55.63287 91.17358
#
# Poissons Ratio (x) = 0.13980 0.65689
# Poissons Ratio (y) = 0.16017 0.29791
# Poissons Ratio (z) = 0.45921 0.18178
#
# Static dielectric constant tensor:
#      x y z
#    x 3.140290 0.000000 -0.090930 
#    y 0.000000 3.354650 0.000000 
#    z -0.090930 0.000000 3.722130 
# 
# 
# High freq. dielectric constant tensor:
#      x y z
#    x 1.706660 0.000000 -0.000120 
#    y 0.000000 1.724010 0.000000 
#    z -0.000120 0.000000 1.749000 
# 
# From -- ./inp_files/363032.got.cif
#   From: 2010.06.25/outbox.cif.g09.slc.cpg/sg12_182_cif.got.tgz:363032.got - 2010.06.28 00:19:55.
