data_PCOD8106103
_publ_section_title
;
Structure prediction by ZEFSAII (Michael W. Deem and Ramdas Pophale) SiO2 
 PCOD8106103
Probable space group: C 2/M
;
_chemical_formula_sum "Si O2"
_cell_formula_units_Z 48
_cell_length_a 30.124474
_cell_length_b 8.949465
_cell_length_c 17.783459
_cell_angle_alpha 90.000000
_cell_angle_beta 147.976068
_cell_angle_gamma 90.000000
_cell_volume 2542.334320
_symmetry_space_group_name_H-M "C 2/M"
_symmetry_group_IT_number 12
_symmetry_cell_setting 'monoclinic'
loop_
_space_group_symop_operation_xyz
x,y,z
-x,y,-z
-x,-y,-z
x,-y,z
1/2+x,1/2+y,z
1/2-x,1/2+y,-z
1/2-x,1/2-y,-z
1/2+x,1/2-y,z
loop_
_atom_site_type_symbol
_atom_site_label
_atom_site_fract_x
_atom_site_fract_y
_atom_site_fract_z
Si Si1 0.334326 0.173238 0.098017
Si Si2 0.065803 0.323708 0.904282
Si Si3 0.590808 0.675579 0.097542
Si Si4 0.580250 0.329189 0.388668
Si Si5 0.738250 0.175931 0.402822
Si Si6 0.476382 0.329399 0.382146
O O1 0.366493 0.221745 0.061817
O O2 0.402547 0.217424 0.257139
O O3 0.318195 0.000000 0.077896
O O4 0.250000 0.250000 0.000000
O O5 0.062730 0.500000 0.914173
O O6 0.973508 0.271600 0.745871
O O7 0.096679 0.240984 0.022716
O O8 0.608455 0.500000 0.120872
O O9 0.659472 0.752757 0.248264
O O10 0.500000 0.712964 0.000000
O O11 0.564124 0.500000 0.340857
O O12 0.677979 0.289282 0.524378
O O13 0.554274 0.301782 0.437910
O O14 0.750000 0.250000 0.500000
O O15 0.722849 0.000000 0.389874
O O16 0.500000 0.288014 0.500000
O O17 0.444760 0.500000 0.330239
#
# Coordination Sequence:
#
# PCOD8106103 Si02
#       6
#     8   8   8   8   8   8
#     4  10  21  36  55  81 112 146 185 228 274 325
#     4  10  21  37  58  83 110 143 185 230 274 324
#     4  11  24  40  58  82 112 146 184 226 275 330
#     4   9  19  36  56  79 109 143 178 221 274 327
#     4  11  23  38  57  82 112 145 183 226 272 325
#     4   9  18  34  56  80 108 143 180 221 272 327
#
# _framework density 18.880286000000002
#
# number of rings (size 3 to 8) (size 9 to 14) (size 15 to 20)
#    0.000    2.000    0.000    3.000    0.000   10.333 
#    0.000    3.333    0.000    0.000    0.000    0.000 
#    0.000    0.000    0.000    0.000    0.000    0.000 
#
# Total GULP energy -297654.681329 kJ/mol
# GULP energy per Si atom -12402.278389 kJ/mol
# Density = 1.883731 g / cm^3
# Si number density = 18.880286 Si / 1000 Ang^3
#
#
#
# Elastic Constant Matrix: (Units=GPa)
#
#
# Indices 1 2 3 4 5 6 
#
# 1 123.8548 64.0515 94.0730 0.0000 -3.9765 0.0000
# 2 64.0515 89.3020 74.0541 0.0000 2.4027 0.0000
# 3 94.0730 74.0541 150.6239 0.0000 -1.6723 0.0000
# 4 0.0000 0.0000 0.0000 38.3808 0.0000 -1.1817
# 5 -3.9765 2.4027 -1.6723 0.0000 41.4067 0.0000
# 6 0.0000 0.0000 0.0000 -1.1817 0.0000 32.2467
#
#
#
# Elastic Compliance Matrix: (Units=1/GPa)
#
#
# Indices 1 2 3 4 5 6 
#
# 1 0.017030 -0.005833 -0.007750 0.000000 0.001661 0.000000
# 2 -0.005833 0.020994 -0.006702 0.000000 -0.002049 0.000000
# 3 -0.007750 -0.006702 0.014777 0.000000 0.000241 0.000000
# 4 0.000000 0.000000 0.000000 0.026084 0.000000 0.000956
# 5 0.001661 -0.002049 0.000241 0.000000 0.024439 0.000000
# 6 0.000000 0.000000 0.000000 0.000956 0.000000 0.031046
#
#
# Mechanical properties :
#
#
# Convention : Reuss Voigt Hill
#
# Bulk Modulus (GPa) = 81.75155 92.01534 86.88345
# Shear Modulus (GPa) = 27.93035 31.18029 29.55532
#
# Velocity S-wave (km/s) = 3.85039 4.06824 3.96081
# Velocity P-wave (km/s) = 7.94741 8.42077 8.18751
#
# Compressibility (1/GPa) = 0.01223218
#
# Stress axis : x y z
#
# Youngs Moduli (GPa) = 58.71855 47.63312 67.67237
#
# Poissons Ratio (x) = 0.27783 0.52449
# Poissons Ratio (y) = 0.34248 0.45351
# Poissons Ratio (z) = 0.45509 0.31921
#
# Static dielectric constant tensor:
#      x y z
#    x 3.719790 0.000000 -0.279400 
#    y 0.000000 3.583940 0.000000 
#    z -0.279400 0.000000 3.289470 
# 
# 
# High freq. dielectric constant tensor:
#      x y z
#    x 1.746980 0.000000 0.001260 
#    y 0.000000 1.742930 0.000000 
#    z 0.001260 0.000000 1.731600 
# 
# From -- ./inp_files/274046.got.cif
#   From: 2010.06.25/outbox.cif.g09.slc.cpg/sg12_138_cif.got.tgz:274046.got - 2010.06.28 00:19:55.
