data_PCOD8106216
_publ_section_title
;
Structure prediction by ZEFSAII (Michael W. Deem and Ramdas Pophale) SiO2 
 PCOD8106216
Probable space group: C 2/M
;
_chemical_formula_sum "Si O2"
_cell_formula_units_Z 48
_cell_length_a 10.184321
_cell_length_b 9.031692
_cell_length_c 26.606079
_cell_angle_alpha 90.000000
_cell_angle_beta 89.968883
_cell_angle_gamma 90.000000
_cell_volume 2447.270699
_symmetry_space_group_name_H-M "C 2/M"
_symmetry_group_IT_number 12
_symmetry_cell_setting 'monoclinic'
loop_
_space_group_symop_operation_xyz
x,y,z
-x,y,-z
-x,-y,-z
x,-y,z
1/2+x,1/2+y,z
1/2-x,1/2+y,-z
1/2-x,1/2-y,-z
1/2+x,1/2-y,z
loop_
_atom_site_type_symbol
_atom_site_label
_atom_site_fract_x
_atom_site_fract_y
_atom_site_fract_z
Si Si1 0.631245 0.174758 0.972067
Si Si2 0.635809 0.170576 0.310262
Si Si3 0.867143 0.326447 0.470883
Si Si4 0.106957 0.325142 0.858159
Si Si5 0.343578 0.172980 0.805017
Si Si6 0.403424 0.327987 0.365655
O O1 0.626045 0.232113 0.914875
O O2 0.649804 0.000000 0.974584
O O3 0.500000 0.225637 0.000000
O O4 0.750000 0.250000 0.000000
O O5 0.624002 0.214407 0.252158
O O6 0.538414 0.273978 0.341238
O O7 0.784687 0.199931 0.327214
O O8 0.595954 0.000000 0.319479
O O9 0.839500 0.500000 0.468158
O O10 0.750000 0.250000 0.500000
O O11 0.874733 0.263567 0.415302
O O12 0.000000 0.289891 0.500000
O O13 0.119517 0.500000 0.854824
O O14 0.214263 0.257291 0.821691
O O15 0.964037 0.273660 0.839524
O O16 0.316174 0.000000 0.811155
O O17 0.417452 0.500000 0.379545
#
# Coordination Sequence:
#
# PCOD8106216 Si02
#       6
#     8   8   8   8   8   8
#     4  10  21  37  56  80 111 145 184 230 278 331
#     4  10  22  39  58  84 116 148 186 230 276 330
#     4  11  24  41  61  86 116 150 190 235 281 332
#     4  10  21  36  56  83 111 143 186 231 276 330
#     4  10  21  38  59  82 112 149 185 227 279 330
#     4  11  23  38  59  87 116 149 189 230 277 333
#
# _framework density 19.613686999999999
#
# number of rings (size 3 to 8) (size 9 to 14) (size 15 to 20)
#    0.000    1.667    0.000    4.000    0.000   10.333 
#    0.000    0.000    0.000    0.000    0.000    0.000 
#    0.000    0.000    0.000    0.000    0.000    0.000 
#
# Total GULP energy -297741.847710 kJ/mol
# GULP energy per Si atom -12405.910321 kJ/mol
# Density = 1.956905 g / cm^3
# Si number density = 19.613687 Si / 1000 Ang^3
#
#
#
# Elastic Constant Matrix: (Units=GPa)
#
#
# Indices 1 2 3 4 5 6 
#
# 1 103.1559 48.0852 26.4757 0.0000 -8.2572 0.0000
# 2 48.0852 55.1630 33.7768 0.0000 0.3886 0.0000
# 3 26.4757 33.7768 104.8398 0.0000 4.2095 0.0000
# 4 0.0000 0.0000 0.0000 34.0902 0.0000 -3.4563
# 5 -8.2572 0.3886 4.2095 0.0000 38.2228 0.0000
# 6 0.0000 0.0000 0.0000 -3.4563 0.0000 30.6390
#
#
#
# Elastic Compliance Matrix: (Units=1/GPa)
#
#
# Indices 1 2 3 4 5 6 
#
# 1 0.016876 -0.014993 0.000418 0.000000 0.003752 0.000000
# 2 -0.014993 0.035916 -0.007674 0.000000 -0.002759 0.000000
# 3 0.000418 -0.007674 0.011951 0.000000 -0.001148 0.000000
# 4 0.000000 0.000000 0.000000 0.029673 0.000000 0.003347
# 5 0.003752 -0.002759 -0.001148 0.000000 0.027127 0.000000
# 6 0.000000 0.000000 0.000000 0.003347 0.000000 0.033016
#
#
# Mechanical properties :
#
#
# Convention : Reuss Voigt Hill
#
# Bulk Modulus (GPa) = 49.39571 53.31490 51.35530
# Shear Modulus (GPa) = 24.29468 30.91181 27.60324
#
# Velocity S-wave (km/s) = 3.52328 3.97423 3.75553
# Velocity P-wave (km/s) = 6.46454 6.94988 6.71160
#
# Compressibility (1/GPa) = 0.02024467
#
# Stress axis : x y z
#
# Youngs Moduli (GPa) = 59.25567 27.84285 83.67279
#
# Poissons Ratio (x) = 0.41745 -0.03497
# Poissons Ratio (y) = 0.88842 0.64212
# Poissons Ratio (z) = -0.02477 0.21367
#
# Static dielectric constant tensor:
#      x y z
#    x 3.666570 0.000000 0.059120 
#    y 0.000000 3.560010 0.000000 
#    z 0.059120 0.000000 3.956700 
# 
# 
# High freq. dielectric constant tensor:
#      x y z
#    x 1.779300 0.000000 0.002800 
#    y 0.000000 1.760910 0.000000 
#    z 0.002800 0.000000 1.783510 
# 
# From -- ./inp_files/334653.got.cif
#   From: 2010.06.25/outbox.cif.g09.slc.cpg/sg12_168_cif.got.tgz:334653.got - 2010.06.28 00:19:55.
