data_PCOD8106744
_publ_section_title
;
Structure prediction by ZEFSAII (Michael W. Deem and Ramdas Pophale) SiO2 
 PCOD8106744
Probable space group: C 2/M
;
_chemical_formula_sum "Si O2"
_cell_formula_units_Z 64
_cell_length_a 9.691948
_cell_length_b 16.118331
_cell_length_c 28.478248
_cell_angle_alpha 90.000000
_cell_angle_beta 131.314381
_cell_angle_gamma 90.000000
_cell_volume 3341.498574
_symmetry_space_group_name_H-M "C 2/M"
_symmetry_group_IT_number 12
_symmetry_cell_setting 'monoclinic'
loop_
_space_group_symop_operation_xyz
x,y,z
-x,y,-z
-x,-y,-z
x,-y,z
1/2+x,1/2+y,z
1/2-x,1/2+y,-z
1/2-x,1/2-y,-z
1/2+x,1/2-y,z
loop_
_atom_site_type_symbol
_atom_site_label
_atom_site_fract_x
_atom_site_fract_y
_atom_site_fract_z
Si Si1 0.325570 0.402193 0.041270
Si Si2 0.573539 0.092945 0.901353
Si Si3 0.724176 0.347633 0.866324
Si Si4 0.024439 0.593965 0.627483
Si Si5 0.036122 0.258573 0.454110
Si Si6 0.223379 0.838766 0.136840
Si Si7 0.678803 0.403614 0.227041
Si Si8 0.380572 0.409379 0.426393
O O1 0.301385 0.500000 0.042613
O O2 0.259433 0.358733 0.074173
O O3 0.535951 0.380922 0.076574
O O4 0.197133 0.367500 0.970793
O O5 0.359849 0.091571 0.868316
O O6 0.608583 0.140567 0.860398
O O7 0.640244 0.000000 0.907494
O O8 0.800051 0.259112 0.867734
O O9 0.514185 0.360721 0.803353
O O10 0.045413 0.500000 0.611958
O O11 0.183518 0.614151 0.699927
O O12 0.041635 0.661496 0.590381
O O13 0.831996 0.603101 0.610381
O O14 0.250000 0.250000 0.500000
O O15 0.000000 0.273598 0.500000
O O16 0.945972 0.172843 0.412763
O O17 0.268941 0.868427 0.199728
O O18 0.639473 0.500000 0.210204
O O19 0.500000 0.410913 0.500000
O O20 0.408687 0.500000 0.407014
#
# Coordination Sequence:
#
# PCOD8106744 Si02
#       8
#     8   8   8   8   8   8   8   8
#     4  10  21  37  55  78 112 153 188 226 293 369
#     4  11  21  34  57  83 109 143 189 242 291 344
#     4  11  22  36  54  81 113 147 186 236 297 343
#     4  10  21  38  62  88 115 158 203 234 285 352
#     4  11  20  35  60  94 125 154 187 236 290 335
#     4  11  22  36  56  83 109 143 190 243 292 331
#     4  10  22  42  62  77 109 158 198 231 279 352
#     4   9  17  33  58  85 118 156 190 225 275 344
#
# _framework density 19.153082999999999
#
# number of rings (size 3 to 8) (size 9 to 14) (size 15 to 20)
#    0.000    1.625    2.500    5.250    0.000    6.250 
#    0.000    0.000    0.000    0.000    0.000    0.000 
#    0.000    0.000    0.000    0.000    0.000    0.000 
#
# Total GULP energy -396710.195731 kJ/mol
# GULP energy per Si atom -12397.193617 kJ/mol
# Density = 1.910949 g / cm^3
# Si number density = 19.153083 Si / 1000 Ang^3
#
#
#
# Elastic Constant Matrix: (Units=GPa)
#
#
# Indices 1 2 3 4 5 6 
#
# 1 114.4316 34.4385 44.7378 0.0000 2.9463 0.0000
# 2 34.4385 130.9410 48.4063 0.0000 -8.8465 0.0000
# 3 44.7378 48.4063 95.5923 0.0000 4.3508 0.0000
# 4 0.0000 0.0000 0.0000 26.3080 0.0000 -4.4590
# 5 2.9463 -8.8465 4.3508 0.0000 22.2729 0.0000
# 6 0.0000 0.0000 0.0000 -4.4590 0.0000 37.5146
#
#
#
# Elastic Compliance Matrix: (Units=1/GPa)
#
#
# Indices 1 2 3 4 5 6 
#
# 1 0.010873 -0.001319 -0.004370 0.000000 -0.001108 0.000000
# 2 -0.001319 0.010071 -0.004714 0.000000 0.005095 0.000000
# 3 -0.004370 -0.004714 0.015087 0.000000 -0.004241 0.000000
# 4 0.000000 0.000000 0.000000 0.038793 0.000000 0.004611
# 5 -0.001108 0.005095 -0.004241 0.000000 0.047897 0.000000
# 6 0.000000 0.000000 0.000000 0.004611 0.000000 0.027204
#
#
# Mechanical properties :
#
#
# Convention : Reuss Voigt Hill
#
# Bulk Modulus (GPa) = 65.68828 66.23669 65.96248
# Shear Modulus (GPa) = 28.44045 31.44461 29.94253
#
# Velocity S-wave (km/s) = 3.85762 4.05625 3.95818
# Velocity P-wave (km/s) = 7.36292 7.52299 7.44339
#
# Compressibility (1/GPa) = 0.01522342
#
# Stress axis : x y z
#
# Youngs Moduli (GPa) = 91.97177 99.29504 66.28341
#
# Poissons Ratio (x) = 0.13097 0.28967
# Poissons Ratio (y) = 0.12131 0.31249
# Poissons Ratio (z) = 0.40194 0.46812
#
# Static dielectric constant tensor:
#      x y z
#    x 3.305910 0.000000 0.094850 
#    y 0.000000 3.923710 0.000000 
#    z 0.094850 0.000000 3.372940 
# 
# 
# High freq. dielectric constant tensor:
#      x y z
#    x 1.739050 0.000000 0.017380 
#    y 0.000000 1.763660 0.000000 
#    z 0.017380 0.000000 1.724800 
# 
# From -- ./inp_files/372606.got.cif
#   From: 2010.06.25/outbox.cif.g09.slc.cpg/sg12_187_cif.got.tgz:372606.got - 2010.06.28 00:19:55.
