data_PCOD8106866
_publ_section_title
;
Structure prediction by ZEFSAII (Michael W. Deem and Ramdas Pophale) SiO2 
 PCOD8106866
Probable space group: C 2/M
;
_chemical_formula_sum "Si O2"
_cell_formula_units_Z 56
_cell_length_a 29.325627
_cell_length_b 8.619048
_cell_length_c 20.486990
_cell_angle_alpha 90.000000
_cell_angle_beta 147.533976
_cell_angle_gamma 90.000000
_cell_volume 2779.692618
_symmetry_space_group_name_H-M "C 2/M"
_symmetry_group_IT_number 12
_symmetry_cell_setting 'monoclinic'
loop_
_space_group_symop_operation_xyz
x,y,z
-x,y,-z
-x,-y,-z
x,-y,z
1/2+x,1/2+y,z
1/2-x,1/2+y,-z
1/2-x,1/2-y,-z
1/2+x,1/2-y,z
loop_
_atom_site_type_symbol
_atom_site_label
_atom_site_fract_x
_atom_site_fract_y
_atom_site_fract_z
Si Si1 0.996348 0.318998 0.200870
Si Si2 0.446533 0.817939 0.285084
Si Si3 0.353488 0.683006 0.941423
Si Si4 0.386262 0.182976 0.435688
Si Si5 0.793061 0.816917 0.730469
Si Si6 0.678902 0.681154 0.770812
Si Si7 0.669725 0.683155 0.366286
O O1 0.016401 0.500000 0.222575
O O2 0.955206 0.271790 0.220062
O O3 0.084547 0.230320 0.299993
O O4 0.932750 0.272954 0.066768
O O5 0.531190 0.765201 0.425154
O O6 0.366522 0.723717 0.216144
O O7 0.430468 0.000000 0.274772
O O8 0.369089 0.500000 0.966068
O O9 0.347088 0.739789 0.858328
O O10 0.266865 0.725346 0.873988
O O11 0.304913 0.235141 0.380028
O O12 0.384300 0.269563 0.363914
O O13 0.385003 0.000000 0.419831
O O14 0.830750 0.749334 0.708605
O O15 0.797149 0.000000 0.733673
O O16 0.699351 0.500000 0.792761
O O17 0.678227 0.500000 0.375432
O O18 0.750000 0.750000 0.500000
#
# Coordination Sequence:
#
# PCOD8106866 Si02
#       7
#     8   8   8   8   8   8   8
#     4  11  24  41  59  84 116 148 188 238 285 330
#     4  10  21  37  57  79 111 156 195 228 277 343
#     4  10  21  41  63  82 108 148 195 233 275 336
#     4   9  17  34  58  82 110 149 193 229 272 336
#     4   8  17  35  60  84 110 149 191 229 273 334
#     4  11  22  35  55  85 117 146 183 237 290 332
#     4  11  22  39  62  89 119 151 188 229 278 334
#
# _framework density 20.146111999999999
#
# number of rings (size 3 to 8) (size 9 to 14) (size 15 to 20)
#    0.000    2.000    0.000    4.714    0.000    6.857 
#    0.000   12.857    0.000    0.000    0.000    0.000 
#    0.000    0.000    0.000    0.000    0.000    0.000 
#
# Total GULP energy -347266.180531 kJ/mol
# GULP energy per Si atom -12402.363590 kJ/mol
# Density = 2.010026 g / cm^3
# Si number density = 20.146112 Si / 1000 Ang^3
#
#
#
# Elastic Constant Matrix: (Units=GPa)
#
#
# Indices 1 2 3 4 5 6 
#
# 1 120.1538 35.9182 41.7831 0.0000 -13.1769 0.0000
# 2 35.9182 43.2524 18.3669 0.0000 -4.8377 0.0000
# 3 41.7831 18.3669 113.7537 0.0000 -8.0741 0.0000
# 4 0.0000 0.0000 0.0000 32.3028 0.0000 1.6479
# 5 -13.1769 -4.8377 -8.0741 0.0000 18.9704 0.0000
# 6 0.0000 0.0000 0.0000 1.6479 0.0000 27.8721
#
#
#
# Elastic Compliance Matrix: (Units=1/GPa)
#
#
# Indices 1 2 3 4 5 6 
#
# 1 0.012431 -0.008540 -0.002814 0.000000 0.005259 0.000000
# 2 -0.008540 0.031114 -0.001799 0.000000 0.001237 0.000000
# 3 -0.002814 -0.001799 0.010253 0.000000 0.001951 0.000000
# 4 0.000000 0.000000 0.000000 0.031051 0.000000 -0.001836
# 5 0.005259 0.001237 0.001951 0.000000 0.057513 0.000000
# 6 0.000000 0.000000 0.000000 -0.001836 0.000000 0.035987
#
#
# Mechanical properties :
#
#
# Convention : Reuss Voigt Hill
#
# Bulk Modulus (GPa) = 36.37324 52.14405 44.25864
# Shear Modulus (GPa) = 23.38435 27.90184 25.64310
#
# Velocity S-wave (km/s) = 3.41066 3.72556 3.57158
# Velocity P-wave (km/s) = 5.79690 6.66675 6.24698
#
# Compressibility (1/GPa) = 0.02749274
#
# Stress axis : x y z
#
# Youngs Moduli (GPa) = 80.44552 32.13968 97.52821
#
# Poissons Ratio (x) = 0.27447 0.27443
# Poissons Ratio (y) = 0.68699 0.17547
# Poissons Ratio (z) = 0.22636 0.05783
#
# Static dielectric constant tensor:
#      x y z
#    x 3.954240 0.000000 -0.184950 
#    y 0.000000 3.457680 0.000000 
#    z -0.184950 0.000000 3.512520 
# 
# 
# High freq. dielectric constant tensor:
#      x y z
#    x 1.796010 0.000000 -0.002410 
#    y 0.000000 1.770470 0.000000 
#    z -0.002410 0.000000 1.787260 
# 
# From -- ./inp_files/237846.got.cif
#   From: 2010.06.25/outbox.cif.g09.slc.cpg/sg12_119_cif.got.tgz:237846.got - 2010.06.28 00:19:55.
