data_PCOD8106763
_publ_section_title
;
Structure prediction by ZEFSAII (Michael W. Deem and Ramdas Pophale) SiO2 
 PCOD8106763
Probable space group: C 2/M
;
_chemical_formula_sum "Si O2"
_cell_formula_units_Z 44
_cell_length_a 5.248289
_cell_length_b 18.566609
_cell_length_c 23.525077
_cell_angle_alpha 90.000000
_cell_angle_beta 59.392551
_cell_angle_gamma 90.000000
_cell_volume 1972.972349
_symmetry_space_group_name_H-M "C 2/M"
_symmetry_group_IT_number 12
_symmetry_cell_setting 'monoclinic'
loop_
_space_group_symop_operation_xyz
x,y,z
-x,y,-z
-x,-y,-z
x,-y,z
1/2+x,1/2+y,z
1/2-x,1/2+y,-z
1/2-x,1/2-y,-z
1/2+x,1/2-y,z
loop_
_atom_site_type_symbol
_atom_site_label
_atom_site_fract_x
_atom_site_fract_y
_atom_site_fract_z
Si Si1 0.500000 0.199167 0.500000
Si Si2 0.346672 0.922371 0.956751
Si Si3 0.429267 0.215921 0.774790
Si Si4 0.210680 0.917430 0.614803
Si Si5 0.545220 0.774606 0.919378
Si Si6 0.981475 0.419767 0.300811
O O1 0.750000 0.250000 0.500000
O O2 0.633444 0.145046 0.438473
O O3 0.499237 0.857316 0.904803
O O4 0.396279 0.000000 0.920570
O O5 0.500000 0.924801 0.000000
O O6 0.000000 0.905523 0.000000
O O7 0.771323 0.240244 0.741479
O O8 0.278263 0.232793 0.852420
O O9 0.410780 0.131784 0.762283
O O10 0.314958 0.906376 0.667551
O O11 0.861264 0.905508 0.646132
O O12 0.293182 0.000000 0.586189
O O13 0.231718 0.730411 0.957687
O O14 0.026610 0.500000 0.272089
#
# Coordination Sequence:
#
# PCOD8106763 Si02
#       6
#     4   8   8   8   8   8
#     4  12  25  38  57  90 122 152 190 234 289 342
#     4  10  21  37  58  84 114 150 192 236 279 332
#     4  10  21  37  56  82 115 148 187 234 289 338
#     4  10  22  40  60  83 116 156 192 232 284 343
#     4  10  21  37  55  83 115 148 186 230 287 342
#     4  10  21  38  61  85 110 149 197 238 281 336
#
# _framework density 22.301376000000001
#
# number of rings (size 3 to 8) (size 9 to 14) (size 15 to 20)
#    0.000    1.818    0.000    3.545    0.000    6.545 
#    0.000   10.909    0.000    0.000    0.000    0.000 
#    0.000    0.000    0.000    0.000    0.000    0.000 
#
# Total GULP energy -272607.074467 kJ/mol
# GULP energy per Si atom -12391.230658 kJ/mol
# Density = 2.225062 g / cm^3
# Si number density = 22.301376 Si / 1000 Ang^3
#
#
#
# Elastic Constant Matrix: (Units=GPa)
#
#
# Indices 1 2 3 4 5 6 
#
# 1 162.0490 43.7271 11.0642 0.0000 -2.8102 0.0000
# 2 43.7271 181.0115 47.0022 0.0000 3.9586 0.0000
# 3 11.0642 47.0022 44.2947 0.0000 1.8956 0.0000
# 4 0.0000 0.0000 0.0000 48.4736 0.0000 -2.1471
# 5 -2.8102 3.9586 1.8956 0.0000 16.0083 0.0000
# 6 0.0000 0.0000 0.0000 -2.1471 0.0000 38.2034
#
#
#
# Elastic Compliance Matrix: (Units=1/GPa)
#
#
# Indices 1 2 3 4 5 6 
#
# 1 0.006640 -0.001643 0.000018 0.000000 0.001570 0.000000
# 2 -0.001643 0.008046 -0.008071 0.000000 -0.001322 0.000000
# 3 0.000018 -0.008071 0.031208 0.000000 -0.001697 0.000000
# 4 0.000000 0.000000 0.000000 0.020681 0.000000 0.001162
# 5 0.001570 -0.001322 -0.001697 0.000000 0.063271 0.000000
# 6 0.000000 0.000000 0.000000 0.001162 0.000000 0.026241
#
#
# Mechanical properties :
#
#
# Convention : Reuss Voigt Hill
#
# Bulk Modulus (GPa) = 37.73259 65.66025 51.69642
# Shear Modulus (GPa) = 27.12747 39.57451 33.35099
#
# Velocity S-wave (km/s) = 3.49148 4.21709 3.87132
# Velocity P-wave (km/s) = 5.76282 7.29506 6.57374
#
# Compressibility (1/GPa) = 0.02650229
#
# Stress axis : x y z
#
# Youngs Moduli (GPa) = 150.59453 124.28454 32.04257
#
# Poissons Ratio (x) = 0.20420 -0.00056
# Poissons Ratio (y) = 0.24743 0.25861
# Poissons Ratio (z) = -0.00265 1.00308
#
# Static dielectric constant tensor:
#      x y z
#    x 4.967980 0.000000 -0.018940 
#    y 0.000000 4.610470 0.000000 
#    z -0.018940 0.000000 3.489780 
# 
# 
# High freq. dielectric constant tensor:
#      x y z
#    x 1.927590 0.000000 -0.003430 
#    y 0.000000 1.898160 0.000000 
#    z -0.003430 0.000000 1.833060 
# 
# From -- ./inp_files/331020.got.cif
#   From: 2010.06.25/outbox.cif.g09.slc.cpg/sg12_166_cif.got.tgz:331020.got - 2010.06.28 00:19:55.
