data_PCOD8106448
_publ_section_title
;
Structure prediction by ZEFSAII (Michael W. Deem and Ramdas Pophale) SiO2 
 PCOD8106448
Probable space group: C 2/M
;
_chemical_formula_sum "Si O2"
_cell_formula_units_Z 32
_cell_length_a 27.703284
_cell_length_b 10.248395
_cell_length_c 11.106984
_cell_angle_alpha 90.000000
_cell_angle_beta 150.542616
_cell_angle_gamma 90.000000
_cell_volume 1550.781608
_symmetry_space_group_name_H-M "C 2/M"
_symmetry_group_IT_number 12
_symmetry_cell_setting 'monoclinic'
loop_
_space_group_symop_operation_xyz
x,y,z
-x,y,-z
-x,-y,-z
x,-y,z
1/2+x,1/2+y,z
1/2-x,1/2+y,-z
1/2-x,1/2-y,-z
1/2+x,1/2-y,z
loop_
_atom_site_type_symbol
_atom_site_label
_atom_site_fract_x
_atom_site_fract_y
_atom_site_fract_z
Si Si1 0.163729 0.752403 0.139061
Si Si2 0.142631 0.142700 0.349488
Si Si3 0.955279 0.351909 0.706206
Si Si4 0.729487 0.146937 0.852166
O O1 0.151188 0.848875 0.224387
O O2 0.250503 0.651275 0.357394
O O3 0.191877 0.837250 0.084054
O O4 0.064527 0.673408 0.895301
O O5 0.069903 0.255110 0.238585
O O6 0.099385 0.000000 0.288092
O O7 0.945202 0.500000 0.732861
O O8 0.880688 0.328078 0.434481
O O9 0.739496 0.000000 0.925354
O O10 0.750000 0.250000 0.000000
#
# Coordination Sequence:
#
# PCOD8106448 Si02
#       4
#     8   8   8   8
#     4  10  21  37  60  85 116 153 190 230 281 337
#     4  10  21  36  58  89 121 150 185 231 281 336
#     4  10  22  39  60  86 116 151 190 231 281 343
#     4  10  23  42  60  82 113 149 193 242 286 333
#
# _framework density 20.634755999999999
#
# number of rings (size 3 to 8) (size 9 to 14) (size 15 to 20)
#    0.000    2.000    0.000    2.250    0.000   17.000 
#    0.000    3.750    0.000    0.000    0.000    0.000 
#    0.000    0.000    0.000    0.000    0.000    0.000 
#
# Total GULP energy -198418.343677 kJ/mol
# GULP energy per Si atom -12401.146480 kJ/mol
# Density = 2.058779 g / cm^3
# Si number density = 20.634756 Si / 1000 Ang^3
#
#
#
# Elastic Constant Matrix: (Units=GPa)
#
#
# Indices 1 2 3 4 5 6 
#
# 1 90.5597 52.1649 61.3728 0.0000 -3.3257 0.0000
# 2 52.1649 165.8579 56.9758 0.0000 -8.5474 0.0000
# 3 61.3728 56.9758 108.6747 0.0000 17.2394 0.0000
# 4 0.0000 0.0000 0.0000 9.5508 0.0000 3.8348
# 5 -3.3257 -8.5474 17.2394 0.0000 38.9953 0.0000
# 6 0.0000 0.0000 0.0000 3.8348 0.0000 32.1425
#
#
#
# Elastic Compliance Matrix: (Units=1/GPa)
#
#
# Indices 1 2 3 4 5 6 
#
# 1 0.020108 -0.002154 -0.011209 0.000000 0.006198 0.000000
# 2 -0.002154 0.008076 -0.003516 0.000000 0.003141 0.000000
# 3 -0.011209 -0.003516 0.018981 0.000000 -0.010118 0.000000
# 4 0.000000 0.000000 0.000000 0.109972 0.000000 -0.013120
# 5 0.006198 0.003141 -0.010118 0.000000 0.031334 0.000000
# 6 0.000000 0.000000 0.000000 -0.013120 0.000000 0.032677
#
#
# Mechanical properties :
#
#
# Convention : Reuss Voigt Hill
#
# Bulk Modulus (GPa) = 74.59656 78.45769 76.52713
# Shear Modulus (GPa) = 19.27711 29.10964 24.19337
#
# Velocity S-wave (km/s) = 3.05979 3.76002 3.42783
# Velocity P-wave (km/s) = 6.97944 7.54685 7.26868
#
# Compressibility (1/GPa) = 0.01340544
#
# Stress axis : x y z
#
# Youngs Moduli (GPa) = 49.73259 123.81646 52.68528
#
# Poissons Ratio (x) = 0.26670 0.59057
# Poissons Ratio (y) = 0.10712 0.18525
# Poissons Ratio (z) = 0.55747 0.43536
#
# Static dielectric constant tensor:
#      x y z
#    x 3.543180 0.000000 0.192120 
#    y 0.000000 3.671390 0.000000 
#    z 0.192120 0.000000 3.902980 
# 
# 
# High freq. dielectric constant tensor:
#      x y z
#    x 1.787590 0.000000 0.011910 
#    y 0.000000 1.810450 0.000000 
#    z 0.011910 0.000000 1.817220 
# 
# From -- ./inp_files/94027.got.cif
#   From: 2010.06.25/outbox.cif.g09.slc.cpg/sg12_48_cif.got.tgz:94027.got - 2010.06.28 00:19:55.
