data_PCOD8106666
_publ_section_title
;
Structure prediction by ZEFSAII (Michael W. Deem and Ramdas Pophale) SiO2 
 PCOD8106666
Probable space group: C 2/M
;
_chemical_formula_sum "Si O2"
_cell_formula_units_Z 56
_cell_length_a 22.188703
_cell_length_b 9.884156
_cell_length_c 30.248263
_cell_angle_alpha 90.000000
_cell_angle_beta 154.088629
_cell_angle_gamma 90.000000
_cell_volume 2898.903872
_symmetry_space_group_name_H-M "C 2/M"
_symmetry_group_IT_number 12
_symmetry_cell_setting 'monoclinic'
loop_
_space_group_symop_operation_xyz
x,y,z
-x,y,-z
-x,-y,-z
x,-y,z
1/2+x,1/2+y,z
1/2-x,1/2+y,-z
1/2-x,1/2-y,-z
1/2+x,1/2-y,z
loop_
_atom_site_type_symbol
_atom_site_label
_atom_site_fract_x
_atom_site_fract_y
_atom_site_fract_z
Si Si1 0.652122 0.345100 0.692291
Si Si2 0.201966 0.646661 0.029483
Si Si3 0.632693 0.658092 0.780228
Si Si4 0.536936 0.715694 0.848614
Si Si5 0.241160 0.652056 0.678246
Si Si6 0.562310 0.849393 0.300755
Si Si7 0.645199 0.346623 0.541363
O O1 0.695432 0.500000 0.709600
O O2 0.680388 0.312449 0.762132
O O3 0.742051 0.237141 0.724335
O O4 0.490681 0.322193 0.576829
O O5 0.134770 0.500000 0.991420
O O6 0.243574 0.705103 0.105195
O O7 0.340724 0.627733 0.091632
O O8 0.087231 0.735811 0.929913
O O9 0.597608 0.500000 0.764286
O O10 0.496350 0.742432 0.702805
O O11 0.397132 0.632478 0.763842
O O12 0.503371 0.836016 0.791813
O O13 0.180157 0.500000 0.643957
O O14 0.147453 0.738590 0.582624
O O15 0.726202 0.824503 0.406444
O O16 0.528891 0.000000 0.295701
O O17 0.648384 0.500000 0.563313
#
# Coordination Sequence:
#
# PCOD8106666 Si02
#       7
#     8   8   8   8   8   8   8
#     4  10  21  37  53  70 101 143 177 206 247 300
#     4   9  16  30  53  77  99 128 167 206 247 301
#     4   9  19  34  51  74 104 137 172 210 251 295
#     4   9  18  31  50  76 106 131 158 204 263 306
#     4  11  22  35  53  78 104 130 167 214 257 298
#     4   9  17  30  50  76 103 131 167 210 255 304
#     4   9  19  35  54  76 102 134 170 208 254 304
#
# _framework density 19.317646
#
# number of rings (size 3 to 8) (size 9 to 14) (size 15 to 20)
#    0.000    2.571    0.000    1.714    0.000    8.571 
#    0.000    1.429    0.000    3.429    0.000    0.000 
#    0.000    0.000    0.000    0.000    0.000    0.000 
#
# Total GULP energy -347051.872192 kJ/mol
# GULP energy per Si atom -12394.709721 kJ/mol
# Density = 1.927368 g / cm^3
# Si number density = 19.317646 Si / 1000 Ang^3
#
#
#
# Elastic Constant Matrix: (Units=GPa)
#
#
# Indices 1 2 3 4 5 6 
#
# 1 68.6831 34.3396 10.2827 0.0004 -20.4996 -0.0002
# 2 34.3396 99.5963 9.3366 -0.0011 -8.8892 -0.0003
# 3 10.2827 9.3366 56.4288 -0.0031 -13.5831 -0.0002
# 4 0.0004 -0.0011 -0.0031 14.4840 0.0003 -0.3574
# 5 -20.4996 -8.8892 -13.5831 0.0003 27.9806 0.0001
# 6 -0.0002 -0.0003 -0.0002 -0.3574 0.0001 28.2251
#
#
#
# Elastic Compliance Matrix: (Units=1/GPa)
#
#
# Indices 1 2 3 4 5 6 
#
# 1 0.021912 -0.006326 0.000492 -0.000001 0.014282 0.000000
# 2 -0.006326 0.012214 -0.001189 0.000001 -0.001332 0.000000
# 3 0.000492 -0.001189 0.020183 0.000004 0.009780 0.000000
# 4 -0.000001 0.000001 0.000004 0.069063 0.000001 0.000875
# 5 0.014282 -0.001332 0.009780 0.000001 0.050528 0.000000
# 6 0.000000 0.000000 0.000000 0.000875 0.000000 0.035441
#
#
# Mechanical properties :
#
#
# Convention : Reuss Voigt Hill
#
# Bulk Modulus (GPa) = 24.83698 36.95845 30.89772
# Shear Modulus (GPa) = 21.11421 25.52123 23.31772
#
# Velocity S-wave (km/s) = 3.30964 3.63869 3.47806
# Velocity P-wave (km/s) = 5.24310 6.06852 5.67084
#
# Compressibility (1/GPa) = 0.04026254
#
# Stress axis : x y z
#
# Youngs Moduli (GPa) = 45.63755 81.87083 49.54725
#
# Poissons Ratio (x) = 0.51794 -0.02437
# Poissons Ratio (y) = 0.28872 0.05890
# Poissons Ratio (z) = -0.02244 0.09732
#
# Static dielectric constant tensor:
#      x y z
#    x 3.380220 0.000000 -0.085720 
#    y 0.000000 3.417780 0.000000 
#    z -0.085720 0.000000 3.470070 
# 
# 
# High freq. dielectric constant tensor:
#      x y z
#    x 1.732460 0.000000 -0.004540 
#    y 0.000000 1.744120 0.000000 
#    z -0.004540 0.000000 1.745230 
# 
# From -- ./inp_files/380797.got.cif
#   From: 2010.06.25/outbox.cif.g09.slc.cpg/sg12_191_cif.got.tgz:380797.got - 2010.06.28 00:19:55.
