data_PCOD8106112
_publ_section_title
;
Structure prediction by ZEFSAII (Michael W. Deem and Ramdas Pophale) SiO2 
 PCOD8106112
Probable space group: C 2/M
;
_chemical_formula_sum "Si O2"
_cell_formula_units_Z 56
_cell_length_a 15.488905
_cell_length_b 8.941310
_cell_length_c 19.600005
_cell_angle_alpha 90.000000
_cell_angle_beta 90.656606
_cell_angle_gamma 90.000000
_cell_volume 2714.248034
_symmetry_space_group_name_H-M "C 2/M"
_symmetry_group_IT_number 12
_symmetry_cell_setting 'monoclinic'
loop_
_space_group_symop_operation_xyz
x,y,z
-x,y,-z
-x,-y,-z
x,-y,z
1/2+x,1/2+y,z
1/2-x,1/2+y,-z
1/2-x,1/2-y,-z
1/2+x,1/2-y,z
loop_
_atom_site_type_symbol
_atom_site_label
_atom_site_fract_x
_atom_site_fract_y
_atom_site_fract_z
Si Si1 0.414460 0.176330 0.811817
Si Si2 0.405334 0.672277 0.193400
Si Si3 0.339236 0.164167 0.071317
Si Si4 0.895554 0.176045 0.672465
Si Si5 0.142522 0.164337 0.055111
Si Si6 0.740330 0.823893 0.572639
Si Si7 0.091816 0.829087 0.652194
O O1 0.513052 0.223443 0.817919
O O2 0.372156 0.242988 0.742854
O O3 0.367453 0.238943 0.877400
O O4 0.403806 0.000000 0.809448
O O5 0.428208 0.500000 0.178175
O O6 0.335228 0.735216 0.139969
O O7 0.372416 0.688798 0.270513
O O8 0.243347 0.139448 0.044108
O O9 0.381197 0.000000 0.085256
O O10 0.393867 0.248900 0.012213
O O11 0.823312 0.225607 0.617693
O O12 0.991338 0.222522 0.646861
O O13 0.894577 0.000000 0.687037
O O14 0.097908 0.000000 0.060972
O O15 0.750000 0.750000 0.500000
O O16 0.650104 0.773664 0.604900
O O17 0.737839 0.000000 0.563805
O O18 0.100321 0.000000 0.627340
#
# Coordination Sequence:
#
# PCOD8106112 Si02
#       7
#     8   8   8   8   8   8   8
#     4  11  22  36  58  86 114 147 195 246 290 346
#     4  10  21  38  59  83 115 153 192 237 297 357
#     4  10  21  36  55  81 112 148 195 246 292 347
#     4   9  21  42  63  87 122 165 201 242 302 364
#     4  10  21  37  55  78 113 153 192 239 298 355
#     4  11  24  41  64  93 125 159 201 243 294 358
#     4   9  20  40  63  88 121 159 202 246 296 356
#
# _framework density 20.631865000000001
#
# number of rings (size 3 to 8) (size 9 to 14) (size 15 to 20)
#    0.000    2.000    0.000    3.857    2.000    6.857 
#    0.000    5.714    0.000    0.000    0.000    0.000 
#    0.000    0.000    0.000    0.000    0.000    0.000 
#
# Total GULP energy -347160.579247 kJ/mol
# GULP energy per Si atom -12398.592116 kJ/mol
# Density = 2.058491 g / cm^3
# Si number density = 20.631865 Si / 1000 Ang^3
#
#
#
# Elastic Constant Matrix: (Units=GPa)
#
#
# Indices 1 2 3 4 5 6 
#
# 1 39.4229 14.4029 19.8340 0.0000 -15.2028 0.0000
# 2 14.4029 108.9621 53.5859 0.0000 -13.5911 0.0000
# 3 19.8340 53.5859 113.4871 0.0000 -17.9910 0.0000
# 4 0.0000 0.0000 0.0000 38.2153 0.0000 -2.1545
# 5 -15.2028 -13.5911 -17.9910 0.0000 24.0996 0.0000
# 6 0.0000 0.0000 0.0000 -2.1545 0.0000 30.3472
#
#
#
# Elastic Compliance Matrix: (Units=1/GPa)
#
#
# Indices 1 2 3 4 5 6 
#
# 1 0.034415 -0.000896 -0.002529 0.000000 0.019317 0.000000
# 2 -0.000896 0.012154 -0.005201 0.000000 0.002407 0.000000
# 3 -0.002529 -0.005201 0.012467 0.000000 0.004778 0.000000
# 4 0.000000 0.000000 0.000000 0.026273 0.000000 0.001865
# 5 0.019317 0.002407 0.004778 0.000000 0.058604 0.000000
# 6 0.000000 0.000000 0.000000 0.001865 0.000000 0.033084
#
#
# Mechanical properties :
#
#
# Convention : Reuss Voigt Hill
#
# Bulk Modulus (GPa) = 23.93277 48.61309 36.27293
# Shear Modulus (GPa) = 24.01813 30.13571 27.07692
#
# Velocity S-wave (km/s) = 3.41563 3.82598 3.62661
# Velocity P-wave (km/s) = 5.21349 6.56740 5.92922
#
# Compressibility (1/GPa) = 0.04178372
#
# Stress axis : x y z
#
# Youngs Moduli (GPa) = 29.05719 82.27970 80.21354
#
# Poissons Ratio (x) = 0.07370 0.20290
# Poissons Ratio (y) = 0.02603 0.41716
# Poissons Ratio (z) = 0.07350 0.42790
#
# Static dielectric constant tensor:
#      x y z
#    x 3.558030 0.000000 0.092570 
#    y 0.000000 3.959700 0.000000 
#    z 0.092570 0.000000 3.795970 
# 
# 
# High freq. dielectric constant tensor:
#      x y z
#    x 1.792580 0.000000 0.002040 
#    y 0.000000 1.817070 0.000000 
#    z 0.002040 0.000000 1.809680 
# 
# From -- ./inp_files/308931.got.cif
#   From: 2010.06.25/outbox.cif.g09.slc.cpg/sg12_155_cif.got.tgz:308931.got - 2010.06.28 00:19:55.
