data_PCOD8106169
_publ_section_title
;
Structure prediction by ZEFSAII (Michael W. Deem and Ramdas Pophale) SiO2 
 PCOD8106169
Probable space group: C 2/M
;
_chemical_formula_sum "Si O2"
_cell_formula_units_Z 64
_cell_length_a 24.714723
_cell_length_b 9.147832
_cell_length_c 14.951386
_cell_angle_alpha 90.000000
_cell_angle_beta 71.243006
_cell_angle_gamma 90.000000
_cell_volume 3200.776260
_symmetry_space_group_name_H-M "C 2/M"
_symmetry_group_IT_number 12
_symmetry_cell_setting 'monoclinic'
loop_
_space_group_symop_operation_xyz
x,y,z
-x,y,-z
-x,-y,-z
x,-y,z
1/2+x,1/2+y,z
1/2-x,1/2+y,-z
1/2-x,1/2-y,-z
1/2+x,1/2-y,z
loop_
_atom_site_type_symbol
_atom_site_label
_atom_site_fract_x
_atom_site_fract_y
_atom_site_fract_z
Si Si1 0.628712 0.167682 0.743010
Si Si2 0.025104 0.167552 0.395583
Si Si3 0.703712 0.167989 0.184096
Si Si4 0.498245 0.168836 0.234965
Si Si5 0.833279 0.167641 0.107228
Si Si6 0.189407 0.327661 0.525015
Si Si7 0.385903 0.172213 0.917155
Si Si8 0.345668 0.331170 0.630447
O O1 0.560921 0.198331 0.784461
O O2 0.659868 0.270367 0.797021
O O3 0.652542 0.205595 0.632550
O O4 0.642015 0.000000 0.760110
O O5 0.996216 0.249273 0.329465
O O6 0.092906 0.186310 0.356808
O O7 0.000000 0.235676 0.500000
O O8 0.006153 0.000000 0.398263
O O9 0.767509 0.185174 0.112118
O O10 0.659910 0.225105 0.132191
O O11 0.699396 0.265252 0.275571
O O12 0.690056 0.000000 0.216525
O O13 0.550870 0.222994 0.145976
O O14 0.506571 0.000000 0.253863
O O15 0.852171 0.000000 0.097511
O O16 0.873745 0.252476 0.017635
O O17 0.197940 0.500000 0.505240
O O18 0.250000 0.250000 0.500000
O O19 0.155084 0.258674 0.460799
O O20 0.381882 0.000000 0.934255
O O21 0.330108 0.500000 0.619501
#
# Coordination Sequence:
#
# PCOD8106169 Si02
#       8
#     8   8   8   8   8   8   8   8
#     4  10  23  42  61  85 117 156 202 246 292 349
#     4  10  21  36  55  84 120 155 190 233 289 348
#     4  10  21  39  61  88 120 154 197 245 295 351
#     4  10  21  39  63  87 114 153 199 244 291 345
#     4  11  24  39  60  88 117 154 197 244 299 356
#     4  11  23  39  60  86 119 158 201 247 293 346
#     4  10  21  39  63  88 117 152 193 247 301 350
#     4  11  22  35  57  88 120 156 193 235 292 351
#
# _framework density 19.995149999999999
#
# number of rings (size 3 to 8) (size 9 to 14) (size 15 to 20)
#    0.000    1.625    1.250    3.000    0.000    6.750 
#    0.000    2.500    0.000    0.000    0.000    0.000 
#    0.000    0.000    0.000    0.000    0.000    0.000 
#
# Total GULP energy -396980.457536 kJ/mol
# GULP energy per Si atom -12405.639298 kJ/mol
# Density = 1.994964 g / cm^3
# Si number density = 19.995150 Si / 1000 Ang^3
#
#
#
# Elastic Constant Matrix: (Units=GPa)
#
#
# Indices 1 2 3 4 5 6 
#
# 1 75.4307 28.4762 21.2824 0.0000 -7.8231 0.0000
# 2 28.4762 77.9804 45.6795 0.0000 1.7484 0.0000
# 3 21.2824 45.6795 109.8057 0.0000 -5.7311 0.0000
# 4 0.0000 0.0000 0.0000 35.6018 0.0000 5.3789
# 5 -7.8231 1.7484 -5.7311 0.0000 33.5241 0.0000
# 6 0.0000 0.0000 0.0000 5.3789 0.0000 28.4429
#
#
#
# Elastic Compliance Matrix: (Units=1/GPa)
#
#
# Indices 1 2 3 4 5 6 
#
# 1 0.015926 -0.005573 -0.000564 0.000000 0.003911 0.000000
# 2 -0.005573 0.019055 -0.007029 0.000000 -0.003496 0.000000
# 3 -0.000564 -0.007029 0.012262 0.000000 0.002331 0.000000
# 4 0.000000 0.000000 0.000000 0.028915 0.000000 -0.005468
# 5 0.003911 -0.003496 0.002331 0.000000 0.031323 0.000000
# 6 0.000000 0.000000 0.000000 -0.005468 0.000000 0.036192
#
#
# Mechanical properties :
#
#
# Convention : Reuss Voigt Hill
#
# Bulk Modulus (GPa) = 47.82358 50.45480 49.13919
# Shear Modulus (GPa) = 28.25261 30.69901 29.47581
#
# Velocity S-wave (km/s) = 3.76303 3.92257 3.84363
# Velocity P-wave (km/s) = 6.54600 6.76784 6.65784
#
# Compressibility (1/GPa) = 0.02091019
#
# Stress axis : x y z
#
# Youngs Moduli (GPa) = 62.79116 52.48051 81.55143
#
# Poissons Ratio (x) = 0.29246 0.04602
# Poissons Ratio (y) = 0.34992 0.57324
# Poissons Ratio (z) = 0.03543 0.36889
#
# Static dielectric constant tensor:
#      x y z
#    x 3.676060 0.000000 -0.107050 
#    y 0.000000 3.641880 0.000000 
#    z -0.107050 0.000000 3.590130 
# 
# 
# High freq. dielectric constant tensor:
#      x y z
#    x 1.786550 0.000000 -0.006070 
#    y 0.000000 1.777810 0.000000 
#    z -0.006070 0.000000 1.785380 
# 
# From -- ./inp_files/243775.got.cif
#   From: 2010.06.25/outbox.cif.g09.slc.cpg/sg12_122_cif.got.tgz:243775.got - 2010.06.28 00:19:55.
