data_PCOD8106835
_publ_section_title
;
Structure prediction by ZEFSAII (Michael W. Deem and Ramdas Pophale) SiO2 
 PCOD8106835
Probable space group: C 2/M
;
_chemical_formula_sum "Si O2"
_cell_formula_units_Z 40
_cell_length_a 18.146648
_cell_length_b 10.663426
_cell_length_c 19.269752
_cell_angle_alpha 90.000000
_cell_angle_beta 149.669300
_cell_angle_gamma 90.000000
_cell_volume 1883.008266
_symmetry_space_group_name_H-M "C 2/M"
_symmetry_group_IT_number 12
_symmetry_cell_setting 'monoclinic'
loop_
_space_group_symop_operation_xyz
x,y,z
-x,y,-z
-x,-y,-z
x,-y,z
1/2+x,1/2+y,z
1/2-x,1/2+y,-z
1/2-x,1/2-y,-z
1/2+x,1/2-y,z
loop_
_atom_site_type_symbol
_atom_site_label
_atom_site_fract_x
_atom_site_fract_y
_atom_site_fract_z
Si Si1 0.007880 0.356957 0.721420
Si Si2 0.609114 0.271443 0.239803
Si Si3 0.920621 0.359473 0.502006
Si Si4 0.664071 0.865484 0.154612
Si Si5 0.316903 0.640610 0.929318
O O1 0.951522 0.500000 0.681756
O O2 0.183406 0.351634 0.875377
O O3 0.930251 0.274337 0.715968
O O4 0.967679 0.296983 0.613483
O O5 0.745296 0.365405 0.354640
O O6 0.666733 0.156584 0.239484
O O7 0.469818 0.337107 0.091506
O O8 0.983355 0.500000 0.555405
O O9 0.000000 0.291663 0.500000
O O10 0.722976 0.742780 0.162313
O O11 0.745423 0.000000 0.204816
O O12 0.500000 0.884596 0.000000
O O13 0.321257 0.500000 0.899691
#
# Coordination Sequence:
#
# PCOD8106835 Si02
#       5
#     8   8   8   8   8
#     4  10  21  37  56  82 116 152 188 231 288 345
#     4  11  20  34  58  84 114 148 192 239 283 334
#     4  10  21  37  57  81 112 151 194 238 285 339
#     4   9  19  34  54  81 114 152 189 228 280 338
#     4  10  21  37  60  88 116 149 192 238 281 334
#
# _framework density 21.242605000000001
#
# number of rings (size 3 to 8) (size 9 to 14) (size 15 to 20)
#    0.000    2.000    0.000    3.600    0.000    6.800 
#    0.000    2.000    0.000   13.200    0.000    0.000 
#    0.000    0.000    0.000    0.000    0.000    0.000 
#
# Total GULP energy -247777.313115 kJ/mol
# GULP energy per Si atom -12388.865656 kJ/mol
# Density = 2.119426 g / cm^3
# Si number density = 21.242605 Si / 1000 Ang^3
#
#
#
# Elastic Constant Matrix: (Units=GPa)
#
#
# Indices 1 2 3 4 5 6 
#
# 1 152.2797 55.6072 48.0888 0.0002 -13.6450 0.0001
# 2 55.6072 123.4121 12.6435 0.0003 -11.5980 0.0001
# 3 48.0888 12.6435 95.8256 0.0004 3.2472 0.0002
# 4 0.0002 0.0003 0.0004 27.6869 0.0002 4.7302
# 5 -13.6450 -11.5980 3.2472 0.0002 40.1109 0.0001
# 6 0.0001 0.0001 0.0002 4.7302 0.0001 25.6414
#
#
#
# Elastic Compliance Matrix: (Units=1/GPa)
#
#
# Indices 1 2 3 4 5 6 
#
# 1 0.009486 -0.003587 -0.004373 0.000000 0.002544 0.000000
# 2 -0.003587 0.009822 0.000451 0.000000 0.001583 0.000000
# 3 -0.004373 0.000451 0.012652 0.000000 -0.002382 0.000000
# 4 0.000000 0.000000 0.000000 0.037294 0.000000 -0.006880
# 5 0.002544 0.001583 -0.002382 0.000000 0.026447 0.000000
# 6 0.000000 0.000000 0.000000 -0.006880 0.000000 0.040269
#
#
# Mechanical properties :
#
#
# Convention : Reuss Voigt Hill
#
# Bulk Modulus (GPa) = 59.03297 67.13292 63.08295
# Shear Modulus (GPa) = 31.92158 35.69968 33.81063
#
# Velocity S-wave (km/s) = 3.88069 4.10392 3.99387
# Velocity P-wave (km/s) = 6.92314 7.35716 7.14345
#
# Compressibility (1/GPa) = 0.01693969
#
# Stress axis : x y z
#
# Youngs Moduli (GPa) = 105.42237 101.81435 79.04191
#
# Poissons Ratio (x) = 0.36521 0.34566
# Poissons Ratio (y) = 0.37815 -0.03561
# Poissons Ratio (z) = 0.46103 -0.04587
#
# Static dielectric constant tensor:
#      x y z
#    x 3.884280 0.000000 -0.077470 
#    y 0.000000 4.076120 0.000000 
#    z -0.077470 0.000000 3.915420 
# 
# 
# High freq. dielectric constant tensor:
#      x y z
#    x 1.830040 0.000000 -0.000680 
#    y 0.000000 1.812200 0.000000 
#    z -0.000680 0.000000 1.831230 
# 
# From -- ./inp_files/71344.got.cif
#   From: 2010.06.25/outbox.cif.g09.slc.cpg/sg12_36_cif.got.tgz:71344.got - 2010.06.28 00:19:55.
