data_PCOD8106233
_publ_section_title
;
Structure prediction by ZEFSAII (Michael W. Deem and Ramdas Pophale) SiO2 
 PCOD8106233
Probable space group: C 2/M
;
_chemical_formula_sum "Si O2"
_cell_formula_units_Z 64
_cell_length_a 28.537136
_cell_length_b 9.122475
_cell_length_c 16.684644
_cell_angle_alpha 90.000000
_cell_angle_beta 133.390876
_cell_angle_gamma 90.000000
_cell_volume 3156.353633
_symmetry_space_group_name_H-M "C 2/M"
_symmetry_group_IT_number 12
_symmetry_cell_setting 'monoclinic'
loop_
_space_group_symop_operation_xyz
x,y,z
-x,y,-z
-x,-y,-z
x,-y,z
1/2+x,1/2+y,z
1/2-x,1/2+y,-z
1/2-x,1/2-y,-z
1/2+x,1/2-y,z
loop_
_atom_site_type_symbol
_atom_site_label
_atom_site_fract_x
_atom_site_fract_y
_atom_site_fract_z
Si Si1 0.988015 0.171876 0.183471
Si Si2 0.704524 0.161882 0.004575
Si Si3 0.424810 0.330885 0.401145
Si Si4 0.384695 0.169868 0.665492
Si Si5 0.640604 0.671343 0.063538
Si Si6 0.192472 0.667859 0.269276
Si Si7 0.159664 0.171726 0.546019
Si Si8 0.924341 0.337906 0.244001
O O1 0.975718 0.235723 0.258377
O O2 0.052056 0.248983 0.225429
O O3 0.999582 0.000000 0.206856
O O4 0.930563 0.206294 0.053875
O O5 0.696380 0.248985 0.077857
O O6 0.733623 0.000000 0.056396
O O7 0.750000 0.250000 0.000000
O O8 0.635949 0.145462 0.883900
O O9 0.500000 0.298746 0.500000
O O10 0.411124 0.500000 0.365749
O O11 0.385556 0.281037 0.433187
O O12 0.400534 0.235758 0.298029
O O13 0.327639 0.192113 0.662369
O O14 0.362531 0.237976 0.556341
O O15 0.401209 0.000000 0.672113
O O16 0.654745 0.500000 0.077396
O O17 0.646818 0.730714 0.160874
O O18 0.181577 0.500000 0.230239
O O19 0.266923 0.713229 0.346816
O O20 0.152648 0.000000 0.518238
O O21 0.953734 0.500000 0.295041
#
# Coordination Sequence:
#
# PCOD8106233 Si02
#       8
#     8   8   8   8   8   8   8   8
#     4  10  21  39  62  87 119 157 199 246 299 360
#     4  10  21  36  56  83 117 155 194 237 287 348
#     4  10  21  36  56  84 117 155 196 238 289 350
#     4  11  23  39  62  89 117 153 200 252 307 357
#     4  10  22  39  60  88 119 156 201 248 298 354
#     4  10  23  41  60  87 122 160 199 246 304 361
#     4  10  22  40  61  86 119 160 203 244 297 360
#     4  10  21  36  56  85 117 150 191 239 290 343
#
# _framework density 20.276564
#
# number of rings (size 3 to 8) (size 9 to 14) (size 15 to 20)
#    0.000    1.875    0.000    3.000    1.750    6.750 
#    0.000    2.500    0.000    0.000    0.000    0.000 
#    0.000    0.000    0.000    0.000    0.000    0.000 
#
# Total GULP energy -396910.139839 kJ/mol
# GULP energy per Si atom -12403.441870 kJ/mol
# Density = 2.023041 g / cm^3
# Si number density = 20.276564 Si / 1000 Ang^3
#
#
#
# Elastic Constant Matrix: (Units=GPa)
#
#
# Indices 1 2 3 4 5 6 
#
# 1 128.3635 55.1252 49.4485 0.0000 1.2388 0.0000
# 2 55.1252 123.5143 55.9310 0.0000 -3.3358 0.0000
# 3 49.4485 55.9310 84.6706 0.0000 -10.1572 0.0000
# 4 0.0000 0.0000 0.0000 34.9873 0.0000 -3.8650
# 5 1.2388 -3.3358 -10.1572 0.0000 31.6109 0.0000
# 6 0.0000 0.0000 0.0000 -3.8650 0.0000 34.0724
#
#
#
# Elastic Compliance Matrix: (Units=1/GPa)
#
#
# Indices 1 2 3 4 5 6 
#
# 1 0.010829 -0.002722 -0.004796 0.000000 -0.002253 0.000000
# 2 -0.002722 0.012286 -0.006613 0.000000 -0.000722 0.000000
# 3 -0.004796 -0.006613 0.019677 0.000000 0.005813 0.000000
# 4 0.000000 0.000000 0.000000 0.028944 0.000000 0.003283
# 5 -0.002253 -0.000722 0.005813 0.000000 0.033515 0.000000
# 6 0.000000 0.000000 0.000000 0.003283 0.000000 0.029722
#
#
# Mechanical properties :
#
#
# Convention : Reuss Voigt Hill
#
# Bulk Modulus (GPa) = 68.82363 73.06197 70.94280
# Shear Modulus (GPa) = 29.74816 31.87036 30.80926
#
# Velocity S-wave (km/s) = 3.83446 3.96887 3.90224
# Velocity P-wave (km/s) = 7.32258 7.55735 7.44089
#
# Compressibility (1/GPa) = 0.01452989
#
# Stress axis : x y z
#
# Youngs Moduli (GPa) = 92.34771 81.39371 50.82045
#
# Poissons Ratio (x) = 0.22154 0.24375
# Poissons Ratio (y) = 0.25135 0.33606
# Poissons Ratio (z) = 0.44293 0.53824
#
# Static dielectric constant tensor:
#      x y z
#    x 3.968100 0.000000 0.245340 
#    y 0.000000 3.819540 0.000000 
#    z 0.245340 0.000000 3.738720 
# 
# 
# High freq. dielectric constant tensor:
#      x y z
#    x 1.796890 0.000000 -0.000080 
#    y 0.000000 1.799670 0.000000 
#    z -0.000080 0.000000 1.786750 
# 
# From -- ./inp_files/295852.got.cif
#   From: 2010.06.25/outbox.cif.g09.slc.cpg/sg12_148_cif.got.tgz:295852.got - 2010.06.28 00:19:55.
