data_PCOD8106031
_publ_section_title
;
Structure prediction by ZEFSAII (Michael W. Deem and Ramdas Pophale) SiO2 
 PCOD8106031
Probable space group: C 2/M
;
_chemical_formula_sum "Si O2"
_cell_formula_units_Z 64
_cell_length_a 20.763944
_cell_length_b 8.868638
_cell_length_c 23.086180
_cell_angle_alpha 90.000000
_cell_angle_beta 48.643947
_cell_angle_gamma 90.000000
_cell_volume 3191.081384
_symmetry_space_group_name_H-M "C 2/M"
_symmetry_group_IT_number 12
_symmetry_cell_setting 'monoclinic'
loop_
_space_group_symop_operation_xyz
x,y,z
-x,y,-z
-x,-y,-z
x,-y,z
1/2+x,1/2+y,z
1/2-x,1/2+y,-z
1/2-x,1/2-y,-z
1/2+x,1/2-y,z
loop_
_atom_site_type_symbol
_atom_site_label
_atom_site_fract_x
_atom_site_fract_y
_atom_site_fract_z
Si Si1 0.808570 0.334049 0.135864
Si Si2 0.522231 0.676390 0.667506
Si Si3 0.183162 0.824379 0.498446
Si Si4 0.279405 0.826878 0.643289
Si Si5 0.394340 0.676218 0.185707
Si Si6 0.476360 0.821144 0.807919
Si Si7 0.711260 0.319174 0.080504
Si Si8 0.137849 0.834441 0.308845
O O1 0.850135 0.500000 0.101851
O O2 0.876354 0.228383 0.129853
O O3 0.775732 0.266975 0.093951
O O4 0.726979 0.351688 0.224417
O O5 0.528015 0.500000 0.680543
O O6 0.589995 0.721278 0.577852
O O7 0.535754 0.771869 0.718172
O O8 0.430839 0.724389 0.696223
O O9 0.250000 0.750000 0.500000
O O10 0.199916 0.772324 0.423988
O O11 0.197152 0.000000 0.492454
O O12 0.186328 0.787661 0.724782
O O13 0.353802 0.786519 0.644911
O O14 0.285858 0.000000 0.621962
O O15 0.414926 0.500000 0.172062
O O16 0.477144 0.764133 0.161133
O O17 0.383981 0.744603 0.854401
O O18 0.465978 0.000000 0.817162
O O19 0.706298 0.500000 0.081120
O O20 0.750000 0.250000 0.000000
O O21 0.109930 0.000000 0.349654
#
# Coordination Sequence:
#
# PCOD8106031 Si02
#       8
#     8   8   8   8   8   8   8   8
#     4   9  18  36  62  88 118 155 194 238 289 350
#     4  10  21  38  58  81 111 151 196 245 299 351
#     4  11  23  37  54  75 107 150 195 243 299 356
#     4  10  21  36  54  80 115 151 192 242 297 351
#     4  10  21  37  60  87 119 159 201 248 297 348
#     4  12  24  38  61  92 122 155 200 247 294 353
#     4  11  23  42  66  94 127 160 194 238 292 351
#     4   9  17  34  58  81 107 146 192 236 290 349
#
# _framework density 20.055897000000002
#
# number of rings (size 3 to 8) (size 9 to 14) (size 15 to 20)
#    0.000    1.750    1.250    3.375    0.000    7.500 
#    0.000    3.125    0.000    3.750    0.000    0.000 
#    0.000    0.000    0.000    0.000    0.000    0.000 
#
# Total GULP energy -396737.033878 kJ/mol
# GULP energy per Si atom -12398.032309 kJ/mol
# Density = 2.001025 g / cm^3
# Si number density = 20.055897 Si / 1000 Ang^3
#
#
#
# Elastic Constant Matrix: (Units=GPa)
#
#
# Indices 1 2 3 4 5 6 
#
# 1 126.4965 45.7732 28.6078 0.0000 23.9386 0.0004
# 2 45.7732 87.9900 39.8862 0.0001 8.4118 0.0008
# 3 28.6078 39.8862 62.9872 0.0000 20.5913 0.0002
# 4 0.0000 0.0001 0.0000 30.5626 0.0000 3.6229
# 5 23.9386 8.4118 20.5913 0.0000 27.2311 0.0001
# 6 0.0004 0.0008 0.0002 3.6229 0.0001 37.0503
#
#
#
# Elastic Compliance Matrix: (Units=1/GPa)
#
#
# Indices 1 2 3 4 5 6 
#
# 1 0.011416 -0.005728 0.001520 0.000000 -0.009416 0.000000
# 2 -0.005728 0.019084 -0.012224 0.000000 0.008383 0.000000
# 3 0.001520 -0.012224 0.029396 0.000000 -0.019788 0.000000
# 4 0.000000 0.000000 0.000000 0.033103 0.000000 -0.003237
# 5 -0.009416 0.008383 -0.019788 0.000000 0.057374 0.000000
# 6 0.000000 0.000000 0.000000 -0.003237 0.000000 0.027307
#
#
# Mechanical properties :
#
#
# Convention : Reuss Voigt Hill
#
# Bulk Modulus (GPa) = 36.99226 56.22312 46.60769
# Shear Modulus (GPa) = 22.77338 29.84923 26.31130
#
# Velocity S-wave (km/s) = 3.37337 3.86204 3.62594
# Velocity P-wave (km/s) = 5.80150 6.92684 6.38900
#
# Compressibility (1/GPa) = 0.02703268
#
# Stress axis : x y z
#
# Youngs Moduli (GPa) = 87.59610 52.39899 34.01852
#
# Poissons Ratio (x) = 0.30012 -0.05171
# Poissons Ratio (y) = 0.50172 0.41585
# Poissons Ratio (z) = -0.13316 0.64054
#
# Static dielectric constant tensor:
#      x y z
#    x 4.017430 0.000000 0.121540 
#    y 0.000000 3.742450 0.000000 
#    z 0.121540 0.000000 3.499170 
# 
# 
# High freq. dielectric constant tensor:
#      x y z
#    x 1.796480 0.000000 0.010690 
#    y 0.000000 1.782770 0.000000 
#    z 0.010690 0.000000 1.764590 
# 
# From -- ./inp_files/345967.got.cif
#   From: 2010.06.25/outbox.cif.g09.slc.cpg/sg12_173_cif.got.tgz:345967.got - 2010.06.28 00:19:55.
