data_PCOD8106534
_publ_section_title
;
Structure prediction by ZEFSAII (Michael W. Deem and Ramdas Pophale) SiO2 
 PCOD8106534
Probable space group: C 2/M
;
_chemical_formula_sum "Si O2"
_cell_formula_units_Z 32
_cell_length_a 9.879805
_cell_length_b 14.875763
_cell_length_c 13.335619
_cell_angle_alpha 90.000000
_cell_angle_beta 104.287301
_cell_angle_gamma 90.000000
_cell_volume 1899.311310
_symmetry_space_group_name_H-M "C 2/M"
_symmetry_group_IT_number 12
_symmetry_cell_setting 'monoclinic'
loop_
_space_group_symop_operation_xyz
x,y,z
-x,y,-z
-x,-y,-z
x,-y,z
1/2+x,1/2+y,z
1/2-x,1/2+y,-z
1/2-x,1/2-y,-z
1/2+x,1/2-y,z
loop_
_atom_site_type_symbol
_atom_site_label
_atom_site_fract_x
_atom_site_fract_y
_atom_site_fract_z
Si Si1 0.784856 0.161321 0.695550
Si Si2 0.911138 0.825859 0.288495
Si Si3 0.161735 0.500000 0.548647
Si Si4 0.364026 0.500000 0.407607
Si Si5 0.508555 0.604579 0.113316
O O1 0.681139 0.242839 0.695308
O O2 0.703892 0.087762 0.617546
O O3 0.923519 0.192841 0.658677
O O4 0.836131 0.119643 0.811565
O O5 0.896614 0.845465 0.165855
O O6 0.859683 0.912834 0.337731
O O7 0.228826 0.500000 0.451647
O O8 0.000000 0.500000 0.500000
O O9 0.500000 0.500000 0.500000
O O10 0.470874 0.500000 0.103642
O O11 0.500000 0.645874 0.000000
#
# Coordination Sequence:
#
# PCOD8106534 Si02
#       5
#     8   8   4   4   8
#     4  10  21  40  53  87 117 144 193 230 282 341
#     4  10  21  36  60  81 118 149 184 238 280 331
#     4  12  26  38  58  81 114 153 190 240 284 331
#     4  12  20  42  58  75 114 151 200 236 278 339
#     4   9  17  36  63  83 111 152 189 227 282 341
#
# _framework density 16.848212
#
# number of rings (size 3 to 8) (size 9 to 14) (size 15 to 20)
#    1.500    0.250    5.000    0.000    3.500    3.000 
#    0.000    0.000    0.000    0.000    0.000    7.000 
#    0.000    0.000    0.000    0.000    0.000    0.000 
#
# Total GULP energy -198244.049228 kJ/mol
# GULP energy per Si atom -12390.253077 kJ/mol
# Density = 1.680987 g / cm^3
# Si number density = 16.848212 Si / 1000 Ang^3
#
#
#
# Elastic Constant Matrix: (Units=GPa)
#
#
# Indices 1 2 3 4 5 6 
#
# 1 137.3056 70.3649 62.8243 0.0000 -9.7911 0.0000
# 2 70.3649 123.2062 54.6037 0.0000 -22.5840 0.0000
# 3 62.8243 54.6037 122.4751 0.0000 -19.8968 0.0000
# 4 0.0000 0.0000 0.0000 -0.2617 0.0000 -2.9271
# 5 -9.7911 -22.5840 -19.8968 0.0000 25.0999 0.0000
# 6 0.0000 0.0000 0.0000 -2.9271 0.0000 37.3722
#
#
#
# Elastic Compliance Matrix: (Units=1/GPa)
#
#
# Indices 1 2 3 4 5 6 
#
# 1 0.011771 -0.005558 -0.004163 0.000000 -0.003709 0.000000
# 2 -0.005558 0.013703 -0.001845 0.000000 0.008699 0.000000
# 3 -0.004163 -0.001845 0.012155 0.000000 0.006351 0.000000
# 4 0.000000 0.000000 0.000000 -2.036761 0.000000 -0.159523
# 5 -0.003709 0.008699 0.006351 0.000000 0.051255 0.000000
# 6 0.000000 0.000000 0.000000 -0.159523 0.000000 0.014264
#
#
# Mechanical properties :
#
#
# Convention : Reuss Voigt Hill
#
# Bulk Modulus (GPa) = 68.97808 84.28586 76.63197
# Shear Modulus (GPa) = -2.62378 25.45503 11.41563
#
# Velocity S-wave (km/s) = -1.24927 3.89118 2.60582
# Velocity P-wave (km/s) = 6.24090 8.38591 7.39163
#
# Compressibility (1/GPa) = 0.01449736
#
# Stress axis : x y z
#
# Youngs Moduli (GPa) = 84.95120 72.97769 82.27258
#
# Poissons Ratio (x) = 0.40559 0.34249
# Poissons Ratio (y) = 0.47213 0.15181
# Poissons Ratio (z) = 0.35365 0.13466
#
# Static dielectric constant tensor:
#      x y z
#    x 3.049610 0.000000 -0.095750 
#    y 0.000000 3.169300 0.000000 
#    z -0.095750 0.000000 3.210980 
# 
# 
# High freq. dielectric constant tensor:
#      x y z
#    x 1.636950 0.000000 -0.011300 
#    y 0.000000 1.650270 0.000000 
#    z -0.011300 0.000000 1.650470 
# 
# From -- ./inp_files/118242.got.cif
#   From: 2010.06.25/outbox.cif.g09.slc.cpg/sg12_60_cif.got.tgz:118242.got - 2010.06.28 00:19:55.
