data_PCOD8106284
_publ_section_title
;
Structure prediction by ZEFSAII (Michael W. Deem and Ramdas Pophale) SiO2 
 PCOD8106284
Probable space group: C 2/M
;
_chemical_formula_sum "Si O2"
_cell_formula_units_Z 52
_cell_length_a 15.355180
_cell_length_b 15.600787
_cell_length_c 22.146441
_cell_angle_alpha 90.000000
_cell_angle_beta 27.440949
_cell_angle_gamma 90.000000
_cell_volume 2444.837792
_symmetry_space_group_name_H-M "C 2/M"
_symmetry_group_IT_number 12
_symmetry_cell_setting 'monoclinic'
loop_
_space_group_symop_operation_xyz
x,y,z
-x,y,-z
-x,-y,-z
x,-y,z
1/2+x,1/2+y,z
1/2-x,1/2+y,-z
1/2-x,1/2-y,-z
1/2+x,1/2-y,z
loop_
_atom_site_type_symbol
_atom_site_label
_atom_site_fract_x
_atom_site_fract_y
_atom_site_fract_z
Si Si1 0.994502 0.656885 0.351230
Si Si2 0.787712 0.500000 0.268513
Si Si3 0.919071 0.833640 0.112860
Si Si4 0.869910 0.831445 0.904795
Si Si5 0.485427 0.500000 0.360093
Si Si6 0.611529 0.000000 0.654662
Si Si7 0.514273 0.866076 0.058842
Si Si8 0.402758 0.665797 0.347922
O O1 0.998565 0.588548 0.292886
O O2 0.821342 0.646858 0.505385
O O3 0.978971 0.752536 0.336571
O O4 0.197579 0.645949 0.258528
O O5 0.578121 0.500000 0.369852
O O6 0.802025 0.500000 0.331760
O O7 0.877953 0.413773 0.188205
O O8 0.955357 0.732572 0.095223
O O9 0.041042 0.878514 0.091298
O O10 0.000000 0.869558 0.000000
O O11 0.051254 0.813729 0.750247
O O12 0.750000 0.750000 0.000000
O O13 0.723900 0.886956 0.955258
O O14 0.266388 0.500000 0.507907
O O15 0.527993 0.585610 0.295124
O O16 0.500000 0.904150 0.000000
#
# Coordination Sequence:
#
# PCOD8106284 Si02
#       8
#     8   4   8   8   4   4   8   8
#     4  10  21  41  60  91 120 172 209 251 315 367
#     4  12  22  32  61  88 128 156 198 266 312 381
#     4  10  21  37  63  83 124 166 210 259 305 368
#     4  10  21  36  60  91 121 161 204 255 311 371
#     4  10  21  43  60  95 123 162 205 262 320 375
#     4  10  25  37  60  88 133 164 208 257 309 374
#     4  10  21  36  56  90 121 160 199 255 317 373
#     4  10  21  39  68  85 125 162 209 261 311 377
#
# _framework density 21.269306
#
# number of rings (size 3 to 8) (size 9 to 14) (size 15 to 20)
#    0.000    1.846    0.000    5.077    6.462    1.231 
#    0.000    1.923    0.000    2.769    0.000    0.000 
#    0.000    0.000    0.000    0.000    0.000    0.000 
#
# Total GULP energy -322093.274430 kJ/mol
# GULP energy per Si atom -12388.202863 kJ/mol
# Density = 2.122090 g / cm^3
# Si number density = 21.269306 Si / 1000 Ang^3
#
#
#
# Elastic Constant Matrix: (Units=GPa)
#
#
# Indices 1 2 3 4 5 6 
#
# 1 182.0269 30.3130 69.5444 0.0008 -7.9382 -0.0005
# 2 30.3130 89.0203 19.8458 -0.0058 3.2674 0.0037
# 3 69.5444 19.8458 105.2860 0.0130 1.1695 0.0011
# 4 0.0008 -0.0058 0.0130 15.3959 0.0025 2.5437
# 5 -7.9382 3.2674 1.1695 0.0025 44.4737 -0.0006
# 6 -0.0005 0.0037 0.0011 2.5437 -0.0006 9.1043
#
#
#
# Elastic Compliance Matrix: (Units=1/GPa)
#
#
# Indices 1 2 3 4 5 6 
#
# 1 0.007653 -0.001602 -0.004771 0.000003 0.001609 0.000001
# 2 -0.001602 0.012090 -0.001208 0.000007 -0.001142 -0.000007
# 3 -0.004771 -0.001208 0.012890 -0.000011 -0.001102 0.000002
# 4 0.000003 0.000007 -0.000011 0.068096 -0.000004 -0.019025
# 5 0.001609 -0.001142 -0.001102 -0.000004 0.022885 0.000003
# 6 0.000001 -0.000007 0.000002 -0.019025 0.000003 0.115153
#
#
# Mechanical properties :
#
#
# Convention : Reuss Voigt Hill
#
# Bulk Modulus (GPa) = 57.23892 68.41554 62.82723
# Shear Modulus (GPa) = 19.24903 30.90345 25.07624
#
# Velocity S-wave (km/s) = 3.01161 3.81591 3.43736
# Velocity P-wave (km/s) = 6.25004 7.18686 6.73476
#
# Compressibility (1/GPa) = 0.01747063
#
# Stress axis : x y z
#
# Youngs Moduli (GPa) = 130.65933 82.71260 77.58218
#
# Poissons Ratio (x) = 0.13247 0.37017
# Poissons Ratio (y) = 0.20925 0.09375
# Poissons Ratio (z) = 0.62342 0.09995
#
# Static dielectric constant tensor:
#      x y z
#    x 4.425570 -0.000010 -0.080090 
#    y -0.000010 3.936660 0.000030 
#    z -0.080090 0.000030 3.954040 
# 
# 
# High freq. dielectric constant tensor:
#      x y z
#    x 1.835330 0.000000 -0.005840 
#    y 0.000000 1.815940 0.000000 
#    z -0.005840 0.000000 1.838860 
# 
# From -- ./inp_files/311498.got.cif
#   From: 2010.06.25/outbox.cif.g09.slc.cpg/sg12_156_cif.got.tgz:311498.got - 2010.06.28 00:19:55.
