data_PCOD8106916
_publ_section_title
;
Structure prediction by ZEFSAII (Michael W. Deem and Ramdas Pophale) SiO2 
 PCOD8106916
Probable space group: C 2/M
;
_chemical_formula_sum "Si O2"
_cell_formula_units_Z 64
_cell_length_a 17.767996
_cell_length_b 8.945625
_cell_length_c 33.685327
_cell_angle_alpha 90.000000
_cell_angle_beta 37.666319
_cell_angle_gamma 90.000000
_cell_volume 3271.711888
_symmetry_space_group_name_H-M "C 2/M"
_symmetry_group_IT_number 12
_symmetry_cell_setting 'monoclinic'
loop_
_space_group_symop_operation_xyz
x,y,z
-x,y,-z
-x,-y,-z
x,-y,z
1/2+x,1/2+y,z
1/2-x,1/2+y,-z
1/2-x,1/2-y,-z
1/2+x,1/2-y,z
loop_
_atom_site_type_symbol
_atom_site_label
_atom_site_fract_x
_atom_site_fract_y
_atom_site_fract_z
Si Si1 0.356960 0.672526 0.561958
Si Si2 0.668217 0.177005 0.192123
Si Si3 0.248123 0.671000 0.692838
Si Si4 0.493045 0.675831 0.807910
Si Si5 0.444194 0.322241 0.064259
Si Si6 0.880926 0.823128 0.938518
Si Si7 0.796483 0.175490 0.440863
Si Si8 0.926556 0.827021 0.690710
O O1 0.500000 0.711634 0.500000
O O2 0.333496 0.500000 0.560442
O O3 0.307081 0.710983 0.626163
O O4 0.287817 0.778341 0.560434
O O5 0.574215 0.244269 0.200031
O O6 0.805316 0.237903 0.126155
O O7 0.632384 0.225315 0.250989
O O8 0.662107 0.000000 0.191426
O O9 0.201721 0.500000 0.713379
O O10 0.353042 0.700495 0.681140
O O11 0.135287 0.779522 0.748986
O O12 0.482286 0.500000 0.806369
O O13 0.432008 0.727445 0.874602
O O14 0.444754 0.500000 0.063898
O O15 0.525280 0.262605 0.067138
O O16 0.500000 0.258643 0.000000
O O17 0.866523 0.000000 0.947473
O O18 0.750000 0.750000 0.000000
O O19 0.750000 0.250000 0.500000
O O20 0.934981 0.228122 0.374210
O O21 0.790660 0.000000 0.449541
O O22 0.922304 0.000000 0.705774
#
# Coordination Sequence:
#
# PCOD8106916 Si02
#       8
#     8   8   8   8   8   8   8   8
#     4  10  21  39  61  85 116 152 190 234 283 335
#     4  11  22  37  60  86 112 150 196 235 280 340
#     4  10  21  38  61  86 113 151 194 231 277 341
#     4  11  23  38  56  82 118 153 188 237 289 333
#     4   9  18  34  56  81 110 144 184 231 280 332
#     4  10  21  37  57  82 112 147 186 231 285 340
#     4  11  23  39  60  86 116 151 190 234 286 339
#     4  10  22  40  60  85 118 151 185 233 289 337
#
# _framework density 19.561624999999999
#
# number of rings (size 3 to 8) (size 9 to 14) (size 15 to 20)
#    0.000    1.750    0.000    4.125    0.000    9.250 
#    0.000    2.500    0.000    3.375    0.000    0.000 
#    0.000    0.000    0.000    0.000    0.000    0.000 
#
# Total GULP energy -396973.394178 kJ/mol
# GULP energy per Si atom -12405.418568 kJ/mol
# Density = 1.951710 g / cm^3
# Si number density = 19.561625 Si / 1000 Ang^3
#
#
#
# Elastic Constant Matrix: (Units=GPa)
#
#
# Indices 1 2 3 4 5 6 
#
# 1 108.1260 26.9223 52.4387 0.0061 2.8105 -0.0113
# 2 26.9223 47.6028 44.6964 -0.0711 0.6582 -0.0290
# 3 52.4387 44.6964 161.9369 0.0182 -1.7225 -0.0012
# 4 0.0061 -0.0711 0.0182 31.2189 0.0030 -4.0200
# 5 2.8105 0.6582 -1.7225 0.0030 44.9938 0.0048
# 6 -0.0113 -0.0290 -0.0012 -4.0200 0.0048 29.0481
#
#
#
# Elastic Compliance Matrix: (Units=1/GPa)
#
#
# Indices 1 2 3 4 5 6 
#
# 1 0.011553 -0.004054 -0.002630 -0.000010 -0.000763 -0.000001
# 2 -0.004054 0.029801 -0.006918 0.000078 -0.000448 0.000039
# 3 -0.002630 -0.006918 0.008943 -0.000022 0.000608 -0.000011
# 4 -0.000010 0.000078 -0.000022 0.032613 -0.000004 0.004513
# 5 -0.000763 -0.000448 0.000608 -0.000004 0.022303 -0.000005
# 6 -0.000001 0.000039 -0.000011 0.004513 -0.000005 0.035050
#
#
# Mechanical properties :
#
#
# Convention : Reuss Voigt Hill
#
# Bulk Modulus (GPa) = 43.30132 62.86450 53.08291
# Shear Modulus (GPa) = 28.54446 33.95940 31.25193
#
# Velocity S-wave (km/s) = 3.82410 4.17108 4.00135
# Velocity P-wave (km/s) = 6.45618 7.44336 6.96728
#
# Compressibility (1/GPa) = 0.02309398
#
# Stress axis : x y z
#
# Youngs Moduli (GPa) = 86.55497 33.55556 111.82120
#
# Poissons Ratio (x) = 0.13602 0.29414
# Poissons Ratio (y) = 0.35087 0.77353
# Poissons Ratio (z) = 0.22768 0.23212
#
# Static dielectric constant tensor:
#      x y z
#    x 3.543890 -0.000170 -0.039310 
#    y -0.000170 3.400460 0.000090 
#    z -0.039310 0.000090 3.764140 
# 
# 
# High freq. dielectric constant tensor:
#      x y z
#    x 1.780950 0.000000 0.000740 
#    y 0.000000 1.747180 -0.000010 
#    z 0.000740 -0.000010 1.781440 
# 
# From -- ./inp_files/378183.got.cif
#   From: 2010.06.25/outbox.cif.g09.slc.cpg/sg12_190_cif.got.tgz:378183.got - 2010.06.28 00:19:55.
