data_PCOD8106420
_publ_section_title
;
Structure prediction by ZEFSAII (Michael W. Deem and Ramdas Pophale) SiO2 
 PCOD8106420
Probable space group: C 2/M
;
_chemical_formula_sum "Si O2"
_cell_formula_units_Z 36
_cell_length_a 14.417885
_cell_length_b 10.168832
_cell_length_c 20.943524
_cell_angle_alpha 90.000000
_cell_angle_beta 143.440500
_cell_angle_gamma 90.000000
_cell_volume 1829.021535
_symmetry_space_group_name_H-M "C 2/M"
_symmetry_group_IT_number 12
_symmetry_cell_setting 'monoclinic'
loop_
_space_group_symop_operation_xyz
x,y,z
-x,y,-z
-x,-y,-z
x,-y,z
1/2+x,1/2+y,z
1/2-x,1/2+y,-z
1/2-x,1/2-y,-z
1/2+x,1/2-y,z
loop_
_atom_site_type_symbol
_atom_site_label
_atom_site_fract_x
_atom_site_fract_y
_atom_site_fract_z
Si Si1 0.500000 0.735536 0.500000
Si Si2 0.696239 0.652503 0.271524
Si Si3 0.379513 0.357134 0.561946
Si Si4 0.917864 0.847702 0.205602
Si Si5 0.178125 0.848457 0.117644
O O1 0.643864 0.824599 0.602219
O O2 0.552177 0.643291 0.471204
O O3 0.666039 0.500000 0.250073
O O4 0.548453 0.708456 0.229099
O O5 0.699695 0.707897 0.201504
O O6 0.302655 0.500000 0.531756
O O7 0.250000 0.250000 0.500000
O O8 0.518671 0.334133 0.687722
O O9 0.771911 0.747852 0.121377
O O10 0.869636 0.000000 0.164385
O O11 0.237771 0.000000 0.144359
O O12 0.000000 0.839750 0.000000
#
# Coordination Sequence:
#
# PCOD8106420 Si02
#       5
#     4   8   8   8   8
#     4  12  20  36  58  86 119 156 187 240 279 338
#     4  10  21  36  58  87 117 153 191 231 286 349
#     4  11  23  37  56  86 121 155 191 235 285 342
#     4  10  21  39  58  84 117 151 192 236 285 343
#     4  10  22  41  62  85 113 148 193 243 291 342
#
# _framework density 19.682653999999999
#
# number of rings (size 3 to 8) (size 9 to 14) (size 15 to 20)
#    0.000    1.556    4.444    0.667    0.000    3.111 
#    0.000    1.111    0.000    0.000    0.000    0.000 
#    0.000    0.000    0.000    0.000    0.000    0.000 
#
# Total GULP energy -223142.838079 kJ/mol
# GULP energy per Si atom -12396.824338 kJ/mol
# Density = 1.963786 g / cm^3
# Si number density = 19.682654 Si / 1000 Ang^3
#
#
#
# Elastic Constant Matrix: (Units=GPa)
#
#
# Indices 1 2 3 4 5 6 
#
# 1 115.4992 48.7757 28.4011 0.0000 16.9718 0.0000
# 2 48.7757 91.3979 24.5106 0.0000 22.2391 0.0000
# 3 28.4011 24.5106 60.2453 0.0001 13.3005 0.0000
# 4 0.0000 0.0000 0.0001 24.0782 0.0000 4.3015
# 5 16.9718 22.2391 13.3005 0.0000 30.0188 0.0000
# 6 0.0000 0.0000 0.0000 4.3015 0.0000 30.1104
#
#
#
# Elastic Compliance Matrix: (Units=1/GPa)
#
#
# Indices 1 2 3 4 5 6 
#
# 1 0.011805 -0.005085 -0.003164 0.000000 -0.001505 0.000000
# 2 -0.005085 0.016281 -0.002437 0.000000 -0.008107 0.000000
# 3 -0.003164 -0.002437 0.020271 0.000000 -0.005387 0.000000
# 4 0.000000 0.000000 0.000000 0.042619 0.000000 -0.006088
# 5 -0.001505 -0.008107 -0.005387 0.000000 0.042556 0.000000
# 6 0.000000 0.000000 0.000000 -0.006088 0.000000 0.034081
#
#
# Mechanical properties :
#
#
# Convention : Reuss Voigt Hill
#
# Bulk Modulus (GPa) = 37.05736 52.27969 44.66853
# Shear Modulus (GPa) = 25.25512 27.87180 26.56346
#
# Velocity S-wave (km/s) = 3.58595 3.76714 3.67766
# Velocity P-wave (km/s) = 6.00114 6.74839 6.38570
#
# Compressibility (1/GPa) = 0.02698519
#
# Stress axis : x y z
#
# Youngs Moduli (GPa) = 84.71240 61.42150 49.33106
#
# Poissons Ratio (x) = 0.31233 0.15608
# Poissons Ratio (y) = 0.43076 0.12021
# Poissons Ratio (z) = 0.26802 0.14968
#
# Static dielectric constant tensor:
#      x y z
#    x 3.881200 0.000000 -0.256630 
#    y 0.000000 3.506910 0.000000 
#    z -0.256630 0.000000 3.490330 
# 
# 
# High freq. dielectric constant tensor:
#      x y z
#    x 1.779380 0.000000 -0.006100 
#    y 0.000000 1.754930 0.000000 
#    z -0.006100 0.000000 1.758330 
# 
# From -- ./inp_files/127801.got.cif
#   From: 2010.06.25/outbox.cif.g09.slc.cpg/sg12_64_cif.got.tgz:127801.got - 2010.06.28 00:19:55.
