data_PCOD8106694
_publ_section_title
;
Structure prediction by ZEFSAII (Michael W. Deem and Ramdas Pophale) SiO2 
 PCOD8106694
Probable space group: C 2/M
;
_chemical_formula_sum "Si O2"
_cell_formula_units_Z 56
_cell_length_a 22.281579
_cell_length_b 17.000090
_cell_length_c 18.053896
_cell_angle_alpha 90.000000
_cell_angle_beta 24.676988
_cell_angle_gamma 90.000000
_cell_volume 2855.136255
_symmetry_space_group_name_H-M "C 2/M"
_symmetry_group_IT_number 12
_symmetry_cell_setting 'monoclinic'
loop_
_space_group_symop_operation_xyz
x,y,z
-x,y,-z
-x,-y,-z
x,-y,z
1/2+x,1/2+y,z
1/2-x,1/2+y,-z
1/2-x,1/2-y,-z
1/2+x,1/2-y,z
loop_
_atom_site_type_symbol
_atom_site_label
_atom_site_fract_x
_atom_site_fract_y
_atom_site_fract_z
Si Si1 0.006286 0.590140 0.725545
Si Si2 0.330189 0.409003 0.375726
Si Si3 0.657247 0.336185 0.790380
Si Si4 0.434295 0.089305 0.501021
Si Si5 0.544187 0.589196 0.613123
Si Si6 0.763847 0.408990 0.104040
Si Si7 0.655440 0.691644 0.358639
O O1 0.960037 0.500000 0.767188
O O2 0.163185 0.597204 0.585344
O O3 0.008146 0.629519 0.640412
O O4 0.892743 0.628015 0.909895
O O5 0.367080 0.500000 0.311818
O O6 0.365826 0.345740 0.271738
O O7 0.421993 0.379464 0.342680
O O8 0.759989 0.408762 0.699376
O O9 0.748908 0.261779 0.715869
O O10 0.500000 0.339111 0.000000
O O11 0.500000 0.132324 0.500000
O O12 0.486059 0.000000 0.442621
O O13 0.597222 0.500000 0.547020
O O14 0.375181 0.597280 0.791319
O O15 0.632819 0.634609 0.452460
O O16 0.791346 0.500000 0.097117
O O17 0.748243 0.355250 0.193905
O O18 0.500000 0.718722 0.500000
#
# Coordination Sequence:
#
# PCOD8106694 Si02
#       7
#     8   8   8   8   8   8   8
#     4   8  15  29  50  78 107 132 163 209 263 315
#     4   9  19  36  56  78 105 136 171 216 269 318
#     4  11  23  36  52  75 107 144 182 219 260 311
#     4   9  18  34  57  81 105 139 181 224 271 316
#     4   9  18  34  57  82 105 133 173 220 270 320
#     4   9  17  32  57  84 106 133 174 221 265 314
#     4  10  21  37  54  75 108 145 178 217 264 314
#
# _framework density 19.613775
#
# number of rings (size 3 to 8) (size 9 to 14) (size 15 to 20)
#    0.000    2.714    0.000    2.143    0.000    5.714 
#    0.000    4.286    0.000   13.714    0.000    0.000 
#    0.000    0.000    0.000    0.000    0.000    0.000 
#
# Total GULP energy -346898.227221 kJ/mol
# GULP energy per Si atom -12389.222401 kJ/mol
# Density = 1.956913 g / cm^3
# Si number density = 19.613775 Si / 1000 Ang^3
#
#
#
# Elastic Constant Matrix: (Units=GPa)
#
#
# Indices 1 2 3 4 5 6 
#
# 1 156.4785 54.3853 60.1467 -0.0095 8.6315 -0.0025
# 2 54.3853 50.0889 35.6228 -0.0063 14.6476 -0.0021
# 3 60.1467 35.6228 134.9851 -0.0110 26.8260 -0.0034
# 4 -0.0095 -0.0063 -0.0110 -8.0585 -0.0012 -14.1445
# 5 8.6315 14.6476 26.8260 -0.0012 19.7353 0.0020
# 6 -0.0025 -0.0021 -0.0034 -14.1445 0.0020 22.8904
#
#
#
# Elastic Compliance Matrix: (Units=1/GPa)
#
#
# Indices 1 2 3 4 5 6 
#
# 1 0.011797 -0.012937 -0.003734 0.000001 0.009518 -0.000001
# 2 -0.012937 0.041426 -0.000250 -0.000010 -0.024749 -0.000002
# 3 -0.003734 -0.000250 0.012025 -0.000007 -0.014527 -0.000002
# 4 0.000001 -0.000010 -0.000007 -0.059528 0.000016 -0.036784
# 5 0.009518 -0.024749 -0.014527 0.000016 0.084623 -0.000001
# 6 -0.000001 -0.000002 -0.000002 -0.036784 -0.000001 0.020957
#
#
# Mechanical properties :
#
#
# Convention : Reuss Voigt Hill
#
# Bulk Modulus (GPa) = 31.83976 71.31802 51.57889
# Shear Modulus (GPa) = 32.13173 19.67327 25.90250
#
# Velocity S-wave (km/s) = 4.05189 3.17051 3.63799
# Velocity P-wave (km/s) = 6.17730 7.05995 6.63332
#
# Compressibility (1/GPa) = 0.03140727
#
# Stress axis : x y z
#
# Youngs Moduli (GPa) = 84.76578 24.13950 83.16094
#
# Poissons Ratio (x) = 0.31229 0.31053
# Poissons Ratio (y) = 1.09660 0.02075
# Poissons Ratio (z) = 0.31652 0.00602
#
# Static dielectric constant tensor:
#      x y z
#    x 3.923230 0.000000 0.054900 
#    y 0.000000 3.413940 0.000000 
#    z 0.054900 0.000000 3.599860 
# 
# 
# High freq. dielectric constant tensor:
#      x y z
#    x 1.776190 0.000000 0.000420 
#    y 0.000000 1.739840 0.000000 
#    z 0.000420 0.000000 1.755720 
# 
# From -- ./inp_files/325979.got.cif
#   From: 2010.06.25/outbox.cif.g09.slc.cpg/sg12_163_cif.got.tgz:325979.got - 2010.06.28 00:19:55.
