data_PCOD8106707
_publ_section_title
;
Structure prediction by ZEFSAII (Michael W. Deem and Ramdas Pophale) SiO2 
 PCOD8106707
Probable space group: C 2/M
;
_chemical_formula_sum "Si O2"
_cell_formula_units_Z 64
_cell_length_a 27.524095
_cell_length_b 13.768195
_cell_length_c 9.574775
_cell_angle_alpha 90.000000
_cell_angle_beta 79.957406
_cell_angle_gamma 90.000000
_cell_volume 3572.835661
_symmetry_space_group_name_H-M "C 2/M"
_symmetry_group_IT_number 12
_symmetry_cell_setting 'monoclinic'
loop_
_space_group_symop_operation_xyz
x,y,z
-x,y,-z
-x,-y,-z
x,-y,z
1/2+x,1/2+y,z
1/2-x,1/2+y,-z
1/2-x,1/2-y,-z
1/2+x,1/2-y,z
loop_
_atom_site_type_symbol
_atom_site_label
_atom_site_fract_x
_atom_site_fract_y
_atom_site_fract_z
Si Si1 0.806250 0.111273 0.376076
Si Si2 0.548087 0.387188 0.062583
Si Si3 0.807694 0.609508 0.187644
Si Si4 0.800429 0.111488 0.874290
Si Si5 0.048172 0.111775 0.386844
Si Si6 0.853299 0.793269 0.606140
Si Si7 0.648003 0.299037 0.906108
Si Si8 0.695308 0.111294 0.482715
O O1 0.820992 0.136198 0.526064
O O2 0.841717 0.172303 0.258553
O O3 0.748307 0.134937 0.387154
O O4 0.816887 0.000000 0.341031
O O5 0.560806 0.500000 0.032174
O O6 0.538206 0.364339 0.229664
O O7 0.500000 0.356373 0.000000
O O8 0.593326 0.324187 0.982713
O O9 0.827014 0.500000 0.155578
O O10 0.755926 0.625677 0.137138
O O11 0.845940 0.682060 0.093065
O O12 0.801442 0.633013 0.354286
O O13 0.836039 0.183189 0.771098
O O14 0.817253 0.000000 0.844741
O O15 0.809807 0.143983 0.028517
O O16 0.089005 0.182596 0.432349
O O17 0.000000 0.133793 0.500000
O O18 0.065020 0.000000 0.395593
O O19 0.844906 0.680494 0.570385
O O20 0.679820 0.000000 0.462744
#
# Coordination Sequence:
#
# PCOD8106707 Si02
#       8
#     8   8   8   8   8   8   8   8
#     4  11  21  32  54  85 115 148 191 229 268 335
#     4  10  22  39  57  81 115 145 174 223 282 334
#     4  10  21  37  55  79 112 153 195 233 272 317
#     4  11  21  35  55  81 118 152 180 225 281 334
#     4  10  22  38  58  84 111 142 181 223 273 337
#     4  12  20  35  58  81 110 153 190 221 277 331
#     4  12  22  36  55  83 114 152 187 225 280 334
#     4  10  21  37  54  80 115 149 193 240 271 309
#
# _framework density 17.912942999999999
#
# number of rings (size 3 to 8) (size 9 to 14) (size 15 to 20)
#    0.000    1.250    3.750    3.750    1.750    0.000 
#    0.000    1.875    0.000    0.750    0.000    0.000 
#    0.000    0.000    0.000    0.000    0.000    0.000 
#
# Total GULP energy -396874.140475 kJ/mol
# GULP energy per Si atom -12402.316890 kJ/mol
# Density = 1.787217 g / cm^3
# Si number density = 17.912943 Si / 1000 Ang^3
#
#
#
# Elastic Constant Matrix: (Units=GPa)
#
#
# Indices 1 2 3 4 5 6 
#
# 1 92.7256 67.3179 39.2093 0.0000 -9.5035 0.0000
# 2 67.3179 112.1771 43.1433 0.0000 -7.7593 0.0000
# 3 39.2093 43.1433 70.6558 0.0000 -12.9143 0.0000
# 4 0.0000 0.0000 0.0000 28.0472 0.0000 -0.6147
# 5 -9.5035 -7.7593 -12.9143 0.0000 26.6217 0.0000
# 6 0.0000 0.0000 0.0000 -0.6147 0.0000 30.1696
#
#
#
# Elastic Compliance Matrix: (Units=1/GPa)
#
#
# Indices 1 2 3 4 5 6 
#
# 1 0.020488 -0.010357 -0.004675 0.000000 0.002027 0.000000
# 2 -0.010357 0.016886 -0.004762 0.000000 -0.001085 0.000000
# 3 -0.004675 -0.004762 0.020954 0.000000 0.007108 0.000000
# 4 0.000000 0.000000 0.000000 0.035670 0.000000 0.000727
# 5 0.002027 -0.001085 0.007108 0.000000 0.041419 0.000000
# 6 0.000000 0.000000 0.000000 0.000727 0.000000 0.033161
#
#
# Mechanical properties :
#
#
# Convention : Reuss Voigt Hill
#
# Bulk Modulus (GPa) = 53.35869 63.87771 58.61820
# Shear Modulus (GPa) = 23.31960 25.36024 24.33992
#
# Velocity S-wave (km/s) = 3.61200 3.76673 3.69018
# Velocity P-wave (km/s) = 6.87371 7.39291 7.13803
#
# Compressibility (1/GPa) = 0.01874109
#
# Stress axis : x y z
#
# Youngs Moduli (GPa) = 48.80909 59.22111 47.72290
#
# Poissons Ratio (x) = 0.61333 0.22311
# Poissons Ratio (y) = 0.50550 0.22725
# Poissons Ratio (z) = 0.22818 0.28200
#
# Static dielectric constant tensor:
#      x y z
#    x 3.150580 0.000000 0.130150 
#    y 0.000000 3.360120 0.000000 
#    z 0.130150 0.000000 3.317850 
# 
# 
# High freq. dielectric constant tensor:
#      x y z
#    x 1.673140 0.000000 0.010260 
#    y 0.000000 1.686110 0.000000 
#    z 0.010260 0.000000 1.701270 
# 
# From -- ./inp_files/104500.got.cif
#   From: 2010.06.25/outbox.cif.g09.slc.cpg/sg12_53_cif.got.tgz:104500.got - 2010.06.28 00:19:55.
