data_PCOD8106208
_publ_section_title
;
Structure prediction by ZEFSAII (Michael W. Deem and Ramdas Pophale) SiO2 
 PCOD8106208
Probable space group: C 2/M
;
_chemical_formula_sum "Si O2"
_cell_formula_units_Z 56
_cell_length_a 22.452595
_cell_length_b 8.977172
_cell_length_c 15.868477
_cell_angle_alpha 90.000000
_cell_angle_beta 61.903281
_cell_angle_gamma 90.000000
_cell_volume 2821.536436
_symmetry_space_group_name_H-M "C 2/M"
_symmetry_group_IT_number 12
_symmetry_cell_setting 'monoclinic'
loop_
_space_group_symop_operation_xyz
x,y,z
-x,y,-z
-x,-y,-z
x,-y,z
1/2+x,1/2+y,z
1/2-x,1/2+y,-z
1/2-x,1/2-y,-z
1/2+x,1/2-y,z
loop_
_atom_site_type_symbol
_atom_site_label
_atom_site_fract_x
_atom_site_fract_y
_atom_site_fract_z
Si Si1 0.942646 0.172392 0.362588
Si Si2 0.920253 0.673327 0.721820
Si Si3 0.801658 0.173981 0.527741
Si Si4 0.415275 0.826842 0.921236
Si Si5 0.552462 0.671597 0.835112
Si Si6 0.667990 0.675847 0.886521
Si Si7 0.295454 0.324783 0.724357
O O1 0.877783 0.227615 0.457821
O O2 0.926809 0.199509 0.274920
O O3 0.004913 0.272183 0.351801
O O4 0.960027 0.000000 0.368432
O O5 0.913556 0.500000 0.704761
O O6 0.905421 0.705987 0.829446
O O7 0.868926 0.766975 0.700196
O O8 0.750000 0.250000 0.500000
O O9 0.782480 0.215895 0.635677
O O10 0.797031 0.000000 0.513471
O O11 0.487617 0.767525 0.904518
O O12 0.410701 0.000000 0.945814
O O13 0.355803 0.740041 0.008235
O O14 0.534117 0.500000 0.864647
O O15 0.615182 0.724162 0.849672
O O16 0.675872 0.500000 0.888162
O O17 0.740402 0.743903 0.818009
O O18 0.291744 0.500000 0.742576
#
# Coordination Sequence:
#
# PCOD8106208 Si02
#       7
#     8   8   8   8   8   8   8
#     4   9  18  36  60  83 112 149 185 226 276 329
#     4  10  22  40  59  82 111 146 190 234 279 332
#     4  10  22  39  61  89 118 149 185 226 276 333
#     4  10  21  36  56  82 112 146 186 233 282 334
#     4   9  18  33  55  83 113 146 184 225 274 334
#     4  11  22  36  56  82 113 150 190 232 281 335
#     4  11  24  40  58  82 113 149 189 233 279 329
#
# _framework density 19.847341
#
# number of rings (size 3 to 8) (size 9 to 14) (size 15 to 20)
#    0.000    2.000    0.000    3.000    0.000    8.571 
#    0.000    5.714    0.000    0.000    0.000    0.000 
#    0.000    0.000    0.000    0.000    0.000    0.000 
#
# Total GULP energy -347364.891001 kJ/mol
# GULP energy per Si atom -12405.888964 kJ/mol
# Density = 1.980217 g / cm^3
# Si number density = 19.847341 Si / 1000 Ang^3
#
#
#
# Elastic Constant Matrix: (Units=GPa)
#
#
# Indices 1 2 3 4 5 6 
#
# 1 104.9877 48.5913 33.4728 0.0000 -7.7569 -0.0001
# 2 48.5913 84.7352 45.7008 -0.0001 -4.1419 -0.0003
# 3 33.4728 45.7008 86.8826 0.0000 -27.7335 0.0000
# 4 0.0000 -0.0001 0.0000 29.6489 0.0000 -4.3661
# 5 -7.7569 -4.1419 -27.7335 0.0000 29.0644 0.0000
# 6 -0.0001 -0.0003 0.0000 -4.3661 0.0000 39.5223
#
#
#
# Elastic Compliance Matrix: (Units=1/GPa)
#
#
# Indices 1 2 3 4 5 6 
#
# 1 0.013165 -0.007016 -0.000833 0.000000 0.001719 0.000000
# 2 -0.007016 0.021823 -0.012052 0.000000 -0.010263 0.000000
# 3 -0.000833 -0.012052 0.025238 0.000000 0.022143 0.000000
# 4 0.000000 0.000000 0.000000 0.034286 0.000000 0.003788
# 5 0.001719 -0.010263 0.022143 0.000000 0.054531 0.000000
# 6 0.000000 0.000000 0.000000 0.003788 0.000000 0.025721
#
#
# Mechanical properties :
#
#
# Convention : Reuss Voigt Hill
#
# Bulk Modulus (GPa) = 48.96076 59.12613 54.04344
# Shear Modulus (GPa) = 22.58625 29.56983 26.07804
#
# Velocity S-wave (km/s) = 3.37708 3.86406 3.62875
# Velocity P-wave (km/s) = 6.31890 7.05430 6.69670
#
# Compressibility (1/GPa) = 0.02042452
#
# Stress axis : x y z
#
# Youngs Moduli (GPa) = 75.96083 45.82247 39.62271
#
# Poissons Ratio (x) = 0.32150 0.03299
# Poissons Ratio (y) = 0.53296 0.47753
# Poissons Ratio (z) = 0.06324 0.55225
#
# Static dielectric constant tensor:
#      x y z
#    x 3.535630 0.000000 -0.041800 
#    y 0.000000 3.590260 0.000000 
#    z -0.041800 0.000000 3.707040 
# 
# 
# High freq. dielectric constant tensor:
#      x y z
#    x 1.774110 0.000000 -0.004710 
#    y 0.000000 1.775700 0.000000 
#    z -0.004710 0.000000 1.779950 
# 
# From -- ./inp_files/238256.got.cif
#   From: 2010.06.25/outbox.cif.g09.slc.cpg/sg12_120_cif.got.tgz:238256.got - 2010.06.28 00:19:55.
