data_PCOD8106670
_publ_section_title
;
Structure prediction by ZEFSAII (Michael W. Deem and Ramdas Pophale) SiO2 
 PCOD8106670
Probable space group: C 2/M
;
_chemical_formula_sum "Si O2"
_cell_formula_units_Z 48
_cell_length_a 27.414612
_cell_length_b 8.991185
_cell_length_c 11.537425
_cell_angle_alpha 90.000000
_cell_angle_beta 58.559063
_cell_angle_gamma 90.000000
_cell_volume 2426.318124
_symmetry_space_group_name_H-M "C 2/M"
_symmetry_group_IT_number 12
_symmetry_cell_setting 'monoclinic'
loop_
_space_group_symop_operation_xyz
x,y,z
-x,y,-z
-x,-y,-z
x,-y,z
1/2+x,1/2+y,z
1/2-x,1/2+y,-z
1/2-x,1/2-y,-z
1/2+x,1/2-y,z
loop_
_atom_site_type_symbol
_atom_site_label
_atom_site_fract_x
_atom_site_fract_y
_atom_site_fract_z
Si Si1 0.184747 0.176939 0.822330
Si Si2 0.224982 0.170921 0.420379
Si Si3 0.466644 0.175456 0.369870
Si Si4 0.614418 0.331624 0.684690
Si Si5 0.582815 0.175889 0.329515
Si Si6 0.310977 0.822430 0.948661
O O1 0.249642 0.238749 0.720688
O O2 0.143553 0.227239 0.767436
O O3 0.187812 0.000000 0.832613
O O4 0.162592 0.255819 0.965770
O O5 0.250000 0.250000 0.500000
O O6 0.156814 0.181175 0.520824
O O7 0.245256 0.000000 0.388520
O O8 0.442121 0.240916 0.279854
O O9 0.531874 0.230745 0.306896
O O10 0.428931 0.234212 0.526013
O O11 0.462899 0.000000 0.364473
O O12 0.595889 0.500000 0.729366
O O13 0.644608 0.228273 0.206548
O O14 0.579715 0.000000 0.335151
O O15 0.305049 0.000000 0.964054
O O16 0.250000 0.750000 0.000000
#
# Coordination Sequence:
#
# PCOD8106670 Si02
#       6
#     8   8   8   8   8   8
#     4  10  21  37  53  75 111 150 188 229 274 327
#     4   9  17  30  48  74 109 145 180 223 270 322
#     4   9  17  34  61  84 105 140 184 226 274 328
#     4   9  19  33  51  80 113 140 176 228 280 324
#     4   8  18  37  57  81 110 141 182 229 271 324
#     4  11  23  39  58  81 112 148 185 226 275 335
#
# _framework density 19.783059999999999
#
# number of rings (size 3 to 8) (size 9 to 14) (size 15 to 20)
#    0.000    2.667    0.000    3.500    2.333    4.000 
#    0.000    5.000    0.000    5.000    0.000    0.000 
#    0.000    0.000    0.000    0.000    0.000    0.000 
#
# Total GULP energy -297385.372312 kJ/mol
# GULP energy per Si atom -12391.057180 kJ/mol
# Density = 1.973803 g / cm^3
# Si number density = 19.783060 Si / 1000 Ang^3
#
#
#
# Elastic Constant Matrix: (Units=GPa)
#
#
# Indices 1 2 3 4 5 6 
#
# 1 121.2683 36.6520 38.3072 0.0000 0.4090 0.0000
# 2 36.6520 68.3530 23.9461 0.0000 -3.1093 0.0000
# 3 38.3072 23.9461 77.1697 0.0000 -8.5656 0.0000
# 4 0.0000 0.0000 0.0000 25.1422 0.0000 2.9618
# 5 0.4090 -3.1093 -8.5656 0.0000 25.0595 0.0000
# 6 0.0000 0.0000 0.0000 2.9618 0.0000 33.4780
#
#
#
# Elastic Compliance Matrix: (Units=1/GPa)
#
#
# Indices 1 2 3 4 5 6 
#
# 1 0.010963 -0.004473 -0.004299 0.000000 -0.002203 0.000000
# 2 -0.004473 0.018242 -0.003306 0.000000 0.001206 0.000000
# 3 -0.004299 -0.003306 0.016715 0.000000 0.005373 0.000000
# 4 0.000000 0.000000 0.000000 0.040193 0.000000 -0.003556
# 5 -0.002203 0.001206 0.005373 0.000000 0.041927 0.000000
# 6 0.000000 0.000000 0.000000 -0.003556 0.000000 0.030185
#
#
# Mechanical properties :
#
#
# Convention : Reuss Voigt Hill
#
# Bulk Modulus (GPa) = 45.94794 51.62242 48.78518
# Shear Modulus (GPa) = 26.36641 27.92832 27.14737
#
# Velocity S-wave (km/s) = 3.65468 3.76137 3.70841
# Velocity P-wave (km/s) = 6.40978 6.70931 6.56125
#
# Compressibility (1/GPa) = 0.02176376
#
# Stress axis : x y z
#
# Youngs Moduli (GPa) = 91.21176 54.81994 59.82739
#
# Poissons Ratio (x) = 0.24521 0.25719
# Poissons Ratio (y) = 0.40799 0.19780
# Poissons Ratio (z) = 0.39211 0.18124
#
# Static dielectric constant tensor:
#      x y z
#    x 3.592980 0.000000 -0.110050 
#    y 0.000000 3.456430 0.000000 
#    z -0.110050 0.000000 3.971470 
# 
# 
# High freq. dielectric constant tensor:
#      x y z
#    x 1.767930 0.000000 0.004410 
#    y 0.000000 1.756590 0.000000 
#    z 0.004410 0.000000 1.755800 
# 
# From -- ./inp_files/179720.got.cif
#   From: 2010.06.25/outbox.cif.g09.slc.cpg/sg12_90_cif.got.tgz:179720.got - 2010.06.28 00:19:55.
