data_PCOD8106223
_publ_section_title
;
Structure prediction by ZEFSAII (Michael W. Deem and Ramdas Pophale) SiO2 
 PCOD8106223
Probable space group: C 2/M
;
_chemical_formula_sum "Si O2"
_cell_formula_units_Z 56
_cell_length_a 20.996361
_cell_length_b 8.663621
_cell_length_c 29.485611
_cell_angle_alpha 90.000000
_cell_angle_beta 149.721754
_cell_angle_gamma 90.000000
_cell_volume 2704.308637
_symmetry_space_group_name_H-M "C 2/M"
_symmetry_group_IT_number 12
_symmetry_cell_setting 'monoclinic'
loop_
_space_group_symop_operation_xyz
x,y,z
-x,y,-z
-x,-y,-z
x,-y,z
1/2+x,1/2+y,z
1/2-x,1/2+y,-z
1/2-x,1/2-y,-z
1/2+x,1/2-y,z
loop_
_atom_site_type_symbol
_atom_site_label
_atom_site_fract_x
_atom_site_fract_y
_atom_site_fract_z
Si Si1 0.367364 0.684516 0.792106
Si Si2 0.619014 0.678591 0.097494
Si Si3 0.203021 0.172767 0.541131
Si Si4 0.859790 0.322029 0.409428
Si Si5 0.081415 0.174074 0.377584
Si Si6 0.132705 0.323495 0.803762
Si Si7 0.880310 0.682184 0.099082
O O1 0.372012 0.500000 0.791084
O O2 0.355978 0.747140 0.836825
O O3 0.239554 0.747480 0.688346
O O4 0.495825 0.747989 0.848629
O O5 0.589852 0.500000 0.088287
O O6 0.726394 0.702542 0.126450
O O7 0.500000 0.759804 0.000000
O O8 0.202644 0.298959 0.580092
O O9 0.084325 0.194297 0.434042
O O10 0.328868 0.198956 0.589716
O O11 0.205840 0.000000 0.563499
O O12 0.879324 0.500000 0.409855
O O13 0.000000 0.242215 0.500000
O O14 0.942625 0.207632 0.274725
O O15 0.123207 0.000000 0.390572
O O16 0.089932 0.500000 0.769870
O O17 0.115398 0.275412 0.845188
O O18 0.879360 0.500000 0.090748
O O19 0.750000 0.750000 0.000000
#
# Coordination Sequence:
#
# PCOD8106223 Si02
#       7
#     8   8   8   8   8   8   8
#     4  10  21  38  60  87 120 158 197 243 299 354
#     4   9  18  35  59  85 113 148 192 240 287 343
#     4  10  21  37  56  80 112 152 194 237 287 341
#     4  10  22  37  57  86 118 156 200 243 293 350
#     4  10  21  36  56  83 113 147 187 238 294 345
#     4  10  21  36  60  88 113 147 195 242 288 348
#     4  11  23  39  61  90 119 153 196 244 301 360
#
# _framework density 20.707695999999999
#
# number of rings (size 3 to 8) (size 9 to 14) (size 15 to 20)
#    0.000    2.000    0.000    3.000    2.000    8.286 
#    0.000    0.714    0.000    1.714    0.000    0.000 
#    0.000    0.000    0.000    0.000    0.000    0.000 
#
# Total GULP energy -347025.187538 kJ/mol
# GULP energy per Si atom -12393.756698 kJ/mol
# Density = 2.066056 g / cm^3
# Si number density = 20.707696 Si / 1000 Ang^3
#
#
#
# Elastic Constant Matrix: (Units=GPa)
#
#
# Indices 1 2 3 4 5 6 
#
# 1 103.7459 11.6744 38.6405 -0.0001 -13.8249 -0.0002
# 2 11.6744 37.7335 28.1240 -0.0002 -4.8963 -0.0007
# 3 38.6405 28.1240 156.6462 -0.0005 -10.8977 0.0001
# 4 -0.0001 -0.0002 -0.0005 27.2111 0.0002 3.4002
# 5 -13.8249 -4.8963 -10.8977 0.0002 31.2491 0.0000
# 6 -0.0002 -0.0007 0.0001 3.4002 0.0000 26.8654
#
#
#
# Elastic Compliance Matrix: (Units=1/GPa)
#
#
# Indices 1 2 3 4 5 6 
#
# 1 0.011144 -0.001260 -0.002248 0.000000 0.003949 0.000000
# 2 -0.001260 0.031006 -0.005080 0.000000 0.002529 0.000001
# 3 -0.002248 -0.005080 0.007918 0.000000 0.000971 0.000000
# 4 0.000000 0.000000 0.000000 0.037340 0.000000 -0.004726
# 5 0.003949 0.002529 0.000971 0.000000 0.034483 0.000000
# 6 0.000000 0.000001 0.000000 -0.004726 0.000000 0.037821
#
#
# Mechanical properties :
#
#
# Convention : Reuss Voigt Hill
#
# Bulk Modulus (GPa) = 30.40244 50.55591 40.47918
# Shear Modulus (GPa) = 26.61670 31.71091 29.16381
#
# Velocity S-wave (km/s) = 3.58907 3.91750 3.75688
# Velocity P-wave (km/s) = 5.64702 6.70295 6.19751
#
# Compressibility (1/GPa) = 0.03289210
#
# Stress axis : x y z
#
# Youngs Moduli (GPa) = 89.73242 32.25186 126.29553
#
# Poissons Ratio (x) = 0.04064 0.28392
# Poissons Ratio (y) = 0.11306 0.64158
# Poissons Ratio (z) = 0.20172 0.16384
#
# Static dielectric constant tensor:
#      x y z
#    x 3.675230 0.000000 -0.180920 
#    y 0.000000 3.458100 0.000000 
#    z -0.180920 0.000000 4.145780 
# 
# 
# High freq. dielectric constant tensor:
#      x y z
#    x 1.809860 0.000000 -0.007770 
#    y 0.000000 1.783110 0.000000 
#    z -0.007770 0.000000 1.828890 
# 
# From -- ./inp_files/281622.got.cif
#   From: 2010.06.25/outbox.cif.g09.slc.cpg/sg12_141_cif.got.tgz:281622.got - 2010.06.28 00:19:55.
