data_PCOD8106035
_publ_section_title
;
Structure prediction by ZEFSAII (Michael W. Deem and Ramdas Pophale) SiO2 
 PCOD8106035
Probable space group: C 2/M
;
_chemical_formula_sum "Si O2"
_cell_formula_units_Z 48
_cell_length_a 15.023409
_cell_length_b 8.461905
_cell_length_c 26.923404
_cell_angle_alpha 90.000000
_cell_angle_beta 135.069815
_cell_angle_gamma 90.000000
_cell_volume 2417.251133
_symmetry_space_group_name_H-M "C 2/M"
_symmetry_group_IT_number 12
_symmetry_cell_setting 'monoclinic'
loop_
_space_group_symop_operation_xyz
x,y,z
-x,y,-z
-x,-y,-z
x,-y,z
1/2+x,1/2+y,z
1/2-x,1/2+y,-z
1/2-x,1/2-y,-z
1/2+x,1/2-y,z
loop_
_atom_site_type_symbol
_atom_site_label
_atom_site_fract_x
_atom_site_fract_y
_atom_site_fract_z
Si Si1 0.654759 0.685016 0.332175
Si Si2 0.877712 0.315073 0.573510
Si Si3 0.022889 0.813807 0.825992
Si Si4 0.019828 0.686865 0.086649
Si Si5 0.076818 0.815700 0.579426
Si Si6 0.302997 0.187752 0.930276
O O1 0.636830 0.500000 0.336063
O O2 0.621518 0.784265 0.367721
O O3 0.560740 0.748601 0.252557
O O4 0.796156 0.715056 0.369650
O O5 0.887022 0.500000 0.566165
O O6 0.750000 0.250000 0.500000
O O7 0.996204 0.227051 0.596013
O O8 0.957324 0.765607 0.851331
O O9 0.163247 0.738590 0.878620
O O10 0.031837 0.000000 0.826503
O O11 0.019949 0.500000 0.092959
O O12 0.133700 0.743440 0.096228
O O13 0.887589 0.745586 0.010272
O O14 0.000000 0.768867 0.500000
O O15 0.110849 0.000000 0.593182
O O16 0.298979 0.000000 0.929438
#
# Coordination Sequence:
#
# PCOD8106035 Si02
#       6
#     8   8   8   8   8   8
#     4  11  24  40  58  85 120 159 198 240 293 350
#     4  12  24  40  64  90 117 149 189 239 291 348
#     4  10  21  36  54  80 117 152 185 233 290 339
#     4   9  17  32  57  83 108 149 198 236 276 332
#     4  11  23  40  64  89 113 147 191 240 295 349
#     4   8  16  33  55  80 112 150 192 234 280 336
#
# _framework density 19.857265000000002
#
# number of rings (size 3 to 8) (size 9 to 14) (size 15 to 20)
#    0.000    1.833    1.667    4.000    0.000    3.333 
#    0.000    4.167    0.000    0.000    0.000    0.000 
#    0.000    0.000    0.000    0.000    0.000    0.000 
#
# Total GULP energy -297661.209120 kJ/mol
# GULP energy per Si atom -12402.550380 kJ/mol
# Density = 1.981207 g / cm^3
# Si number density = 19.857265 Si / 1000 Ang^3
#
#
#
# Elastic Constant Matrix: (Units=GPa)
#
#
# Indices 1 2 3 4 5 6 
#
# 1 112.9064 3.3934 47.5490 0.0000 -12.8971 0.0000
# 2 3.3934 34.3893 20.5824 0.0000 -1.8995 0.0000
# 3 47.5490 20.5824 116.8147 0.0000 -20.1706 0.0000
# 4 0.0000 0.0000 0.0000 21.6267 0.0000 -5.8683
# 5 -12.8971 -1.8995 -20.1706 0.0000 34.0096 0.0000
# 6 0.0000 0.0000 0.0000 -5.8683 0.0000 32.1629
#
#
#
# Elastic Compliance Matrix: (Units=1/GPa)
#
#
# Indices 1 2 3 4 5 6 
#
# 1 0.010857 0.001675 -0.004442 0.000000 0.001576 0.000000
# 2 0.001675 0.032860 -0.006735 0.000000 -0.001524 0.000000
# 3 -0.004442 -0.006735 0.012477 0.000000 0.005339 0.000000
# 4 0.000000 0.000000 0.000000 0.048648 0.000000 0.008876
# 5 0.001576 -0.001524 0.005339 0.000000 0.033083 0.000000
# 6 0.000000 0.000000 0.000000 0.008876 0.000000 0.032711
#
#
# Mechanical properties :
#
#
# Convention : Reuss Voigt Hill
#
# Bulk Modulus (GPa) = 26.88890 45.24001 36.06446
# Shear Modulus (GPa) = 24.74779 30.39888 27.57334
#
# Velocity S-wave (km/s) = 3.53410 3.91688 3.73040
# Velocity P-wave (km/s) = 5.49761 6.57936 6.06266
#
# Compressibility (1/GPa) = 0.03719007
#
# Stress axis : x y z
#
# Youngs Moduli (GPa) = 92.10256 30.43204 80.14497
#
# Poissons Ratio (x) = -0.05096 0.35603
# Poissons Ratio (y) = -0.15423 0.53974
# Poissons Ratio (z) = 0.40915 0.20495
#
# Static dielectric constant tensor:
#      x y z
#    x 3.835780 0.000000 0.045260 
#    y 0.000000 3.375530 0.000000 
#    z 0.045260 0.000000 3.946870 
# 
# 
# High freq. dielectric constant tensor:
#      x y z
#    x 1.787670 0.000000 -0.001240 
#    y 0.000000 1.757050 0.000000 
#    z -0.001240 0.000000 1.773590 
# 
# From -- ./inp_files/267709.got.cif
#   From: 2010.06.25/outbox.cif.g09.slc.cpg/sg12_134_cif.got.tgz:267709.got - 2010.06.28 00:19:55.
