data_PCOD8106662
_publ_section_title
;
Structure prediction by ZEFSAII (Michael W. Deem and Ramdas Pophale) SiO2 
 PCOD8106662
Probable space group: C 2/M
;
_chemical_formula_sum "Si O2"
_cell_formula_units_Z 64
_cell_length_a 29.939903
_cell_length_b 9.037779
_cell_length_c 14.869800
_cell_angle_alpha 90.000000
_cell_angle_beta 78.570552
_cell_angle_gamma 90.000000
_cell_volume 3943.831929
_symmetry_space_group_name_H-M "C 2/M"
_symmetry_group_IT_number 12
_symmetry_cell_setting 'monoclinic'
loop_
_space_group_symop_operation_xyz
x,y,z
-x,y,-z
-x,-y,-z
x,-y,z
1/2+x,1/2+y,z
1/2-x,1/2+y,-z
1/2-x,1/2-y,-z
1/2+x,1/2-y,z
loop_
_atom_site_type_symbol
_atom_site_label
_atom_site_fract_x
_atom_site_fract_y
_atom_site_fract_z
Si Si1 0.566145 0.829868 0.407772
Si Si2 0.881032 0.827062 0.758632
Si Si3 0.964969 0.170435 0.208089
Si Si4 0.713835 0.671098 0.126889
Si Si5 0.698161 0.672910 0.930409
Si Si6 0.597671 0.670655 0.933177
Si Si7 0.964537 0.670264 0.385505
Si Si8 0.442823 0.175851 0.882031
O O1 0.603601 0.726295 0.346027
O O2 0.562120 0.783131 0.513507
O O3 0.518318 0.806254 0.376901
O O4 0.581293 0.000000 0.393588
O O5 0.827213 0.793827 0.788302
O O6 0.907319 0.738314 0.824667
O O7 0.891403 0.000000 0.767382
O O8 0.923158 0.191223 0.156921
O O9 0.947356 0.225176 0.312212
O O10 0.006723 0.269948 0.159870
O O11 0.980546 0.000000 0.207286
O O12 0.725752 0.500000 0.120265
O O13 0.759829 0.753359 0.139994
O O14 0.698526 0.725281 0.034003
O O15 0.704785 0.500000 0.918529
O O16 0.650127 0.723456 0.907217
O O17 0.594796 0.500000 0.966999
O O18 0.569713 0.770273 0.013601
O O19 0.954338 0.500000 0.366149
O O20 0.441831 0.000000 0.878089
#
# Coordination Sequence:
#
# PCOD8106662 Si02
#       8
#     8   8   8   8   8   8   8   8
#     4   9  18  32  50  72  98 128 159 198 244 290
#     4  11  20  32  50  73 101 131 161 198 243 290
#     4  11  22  34  51  71  96 131 169 203 240 283
#     4   9  18  31  48  70  97 124 156 198 242 287
#     4   9  17  32  50  68  94 126 160 197 239 286
#     4  10  21  37  51  68  97 132 167 204 241 281
#     4   9  18  33  50  70  99 128 159 201 244 284
#     4  12  23  33  47  69  99 133 171 204 233 280
#
# _framework density 16.227872000000001
#
# number of rings (size 3 to 8) (size 9 to 14) (size 15 to 20)
#    0.000    2.000    2.500    3.000    0.000    4.500 
#    0.000    1.250    0.000    0.000    0.000    0.875 
#    0.000    0.000    0.000    0.000    0.000    0.000 
#
# Total GULP energy -396843.505648 kJ/mol
# GULP energy per Si atom -12401.359552 kJ/mol
# Density = 1.619094 g / cm^3
# Si number density = 16.227872 Si / 1000 Ang^3
#
#
#
# Elastic Constant Matrix: (Units=GPa)
#
#
# Indices 1 2 3 4 5 6 
#
# 1 75.4993 39.9753 50.0150 0.0000 -2.9686 0.0000
# 2 39.9753 84.0441 53.1907 0.0000 -2.7513 0.0000
# 3 50.0150 53.1907 103.5867 0.0000 -5.9701 0.0000
# 4 0.0000 0.0000 0.0000 29.9149 0.0000 -3.8093
# 5 -2.9686 -2.7513 -5.9701 0.0000 20.7619 0.0000
# 6 0.0000 0.0000 0.0000 -3.8093 0.0000 23.4254
#
#
#
# Elastic Compliance Matrix: (Units=1/GPa)
#
#
# Indices 1 2 3 4 5 6 
#
# 1 0.020943 -0.005278 -0.007392 0.000000 0.000169 0.000000
# 2 -0.005278 0.018958 -0.007205 0.000000 -0.000314 0.000000
# 3 -0.007392 -0.007205 0.017090 0.000000 0.002903 0.000000
# 4 0.000000 0.000000 0.000000 0.034135 0.000000 0.005551
# 5 0.000169 -0.000314 0.002903 0.000000 0.048982 0.000000
# 6 0.000000 0.000000 0.000000 0.005551 0.000000 0.043591
#
#
# Mechanical properties :
#
#
# Convention : Reuss Voigt Hill
#
# Bulk Modulus (GPa) = 57.99769 61.05468 59.52618
# Shear Modulus (GPa) = 21.81527 22.81705 22.31616
#
# Velocity S-wave (km/s) = 3.67046 3.75379 3.71236
# Velocity P-wave (km/s) = 7.33350 7.51618 7.42540
#
# Compressibility (1/GPa) = 0.01724207
#
# Stress axis : x y z
#
# Youngs Moduli (GPa) = 47.74799 52.74719 58.51398
#
# Poissons Ratio (x) = 0.27837 0.43256
# Poissons Ratio (y) = 0.25199 0.42159
# Poissons Ratio (z) = 0.35297 0.38004
#
# Static dielectric constant tensor:
#      x y z
#    x 3.019970 0.000000 -0.104390 
#    y 0.000000 3.106470 0.000000 
#    z -0.104390 0.000000 3.062860 
# 
# 
# High freq. dielectric constant tensor:
#      x y z
#    x 1.605550 0.000000 -0.011300 
#    y 0.000000 1.629150 0.000000 
#    z -0.011300 0.000000 1.610010 
# 
# From -- ./inp_files/243995.got.cif
#   From: 2010.06.25/outbox.cif.g09.slc.cpg/sg12_122_cif.got.tgz:243995.got - 2010.06.28 00:19:55.
