data_PCOD8106777
_publ_section_title
;
Structure prediction by ZEFSAII (Michael W. Deem and Ramdas Pophale) SiO2 
 PCOD8106777
Probable space group: C 2/M
;
_chemical_formula_sum "Si O2"
_cell_formula_units_Z 48
_cell_length_a 29.641204
_cell_length_b 8.978021
_cell_length_c 32.870796
_cell_angle_alpha 90.000000
_cell_angle_beta 17.894633
_cell_angle_gamma 90.000000
_cell_volume 2687.839150
_symmetry_space_group_name_H-M "C 2/M"
_symmetry_group_IT_number 12
_symmetry_cell_setting 'monoclinic'
loop_
_space_group_symop_operation_xyz
x,y,z
-x,y,-z
-x,-y,-z
x,-y,z
1/2+x,1/2+y,z
1/2-x,1/2+y,-z
1/2-x,1/2-y,-z
1/2+x,1/2-y,z
loop_
_atom_site_type_symbol
_atom_site_label
_atom_site_fract_x
_atom_site_fract_y
_atom_site_fract_z
Si Si1 0.661603 0.830563 0.962467
Si Si2 0.421910 0.822897 0.106578
Si Si3 0.096007 0.822372 0.380737
Si Si4 0.460047 0.670007 0.660890
Si Si5 0.197315 0.325345 0.086219
Si Si6 0.900437 0.324093 0.384716
O O1 0.789901 0.818714 0.819073
O O2 0.688977 0.722002 0.976564
O O3 0.649829 0.000000 0.988784
O O4 0.511049 0.777153 0.070561
O O5 0.258366 0.757130 0.248772
O O6 0.419299 0.000000 0.105165
O O7 0.500000 0.753953 0.000000
O O8 0.028556 0.770974 0.395288
O O9 0.000000 0.757955 0.500000
O O10 0.100763 0.000000 0.377136
O O11 0.515840 0.500000 0.616843
O O12 0.561945 0.771173 0.601984
O O13 0.205183 0.500000 0.073363
O O14 0.032185 0.275875 0.240977
O O15 0.250000 0.250000 0.000000
O O16 0.880249 0.500000 0.402391
O O17 0.750000 0.250000 0.500000
#
# Coordination Sequence:
#
# PCOD8106777 Si02
#       6
#     8   8   8   8   8   8
#     4   9  16  28  50  75  99 132 172 210 250 299
#     4   9  14  24  44  69  95 128 170 206 240 293
#     4   9  16  26  42  69 102 131 162 207 254 290
#     4   9  16  29  50  73 100 134 169 208 256 303
#     4  10  21  37  56  78 106 136 170 214 265 316
#     4  10  21  37  57  79 102 134 176 217 260 313
#
# _framework density 17.858212000000002
#
# number of rings (size 3 to 8) (size 9 to 14) (size 15 to 20)
#    0.000    2.667    1.667    1.000    0.000    2.000 
#    3.000    0.000    0.000    2.000    0.000    0.000 
#    0.000    0.000    0.000    0.000    0.000    0.000 
#
# Total GULP energy -297541.399922 kJ/mol
# GULP energy per Si atom -12397.558330 kJ/mol
# Density = 1.781757 g / cm^3
# Si number density = 17.858212 Si / 1000 Ang^3
#
#
#
# Elastic Constant Matrix: (Units=GPa)
#
#
# Indices 1 2 3 4 5 6 
#
# 1 154.3458 44.5667 93.0724 -0.0289 2.2781 0.0631
# 2 44.5667 46.6348 35.2292 -0.0773 -1.6245 0.1694
# 3 93.0724 35.2292 124.8410 -0.0758 -5.6355 0.0300
# 4 -0.0289 -0.0773 -0.0758 16.9162 0.0262 -1.3870
# 5 2.2781 -1.6245 -5.6355 0.0262 36.3313 -0.0286
# 6 0.0631 0.1694 0.0300 -1.3870 -0.0286 25.3324
#
#
#
# Elastic Compliance Matrix: (Units=1/GPa)
#
#
# Indices 1 2 3 4 5 6 
#
# 1 0.013394 -0.006683 -0.008209 -0.000039 -0.002412 0.000016
# 2 -0.006683 0.030589 -0.003594 0.000096 0.001229 -0.000177
# 3 -0.008209 -0.003594 0.015267 0.000036 0.002722 0.000031
# 4 -0.000039 0.000096 0.000036 0.059382 -0.000028 0.003251
# 5 -0.002412 0.001229 0.002722 -0.000028 0.028153 0.000025
# 6 0.000016 -0.000177 0.000031 0.003251 0.000025 0.039654
#
#
# Mechanical properties :
#
#
# Convention : Reuss Voigt Hill
#
# Bulk Modulus (GPa) = 44.88657 74.61761 59.75209
# Shear Modulus (GPa) = 21.66034 25.91287 23.78661
#
# Velocity S-wave (km/s) = 3.48646 3.81338 3.65358
# Velocity P-wave (km/s) = 6.43403 7.82708 7.16449
#
# Compressibility (1/GPa) = 0.02227838
#
# Stress axis : x y z
#
# Youngs Moduli (GPa) = 74.65857 32.69199 65.50063
#
# Poissons Ratio (x) = 0.21849 0.53768
# Poissons Ratio (y) = 0.49897 0.23539
# Poissons Ratio (z) = 0.61285 0.11748
#
# Static dielectric constant tensor:
#      x y z
#    x 3.436770 -0.000090 -0.029680 
#    y -0.000090 2.966380 0.000170 
#    z -0.029680 0.000170 3.397510 
# 
# 
# High freq. dielectric constant tensor:
#      x y z
#    x 1.701740 -0.000010 -0.005620 
#    y -0.000010 1.653240 0.000010 
#    z -0.005620 0.000010 1.681370 
# 
# From -- ./inp_files/383760.got.cif
#   From: 2010.06.25/outbox.cif.g09.slc.cpg/sg12_192_cif.got.tgz:383760.got - 2010.06.28 00:19:55.
