data_PCOD8106614
_publ_section_title
;
Structure prediction by ZEFSAII (Michael W. Deem and Ramdas Pophale) SiO2 
 PCOD8106614
Probable space group: C 2/M
;
_chemical_formula_sum "Si O2"
_cell_formula_units_Z 48
_cell_length_a 9.254839
_cell_length_b 29.993161
_cell_length_c 8.487314
_cell_angle_alpha 90.000000
_cell_angle_beta 97.138488
_cell_angle_gamma 90.000000
_cell_volume 2337.663032
_symmetry_space_group_name_H-M "C 2/M"
_symmetry_group_IT_number 12
_symmetry_cell_setting 'monoclinic'
loop_
_space_group_symop_operation_xyz
x,y,z
-x,y,-z
-x,-y,-z
x,-y,z
1/2+x,1/2+y,z
1/2-x,1/2+y,-z
1/2-x,1/2-y,-z
1/2+x,1/2-y,z
loop_
_atom_site_type_symbol
_atom_site_label
_atom_site_fract_x
_atom_site_fract_y
_atom_site_fract_z
Si Si1 0.645473 0.409209 0.705885
Si Si2 0.136296 0.761186 0.613568
Si Si3 0.656109 0.500000 0.850513
Si Si4 0.885641 0.329414 0.210986
Si Si5 0.802667 0.093482 0.645090
Si Si6 0.796123 0.330787 0.855703
Si Si7 0.809926 0.000000 0.794066
O O1 0.704958 0.457594 0.757637
O O2 0.713124 0.399250 0.543751
O O3 0.473332 0.403102 0.702054
O O4 0.706860 0.376174 0.844732
O O5 0.250000 0.750000 0.500000
O O6 0.093477 0.714839 0.685808
O O7 0.202399 0.794368 0.750039
O O8 0.000000 0.782911 0.500000
O O9 0.482617 0.500000 0.832040
O O10 0.739505 0.500000 0.029922
O O11 0.793021 0.368121 0.284375
O O12 0.050168 0.344373 0.200881
O O13 0.808749 0.315136 0.037522
O O14 0.750919 0.044236 0.695885
#
# Coordination Sequence:
#
# PCOD8106614 Si02
#       7
#     8   8   4   8   8   8   4
#     4  10  21  36  61  92 123 163 208 252 303 358
#     4  12  25  44  67  90 121 159 203 254 308 367
#     4   9  17  33  56  87 128 161 202 256 299 355
#     4  11  25  44  62  90 127 164 201 254 307 366
#     4  10  21  36  62  91 125 162 207 255 302 359
#     4  11  25  43  64  90 125 163 205 251 309 365
#     4   9  17  33  56  89 124 163 205 249 304 356
#
# _framework density 20.533328999999998
#
# number of rings (size 3 to 8) (size 9 to 14) (size 15 to 20)
#    0.000    1.500    1.667    3.000    4.667    4.000 
#    0.000    0.833    0.000    5.000    0.000    0.000 
#    0.000    0.000    0.000    0.000    0.000    0.000 
#
# Total GULP energy -297463.174119 kJ/mol
# GULP energy per Si atom -12394.298922 kJ/mol
# Density = 2.048659 g / cm^3
# Si number density = 20.533329 Si / 1000 Ang^3
#
#
#
# Elastic Constant Matrix: (Units=GPa)
#
#
# Indices 1 2 3 4 5 6 
#
# 1 63.6245 31.0896 42.7098 0.0000 -1.3161 0.0000
# 2 31.0896 114.3304 30.5678 0.0000 4.2550 0.0000
# 3 42.7098 30.5678 95.1770 0.0000 2.6473 0.0000
# 4 0.0000 0.0000 0.0000 27.3955 0.0000 1.6721
# 5 -1.3161 4.2550 2.6473 0.0000 33.7851 0.0000
# 6 0.0000 0.0000 0.0000 1.6721 0.0000 23.9133
#
#
#
# Elastic Compliance Matrix: (Units=1/GPa)
#
#
# Indices 1 2 3 4 5 6 
#
# 1 0.024219 -0.004098 -0.009613 0.000000 0.002213 0.000000
# 2 -0.004098 0.010293 -0.001430 0.000000 -0.001344 0.000000
# 3 -0.009613 -0.001430 0.015319 0.000000 -0.001395 0.000000
# 4 0.000000 0.000000 0.000000 0.036659 0.000000 -0.002563
# 5 0.002213 -0.001344 -0.001395 0.000000 0.029964 0.000000
# 6 0.000000 0.000000 0.000000 -0.002563 0.000000 0.041997
#
#
# Mechanical properties :
#
#
# Convention : Reuss Voigt Hill
#
# Bulk Modulus (GPa) = 51.15393 53.54069 52.34731
# Shear Modulus (GPa) = 25.60856 28.26977 26.93916
#
# Velocity S-wave (km/s) = 3.53536 3.71452 3.62605
# Velocity P-wave (km/s) = 6.45227 6.67297 6.56354
#
# Compressibility (1/GPa) = 0.01954884
#
# Stress axis : x y z
#
# Youngs Moduli (GPa) = 41.29062 97.15224 65.28026
#
# Poissons Ratio (x) = 0.39811 0.62756
# Poissons Ratio (y) = 0.16920 0.09332
# Poissons Ratio (z) = 0.39694 0.13889
#
# Static dielectric constant tensor:
#      x y z
#    x 3.519680 0.000000 0.022990 
#    y 0.000000 3.702500 0.000000 
#    z 0.022990 0.000000 3.919380 
# 
# 
# High freq. dielectric constant tensor:
#      x y z
#    x 1.786050 0.000000 0.001030 
#    y 0.000000 1.812400 0.000000 
#    z 0.001030 0.000000 1.820210 
# 
# From -- ./inp_files/42263.got.cif
#   From: 2010.06.25/outbox.cif.g09.slc.cpg/sg12_22_cif.got.tgz:42263.got - 2010.06.28 00:19:55.
