data_PCOD8106839
_publ_section_title
;
Structure prediction by ZEFSAII (Michael W. Deem and Ramdas Pophale) SiO2 
 PCOD8106839
Probable space group: C 2/M
;
_chemical_formula_sum "Si O2"
_cell_formula_units_Z 64
_cell_length_a 30.296856
_cell_length_b 8.514222
_cell_length_c 22.559615
_cell_angle_alpha 90.000000
_cell_angle_beta 32.228142
_cell_angle_gamma 90.000000
_cell_volume 3103.409979
_symmetry_space_group_name_H-M "C 2/M"
_symmetry_group_IT_number 12
_symmetry_cell_setting 'monoclinic'
loop_
_space_group_symop_operation_xyz
x,y,z
-x,y,-z
-x,-y,-z
x,-y,z
1/2+x,1/2+y,z
1/2-x,1/2+y,-z
1/2-x,1/2-y,-z
1/2+x,1/2-y,z
loop_
_atom_site_type_symbol
_atom_site_label
_atom_site_fract_x
_atom_site_fract_y
_atom_site_fract_z
Si Si1 0.134812 0.179685 0.475262
Si Si2 0.241958 0.321128 0.446534
Si Si3 0.989271 0.317170 0.705259
Si Si4 0.110206 0.319737 0.778587
Si Si5 0.187683 0.817172 0.118811
Si Si6 0.701408 0.319562 0.914304
Si Si7 0.018531 0.182925 0.158070
Si Si8 0.789929 0.681250 0.221682
O O1 0.178888 0.202353 0.487749
O O2 0.202207 0.241046 0.350214
O O3 0.048611 0.272896 0.581627
O O4 0.112719 0.000000 0.487989
O O5 0.209098 0.500000 0.482316
O O6 0.250000 0.250000 0.500000
O O7 0.332257 0.310718 0.316272
O O8 0.994714 0.500000 0.710975
O O9 0.898548 0.271111 0.787538
O O10 0.014223 0.236251 0.739810
O O11 0.131847 0.500000 0.736691
O O12 0.129040 0.300035 0.827589
O O13 0.020086 0.277574 0.854579
O O14 0.226592 0.787669 0.139494
O O15 0.172387 0.000000 0.124958
O O16 0.250000 0.750000 0.000000
O O17 0.725944 0.500000 0.895435
O O18 0.692205 0.285685 0.855415
O O19 0.616092 0.281501 0.044964
O O20 0.999551 0.000000 0.171150
O O21 0.779601 0.500000 0.215522
#
# Coordination Sequence:
#
# PCOD8106839 Si02
#       8
#     8   8   8   8   8   8   8   8
#     4  10  21  39  60  85 119 159 201 248 301 360
#     4  11  20  32  51  77 112 154 200 248 301 359
#     4  12  24  39  63  94 126 160 199 251 308 364
#     4  10  21  37  56  82 117 159 206 252 301 357
#     4  12  24  42  67  94 125 158 197 246 304 366
#     4  11  24  41  64  91 122 160 203 252 305 362
#     4  11  23  38  58  88 125 162 203 253 308 363
#     4   9  21  41  63  86 119 164 208 251 302 357
#
# _framework density 20.622477
#
# number of rings (size 3 to 8) (size 9 to 14) (size 15 to 20)
#    0.000    1.250    1.250    6.375    0.000    5.000 
#    0.000    3.125    0.000    3.750    0.000    0.000 
#    0.000    0.000    0.000    0.000    0.000    0.000 
#
# Total GULP energy -396596.911960 kJ/mol
# GULP energy per Si atom -12393.653499 kJ/mol
# Density = 2.057554 g / cm^3
# Si number density = 20.622477 Si / 1000 Ang^3
#
#
#
# Elastic Constant Matrix: (Units=GPa)
#
#
# Indices 1 2 3 4 5 6 
#
# 1 83.6849 20.7770 11.5043 0.0046 -5.7073 -0.0015
# 2 20.7770 80.2748 27.3709 0.0218 2.2684 0.0071
# 3 11.5043 27.3709 58.7973 0.0208 -8.3913 0.0067
# 4 0.0046 0.0218 0.0208 33.1105 0.0055 -1.9902
# 5 -5.7073 2.2684 -8.3913 0.0055 29.7312 -0.0067
# 6 -0.0015 0.0071 0.0067 -1.9902 -0.0067 33.5701
#
#
#
# Elastic Compliance Matrix: (Units=1/GPa)
#
#
# Indices 1 2 3 4 5 6 
#
# 1 0.013014 -0.003205 -0.000691 0.000000 0.002548 0.000002
# 2 -0.003205 0.015896 -0.007329 -0.000005 -0.003896 -0.000003
# 3 -0.000691 -0.007329 0.021480 -0.000010 0.006489 -0.000002
# 4 0.000000 -0.000005 -0.000010 0.030310 -0.000008 0.001797
# 5 0.002548 -0.003896 0.006489 -0.000008 0.036252 0.000006
# 6 0.000002 -0.000003 -0.000002 0.001797 0.000006 0.029895
#
#
# Mechanical properties :
#
#
# Convention : Reuss Voigt Hill
#
# Bulk Modulus (GPa) = 35.78907 38.00682 36.89794
# Shear Modulus (GPa) = 27.99402 30.15604 29.07503
#
# Velocity S-wave (km/s) = 3.68836 3.82814 3.75890
# Velocity P-wave (km/s) = 5.96077 6.16517 6.06383
#
# Compressibility (1/GPa) = 0.02794150
#
# Stress axis : x y z
#
# Youngs Moduli (GPa) = 76.84042 62.91055 46.55404
#
# Poissons Ratio (x) = 0.20161 0.03216
# Poissons Ratio (y) = 0.24625 0.34118
# Poissons Ratio (z) = 0.05309 0.46105
#
# Static dielectric constant tensor:
#      x y z
#    x 3.700430 0.000020 -0.126210 
#    y 0.000020 3.861410 0.000050 
#    z -0.126210 0.000050 3.856290 
# 
# 
# High freq. dielectric constant tensor:
#      x y z
#    x 1.800080 0.000000 -0.007810 
#    y 0.000000 1.812980 0.000010 
#    z -0.007810 0.000010 1.801930 
# 
# From -- ./inp_files/353345.got.cif
#   From: 2010.06.25/outbox.cif.g09.slc.cpg/sg12_177_cif.got.tgz:353345.got - 2010.06.28 00:19:55.
