data_PCOD8106797
_publ_section_title
;
Structure prediction by ZEFSAII (Michael W. Deem and Ramdas Pophale) SiO2 
 PCOD8106797
Probable space group: C 2/M
;
_chemical_formula_sum "Si O2"
_cell_formula_units_Z 48
_cell_length_a 11.713683
_cell_length_b 16.275572
_cell_length_c 31.319892
_cell_angle_alpha 90.000000
_cell_angle_beta 155.000217
_cell_angle_gamma 90.000000
_cell_volume 2523.450066
_symmetry_space_group_name_H-M "C 2/M"
_symmetry_group_IT_number 12
_symmetry_cell_setting 'monoclinic'
loop_
_space_group_symop_operation_xyz
x,y,z
-x,y,-z
-x,-y,-z
x,-y,z
1/2+x,1/2+y,z
1/2-x,1/2+y,-z
1/2-x,1/2-y,-z
1/2+x,1/2-y,z
loop_
_atom_site_type_symbol
_atom_site_label
_atom_site_fract_x
_atom_site_fract_y
_atom_site_fract_z
Si Si1 0.987794 0.596111 0.620732
Si Si2 0.581078 0.654362 0.590711
Si Si3 0.798051 0.662719 0.392935
Si Si4 0.347028 0.597372 0.294224
Si Si5 0.869901 0.408698 0.243154
Si Si6 0.754448 0.097480 0.889364
O O1 0.932786 0.500000 0.608189
O O2 0.702683 0.643121 0.529379
O O3 0.129903 0.610025 0.624164
O O4 0.173277 0.629467 0.723784
O O5 0.700222 0.742853 0.619589
O O6 0.520434 0.644224 0.620485
O O7 0.805289 0.587302 0.654193
O O8 0.495733 0.634977 0.303362
O O9 0.000000 0.641161 0.500000
O O10 0.398686 0.500000 0.315252
O O11 0.028128 0.618279 0.183227
O O12 0.752032 0.500000 0.203872
O O13 0.738667 0.364068 0.156899
O O14 0.786232 0.000000 0.896354
O O15 0.000000 0.135836 0.000000
#
# Coordination Sequence:
#
# PCOD8106797 Si02
#       6
#     8   8   8   8   8   8
#     4  11  21  33  50  72 108 149 182 217 260 311
#     4  11  21  33  52  74 107 143 183 219 257 306
#     4  12  24  33  50  75 114 150 184 211 260 315
#     4  10  21  37  56  80 107 141 183 219 263 320
#     4   9  18  31  51  78 102 131 175 221 269 314
#     4   8  15  32  59  84 101 126 175 232 270 307
#
# _framework density 19.021577000000001
#
# number of rings (size 3 to 8) (size 9 to 14) (size 15 to 20)
#    0.000    1.833    1.667    5.000    2.333    2.000 
#    0.000    0.000    0.000    5.000    0.000    5.833 
#    0.000    0.000    0.000    0.000    0.000    0.667 
#
# Total GULP energy -297378.967004 kJ/mol
# GULP energy per Si atom -12390.790292 kJ/mol
# Density = 1.897828 g / cm^3
# Si number density = 19.021577 Si / 1000 Ang^3
#
#
#
# Elastic Constant Matrix: (Units=GPa)
#
#
# Indices 1 2 3 4 5 6 
#
# 1 126.0733 32.6739 64.8994 0.0006 -23.7851 -0.0007
# 2 32.6739 60.3282 26.5079 0.0025 -1.9362 -0.0003
# 3 64.8994 26.5079 132.2241 0.0116 -21.6620 -0.0018
# 4 0.0006 0.0025 0.0116 9.8789 0.0033 0.8735
# 5 -23.7851 -1.9362 -21.6620 0.0033 26.5370 -0.0013
# 6 -0.0007 -0.0003 -0.0018 0.8735 -0.0013 31.8882
#
#
#
# Elastic Compliance Matrix: (Units=1/GPa)
#
#
# Indices 1 2 3 4 5 6 
#
# 1 0.012721 -0.004888 -0.003988 0.000003 0.007790 0.000000
# 2 -0.004888 0.020139 -0.002442 0.000000 -0.004905 0.000000
# 3 -0.003988 -0.002442 0.010845 -0.000014 0.005101 0.000001
# 4 0.000003 0.000000 -0.000014 0.101471 -0.000021 -0.002780
# 5 0.007790 -0.004905 0.005101 -0.000021 0.048471 0.000003
# 6 0.000000 0.000000 0.000001 -0.002780 0.000003 0.031436
#
#
# Mechanical properties :
#
#
# Convention : Reuss Voigt Hill
#
# Bulk Modulus (GPa) = 47.45938 62.97644 55.21791
# Shear Modulus (GPa) = 19.62776 26.63046 23.12911
#
# Velocity S-wave (km/s) = 3.21576 3.74573 3.49082
# Velocity P-wave (km/s) = 6.22837 7.20327 6.73349
#
# Compressibility (1/GPa) = 0.02107065
#
# Stress axis : x y z
#
# Youngs Moduli (GPa) = 78.60978 49.65576 92.20487
#
# Poissons Ratio (x) = 0.24269 0.36769
# Poissons Ratio (y) = 0.38421 0.22516
# Poissons Ratio (z) = 0.31348 0.12126
#
# Static dielectric constant tensor:
#      x y z
#    x 3.746670 0.000000 -0.349990 
#    y 0.000000 3.220710 0.000000 
#    z -0.349990 0.000000 3.592880 
# 
# 
# High freq. dielectric constant tensor:
#      x y z
#    x 1.750760 0.000000 -0.023690 
#    y 0.000000 1.714050 0.000000 
#    z -0.023690 0.000000 1.707050 
# 
# From -- ./inp_files/131031.got.cif
#   From: 2010.06.25/outbox.cif.g09.slc.cpg/sg12_66_cif.got.tgz:131031.got - 2010.06.28 00:19:55.
