data_PCOD8106335
_publ_section_title
;
Structure prediction by ZEFSAII (Michael W. Deem and Ramdas Pophale) SiO2 
 PCOD8106335
Probable space group: C 2/M
;
_chemical_formula_sum "Si O2"
_cell_formula_units_Z 56
_cell_length_a 20.751186
_cell_length_b 9.134885
_cell_length_c 28.933707
_cell_angle_alpha 90.000000
_cell_angle_beta 31.179882
_cell_angle_gamma 90.000000
_cell_volume 2839.557040
_symmetry_space_group_name_H-M "C 2/M"
_symmetry_group_IT_number 12
_symmetry_cell_setting 'monoclinic'
loop_
_space_group_symop_operation_xyz
x,y,z
-x,y,-z
-x,-y,-z
x,-y,z
1/2+x,1/2+y,z
1/2-x,1/2+y,-z
1/2-x,1/2-y,-z
1/2+x,1/2-y,z
loop_
_atom_site_type_symbol
_atom_site_label
_atom_site_fract_x
_atom_site_fract_y
_atom_site_fract_z
Si Si1 0.083402 0.173253 0.404706
Si Si2 0.835293 0.166598 0.234141
Si Si3 0.404471 0.169420 0.450729
Si Si4 0.014077 0.171443 0.044771
Si Si5 0.494044 0.339214 0.223994
Si Si6 0.338180 0.167510 0.387176
Si Si7 0.228362 0.334558 0.966345
O O1 0.224591 0.230604 0.320661
O O2 0.000000 0.221340 0.500000
O O3 0.024148 0.244161 0.395379
O O4 0.086369 0.000000 0.397930
O O5 0.887808 0.210187 0.151057
O O6 0.952912 0.185592 0.196176
O O7 0.785547 0.000000 0.264167
O O8 0.396888 0.197456 0.400987
O O9 0.281242 0.233251 0.550243
O O10 0.416794 0.000000 0.456103
O O11 0.043174 0.000000 0.032144
O O12 0.129712 0.259244 0.993701
O O13 0.000000 0.217086 0.000000
O O14 0.445705 0.500000 0.270089
O O15 0.441580 0.208576 0.286894
O O16 0.641068 0.333809 0.140256
O O17 0.296991 0.000000 0.406568
O O18 0.184709 0.500000 0.003995
O O19 0.250000 0.250000 0.000000
#
# Coordination Sequence:
#
# PCOD8106335 Si02
#       7
#     8   8   8   8   8   8   8
#     4  11  24  39  57  85 117 151 197 246 293 349
#     4  10  21  39  60  85 119 157 198 242 298 363
#     4  10  21  38  58  80 113 155 193 235 293 352
#     4  10  22  42  65  90 125 166 206 253 310 370
#     4  10  21  37  59  87 119 153 194 242 295 356
#     4  10  21  36  57  86 115 147 193 243 290 347
#     4  11  22  39  63  90 121 156 200 250 302 360
#
# _framework density 19.721387
#
# number of rings (size 3 to 8) (size 9 to 14) (size 15 to 20)
#    0.000    1.714    1.429    2.571    0.000    8.857 
#    0.000    4.286    0.000    0.000    0.000    0.000 
#    0.000    0.000    0.000    0.000    0.000    0.000 
#
# Total GULP energy -347260.539073 kJ/mol
# GULP energy per Si atom -12402.162110 kJ/mol
# Density = 1.967650 g / cm^3
# Si number density = 19.721387 Si / 1000 Ang^3
#
#
#
# Elastic Constant Matrix: (Units=GPa)
#
#
# Indices 1 2 3 4 5 6 
#
# 1 100.9396 60.6880 49.2475 0.0006 -6.7997 -0.0009
# 2 60.6880 90.3204 47.3888 0.0030 -1.5035 -0.0064
# 3 49.2475 47.3888 107.6366 0.0000 3.5190 -0.0019
# 4 0.0006 0.0030 0.0000 32.9559 -0.0001 -3.2988
# 5 -6.7997 -1.5035 3.5190 -0.0001 32.9665 0.0026
# 6 -0.0009 -0.0064 -0.0019 -3.2988 0.0026 36.0264
#
#
#
# Elastic Compliance Matrix: (Units=1/GPa)
#
#
# Indices 1 2 3 4 5 6 
#
# 1 0.018138 -0.010023 -0.004007 0.000000 0.003712 -0.000002
# 2 -0.010023 0.019995 -0.004194 -0.000001 -0.000708 0.000003
# 3 -0.004007 -0.004194 0.013049 0.000000 -0.002411 0.000000
# 4 0.000000 -0.000001 0.000000 0.030624 0.000000 0.002804
# 5 0.003712 -0.000708 -0.002411 0.000000 0.031324 -0.000002
# 6 -0.000002 0.000003 0.000000 0.002804 -0.000002 0.028014
#
#
# Mechanical properties :
#
#
# Convention : Reuss Voigt Hill
#
# Bulk Modulus (GPa) = 67.87225 68.17169 68.02197
# Shear Modulus (GPa) = 27.39628 29.82792 28.61210
#
# Velocity S-wave (km/s) = 3.73120 3.89326 3.81309
# Velocity P-wave (km/s) = 7.28373 7.40624 7.34524
#
# Compressibility (1/GPa) = 0.01473356
#
# Stress axis : x y z
#
# Youngs Moduli (GPa) = 55.13181 50.01204 76.63174
#
# Poissons Ratio (x) = 0.50128 0.30710
# Poissons Ratio (y) = 0.55259 0.32141
# Poissons Ratio (z) = 0.22094 0.20976
#
# Static dielectric constant tensor:
#      x y z
#    x 3.656120 0.000000 -0.036810 
#    y 0.000000 3.671860 0.000000 
#    z -0.036810 0.000000 3.559770 
# 
# 
# High freq. dielectric constant tensor:
#      x y z
#    x 1.768930 0.000000 -0.001450 
#    y 0.000000 1.775160 0.000000 
#    z -0.001450 0.000000 1.766910 
# 
# From -- ./inp_files/380579.got.cif
#   From: 2010.06.25/outbox.cif.g09.slc.cpg/sg12_191_cif.got.tgz:380579.got - 2010.06.28 00:19:55.
