data_PCOD8106044
_publ_section_title
;
Structure prediction by ZEFSAII (Michael W. Deem and Ramdas Pophale) SiO2 
 PCOD8106044
Probable space group: C 2/M
;
_chemical_formula_sum "Si O2"
_cell_formula_units_Z 64
_cell_length_a 29.714416
_cell_length_b 8.813648
_cell_length_c 14.864043
_cell_angle_alpha 90.000000
_cell_angle_beta 120.251952
_cell_angle_gamma 90.000000
_cell_volume 3362.654714
_symmetry_space_group_name_H-M "C 2/M"
_symmetry_group_IT_number 12
_symmetry_cell_setting 'monoclinic'
loop_
_space_group_symop_operation_xyz
x,y,z
-x,y,-z
-x,-y,-z
x,-y,z
1/2+x,1/2+y,z
1/2-x,1/2+y,-z
1/2-x,1/2-y,-z
1/2+x,1/2-y,z
loop_
_atom_site_type_symbol
_atom_site_label
_atom_site_fract_x
_atom_site_fract_y
_atom_site_fract_z
Si Si1 0.662534 0.678996 0.172187
Si Si2 0.299755 0.180139 0.098767
Si Si3 0.631587 0.822275 0.502365
Si Si4 0.895016 0.326109 0.723516
Si Si5 0.974168 0.174452 0.569151
Si Si6 0.721938 0.820521 0.722136
Si Si7 0.115041 0.179556 0.937594
Si Si8 0.010331 0.323381 0.780005
O O1 0.665424 0.500000 0.171062
O O2 0.628008 0.723322 0.222048
O O3 0.720704 0.748747 0.238415
O O4 0.636924 0.739637 0.054600
O O5 0.299278 0.232687 0.202295
O O6 0.353075 0.241678 0.110340
O O7 0.297133 0.000000 0.086744
O O8 0.250000 0.250000 0.000000
O O9 0.635414 0.789313 0.399754
O O10 0.585124 0.727592 0.499113
O O11 0.683998 0.765037 0.604099
O O12 0.620653 0.000000 0.508121
O O13 0.887155 0.500000 0.742923
O O14 0.955990 0.287547 0.774867
O O15 0.000000 0.200698 0.500000
O O16 0.005981 0.275333 0.671937
O O17 0.976325 0.000000 0.602195
O O18 0.725709 0.000000 0.724761
O O19 0.054905 0.227222 0.873368
O O20 0.120535 0.000000 0.932927
O O21 0.024376 0.500000 0.798773
#
# Coordination Sequence:
#
# PCOD8106044 Si02
#       8
#     8   8   8   8   8   8   8   8
#     4  10  21  38  59  82 113 154 193 234 288 344
#     4  11  21  37  59  84 117 157 195 237 287 340
#     4   9  19  37  59  81 111 151 191 234 282 342
#     4   9  20  38  58  83 113 144 189 246 290 335
#     4  10  21  36  54  82 117 148 185 239 288 334
#     4   9  19  37  58  83 114 151 193 230 276 344
#     4  11  23  39  58  86 120 151 193 241 287 345
#     4  10  22  40  60  83 113 152 193 234 289 348
#
# _framework density 19.032582999999999
#
# number of rings (size 3 to 8) (size 9 to 14) (size 15 to 20)
#    0.000    2.125    1.250    2.250    1.750    5.500 
#    0.000    3.750    0.000    0.000    0.000    0.000 
#    0.000    0.000    0.000    0.000    0.000    0.000 
#
# Total GULP energy -396866.996970 kJ/mol
# GULP energy per Si atom -12402.093655 kJ/mol
# Density = 1.898926 g / cm^3
# Si number density = 19.032583 Si / 1000 Ang^3
#
#
#
# Elastic Constant Matrix: (Units=GPa)
#
#
# Indices 1 2 3 4 5 6 
#
# 1 115.9732 32.3817 73.9431 0.0000 -1.6209 0.0000
# 2 32.3817 42.4175 25.9554 0.0000 -4.8484 0.0000
# 3 73.9431 25.9554 119.0427 0.0000 17.6558 0.0000
# 4 0.0000 0.0000 0.0000 29.1891 0.0000 -0.2682
# 5 -1.6209 -4.8484 17.6558 0.0000 31.5564 0.0000
# 6 0.0000 0.0000 0.0000 -0.2682 0.0000 34.0957
#
#
#
# Elastic Compliance Matrix: (Units=1/GPa)
#
#
# Indices 1 2 3 4 5 6 
#
# 1 0.016664 -0.006089 -0.009827 0.000000 0.005419 0.000000
# 2 -0.006089 0.031513 -0.004101 0.000000 0.006823 0.000000
# 3 -0.009827 -0.004101 0.016975 0.000000 -0.010633 0.000000
# 4 0.000000 0.000000 0.000000 0.034262 0.000000 0.000270
# 5 0.005419 0.006823 -0.010633 0.000000 0.038965 0.000000
# 6 0.000000 0.000000 0.000000 0.000270 0.000000 0.029331
#
#
# Mechanical properties :
#
#
# Convention : Reuss Voigt Hill
#
# Bulk Modulus (GPa) = 39.81050 60.22151 50.01601
# Shear Modulus (GPa) = 23.13569 28.64512 25.89040
#
# Velocity S-wave (km/s) = 3.49030 3.88371 3.69225
# Velocity P-wave (km/s) = 6.09962 7.19868 6.67182
#
# Compressibility (1/GPa) = 0.02511900
#
# Stress axis : x y z
#
# Youngs Moduli (GPa) = 60.00943 31.73324 58.90888
#
# Poissons Ratio (x) = 0.19322 0.57889
# Poissons Ratio (y) = 0.36539 0.24157
# Poissons Ratio (z) = 0.58971 0.13013
#
# Static dielectric constant tensor:
#      x y z
#    x 3.569960 0.000000 0.150320 
#    y 0.000000 3.373050 0.000000 
#    z 0.150320 0.000000 3.697970 
# 
# 
# High freq. dielectric constant tensor:
#      x y z
#    x 1.743270 0.000000 0.003880 
#    y 0.000000 1.730130 0.000000 
#    z 0.003880 0.000000 1.748070 
# 
# From -- ./inp_files/249143.got.cif
#   From: 2010.06.25/outbox.cif.g09.slc.cpg/sg12_125_cif.got.tgz:249143.got - 2010.06.28 00:19:55.
