data_PCOD8106378
_publ_section_title
;
Structure prediction by ZEFSAII (Michael W. Deem and Ramdas Pophale) SiO2 
 PCOD8106378
Probable space group: C 2/M
;
_chemical_formula_sum "Si O2"
_cell_formula_units_Z 64
_cell_length_a 18.852571
_cell_length_b 14.013193
_cell_length_c 24.947852
_cell_angle_alpha 90.000000
_cell_angle_beta 27.732353
_cell_angle_gamma 90.000000
_cell_volume 3066.994720
_symmetry_space_group_name_H-M "C 2/M"
_symmetry_group_IT_number 12
_symmetry_cell_setting 'monoclinic'
loop_
_space_group_symop_operation_xyz
x,y,z
-x,y,-z
-x,-y,-z
x,-y,z
1/2+x,1/2+y,z
1/2-x,1/2+y,-z
1/2-x,1/2-y,-z
1/2+x,1/2-y,z
loop_
_atom_site_type_symbol
_atom_site_label
_atom_site_fract_x
_atom_site_fract_y
_atom_site_fract_z
Si Si1 0.265457 0.738383 0.125252
Si Si2 0.146418 0.111275 0.734118
Si Si3 0.585798 0.260044 0.865109
Si Si4 0.326761 0.389254 0.896986
Si Si5 0.203444 0.391450 0.607952
Si Si6 0.592970 0.775463 0.492008
Si Si7 0.517827 0.110650 0.336118
Si Si8 0.994408 0.391523 0.844990
O O1 0.316527 0.773765 0.149716
O O2 0.186204 0.827239 0.148364
O O3 0.152420 0.649078 0.207609
O O4 0.415837 0.704314 0.993270
O O5 0.167961 0.152486 0.779536
O O6 0.266106 0.154787 0.612820
O O7 0.978446 0.140987 0.826683
O O8 0.174767 0.000000 0.717239
O O9 0.587395 0.169151 0.825600
O O10 0.332536 0.500000 0.875769
O O11 0.186390 0.368391 0.031557
O O12 0.259247 0.500000 0.579357
O O13 0.347207 0.324071 0.523579
O O14 0.142481 0.377436 0.588224
O O15 0.059895 0.367911 0.742682
O O16 0.500000 0.754610 0.500000
O O17 0.486505 0.827895 0.606560
O O18 0.550101 0.000000 0.327671
O O19 0.023695 0.500000 0.841810
#
# Coordination Sequence:
#
# PCOD8106378 Si02
#       8
#     8   8   8   8   8   8   8   8
#     4  10  22  37  58  88 124 161 200 244 302 355
#     4  11  23  39  62  89 119 157 205 253 294 349
#     4  10  21  36  57  89 125 161 195 245 301 360
#     4   9  20  37  62  94 123 156 198 245 300 362
#     4  10  22  41  66  93 121 153 197 253 307 359
#     4  12  25  43  66  87 119 161 207 250 299 356
#     4  11  25  42  62  87 119 162 207 248 296 354
#     4   9  18  35  62  92 123 158 195 240 304 369
#
# _framework density 20.867332000000001
#
# number of rings (size 3 to 8) (size 9 to 14) (size 15 to 20)
#    0.000    1.750    1.250    2.250    1.750    4.750 
#    0.000    5.625    0.000    0.000    0.000    0.000 
#    0.000    0.000    0.000    0.000    0.000    0.000 
#
# Total GULP energy -396867.073140 kJ/mol
# GULP energy per Si atom -12402.096036 kJ/mol
# Density = 2.081984 g / cm^3
# Si number density = 20.867332 Si / 1000 Ang^3
#
#
#
# Elastic Constant Matrix: (Units=GPa)
#
#
# Indices 1 2 3 4 5 6 
#
# 1 85.7652 30.3691 12.9505 0.0030 5.8384 -0.0007
# 2 30.3691 84.3313 37.8667 -0.0004 1.9452 -0.0014
# 3 12.9505 37.8667 64.4540 -0.0022 6.2926 -0.0036
# 4 0.0030 -0.0004 -0.0022 29.6587 0.0008 8.3016
# 5 5.8384 1.9452 6.2926 0.0008 29.7641 0.0001
# 6 -0.0007 -0.0014 -0.0036 8.3016 0.0001 20.7172
#
#
#
# Elastic Compliance Matrix: (Units=1/GPa)
#
#
# Indices 1 2 3 4 5 6 
#
# 1 0.013535 -0.005030 0.000473 -0.000002 -0.002426 0.000001
# 2 -0.005030 0.018004 -0.009749 0.000000 0.001871 -0.000001
# 3 0.000473 -0.009749 0.021539 0.000001 -0.004009 0.000003
# 4 -0.000002 0.000000 0.000001 0.037976 -0.000001 -0.015217
# 5 -0.002426 0.001871 -0.004009 -0.000001 0.034799 -0.000001
# 6 0.000001 -0.000001 0.000003 -0.015217 -0.000001 0.054367
#
#
# Mechanical properties :
#
#
# Convention : Reuss Voigt Hill
#
# Bulk Modulus (GPa) = 40.87653 44.10256 42.48954
# Shear Modulus (GPa) = 23.04271 26.25229 24.64750
#
# Velocity S-wave (km/s) = 3.32663 3.55076 3.44052
# Velocity P-wave (km/s) = 5.86401 6.16369 6.01572
#
# Compressibility (1/GPa) = 0.02446392
#
# Stress axis : x y z
#
# Youngs Moduli (GPa) = 73.88387 55.54313 46.42723
#
# Poissons Ratio (x) = 0.27940 -0.02195
# Poissons Ratio (y) = 0.37166 0.45263
# Poissons Ratio (z) = -0.03493 0.54151
#
# Static dielectric constant tensor:
#      x y z
#    x 3.812340 0.000000 0.057320 
#    y 0.000000 3.757100 0.000010 
#    z 0.057320 0.000010 3.819500 
# 
# 
# High freq. dielectric constant tensor:
#      x y z
#    x 1.819760 0.000000 0.002600 
#    y 0.000000 1.818180 0.000000 
#    z 0.002600 0.000000 1.816150 
# 
# From -- ./inp_files/344012.got.cif
#   From: 2010.06.25/outbox.cif.g09.slc.cpg/sg12_173_cif.got.tgz:344012.got - 2010.06.28 00:19:55.
