data_PCOD8106747
_publ_section_title
;
Structure prediction by ZEFSAII (Michael W. Deem and Ramdas Pophale) SiO2 
 PCOD8106747
Probable space group: C 2/M
;
_chemical_formula_sum "Si O2"
_cell_formula_units_Z 64
_cell_length_a 27.797826
_cell_length_b 8.942618
_cell_length_c 17.608789
_cell_angle_alpha 90.000000
_cell_angle_beta 135.067924
_cell_angle_gamma 90.000000
_cell_volume 3091.537633
_symmetry_space_group_name_H-M "C 2/M"
_symmetry_group_IT_number 12
_symmetry_cell_setting 'monoclinic'
loop_
_space_group_symop_operation_xyz
x,y,z
-x,y,-z
-x,-y,-z
x,-y,z
1/2+x,1/2+y,z
1/2-x,1/2+y,-z
1/2-x,1/2-y,-z
1/2+x,1/2-y,z
loop_
_atom_site_type_symbol
_atom_site_label
_atom_site_fract_x
_atom_site_fract_y
_atom_site_fract_z
Si Si1 0.548312 0.175216 0.162729
Si Si2 0.204995 0.830961 0.888773
Si Si3 0.576873 0.161403 0.599491
Si Si4 0.420905 0.324131 0.652094
Si Si5 0.666361 0.675408 0.586783
Si Si6 0.760916 0.822633 0.805543
Si Si7 0.902066 0.676073 0.946458
Si Si8 0.557050 0.333657 0.725594
O O1 0.589371 0.251553 0.277258
O O2 0.585979 0.221979 0.127603
O O3 0.552715 0.000000 0.179831
O O4 0.468729 0.224012 0.069605
O O5 0.209771 0.741856 0.813090
O O6 0.130995 0.839773 0.848240
O O7 0.230688 0.000000 0.901335
O O8 0.250000 0.750000 0.000000
O O9 0.500000 0.125507 0.500000
O O10 0.602403 0.283330 0.567915
O O11 0.580642 0.224828 0.686650
O O12 0.616728 0.000000 0.637618
O O13 0.423748 0.500000 0.665921
O O14 0.357967 0.279798 0.525996
O O15 0.494617 0.265859 0.703921
O O16 0.682268 0.500000 0.609744
O O17 0.732215 0.766405 0.690989
O O18 0.836809 0.762738 0.905063
O O19 0.763188 0.000000 0.810570
O O20 0.889603 0.500000 0.939643
O O21 0.535397 0.500000 0.672914
#
# Coordination Sequence:
#
# PCOD8106747 Si02
#       8
#     8   8   8   8   8   8   8   8
#     4   9  20  40  67  94 120 148 189 244 298 356
#     4  11  24  40  58  83 121 163 203 248 295 349
#     4  11  21  32  51  80 111 147 196 246 283 333
#     4  10  22  37  58  89 122 155 199 247 298 355
#     4  11  22  38  58  81 116 163 203 244 295 356
#     4  12  25  40  61  90 121 157 203 250 297 355
#     4   9  20  42  67  92 119 153 193 237 298 364
#     4  10  21  37  55  78 113 159 200 238 289 348
#
# _framework density 20.701671000000001
#
# number of rings (size 3 to 8) (size 9 to 14) (size 15 to 20)
#    0.000    1.625    2.500    3.000    1.750    3.500 
#    0.000    1.875    0.000    0.000    0.000    0.000 
#    0.000    0.000    0.000    0.000    0.000    0.000 
#
# Total GULP energy -396511.967758 kJ/mol
# GULP energy per Si atom -12390.998992 kJ/mol
# Density = 2.065455 g / cm^3
# Si number density = 20.701671 Si / 1000 Ang^3
#
#
#
# Elastic Constant Matrix: (Units=GPa)
#
#
# Indices 1 2 3 4 5 6 
#
# 1 36.5716 9.6556 5.7714 0.0000 1.5020 0.0000
# 2 9.6556 81.6199 30.9694 0.0000 -3.7833 0.0000
# 3 5.7714 30.9694 87.8670 0.0000 -16.6935 0.0000
# 4 0.0000 0.0000 0.0000 33.5168 0.0000 -5.9656
# 5 1.5020 -3.7833 -16.6935 0.0000 36.5811 0.0000
# 6 0.0000 0.0000 0.0000 -5.9656 0.0000 26.1154
#
#
#
# Elastic Compliance Matrix: (Units=1/GPa)
#
#
# Indices 1 2 3 4 5 6 
#
# 1 0.028407 -0.003002 -0.001192 0.000000 -0.002021 0.000000
# 2 -0.003002 0.014487 -0.005038 0.000000 -0.000677 0.000000
# 3 -0.001192 -0.005038 0.014393 0.000000 0.006096 0.000000
# 4 0.000000 0.000000 0.000000 0.031100 0.000000 0.007104
# 5 -0.002021 -0.000677 0.006096 0.000000 0.030131 0.000000
# 6 0.000000 0.000000 0.000000 0.007104 0.000000 0.039914
#
#
# Mechanical properties :
#
#
# Convention : Reuss Voigt Hill
#
# Bulk Modulus (GPa) = 25.75694 33.20569 29.48132
# Shear Modulus (GPa) = 26.33834 29.88679 28.11256
#
# Velocity S-wave (km/s) = 3.57077 3.80371 3.68908
# Velocity P-wave (km/s) = 5.42859 5.94692 5.69366
#
# Compressibility (1/GPa) = 0.03882449
#
# Stress axis : x y z
#
# Youngs Moduli (GPa) = 35.20229 69.02692 69.47922
#
# Poissons Ratio (x) = 0.20722 0.08280
# Poissons Ratio (y) = 0.10568 0.35001
# Poissons Ratio (z) = 0.04195 0.34773
#
# Static dielectric constant tensor:
#      x y z
#    x 3.656770 0.000000 0.033560 
#    y 0.000000 3.741980 0.000000 
#    z 0.033560 0.000000 3.952140 
# 
# 
# High freq. dielectric constant tensor:
#      x y z
#    x 1.784390 0.000000 0.009930 
#    y 0.000000 1.810220 0.000000 
#    z 0.009930 0.000000 1.821200 
# 
# From -- ./inp_files/295696.got.cif
#   From: 2010.06.25/outbox.cif.g09.slc.cpg/sg12_148_cif.got.tgz:295696.got - 2010.06.28 00:19:55.
