data_PCOD8106887
_publ_section_title
;
Structure prediction by ZEFSAII (Michael W. Deem and Ramdas Pophale) SiO2 
 PCOD8106887
Probable space group: C 2/M
;
_chemical_formula_sum "Si O2"
_cell_formula_units_Z 48
_cell_length_a 20.554421
_cell_length_b 8.929612
_cell_length_c 14.685972
_cell_angle_alpha 90.000000
_cell_angle_beta 100.301823
_cell_angle_gamma 90.000000
_cell_volume 2652.054088
_symmetry_space_group_name_H-M "C 2/M"
_symmetry_group_IT_number 12
_symmetry_cell_setting 'monoclinic'
loop_
_space_group_symop_operation_xyz
x,y,z
-x,y,-z
-x,-y,-z
x,-y,z
1/2+x,1/2+y,z
1/2-x,1/2+y,-z
1/2-x,1/2-y,-z
1/2+x,1/2-y,z
loop_
_atom_site_type_symbol
_atom_site_label
_atom_site_fract_x
_atom_site_fract_y
_atom_site_fract_z
Si Si1 0.734069 0.830640 0.271617
Si Si2 0.797977 0.676618 0.939399
Si Si3 0.933412 0.824271 0.930665
Si Si4 0.917302 0.671787 0.739974
Si Si5 0.441248 0.178085 0.546191
Si Si6 0.199148 0.676400 0.555427
O O1 0.733454 0.784421 0.166029
O O2 0.661039 0.813428 0.294787
O O3 0.783991 0.721581 0.336742
O O4 0.759234 0.000000 0.290123
O O5 0.802911 0.500000 0.956669
O O6 0.871989 0.742218 0.963982
O O7 0.750000 0.750000 0.000000
O O8 0.942652 0.774398 0.828422
O O9 0.919575 0.000000 0.930524
O O10 0.000000 0.780295 0.000000
O O11 0.935484 0.500000 0.767902
O O12 0.950542 0.727244 0.654017
O O13 0.500000 0.246808 0.500000
O O14 0.373243 0.238723 0.486787
O O15 0.441561 0.000000 0.542027
O O16 0.203397 0.500000 0.545108
O O17 0.250000 0.750000 0.500000
#
# Coordination Sequence:
#
# PCOD8106887 Si02
#       6
#     8   8   8   8   8   8
#     4   9  18  34  54  80 108 138 175 221 270 316
#     4  10  21  38  60  83 113 146 181 227 279 332
#     4  10  21  37  57  81 111 145 184 230 278 327
#     4   9  17  33  56  78 104 140 182 224 269 323
#     4   9  18  34  53  75 107 140 174 221 269 311
#     4  11  20  32  54  80 106 138 180 222 263 318
#
# _framework density 18.099177000000001
#
# number of rings (size 3 to 8) (size 9 to 14) (size 15 to 20)
#    0.000    2.333    1.667    2.500    0.000    4.667 
#    3.000    0.000    0.000    3.500    0.000    0.000 
#    0.000    0.000    0.000    0.000    0.000    0.000 
#
# Total GULP energy -297599.938865 kJ/mol
# GULP energy per Si atom -12399.997453 kJ/mol
# Density = 1.805798 g / cm^3
# Si number density = 18.099177 Si / 1000 Ang^3
#
#
#
# Elastic Constant Matrix: (Units=GPa)
#
#
# Indices 1 2 3 4 5 6 
#
# 1 133.1364 51.1622 87.0149 0.0000 -5.9113 0.0000
# 2 51.1622 70.6316 45.8880 0.0000 3.6419 0.0000
# 3 87.0149 45.8880 125.8742 0.0000 -10.0632 0.0000
# 4 0.0000 0.0000 0.0000 34.9496 0.0000 2.4390
# 5 -5.9113 3.6419 -10.0632 0.0000 38.0500 0.0000
# 6 0.0000 0.0000 0.0000 2.4390 0.0000 24.4289
#
#
#
# Elastic Compliance Matrix: (Units=1/GPa)
#
#
# Indices 1 2 3 4 5 6 
#
# 1 0.015174 -0.005563 -0.008408 0.000000 0.000666 0.000000
# 2 -0.005563 0.021099 -0.004165 0.000000 -0.003985 0.000000
# 3 -0.008408 -0.004165 0.015531 0.000000 0.003200 0.000000
# 4 0.000000 0.000000 0.000000 0.028813 0.000000 -0.002877
# 5 0.000666 -0.003985 0.003200 0.000000 0.027612 0.000000
# 6 0.000000 0.000000 0.000000 -0.002877 0.000000 0.041222
#
#
# Mechanical properties :
#
#
# Convention : Reuss Voigt Hill
#
# Bulk Modulus (GPa) = 64.38351 77.53027 70.95689
# Shear Modulus (GPa) = 26.19169 29.19085 27.69127
#
# Velocity S-wave (km/s) = 3.80823 4.02036 3.91573
# Velocity P-wave (km/s) = 7.41530 8.02997 7.72875
#
# Compressibility (1/GPa) = 0.01553193
#
# Stress axis : x y z
#
# Youngs Moduli (GPa) = 65.90316 47.39635 64.38763
#
# Poissons Ratio (x) = 0.26366 0.54138
# Poissons Ratio (y) = 0.36661 0.26815
# Poissons Ratio (z) = 0.55412 0.19739
#
# Static dielectric constant tensor:
#      x y z
#    x 3.371700 0.000000 0.003750 
#    y 0.000000 3.234060 0.000000 
#    z 0.003750 0.000000 3.546800 
# 
# 
# High freq. dielectric constant tensor:
#      x y z
#    x 1.688010 0.000000 0.000850 
#    y 0.000000 1.689830 0.000000 
#    z 0.000850 0.000000 1.711650 
# 
# From -- ./inp_files/229282.got.cif
#   From: 2010.06.25/outbox.cif.g09.slc.cpg/sg12_115_cif.got.tgz:229282.got - 2010.06.28 00:19:55.
