data_PCOD8106957
_publ_section_title
;
Structure prediction by ZEFSAII (Michael W. Deem and Ramdas Pophale) SiO2 
 PCOD8106957
Probable space group: C 2/M
;
_chemical_formula_sum "Si O2"
_cell_formula_units_Z 64
_cell_length_a 20.415662
_cell_length_b 9.074129
_cell_length_c 19.997749
_cell_angle_alpha 90.000000
_cell_angle_beta 67.135802
_cell_angle_gamma 90.000000
_cell_volume 3413.588061
_symmetry_space_group_name_H-M "C 2/M"
_symmetry_group_IT_number 12
_symmetry_cell_setting 'monoclinic'
loop_
_space_group_symop_operation_xyz
x,y,z
-x,y,-z
-x,-y,-z
x,-y,z
1/2+x,1/2+y,z
1/2-x,1/2+y,-z
1/2-x,1/2-y,-z
1/2+x,1/2-y,z
loop_
_atom_site_type_symbol
_atom_site_label
_atom_site_fract_x
_atom_site_fract_y
_atom_site_fract_z
Si Si1 0.581879 0.170150 0.455904
Si Si2 0.346353 0.670795 0.918578
Si Si3 0.652048 0.671984 0.305770
Si Si4 0.396811 0.825562 0.291364
Si Si5 0.956501 0.169814 0.769629
Si Si6 0.711529 0.329080 0.921114
Si Si7 0.322910 0.828636 0.456354
Si Si8 0.199034 0.173497 0.776654
O O1 0.500000 0.204990 0.500000
O O2 0.610145 0.276582 0.387551
O O3 0.620835 0.210558 0.509028
O O4 0.594094 0.000000 0.430459
O O5 0.329143 0.500000 0.917261
O O6 0.423236 0.705531 0.856092
O O7 0.286377 0.750086 0.899420
O O8 0.343503 0.718830 0.998023
O O9 0.670360 0.500000 0.304929
O O10 0.603686 0.705136 0.260929
O O11 0.725000 0.760963 0.272666
O O12 0.477940 0.776965 0.268203
O O13 0.353759 0.773398 0.373627
O O14 0.363464 0.747194 0.240571
O O15 0.394215 0.000000 0.283040
O O16 0.981461 0.000000 0.754943
O O17 0.728780 0.500000 0.919525
O O18 0.679298 0.290628 0.861593
O O19 0.250000 0.750000 0.500000
O O20 0.306746 0.000000 0.459848
O O21 0.200748 0.000000 0.761543
#
# Coordination Sequence:
#
# PCOD8106957 Si02
#       8
#     8   8   8   8   8   8   8   8
#     4  10  21  38  58  80 108 143 184 232 284 335
#     4   9  17  33  56  83 115 148 184 229 277 327
#     4  11  22  36  57  86 115 145 186 233 281 334
#     4  11  24  40  59  82 112 149 190 234 281 336
#     4  10  21  37  57  83 116 152 186 227 281 334
#     4   9  18  32  55  85 113 146 188 230 275 328
#     4  10  22  39  58  80 105 140 184 229 278 332
#     4  11  22  37  57  84 115 148 188 232 280 334
#
# _framework density 18.7486
#
# number of rings (size 3 to 8) (size 9 to 14) (size 15 to 20)
#    0.000    1.875    1.250    2.625    0.000    6.750 
#    0.000    0.625    0.000    3.750    0.000    0.000 
#    0.000    0.000    0.000    0.000    0.000    0.000 
#
# Total GULP energy -396849.975097 kJ/mol
# GULP energy per Si atom -12401.561722 kJ/mol
# Density = 1.870593 g / cm^3
# Si number density = 18.748600 Si / 1000 Ang^3
#
#
#
# Elastic Constant Matrix: (Units=GPa)
#
#
# Indices 1 2 3 4 5 6 
#
# 1 82.8718 32.8037 33.9517 -0.0001 4.3751 -0.0004
# 2 32.8037 58.5181 41.2941 -0.0001 5.8974 -0.0003
# 3 33.9517 41.2941 115.6654 -0.0001 9.6263 -0.0003
# 4 -0.0001 -0.0001 -0.0001 27.4570 0.0000 0.0334
# 5 4.3751 5.8974 9.6263 0.0000 23.8321 0.0000
# 6 -0.0004 -0.0003 -0.0003 0.0334 0.0000 33.7464
#
#
#
# Elastic Compliance Matrix: (Units=1/GPa)
#
#
# Indices 1 2 3 4 5 6 
#
# 1 0.015841 -0.007469 -0.001961 0.000000 -0.000268 0.000000
# 2 -0.007469 0.026504 -0.007076 0.000000 -0.002329 0.000000
# 3 -0.001961 -0.007076 0.011974 0.000000 -0.002726 0.000000
# 4 0.000000 0.000000 0.000000 0.036421 0.000000 -0.000036
# 5 -0.000268 -0.002329 -0.002726 0.000000 0.043687 0.000000
# 6 0.000000 0.000000 0.000000 -0.000036 0.000000 0.029633
#
#
# Mechanical properties :
#
#
# Convention : Reuss Voigt Hill
#
# Bulk Modulus (GPa) = 46.93337 52.57268 49.75303
# Shear Modulus (GPa) = 24.48897 26.94082 25.71490
#
# Velocity S-wave (km/s) = 3.61803 3.79483 3.70748
# Velocity P-wave (km/s) = 6.52233 6.87769 6.70237
#
# Compressibility (1/GPa) = 0.02130680
#
# Stress axis : x y z
#
# Youngs Moduli (GPa) = 63.12748 37.73054 83.51256
#
# Poissons Ratio (x) = 0.28182 0.16376
# Poissons Ratio (y) = 0.47152 0.59092
# Poissons Ratio (z) = 0.12379 0.26698
#
# Static dielectric constant tensor:
#      x y z
#    x 3.351590 0.000000 0.141490 
#    y 0.000000 3.471750 0.000000 
#    z 0.141490 0.000000 3.903750 
# 
# 
# High freq. dielectric constant tensor:
#      x y z
#    x 1.718620 0.000000 0.005100 
#    y 0.000000 1.729630 0.000000 
#    z 0.005100 0.000000 1.746240 
# 
# From -- ./inp_files/319848.got.cif
#   From: 2010.06.25/outbox.cif.g09.slc.cpg/sg12_160_cif.got.tgz:319848.got - 2010.06.28 00:19:55.
