data_PCOD8106285
_publ_section_title
;
Structure prediction by ZEFSAII (Michael W. Deem and Ramdas Pophale) SiO2 
 PCOD8106285
Probable space group: C 2/M
;
_chemical_formula_sum "Si O2"
_cell_formula_units_Z 60
_cell_length_a 21.605101
_cell_length_b 24.711730
_cell_length_c 5.290333
_cell_angle_alpha 90.000000
_cell_angle_beta 88.134315
_cell_angle_gamma 90.000000
_cell_volume 2823.008445
_symmetry_space_group_name_H-M "C 2/M"
_symmetry_group_IT_number 12
_symmetry_cell_setting 'monoclinic'
loop_
_space_group_symop_operation_xyz
x,y,z
-x,y,-z
-x,-y,-z
x,-y,z
1/2+x,1/2+y,z
1/2-x,1/2+y,-z
1/2-x,1/2-y,-z
1/2+x,1/2-y,z
loop_
_atom_site_type_symbol
_atom_site_label
_atom_site_fract_x
_atom_site_fract_y
_atom_site_fract_z
Si Si1 0.926471 0.624111 0.021979
Si Si2 0.073411 0.561118 0.480235
Si Si3 0.500000 0.382432 0.000000
Si Si4 0.875852 0.061697 0.013056
Si Si5 0.560303 0.698010 0.382140
Si Si6 0.267890 0.705323 0.304543
Si Si7 0.656185 0.382639 0.503674
Si Si8 0.147719 0.728179 0.047069
O O1 0.903802 0.588167 0.261909
O O2 0.903611 0.595711 0.765144
O O3 0.896248 0.683075 0.070468
O O4 0.000000 0.631661 0.000000
O O5 0.100189 0.500000 0.456743
O O6 0.000000 0.558542 0.500000
O O7 0.554649 0.423213 0.917563
O O8 0.473250 0.344097 0.792820
O O9 0.839534 0.071673 0.280382
O O10 0.870768 0.000000 0.931269
O O11 0.847139 0.095502 0.782336
O O12 0.500000 0.730014 0.500000
O O13 0.599223 0.659295 0.566686
O O14 0.607640 0.741544 0.265165
O O15 0.250000 0.750000 0.500000
O O16 0.280926 0.651354 0.463799
O O17 0.208460 0.696269 0.135162
O O18 0.329572 0.724884 0.146263
#
# Coordination Sequence:
#
# PCOD8106285 Si02
#       8
#     8   8   4   8   8   8   8   8
#     4  10  22  37  59  98 132 163 202 261 327 386
#     4   9  18  36  61  87 124 169 209 244 305 390
#     4  10  21  36  56  92 134 176 211 256 318 396
#     4  11  23  40  65  95 129 171 221 273 327 384
#     4  11  22  38  60  95 136 176 204 259 333 400
#     4  11  24  45  66  90 120 175 229 271 317 386
#     4  11  23  42  65  93 126 170 224 269 324 386
#     4  11  26  39  64  95 131 171 220 267 328 393
#
# _framework density 21.253920999999998
#
# number of rings (size 3 to 8) (size 9 to 14) (size 15 to 20)
#    0.000    1.467    2.667    2.600    4.667    3.200 
#    0.000    2.000    0.000    4.800    0.000    0.000 
#    0.000    0.000    0.000    0.000    0.000    0.000 
#
# Total GULP energy -371734.005758 kJ/mol
# GULP energy per Si atom -12391.133525 kJ/mol
# Density = 2.120555 g / cm^3
# Si number density = 21.253921 Si / 1000 Ang^3
#
#
#
# Elastic Constant Matrix: (Units=GPa)
#
#
# Indices 1 2 3 4 5 6 
#
# 1 64.6284 44.5753 28.7993 0.0000 -1.7122 0.0000
# 2 44.5753 115.0443 37.9082 0.0000 8.3353 0.0000
# 3 28.7993 37.9082 121.5833 0.0000 7.4796 0.0000
# 4 0.0000 0.0000 0.0000 41.2460 0.0000 -3.3294
# 5 -1.7122 8.3353 7.4796 0.0000 31.6472 0.0000
# 6 0.0000 0.0000 0.0000 -3.3294 0.0000 27.2676
#
#
#
# Elastic Compliance Matrix: (Units=1/GPa)
#
#
# Indices 1 2 3 4 5 6 
#
# 1 0.022456 -0.007979 -0.003080 0.000000 0.004044 0.000000
# 2 -0.007979 0.012632 -0.001844 0.000000 -0.003323 0.000000
# 3 -0.003080 -0.001844 0.009650 0.000000 -0.001962 0.000000
# 4 0.000000 0.000000 0.000000 0.024486 0.000000 0.002990
# 5 0.004044 -0.003323 -0.001962 0.000000 0.033156 0.000000
# 6 0.000000 0.000000 0.000000 0.002990 0.000000 0.037039
#
#
# Mechanical properties :
#
#
# Convention : Reuss Voigt Hill
#
# Bulk Modulus (GPa) = 52.82144 58.20240 55.51192
# Shear Modulus (GPa) = 29.14833 32.69704 30.92269
#
# Velocity S-wave (km/s) = 3.70730 3.92650 3.81848
# Velocity P-wave (km/s) = 6.57510 6.92822 6.75397
#
# Compressibility (1/GPa) = 0.01893171
#
# Stress axis : x y z
#
# Youngs Moduli (GPa) = 44.53146 79.16227 103.62588
#
# Poissons Ratio (x) = 0.63163 0.31919
# Poissons Ratio (y) = 0.35531 0.19111
# Poissons Ratio (z) = 0.13717 0.14599
#
# Static dielectric constant tensor:
#      x y z
#    x 3.080860 0.000000 0.134790 
#    y 0.000000 3.639910 0.000000 
#    z 0.134790 0.000000 3.642820 
# 
# 
# High freq. dielectric constant tensor:
#      x y z
#    x 1.816180 0.000000 0.009130 
#    y 0.000000 1.826920 0.000000 
#    z 0.009130 0.000000 1.840610 
# 
# From -- ./inp_files/21899.got.cif
#   From: 2010.06.25/outbox.cif.g09.slc.cpg/sg12_11_cif.got.tgz:21899.got - 2010.06.28 00:19:55.
