data_PCOD8106439
_publ_section_title
;
Structure prediction by ZEFSAII (Michael W. Deem and Ramdas Pophale) SiO2 
 PCOD8106439
Probable space group: C 2/M
;
_chemical_formula_sum "Si O2"
_cell_formula_units_Z 48
_cell_length_a 14.638715
_cell_length_b 9.180059
_cell_length_c 18.437701
_cell_angle_alpha 90.000000
_cell_angle_beta 92.799833
_cell_angle_gamma 90.000000
_cell_volume 2474.779216
_symmetry_space_group_name_H-M "C 2/M"
_symmetry_group_IT_number 12
_symmetry_cell_setting 'monoclinic'
loop_
_space_group_symop_operation_xyz
x,y,z
-x,y,-z
-x,-y,-z
x,-y,z
1/2+x,1/2+y,z
1/2-x,1/2+y,-z
1/2-x,1/2-y,-z
1/2+x,1/2-y,z
loop_
_atom_site_type_symbol
_atom_site_label
_atom_site_fract_x
_atom_site_fract_y
_atom_site_fract_z
Si Si1 0.604531 0.329340 0.490886
Si Si2 0.762933 0.670356 0.607369
Si Si3 0.266203 0.834763 0.248113
Si Si4 0.656428 0.667818 0.986104
Si Si5 0.902840 0.163683 0.856851
Si Si6 0.427236 0.168245 0.150941
O O1 0.500000 0.275347 0.500000
O O2 0.604808 0.500000 0.473202
O O3 0.667971 0.292195 0.562641
O O4 0.648583 0.247488 0.424121
O O5 0.782736 0.500000 0.607025
O O6 0.752809 0.723156 0.688711
O O7 0.197007 0.806476 0.179392
O O8 0.365841 0.804225 0.219208
O O9 0.258475 0.000000 0.277385
O O10 0.677414 0.500000 0.969947
O O11 0.597710 0.684612 0.056786
O O12 0.750000 0.750000 0.000000
O O13 0.601051 0.734819 0.918030
O O14 0.971415 0.279632 0.823277
O O15 0.934968 0.000000 0.838712
O O16 0.425086 0.000000 0.127669
#
# Coordination Sequence:
#
# PCOD8106439 Si02
#       6
#     8   8   8   8   8   8
#     4   9  19  38  62  86 115 152 187 223 276 337
#     4  10  21  36  58  89 117 144 189 235 274 328
#     4  10  22  41  58  77 117 158 187 227 286 345
#     4  11  21  37  60  83 111 148 194 244 294 346
#     4  10  22  40  58  80 111 151 193 236 291 349
#     4  11  23  39  58  85 114 148 194 241 292 346
#
# _framework density 19.395671
#
# number of rings (size 3 to 8) (size 9 to 14) (size 15 to 20)
#    0.000    1.833    1.667    2.000    0.000    7.667 
#    0.000    5.000    0.000    0.000    0.000    0.000 
#    0.000    0.000    0.000    0.000    0.000    0.000 
#
# Total GULP energy -297664.803968 kJ/mol
# GULP energy per Si atom -12402.700165 kJ/mol
# Density = 1.935153 g / cm^3
# Si number density = 19.395671 Si / 1000 Ang^3
#
#
#
# Elastic Constant Matrix: (Units=GPa)
#
#
# Indices 1 2 3 4 5 6 
#
# 1 115.3327 51.3466 21.6321 0.0000 -21.8936 0.0000
# 2 51.3466 96.5470 43.1644 0.0000 -16.9599 0.0000
# 3 21.6321 43.1644 84.5793 0.0000 -14.3418 0.0000
# 4 0.0000 0.0000 0.0000 32.8200 0.0000 -0.8225
# 5 -21.8936 -16.9599 -14.3418 0.0000 19.9995 0.0000
# 6 0.0000 0.0000 0.0000 -0.8225 0.0000 37.2108
#
#
#
# Elastic Compliance Matrix: (Units=1/GPa)
#
#
# Indices 1 2 3 4 5 6 
#
# 1 0.012882 -0.005639 0.001325 0.000000 0.010270 0.000000
# 2 -0.005639 0.016914 -0.006608 0.000000 0.003431 0.000000
# 3 0.001325 -0.006608 0.016111 0.000000 0.007400 0.000000
# 4 0.000000 0.000000 0.000000 0.030486 0.000000 0.000674
# 5 0.010270 0.003431 0.007400 0.000000 0.069460 0.000000
# 6 0.000000 0.000000 0.000000 0.000674 0.000000 0.026889
#
#
# Mechanical properties :
#
#
# Convention : Reuss Voigt Hill
#
# Bulk Modulus (GPa) = 41.55787 58.74948 50.15368
# Shear Modulus (GPa) = 24.67814 30.02714 27.35264
#
# Velocity S-wave (km/s) = 3.57088 3.93890 3.75940
# Velocity P-wave (km/s) = 6.20277 7.14440 6.69017
#
# Compressibility (1/GPa) = 0.02406283
#
# Stress axis : x y z
#
# Youngs Moduli (GPa) = 77.62568 59.12350 62.06772
#
# Poissons Ratio (x) = 0.33342 -0.08222
# Poissons Ratio (y) = 0.43776 0.41012
# Poissons Ratio (z) = -0.10283 0.39067
#
# Static dielectric constant tensor:
#      x y z
#    x 3.906520 0.000000 0.117020 
#    y 0.000000 3.502600 0.000000 
#    z 0.117020 0.000000 3.476570 
# 
# 
# High freq. dielectric constant tensor:
#      x y z
#    x 1.764310 0.000000 -0.003340 
#    y 0.000000 1.759790 0.000000 
#    z -0.003340 0.000000 1.744380 
# 
# From -- ./inp_files/267609.got.cif
#   From: 2010.06.25/outbox.cif.g09.slc.cpg/sg12_134_cif.got.tgz:267609.got - 2010.06.28 00:19:55.
