data_PCOD8106981
_publ_section_title
;
Structure prediction by ZEFSAII (Michael W. Deem and Ramdas Pophale) SiO2 
 PCOD8106981
Probable space group: C 2/M
;
_chemical_formula_sum "Si O2"
_cell_formula_units_Z 48
_cell_length_a 17.753082
_cell_length_b 8.816930
_cell_length_c 30.709037
_cell_angle_alpha 90.000000
_cell_angle_beta 30.284451
_cell_angle_gamma 90.000000
_cell_volume 2424.044254
_symmetry_space_group_name_H-M "C 2/M"
_symmetry_group_IT_number 12
_symmetry_cell_setting 'monoclinic'
loop_
_space_group_symop_operation_xyz
x,y,z
-x,y,-z
-x,-y,-z
x,-y,z
1/2+x,1/2+y,z
1/2-x,1/2+y,-z
1/2-x,1/2-y,-z
1/2+x,1/2-y,z
loop_
_atom_site_type_symbol
_atom_site_label
_atom_site_fract_x
_atom_site_fract_y
_atom_site_fract_z
Si Si1 0.667979 0.180437 0.914683
Si Si2 0.841243 0.179760 0.743691
Si Si3 0.829706 0.826409 0.588573
Si Si4 0.165375 0.179519 0.082684
Si Si5 0.160405 0.325635 0.583347
Si Si6 0.677311 0.678093 0.744647
O O1 0.744062 0.241231 0.832669
O O2 0.759389 0.241743 0.910607
O O3 0.666523 0.000000 0.915672
O O4 0.500000 0.245436 0.000000
O O5 0.770640 0.235656 0.734331
O O6 0.006197 0.240981 0.667426
O O7 0.847296 0.000000 0.739959
O O8 0.757596 0.807533 0.577729
O O9 0.742363 0.718815 0.665209
O O10 0.000000 0.771392 0.500000
O O11 0.821681 0.000000 0.609158
O O12 0.993942 0.232382 0.167616
O O13 0.179666 0.000000 0.072874
O O14 0.250000 0.250000 0.000000
O O15 0.129283 0.500000 0.587342
O O16 0.250000 0.250000 0.500000
O O17 0.691334 0.500000 0.745416
#
# Coordination Sequence:
#
# PCOD8106981 Si02
#       6
#     8   8   8   8   8   8
#     4   9  18  34  57  83 111 148 194 238 283 343
#     4  11  22  38  61  85 115 156 198 241 292 346
#     4  10  22  40  61  86 116 152 194 237 285 346
#     4  10  21  37  57  84 116 150 191 238 289 346
#     4  11  23  39  61  89 121 154 192 238 287 344
#     4  11  23  38  58  86 119 153 195 245 291 342
#
# _framework density 19.801618999999999
#
# number of rings (size 3 to 8) (size 9 to 14) (size 15 to 20)
#    0.000    1.667    0.000    4.500    0.000    7.000 
#    0.000    1.667    0.000    4.500    0.000    0.000 
#    0.000    0.000    0.000    0.000    0.000    0.000 
#
# Total GULP energy -297723.682163 kJ/mol
# GULP energy per Si atom -12405.153423 kJ/mol
# Density = 1.975655 g / cm^3
# Si number density = 19.801619 Si / 1000 Ang^3
#
#
#
# Elastic Constant Matrix: (Units=GPa)
#
#
# Indices 1 2 3 4 5 6 
#
# 1 96.8153 29.6866 44.1987 0.0064 -5.7390 0.0752
# 2 29.6866 61.7774 43.0523 0.0021 -0.4015 0.0157
# 3 44.1987 43.0523 167.4579 0.0001 -5.7078 0.0080
# 4 0.0064 0.0021 0.0001 32.8958 -0.0055 5.8836
# 5 -5.7390 -0.4015 -5.7078 -0.0055 45.7617 0.0014
# 6 0.0752 0.0157 0.0080 5.8836 0.0014 14.5829
#
#
#
# Elastic Compliance Matrix: (Units=1/GPa)
#
#
# Indices 1 2 3 4 5 6 
#
# 1 0.012811 -0.004656 -0.002140 0.000009 0.001299 -0.000064
# 2 -0.004656 0.021423 -0.004310 -0.000001 -0.000934 0.000004
# 3 -0.002140 -0.004310 0.007667 -0.000001 0.000650 0.000012
# 4 0.000009 -0.000001 -0.000001 0.032763 0.000005 -0.013219
# 5 0.001299 -0.000934 0.000650 0.000005 0.022088 -0.000010
# 6 -0.000064 0.000004 0.000012 -0.013219 -0.000010 0.073907
#
#
# Mechanical properties :
#
#
# Convention : Reuss Voigt Hill
#
# Bulk Modulus (GPa) = 50.79557 62.21398 56.50477
# Shear Modulus (GPa) = 25.07096 32.58895 28.82996
#
# Velocity S-wave (km/s) = 3.56210 4.06121 3.81982
# Velocity P-wave (km/s) = 6.52886 7.31287 6.93196
#
# Compressibility (1/GPa) = 0.01968676
#
# Stress axis : x y z
#
# Youngs Moduli (GPa) = 78.05997 46.67969 130.43285
#
# Poissons Ratio (x) = 0.21736 0.27911
# Poissons Ratio (y) = 0.36348 0.56222
# Poissons Ratio (z) = 0.16704 0.20121
#
# Static dielectric constant tensor:
#      x y z
#    x 4.034870 -0.000130 -0.108510 
#    y -0.000130 3.530980 0.000000 
#    z -0.108510 0.000000 3.802830 
# 
# 
# High freq. dielectric constant tensor:
#      x y z
#    x 1.791880 0.000000 -0.002380 
#    y 0.000000 1.757600 0.000000 
#    z -0.002380 0.000000 1.791660 
# 
# From -- ./inp_files/274067.got.cif
#   From: 2010.06.25/outbox.cif.g09.slc.cpg/sg12_138_cif.got.tgz:274067.got - 2010.06.28 00:19:55.
