data_PCOD8106870
_publ_section_title
;
Structure prediction by ZEFSAII (Michael W. Deem and Ramdas Pophale) SiO2 
 PCOD8106870
Probable space group: C 2/M
;
_chemical_formula_sum "Si O2"
_cell_formula_units_Z 52
_cell_length_a 27.777995
_cell_length_b 8.987356
_cell_length_c 19.986273
_cell_angle_alpha 90.000000
_cell_angle_beta 149.753954
_cell_angle_gamma 90.000000
_cell_volume 2513.326959
_symmetry_space_group_name_H-M "C 2/M"
_symmetry_group_IT_number 12
_symmetry_cell_setting 'monoclinic'
loop_
_space_group_symop_operation_xyz
x,y,z
-x,y,-z
-x,-y,-z
x,-y,z
1/2+x,1/2+y,z
1/2-x,1/2+y,-z
1/2-x,1/2-y,-z
1/2+x,1/2-y,z
loop_
_atom_site_type_symbol
_atom_site_label
_atom_site_fract_x
_atom_site_fract_y
_atom_site_fract_z
Si Si1 0.258033 0.834003 0.906860
Si Si2 0.971607 0.668153 0.200093
Si Si3 0.009626 0.821603 0.111563
Si Si4 0.206443 0.336380 0.718376
Si Si5 0.859266 0.322665 0.833375
Si Si6 0.000000 0.747879 0.500000
Si Si7 0.557197 0.338435 0.711950
O O1 0.252219 0.709366 0.843500
O O2 0.171063 0.808471 0.854041
O O3 0.249265 0.000000 0.863838
O O4 0.357578 0.819250 0.063960
O O5 0.008358 0.500000 0.233638
O O6 0.000283 0.722989 0.309494
O O7 0.016276 0.773950 0.196989
O O8 0.105136 0.759449 0.190807
O O9 0.002346 0.000000 0.095486
O O10 0.919707 0.739101 0.969234
O O11 0.244295 0.500000 0.745944
O O12 0.248113 0.222657 0.712136
O O13 0.091611 0.345664 0.585734
O O14 0.871096 0.500000 0.841465
O O15 0.971245 0.841687 0.400453
O O16 0.533073 0.500000 0.712459
#
# Coordination Sequence:
#
# PCOD8106870 Si02
#       7
#     8   8   8   8   8   4   8
#     4   9  19  34  52  78 114 152 188 230 287 347
#     4  11  21  34  54  83 119 154 186 232 293 348
#     4  11  21  35  56  85 118 153 194 233 280 346
#     4  11  21  35  58  85 115 153 197 242 284 337
#     4  11  21  35  56  84 119 155 189 234 290 342
#     4  10  24  42  60  84 114 152 198 246 292 336
#     4  10  21  37  57  80 109 151 198 241 286 341
#
# _framework density 20.689709000000001
#
# number of rings (size 3 to 8) (size 9 to 14) (size 15 to 20)
#    0.000    1.538    1.538    5.538    0.000    5.538 
#    0.000    0.000    0.000    0.923    0.000    0.000 
#    0.000    0.000    0.000    0.000    0.000    0.000 
#
# Total GULP energy -322188.070736 kJ/mol
# GULP energy per Si atom -12391.848874 kJ/mol
# Density = 2.064262 g / cm^3
# Si number density = 20.689709 Si / 1000 Ang^3
#
#
#
# Elastic Constant Matrix: (Units=GPa)
#
#
# Indices 1 2 3 4 5 6 
#
# 1 128.6562 62.4447 37.2297 0.0000 -2.9241 0.0000
# 2 62.4447 153.8511 16.3141 0.0000 4.0355 0.0000
# 3 37.2297 16.3141 40.3940 0.0000 3.0650 0.0000
# 4 0.0000 0.0000 0.0000 8.9892 0.0000 -1.1129
# 5 -2.9241 4.0355 3.0650 0.0000 28.2249 0.0000
# 6 0.0000 0.0000 0.0000 -1.1129 0.0000 38.5906
#
#
#
# Elastic Compliance Matrix: (Units=1/GPa)
#
#
# Indices 1 2 3 4 5 6 
#
# 1 0.012904 -0.004212 -0.010424 0.000000 0.003071 0.000000
# 2 -0.004212 0.008179 0.000707 0.000000 -0.001683 0.000000
# 3 -0.010424 0.000707 0.034452 0.000000 -0.004922 0.000000
# 4 0.000000 0.000000 0.000000 0.111643 0.000000 0.003220
# 5 0.003071 -0.001683 -0.004922 0.000000 0.036523 0.000000
# 6 0.000000 0.000000 0.000000 0.003220 0.000000 0.026006
#
#
# Mechanical properties :
#
#
# Convention : Reuss Voigt Hill
#
# Bulk Modulus (GPa) = 36.13460 61.65314 48.89387
# Shear Modulus (GPa) = 18.74129 28.95515 23.84822
#
# Velocity S-wave (km/s) = 3.01296 3.74504 3.39877
# Velocity P-wave (km/s) = 5.44122 6.96879 6.25184
#
# Compressibility (1/GPa) = 0.02767431
#
# Stress axis : x y z
#
# Youngs Moduli (GPa) = 77.49798 122.26898 29.02592
#
# Poissons Ratio (x) = 0.51505 0.30258
# Poissons Ratio (y) = 0.32645 -0.02052
# Poissons Ratio (z) = 0.80788 -0.08644
#
# Static dielectric constant tensor:
#      x y z
#    x 3.886020 0.000000 0.217160 
#    y 0.000000 3.740620 0.000000 
#    z 0.217160 0.000000 3.394680 
# 
# 
# High freq. dielectric constant tensor:
#      x y z
#    x 1.818360 0.000000 0.007040 
#    y 0.000000 1.818600 0.000000 
#    z 0.007040 0.000000 1.759470 
# 
# From -- ./inp_files/329305.got.cif
#   From: 2010.06.25/outbox.cif.g09.slc.cpg/sg12_165_cif.got.tgz:329305.got - 2010.06.28 00:19:55.
