data_PCOD8106550
_publ_section_title
;
Structure prediction by ZEFSAII (Michael W. Deem and Ramdas Pophale) SiO2 
 PCOD8106550
Probable space group: C 2/M
;
_chemical_formula_sum "Si O2"
_cell_formula_units_Z 48
_cell_length_a 25.743133
_cell_length_b 12.917047
_cell_length_c 20.164885
_cell_angle_alpha 90.000000
_cell_angle_beta 20.663436
_cell_angle_gamma 90.000000
_cell_volume 2366.163417
_symmetry_space_group_name_H-M "C 2/M"
_symmetry_group_IT_number 12
_symmetry_cell_setting 'monoclinic'
loop_
_space_group_symop_operation_xyz
x,y,z
-x,y,-z
-x,-y,-z
x,-y,z
1/2+x,1/2+y,z
1/2-x,1/2+y,-z
1/2-x,1/2-y,-z
1/2+x,1/2-y,z
loop_
_atom_site_type_symbol
_atom_site_label
_atom_site_fract_x
_atom_site_fract_y
_atom_site_fract_z
Si Si1 0.385484 0.297437 0.986301
Si Si2 0.985700 0.383757 0.254036
Si Si3 0.641967 0.792467 0.182875
Si Si4 0.179847 0.117041 0.673042
Si Si5 0.838114 0.722552 0.185937
Si Si6 0.041066 0.117476 0.526779
O O1 0.430776 0.188537 0.898089
O O2 0.526801 0.372111 0.815475
O O3 0.244299 0.346391 0.116822
O O4 0.329705 0.283761 0.127316
O O5 0.018977 0.500000 0.190512
O O6 0.810678 0.360683 0.464171
O O7 0.036099 0.372268 0.271163
O O8 0.550619 0.696279 0.319826
O O9 0.750000 0.750000 0.000000
O O10 0.187727 0.195722 0.724617
O O11 0.192593 0.000000 0.685313
O O12 0.714427 0.634262 0.333738
O O13 0.000000 0.670540 0.000000
O O14 0.000000 0.138272 0.500000
O O15 0.001821 0.000000 0.594119
#
# Coordination Sequence:
#
# PCOD8106550 Si02
#       6
#     8   8   8   8   8   8
#     4  10  21  36  60  87 122 156 195 252 294 355
#     4  10  21  38  61  84 116 157 201 248 299 353
#     4  10  21  38  60  86 122 157 197 247 296 353
#     4  10  21  39  63  87 116 160 203 245 301 352
#     4  10  21  38  62  90 125 158 194 250 298 352
#     4  11  22  39  64  90 120 159 202 245 301 358
#
# _framework density 20.286003999999998
#
# number of rings (size 3 to 8) (size 9 to 14) (size 15 to 20)
#    0.000    1.833    3.333    0.500    0.000    7.333 
#    0.000    5.000    0.000    3.000    0.000    0.000 
#    0.000    0.000    0.000    0.000    0.000    0.000 
#
# Total GULP energy -297480.014995 kJ/mol
# GULP energy per Si atom -12395.000625 kJ/mol
# Density = 2.023983 g / cm^3
# Si number density = 20.286004 Si / 1000 Ang^3
#
#
#
# Elastic Constant Matrix: (Units=GPa)
#
#
# Indices 1 2 3 4 5 6 
#
# 1 55.4414 2.7270 4.0788 -0.0002 -16.4772 -0.0001
# 2 2.7270 65.1235 15.3760 0.0001 0.6523 -0.0002
# 3 4.0788 15.3760 79.0031 -0.0004 -14.5655 -0.0005
# 4 -0.0002 0.0001 -0.0004 2.2046 0.0001 -5.4160
# 5 -16.4772 0.6523 -14.5655 0.0001 37.6257 0.0003
# 6 -0.0001 -0.0002 -0.0005 -5.4160 0.0003 23.0852
#
#
#
# Elastic Compliance Matrix: (Units=1/GPa)
#
#
# Indices 1 2 3 4 5 6 
#
# 1 0.020853 -0.001182 0.000906 0.000004 0.009503 0.000001
# 2 -0.001182 0.016253 -0.003499 -0.000003 -0.002154 -0.000001
# 3 0.000906 -0.003499 0.014404 0.000007 0.006033 0.000002
# 4 0.000004 -0.000003 0.000007 1.070702 -0.000001 0.251196
# 5 0.009503 -0.002154 0.006033 -0.000001 0.033112 -0.000001
# 6 0.000001 -0.000001 0.000002 0.251196 -0.000001 0.102251
#
#
# Mechanical properties :
#
#
# Convention : Reuss Voigt Hill
#
# Bulk Modulus (GPa) = 22.74896 27.10352 24.92624
# Shear Modulus (GPa) = 3.90692 24.40885 14.15789
#
# Velocity S-wave (km/s) = 1.38928 3.47253 2.64467
# Velocity P-wave (km/s) = 3.71644 5.42841 4.65186
#
# Compressibility (1/GPa) = 0.04395805
#
# Stress axis : x y z
#
# Youngs Moduli (GPa) = 47.95503 61.52814 69.42334
#
# Poissons Ratio (x) = 0.07274 -0.06286
# Poissons Ratio (y) = 0.05669 0.24293
# Poissons Ratio (z) = -0.04342 0.21531
#
# Static dielectric constant tensor:
#      x y z
#    x 4.643140 -0.000100 -0.566720 
#    y -0.000100 2.578780 0.000010 
#    z -0.566720 0.000010 3.993080 
# 
# 
# High freq. dielectric constant tensor:
#      x y z
#    x 1.799200 0.000000 -0.012810 
#    y 0.000000 1.763170 0.000000 
#    z -0.012810 0.000000 1.811620 
# 
# From -- ./inp_files/327945.got.cif
#   From: 2010.06.25/outbox.cif.g09.slc.cpg/sg12_164_cif.got.tgz:327945.got - 2010.06.28 00:19:55.
