data_PCOD8106962
_publ_section_title
;
Structure prediction by ZEFSAII (Michael W. Deem and Ramdas Pophale) SiO2 
 PCOD8106962
Probable space group: C 2/M
;
_chemical_formula_sum "Si O2"
_cell_formula_units_Z 64
_cell_length_a 27.185340
_cell_length_b 9.210205
_cell_length_c 24.104214
_cell_angle_alpha 90.000000
_cell_angle_beta 149.074799
_cell_angle_gamma 90.000000
_cell_volume 3101.639995
_symmetry_space_group_name_H-M "C 2/M"
_symmetry_group_IT_number 12
_symmetry_cell_setting 'monoclinic'
loop_
_space_group_symop_operation_xyz
x,y,z
-x,y,-z
-x,-y,-z
x,-y,z
1/2+x,1/2+y,z
1/2-x,1/2+y,-z
1/2-x,1/2-y,-z
1/2+x,1/2-y,z
loop_
_atom_site_type_symbol
_atom_site_label
_atom_site_fract_x
_atom_site_fract_y
_atom_site_fract_z
Si Si1 0.964826 0.329559 0.907030
Si Si2 0.243677 0.170737 0.681272
Si Si3 0.077427 0.830666 0.811618
Si Si4 0.392802 0.162171 0.650305
Si Si5 0.821554 0.665946 0.184986
Si Si6 0.738623 0.662030 0.405841
Si Si7 0.607115 0.665513 0.967249
Si Si8 0.396214 0.167690 0.376334
O O1 0.980829 0.500000 0.919325
O O2 0.026327 0.262822 0.916937
O O3 0.854234 0.286866 0.795235
O O4 0.000000 0.267388 0.000000
O O5 0.207431 0.251878 0.590861
O O6 0.183573 0.229471 0.674523
O O7 0.227123 0.000000 0.659412
O O8 0.153312 0.773885 0.840443
O O9 0.114862 0.797561 0.909507
O O10 0.979840 0.744627 0.705871
O O11 0.059323 0.000000 0.784126
O O12 0.357565 0.251006 0.670186
O O13 0.308715 0.151709 0.525040
O O14 0.422669 0.000000 0.698368
O O15 0.832635 0.500000 0.174766
O O16 0.890095 0.693278 0.304268
O O17 0.711105 0.695996 0.094838
O O18 0.709316 0.500000 0.358150
O O19 0.575955 0.500000 0.946132
O O20 0.500000 0.213424 0.500000
O O21 0.374534 0.000000 0.370111
#
# Coordination Sequence:
#
# PCOD8106962 Si02
#       8
#     8   8   8   8   8   8   8   8
#     4  10  22  39  60  88 122 158 196 243 298 355
#     4  11  23  38  60  89 119 153 196 242 296 357
#     4  11  23  37  58  88 121 156 200 248 298 356
#     4  10  21  37  57  83 116 155 197 241 294 352
#     4  10  22  41  62  85 118 159 204 251 302 360
#     4  10  21  37  58  83 116 154 194 243 295 350
#     4  10  22  39  60  89 122 158 201 247 297 355
#     4  10  23  42  63  87 117 155 202 252 301 355
#
# _framework density 20.634245
#
# number of rings (size 3 to 8) (size 9 to 14) (size 15 to 20)
#    0.000    1.750    0.000    3.375    1.750    7.000 
#    0.000    0.000    0.000    0.000    0.000    0.000 
#    0.000    0.000    0.000    0.000    0.000    0.000 
#
# Total GULP energy -396928.277391 kJ/mol
# GULP energy per Si atom -12404.008668 kJ/mol
# Density = 2.058728 g / cm^3
# Si number density = 20.634245 Si / 1000 Ang^3
#
#
#
# Elastic Constant Matrix: (Units=GPa)
#
#
# Indices 1 2 3 4 5 6 
#
# 1 108.4091 60.8655 39.0888 0.0000 3.9218 0.0000
# 2 60.8655 122.1311 43.7702 0.0000 5.7321 0.0000
# 3 39.0888 43.7702 83.1444 0.0000 5.5873 0.0000
# 4 0.0000 0.0000 0.0000 22.1515 0.0000 2.6086
# 5 3.9218 5.7321 5.5873 0.0000 29.5780 0.0000
# 6 0.0000 0.0000 0.0000 2.6086 0.0000 43.1835
#
#
#
# Elastic Compliance Matrix: (Units=1/GPa)
#
#
# Indices 1 2 3 4 5 6 
#
# 1 0.013578 -0.005518 -0.003473 0.000000 -0.000075 0.000000
# 2 -0.005518 0.012362 -0.003851 0.000000 -0.000937 0.000000
# 3 -0.003473 -0.003851 0.015807 0.000000 -0.001779 0.000000
# 4 0.000000 0.000000 0.000000 0.045467 0.000000 -0.002747
# 5 -0.000075 -0.000937 -0.001779 0.000000 0.034336 0.000000
# 6 0.000000 0.000000 0.000000 -0.002747 0.000000 0.023323
#
#
# Mechanical properties :
#
#
# Convention : Reuss Voigt Hill
#
# Bulk Modulus (GPa) = 62.25771 66.79263 64.52517
# Shear Modulus (GPa) = 28.42351 30.31328 29.36839
#
# Velocity S-wave (km/s) = 3.71548 3.83701 3.77674
# Velocity P-wave (km/s) = 6.97452 7.21597 7.09628
#
# Compressibility (1/GPa) = 0.01606227
#
# Stress axis : x y z
#
# Youngs Moduli (GPa) = 73.65105 80.89334 63.26423
#
# Poissons Ratio (x) = 0.44639 0.21973
# Poissons Ratio (y) = 0.40643 0.24360
# Poissons Ratio (z) = 0.25580 0.31148
#
# Static dielectric constant tensor:
#      x y z
#    x 3.643730 0.000000 -0.034220 
#    y 0.000000 3.859780 0.000000 
#    z -0.034220 0.000000 3.771260 
# 
# 
# High freq. dielectric constant tensor:
#      x y z
#    x 1.805810 0.000000 -0.002520 
#    y 0.000000 1.810590 0.000000 
#    z -0.002520 0.000000 1.811440 
# 
# From -- ./inp_files/353465.got.cif
#   From: 2010.06.25/outbox.cif.g09.slc.cpg/sg12_177_cif.got.tgz:353465.got - 2010.06.28 00:19:55.
