data_PCOD8106625
_publ_section_title
;
Structure prediction by ZEFSAII (Michael W. Deem and Ramdas Pophale) SiO2 
 PCOD8106625
Probable space group: C 2/M
;
_chemical_formula_sum "Si O2"
_cell_formula_units_Z 56
_cell_length_a 14.959932
_cell_length_b 21.038304
_cell_length_c 8.905917
_cell_angle_alpha 90.000000
_cell_angle_beta 85.795966
_cell_angle_gamma 90.000000
_cell_volume 2795.431573
_symmetry_space_group_name_H-M "C 2/M"
_symmetry_group_IT_number 12
_symmetry_cell_setting 'monoclinic'
loop_
_space_group_symop_operation_xyz
x,y,z
-x,y,-z
-x,-y,-z
x,-y,z
1/2+x,1/2+y,z
1/2-x,1/2+y,-z
1/2-x,1/2-y,-z
1/2+x,1/2-y,z
loop_
_atom_site_type_symbol
_atom_site_label
_atom_site_fract_x
_atom_site_fract_y
_atom_site_fract_z
Si Si1 0.500000 0.837044 0.000000
Si Si2 0.500000 0.323444 0.500000
Si Si3 0.603548 0.331226 0.006231
Si Si4 0.632883 0.575919 0.548538
Si Si5 0.343006 0.929165 0.027047
Si Si6 0.751615 0.637156 0.766438
Si Si7 0.598865 0.763612 0.243328
Si Si8 0.835073 0.070283 0.789363
O O1 0.418949 0.880489 0.065138
O O2 0.524068 0.798343 0.148492
O O3 0.445209 0.373232 0.397721
O O4 0.443959 0.275912 0.614226
O O5 0.649247 0.283493 0.121079
O O6 0.606757 0.399473 0.084598
O O7 0.500000 0.311414 0.000000
O O8 0.663047 0.328909 0.848186
O O9 0.608643 0.500000 0.569062
O O10 0.721023 0.592436 0.633238
O O11 0.650492 0.598738 0.376655
O O12 0.270619 0.926408 0.167885
O O13 0.382688 0.000000 0.005020
O O14 0.297018 0.910067 0.877409
O O15 0.824986 0.688761 0.702034
O O16 0.873026 0.000000 0.782703
#
# Coordination Sequence:
#
# PCOD8106625 Si02
#       8
#     4   4   8   8   8   8   8   8
#     4  10  21  36  62  86 117 158 196 252 294 348
#     4  12  25  42  60  86 125 160 204 246 292 366
#     4  11  20  39  59  84 120 152 197 242 293 355
#     4  11  23  41  61  87 118 158 203 249 301 349
#     4   9  18  37  61  89 117 151 200 247 299 352
#     4  10  23  37  61  88 119 158 192 247 299 351
#     4  11  23  40  56  87 122 157 200 239 295 357
#     4   9  20  37  58  85 118 153 196 244 295 355
#
# _framework density 20.032685000000001
#
# number of rings (size 3 to 8) (size 9 to 14) (size 15 to 20)
#    0.000    1.714    2.143    2.143    0.000    2.571 
#    0.000    0.000    0.000    0.000    0.000   10.000 
#    0.000    0.000    0.000    0.000    0.000    0.000 
#
# Total GULP energy -346902.739611 kJ/mol
# GULP energy per Si atom -12389.383558 kJ/mol
# Density = 1.998709 g / cm^3
# Si number density = 20.032685 Si / 1000 Ang^3
#
#
#
# Elastic Constant Matrix: (Units=GPa)
#
#
# Indices 1 2 3 4 5 6 
#
# 1 87.4140 49.1388 31.7650 0.0000 7.8568 0.0000
# 2 49.1388 112.8474 39.6063 0.0000 -4.9068 0.0000
# 3 31.7650 39.6063 67.4360 0.0000 -2.3276 0.0000
# 4 0.0000 0.0000 0.0000 27.4865 0.0000 0.2419
# 5 7.8568 -4.9068 -2.3276 0.0000 26.1028 0.0000
# 6 0.0000 0.0000 0.0000 0.2419 0.0000 33.2045
#
#
#
# Elastic Compliance Matrix: (Units=1/GPa)
#
#
# Indices 1 2 3 4 5 6 
#
# 1 0.017214 -0.006124 -0.004745 0.000000 -0.006756 0.000000
# 2 -0.006124 0.013402 -0.004851 0.000000 0.003930 0.000000
# 3 -0.004745 -0.004851 0.019992 0.000000 0.002299 0.000000
# 4 0.000000 0.000000 0.000000 0.036384 0.000000 -0.000265
# 5 -0.006756 0.003930 0.002299 0.000000 0.041287 0.000000
# 6 0.000000 0.000000 0.000000 -0.000265 0.000000 0.030118
#
#
# Mechanical properties :
#
#
# Convention : Reuss Voigt Hill
#
# Bulk Modulus (GPa) = 52.16913 56.52418 54.34665
# Shear Modulus (GPa) = 25.48092 27.17124 26.32608
#
# Velocity S-wave (km/s) = 3.57033 3.68686 3.62906
# Velocity P-wave (km/s) = 6.56467 6.81184 6.68940
#
# Compressibility (1/GPa) = 0.01916842
#
# Stress axis : x y z
#
# Youngs Moduli (GPa) = 58.09294 74.61820 50.01994
#
# Poissons Ratio (x) = 0.45697 0.23733
# Poissons Ratio (y) = 0.35577 0.24263
# Poissons Ratio (z) = 0.27564 0.36194
#
# Static dielectric constant tensor:
#      x y z
#    x 3.630020 0.000000 0.034440 
#    y 0.000000 3.923990 0.000000 
#    z 0.034440 0.000000 3.544730 
# 
# 
# High freq. dielectric constant tensor:
#      x y z
#    x 1.773030 0.000000 0.002530 
#    y 0.000000 1.799480 0.000000 
#    z 0.002530 0.000000 1.770610 
# 
# From -- ./inp_files/64112.got.cif
#   From: 2010.06.25/outbox.cif.g09.slc.cpg/sg12_33_cif.got.tgz:64112.got - 2010.06.28 00:19:55.
