data_PCOD8106062
_publ_section_title
;
Structure prediction by ZEFSAII (Michael W. Deem and Ramdas Pophale) SiO2 
 PCOD8106062
Probable space group: C 2/M
;
_chemical_formula_sum "Si O2"
_cell_formula_units_Z 64
_cell_length_a 26.494455
_cell_length_b 14.492537
_cell_length_c 19.282442
_cell_angle_alpha 90.000000
_cell_angle_beta 152.023405
_cell_angle_gamma 90.000000
_cell_volume 3473.256960
_symmetry_space_group_name_H-M "C 2/M"
_symmetry_group_IT_number 12
_symmetry_cell_setting 'monoclinic'
loop_
_space_group_symop_operation_xyz
x,y,z
-x,y,-z
-x,-y,-z
x,-y,z
1/2+x,1/2+y,z
1/2-x,1/2+y,-z
1/2-x,1/2-y,-z
1/2+x,1/2-y,z
loop_
_atom_site_type_symbol
_atom_site_label
_atom_site_fract_x
_atom_site_fract_y
_atom_site_fract_z
Si Si1 0.732493 0.603840 0.330157
Si Si2 0.782198 0.749794 0.211340
Si Si3 0.415868 0.297065 0.950504
Si Si4 0.077829 0.275269 0.491787
Si Si5 0.639049 0.891120 0.789637
Si Si6 0.718006 0.603551 0.909407
Si Si7 0.563361 0.605319 0.234782
Si Si8 0.482642 0.395337 0.667713
O O1 0.775862 0.500000 0.373393
O O2 0.638619 0.620253 0.159451
O O3 0.829699 0.674078 0.439573
O O4 0.681628 0.618329 0.344817
O O5 0.678491 0.768531 0.134405
O O6 0.888846 0.740460 0.387957
O O7 0.775361 0.652798 0.160807
O O8 0.791711 0.832975 0.169392
O O9 0.500000 0.245271 0.000000
O O10 0.476095 0.333060 0.090725
O O11 0.063645 0.172723 0.445792
O O12 0.972232 0.337580 0.356384
O O13 0.626556 0.000000 0.759698
O O14 0.680990 0.871520 0.918628
O O15 0.731318 0.500000 0.897214
O O16 0.611773 0.612720 0.827560
O O17 0.525069 0.500000 0.182279
O O18 0.567015 0.635605 0.319092
O O19 0.447776 0.500000 0.606412
#
# Coordination Sequence:
#
# PCOD8106062 Si02
#       8
#     8   8   8   8   8   8   8   8
#     4   9  18  33  51  77 114 145 176 216 268 336
#     4  11  22  36  57  81 110 147 183 219 275 332
#     4   9  18  31  53  82 108 138 176 223 270 321
#     4  11  23  35  53  81 113 149 181 222 275 332
#     4  11  23  37  56  84 116 144 177 223 277 334
#     4  10  22  39  59  82 107 143 190 234 270 315
#     4   9  17  31  53  79 105 141 182 222 270 317
#     4  10  21  36  55  78 106 140 186 235 271 310
#
# _framework density 18.426508999999999
#
# number of rings (size 3 to 8) (size 9 to 14) (size 15 to 20)
#    0.000    2.000    1.250    2.250    1.750    7.000 
#    0.000    1.250    0.000    0.375    0.000    0.000 
#    0.000    0.000    0.000    0.000    0.000    0.000 
#
# Total GULP energy -396668.377431 kJ/mol
# GULP energy per Si atom -12395.886795 kJ/mol
# Density = 1.838457 g / cm^3
# Si number density = 18.426509 Si / 1000 Ang^3
#
#
#
# Elastic Constant Matrix: (Units=GPa)
#
#
# Indices 1 2 3 4 5 6 
#
# 1 117.1105 56.7717 43.6037 0.0000 -4.1559 0.0000
# 2 56.7717 105.2286 53.5565 0.0000 -13.2891 0.0000
# 3 43.6037 53.5565 88.5540 0.0000 -5.6215 0.0000
# 4 0.0000 0.0000 0.0000 21.2675 0.0000 0.7851
# 5 -4.1559 -13.2891 -5.6215 0.0000 29.8344 0.0000
# 6 0.0000 0.0000 0.0000 0.7851 0.0000 20.8547
#
#
#
# Elastic Compliance Matrix: (Units=1/GPa)
#
#
# Indices 1 2 3 4 5 6 
#
# 1 0.012094 -0.005208 -0.002880 0.000000 -0.001178 0.000000
# 2 -0.005208 0.016627 -0.007153 0.000000 0.005333 0.000000
# 3 -0.002880 -0.007153 0.017013 0.000000 -0.000382 0.000000
# 4 0.000000 0.000000 0.000000 0.047085 0.000000 -0.001773
# 5 -0.001178 0.005333 -0.000382 0.000000 0.035658 0.000000
# 6 0.000000 0.000000 0.000000 -0.001773 0.000000 0.048018
#
#
# Mechanical properties :
#
#
# Convention : Reuss Voigt Hill
#
# Bulk Modulus (GPa) = 65.56676 68.75077 67.15876
# Shear Modulus (GPa) = 23.57830 24.85542 24.21686
#
# Velocity S-wave (km/s) = 3.58101 3.67671 3.62918
# Velocity P-wave (km/s) = 7.26349 7.44420 7.35440
#
# Compressibility (1/GPa) = 0.01525163
#
# Stress axis : x y z
#
# Youngs Moduli (GPa) = 82.68495 60.14458 58.78016
#
# Poissons Ratio (x) = 0.31321 0.16931
# Poissons Ratio (y) = 0.43059 0.42044
# Poissons Ratio (z) = 0.23816 0.43020
#
# Static dielectric constant tensor:
#      x y z
#    x 3.623090 0.000000 0.104790 
#    y 0.000000 3.232810 0.000000 
#    z 0.104790 0.000000 3.324730 
# 
# 
# High freq. dielectric constant tensor:
#      x y z
#    x 1.725530 0.000000 0.002600 
#    y 0.000000 1.695490 0.000000 
#    z 0.002600 0.000000 1.709530 
# 
# From -- ./inp_files/290068.got.cif
#   From: 2010.06.25/outbox.cif.g09.slc.cpg/sg12_146_cif.got.tgz:290068.got - 2010.06.28 00:19:55.
