data_PCOD8106256
_publ_section_title
;
Structure prediction by ZEFSAII (Michael W. Deem and Ramdas Pophale) SiO2 
 PCOD8106256
Probable space group: C 2/M
;
_chemical_formula_sum "Si O2"
_cell_formula_units_Z 40
_cell_length_a 27.382160
_cell_length_b 7.896671
_cell_length_c 26.524619
_cell_angle_alpha 90.000000
_cell_angle_beta 20.461064
_cell_angle_gamma 90.000000
_cell_volume 2004.915248
_symmetry_space_group_name_H-M "C 2/M"
_symmetry_group_IT_number 12
_symmetry_cell_setting 'monoclinic'
loop_
_space_group_symop_operation_xyz
x,y,z
-x,y,-z
-x,-y,-z
x,-y,z
1/2+x,1/2+y,z
1/2-x,1/2+y,-z
1/2-x,1/2-y,-z
1/2+x,1/2-y,z
loop_
_atom_site_type_symbol
_atom_site_label
_atom_site_fract_x
_atom_site_fract_y
_atom_site_fract_z
Si Si1 0.634698 0.312936 0.696441
Si Si2 0.590899 0.700263 0.162085
Si Si3 0.072793 0.000000 0.850199
Si Si4 0.060510 0.807640 0.594457
Si Si5 0.216001 0.000000 0.814025
Si Si6 0.579860 0.302247 0.370921
O O1 0.669020 0.500000 0.641024
O O2 0.507394 0.228607 0.788192
O O3 0.590565 0.331789 0.798069
O O4 0.774545 0.204733 0.555479
O O5 0.581122 0.500000 0.171020
O O6 0.530420 0.779471 0.272861
O O7 0.750000 0.750000 0.000000
O O8 0.190751 0.000000 0.778678
O O9 0.922680 0.000000 0.019650
O O10 0.019426 0.739270 0.578933
O O11 0.015616 0.000000 0.639120
O O12 0.290500 0.175400 0.756186
O O13 0.500000 0.272762 0.500000
O O14 0.627114 0.500000 0.320374
#
# Coordination Sequence:
#
# PCOD8106256 Si02
#       6
#     8   8   4   8   4   8
#     4   9  20  37  57  79 114 149 194 241 290 353
#     4  10  22  37  56  83 116 149 196 246 296 361
#     4   9  22  38  58  90 116 153 205 249 289 376
#     4  10  21  36  56  85 117 152 195 247 297 356
#     4  11  21  38  64  86 127 162 201 252 310 346
#     4  10  22  37  59  91 123 156 208 251 295 366
#
# _framework density 19.950969000000001
#
# number of rings (size 3 to 8) (size 9 to 14) (size 15 to 20)
#    0.600    1.600    0.000    2.100    4.200    1.600 
#    0.000    3.000    0.000    0.000    0.000    0.000 
#    0.000    0.000    0.000    0.000    0.000    0.000 
#
# Total GULP energy -247821.639869 kJ/mol
# GULP energy per Si atom -12391.081993 kJ/mol
# Density = 1.990556 g / cm^3
# Si number density = 19.950969 Si / 1000 Ang^3
#
#
#
# Elastic Constant Matrix: (Units=GPa)
#
#
# Indices 1 2 3 4 5 6 
#
# 1 182.8049 18.0894 91.7185 0.0048 -8.5383 -0.0016
# 2 18.0894 44.8107 19.4538 -0.0387 -5.9477 0.0115
# 3 91.7185 19.4538 136.2462 -0.0350 -8.1605 0.0179
# 4 0.0048 -0.0387 -0.0350 29.5845 0.0351 -6.2996
# 5 -8.5383 -5.9477 -8.1605 0.0351 39.0764 -0.0096
# 6 -0.0016 0.0115 0.0179 -6.2996 -0.0096 10.7944
#
#
#
# Elastic Compliance Matrix: (Units=1/GPa)
#
#
# Indices 1 2 3 4 5 6 
#
# 1 0.008312 -0.000926 -0.005431 -0.000008 0.000541 0.000007
# 2 -0.000926 0.024234 -0.002661 0.000024 0.002931 -0.000005
# 3 -0.005431 -0.002661 0.011423 0.000007 0.000794 -0.000012
# 4 -0.000008 0.000024 0.000007 0.038598 -0.000026 0.022526
# 5 0.000541 0.002931 0.000794 -0.000026 0.026321 0.000004
# 6 0.000007 -0.000005 -0.000012 0.022526 0.000004 0.105787
#
#
# Mechanical properties :
#
#
# Convention : Reuss Voigt Hill
#
# Bulk Modulus (GPa) = 38.56088 69.15394 53.85741
# Shear Modulus (GPa) = 20.71624 31.53106 26.12365
#
# Velocity S-wave (km/s) = 3.22585 3.97977 3.62248
# Velocity P-wave (km/s) = 5.76581 7.47364 6.67458
#
# Compressibility (1/GPa) = 0.02593302
#
# Stress axis : x y z
#
# Youngs Moduli (GPa) = 120.30710 41.26387 87.54099
#
# Poissons Ratio (x) = 0.03821 0.47543
# Poissons Ratio (y) = 0.11139 0.23299
# Poissons Ratio (z) = 0.65338 0.10982
#
# Static dielectric constant tensor:
#      x y z
#    x 4.179370 -0.000050 0.050540 
#    y -0.000050 3.291700 0.000090 
#    z 0.050540 0.000090 3.579300 
# 
# 
# High freq. dielectric constant tensor:
#      x y z
#    x 1.800470 0.000000 -0.000240 
#    y 0.000000 1.751570 0.000010 
#    z -0.000240 0.000010 1.774740 
# 
# From -- ./inp_files/368802.got.cif
#   From: 2010.06.25/outbox.cif.g09.slc.cpg/sg12_185_cif.got.tgz:368802.got - 2010.06.28 00:19:55.
