data_PCOD8106627
_publ_section_title
;
Structure prediction by ZEFSAII (Michael W. Deem and Ramdas Pophale) SiO2 
 PCOD8106627
Probable space group: C 2/M
;
_chemical_formula_sum "Si O2"
_cell_formula_units_Z 56
_cell_length_a 18.917384
_cell_length_b 11.728564
_cell_length_c 13.966015
_cell_angle_alpha 90.000000
_cell_angle_beta 67.030167
_cell_angle_gamma 90.000000
_cell_volume 2852.998207
_symmetry_space_group_name_H-M "C 2/M"
_symmetry_group_IT_number 12
_symmetry_cell_setting 'monoclinic'
loop_
_space_group_symop_operation_xyz
x,y,z
-x,y,-z
-x,-y,-z
x,-y,z
1/2+x,1/2+y,z
1/2-x,1/2+y,-z
1/2-x,1/2-y,-z
1/2+x,1/2-y,z
loop_
_atom_site_type_symbol
_atom_site_label
_atom_site_fract_x
_atom_site_fract_y
_atom_site_fract_z
Si Si1 0.070128 0.634129 0.530488
Si Si2 0.477932 0.273243 0.264871
Si Si3 0.843497 0.862196 0.214285
Si Si4 0.363781 0.500000 0.565312
Si Si5 0.290319 0.373681 0.040023
Si Si6 0.806080 0.238765 0.652260
Si Si7 0.356578 0.256268 0.843763
Si Si8 0.497885 0.500000 0.359921
O O1 0.072373 0.500000 0.547144
O O2 0.065354 0.695209 0.635388
O O3 0.145435 0.674096 0.436562
O O4 0.000000 0.671417 0.500000
O O5 0.423252 0.307873 0.206855
O O6 0.556180 0.210586 0.187619
O O7 0.512559 0.387549 0.291878
O O8 0.835476 0.822715 0.108105
O O9 0.777502 0.795664 0.308180
O O10 0.841172 0.000000 0.232597
O O11 0.309800 0.611391 0.605226
O O12 0.407656 0.500000 0.439964
O O13 0.437118 0.500000 0.594816
O O14 0.274379 0.500000 0.079718
O O15 0.204047 0.326571 0.071767
O O16 0.341738 0.369500 0.916059
O O17 0.837916 0.229091 0.742593
#
# Coordination Sequence:
#
# PCOD8106627 Si02
#       8
#     8   8   8   4   8   8   8   4
#     4  11  22  38  60  90 121 155 200 243 284 349
#     4  12  22  38  60  90 118 157 201 237 296 349
#     4  10  23  41  59  83 123 163 195 244 295 350
#     4  11  20  34  60  85 120 152 192 255 290 333
#     4   9  21  40  60  88 117 149 197 245 299 350
#     4  11  21  38  58  87 120 160 200 238 293 347
#     4  10  21  36  62  89 113 150 198 249 289 346
#     4  11  20  34  58  88 121 144 198 250 289 347
#
# _framework density 19.628474000000001
#
# number of rings (size 3 to 8) (size 9 to 14) (size 15 to 20)
#    0.000    1.429    5.000    0.429    2.000    2.286 
#    1.286    1.429    0.000    0.000    0.000    4.000 
#    0.000    0.000    0.000    0.000    0.000    0.000 
#
# Total GULP energy -346975.838695 kJ/mol
# GULP energy per Si atom -12391.994239 kJ/mol
# Density = 1.958380 g / cm^3
# Si number density = 19.628474 Si / 1000 Ang^3
#
#
#
# Elastic Constant Matrix: (Units=GPa)
#
#
# Indices 1 2 3 4 5 6 
#
# 1 109.8159 24.4833 37.7315 0.0000 -6.6994 0.0000
# 2 24.4833 55.1705 16.2099 0.0000 9.6896 0.0000
# 3 37.7315 16.2099 102.4631 0.0000 -12.2292 0.0000
# 4 0.0000 0.0000 0.0000 20.5169 0.0000 7.3204
# 5 -6.6994 9.6896 -12.2292 0.0000 15.8618 0.0000
# 6 0.0000 0.0000 0.0000 7.3204 0.0000 44.5745
#
#
#
# Elastic Compliance Matrix: (Units=1/GPa)
#
#
# Indices 1 2 3 4 5 6 
#
# 1 0.011619 -0.005453 -0.002679 0.000000 0.006173 0.000000
# 2 -0.005453 0.025695 -0.004631 0.000000 -0.021570 0.000000
# 3 -0.002679 -0.004631 0.012865 0.000000 0.011617 0.000000
# 4 0.000000 0.000000 0.000000 0.051774 0.000000 -0.008503
# 5 0.006173 -0.021570 0.011617 0.000000 0.087785 0.000000
# 6 0.000000 0.000000 0.000000 -0.008503 0.000000 0.023831
#
#
# Mechanical properties :
#
#
# Convention : Reuss Voigt Hill
#
# Bulk Modulus (GPa) = 40.56505 47.14429 43.85467
# Shear Modulus (GPa) = 20.21726 28.79229 24.50477
#
# Velocity S-wave (km/s) = 3.21284 3.83412 3.53715
# Velocity P-wave (km/s) = 5.87149 6.60841 6.25082
#
# Compressibility (1/GPa) = 0.02465176
#
# Stress axis : x y z
#
# Youngs Moduli (GPa) = 86.06536 38.91838 77.72821
#
# Poissons Ratio (x) = 0.21223 0.20825
# Poissons Ratio (y) = 0.46934 0.35998
# Poissons Ratio (z) = 0.23058 0.18024
#
# Static dielectric constant tensor:
#      x y z
#    x 3.568430 0.000000 0.002010 
#    y 0.000000 3.595280 0.000000 
#    z 0.002010 0.000000 3.995430 
# 
# 
# High freq. dielectric constant tensor:
#      x y z
#    x 1.754770 0.000000 -0.007430 
#    y 0.000000 1.757630 0.000000 
#    z -0.007430 0.000000 1.772360 
# 
# From -- ./inp_files/223764.got.cif
#   From: 2010.06.25/outbox.cif.g09.slc.cpg/sg12_112_cif.got.tgz:223764.got - 2010.06.28 00:19:55.
