data_PCOD8106626
_publ_section_title
;
Structure prediction by ZEFSAII (Michael W. Deem and Ramdas Pophale) SiO2 
 PCOD8106626
Probable space group: C 2/M
;
_chemical_formula_sum "Si O2"
_cell_formula_units_Z 56
_cell_length_a 24.036210
_cell_length_b 17.588170
_cell_length_c 9.481443
_cell_angle_alpha 90.000000
_cell_angle_beta 42.334204
_cell_angle_gamma 90.000000
_cell_volume 2699.410771
_symmetry_space_group_name_H-M "C 2/M"
_symmetry_group_IT_number 12
_symmetry_cell_setting 'monoclinic'
loop_
_space_group_symop_operation_xyz
x,y,z
-x,y,-z
-x,-y,-z
x,-y,z
1/2+x,1/2+y,z
1/2-x,1/2+y,-z
1/2-x,1/2-y,-z
1/2+x,1/2-y,z
loop_
_atom_site_type_symbol
_atom_site_label
_atom_site_fract_x
_atom_site_fract_y
_atom_site_fract_z
Si Si1 0.192442 0.086044 0.082802
Si Si2 0.597902 0.264318 0.292541
Si Si3 0.610924 0.812157 0.545332
Si Si4 0.025541 0.586055 0.111672
Si Si5 0.738144 0.585981 0.676722
Si Si6 0.183641 0.649406 0.940571
Si Si7 0.306718 0.310017 0.468808
O O1 0.123876 0.147516 0.257081
O O2 0.280801 0.103662 0.990844
O O3 0.164825 0.000000 0.175948
O O4 0.198026 0.092278 0.904304
O O5 0.500000 0.259880 0.500000
O O6 0.639686 0.213765 0.336684
O O7 0.634867 0.226292 0.080512
O O8 0.522924 0.853718 0.700142
O O9 0.674535 0.871851 0.492484
O O10 0.609040 0.735038 0.645872
O O11 0.000817 0.500000 0.197200
O O12 0.122024 0.597557 0.963343
O O13 0.000000 0.604689 0.000000
O O14 0.755435 0.500000 0.600093
O O15 0.676910 0.621195 0.671332
O O16 0.262223 0.665571 0.696290
O O17 0.250000 0.250000 0.500000
#
# Coordination Sequence:
#
# PCOD8106626 Si02
#       7
#     8   8   8   8   8   8   8
#     4  11  24  41  65  93 122 162 211 264 312 361
#     4  12  23  41  65  90 123 165 209 258 307 367
#     4  11  20  39  58  89 124 164 203 247 303 371
#     4  11  24  39  58  91 131 165 200 247 311 376
#     4  10  21  38  63  93 126 159 201 259 317 365
#     4  12  22  40  66  92 124 162 210 254 305 372
#     4  10  21  36  62  88 121 162 206 249 298 366
#
# _framework density 20.745267999999999
#
# number of rings (size 3 to 8) (size 9 to 14) (size 15 to 20)
#    0.000    1.000    4.286    4.714    0.000    2.571 
#    0.000    0.714    0.000    0.000    0.000    2.000 
#    0.000    0.000    0.000    0.000    0.000    0.000 
#
# Total GULP energy -347024.616448 kJ/mol
# GULP energy per Si atom -12393.736302 kJ/mol
# Density = 2.069805 g / cm^3
# Si number density = 20.745268 Si / 1000 Ang^3
#
#
#
# Elastic Constant Matrix: (Units=GPa)
#
#
# Indices 1 2 3 4 5 6 
#
# 1 86.4259 52.3379 26.0951 0.0000 8.6273 0.0000
# 2 52.3379 156.4017 49.7223 0.0000 7.4631 0.0000
# 3 26.0951 49.7223 60.1060 0.0000 9.4709 0.0000
# 4 0.0000 0.0000 0.0000 35.6599 0.0000 2.0834
# 5 8.6273 7.4631 9.4709 0.0000 27.1579 0.0000
# 6 0.0000 0.0000 0.0000 2.0834 0.0000 28.7997
#
#
#
# Elastic Compliance Matrix: (Units=1/GPa)
#
#
# Indices 1 2 3 4 5 6 
#
# 1 0.015137 -0.004047 -0.002795 0.000000 -0.002722 0.000000
# 2 -0.004047 0.009758 -0.006449 0.000000 0.000853 0.000000
# 3 -0.002795 -0.006449 0.024091 0.000000 -0.005741 0.000000
# 4 0.000000 0.000000 0.000000 0.028162 0.000000 -0.002037
# 5 -0.002722 0.000853 -0.005741 0.000000 0.039454 0.000000
# 6 0.000000 0.000000 0.000000 -0.002037 0.000000 0.034870
#
#
# Mechanical properties :
#
#
# Convention : Reuss Voigt Hill
#
# Bulk Modulus (GPa) = 44.63812 62.13825 53.38818
# Shear Modulus (GPa) = 26.95107 29.97539 28.46323
#
# Velocity S-wave (km/s) = 3.60827 3.80534 3.70812
# Velocity P-wave (km/s) = 6.23887 7.02321 6.64263
#
# Compressibility (1/GPa) = 0.02240238
#
# Stress axis : x y z
#
# Youngs Moduli (GPa) = 66.06337 102.48302 41.50988
#
# Poissons Ratio (x) = 0.41474 0.11602
# Poissons Ratio (y) = 0.26735 0.26772
# Poissons Ratio (z) = 0.18465 0.66096
#
# Static dielectric constant tensor:
#      x y z
#    x 3.974710 0.000000 0.235770 
#    y 0.000000 4.125410 0.000000 
#    z 0.235770 0.000000 3.422850 
# 
# 
# High freq. dielectric constant tensor:
#      x y z
#    x 1.812470 0.000000 0.025100 
#    y 0.000000 1.820070 0.000000 
#    z 0.025100 0.000000 1.785360 
# 
# From -- ./inp_files/105976.got.cif
#   From: 2010.06.25/outbox.cif.g09.slc.cpg/sg12_53_cif.got.tgz:105976.got - 2010.06.28 00:19:55.
