data_PCOD8106472
_publ_section_title
;
Structure prediction by ZEFSAII (Michael W. Deem and Ramdas Pophale) SiO2 
 PCOD8106472
Probable space group: C 2/M
;
_chemical_formula_sum "Si O2"
_cell_formula_units_Z 48
_cell_length_a 8.642521
_cell_length_b 28.525081
_cell_length_c 12.957307
_cell_angle_alpha 90.000000
_cell_angle_beta 46.536721
_cell_angle_gamma 90.000000
_cell_volume 2318.506144
_symmetry_space_group_name_H-M "C 2/M"
_symmetry_group_IT_number 12
_symmetry_cell_setting 'monoclinic'
loop_
_space_group_symop_operation_xyz
x,y,z
-x,y,-z
-x,-y,-z
x,-y,z
1/2+x,1/2+y,z
1/2-x,1/2+y,-z
1/2-x,1/2-y,-z
1/2+x,1/2-y,z
loop_
_atom_site_type_symbol
_atom_site_label
_atom_site_fract_x
_atom_site_fract_y
_atom_site_fract_z
Si Si1 0.596666 0.638142 0.352020
Si Si2 0.774027 0.807918 0.153282
Si Si3 0.235036 0.408222 0.411706
Si Si4 0.841078 0.447471 0.334519
Si Si5 0.082335 0.282881 0.846300
Si Si6 0.288673 0.413008 0.165785
O O1 0.500000 0.660825 0.500000
O O2 0.405612 0.632430 0.358078
O O3 0.704707 0.588016 0.327517
O O4 0.763389 0.673092 0.226564
O O5 0.795977 0.766991 0.230642
O O6 0.607635 0.789341 0.145636
O O7 0.709442 0.859164 0.224298
O O8 0.000000 0.818151 0.000000
O O9 0.220065 0.443057 0.516376
O O10 0.317968 0.434073 0.268371
O O11 0.000000 0.386584 0.500000
O O12 0.785033 0.500000 0.324260
O O13 0.092847 0.438722 0.199207
O O14 0.000000 0.278813 0.000000
O O15 0.500000 0.419630 0.000000
#
# Coordination Sequence:
#
# PCOD8106472 Si02
#       6
#     8   8   8   8   8   8
#     4  10  22  39  58  89 121 155 199 248 300 347
#     4  10  21  36  58  92 123 158 200 239 289 358
#     4   9  21  37  60  85 113 157 196 239 293 360
#     4  10  21  42  63  85 118 159 202 245 296 361
#     4  11  22  37  62  89 122 161 202 241 292 359
#     4  10  21  37  61  91 123 154 198 248 296 345
#
# _framework density 20.702985999999999
#
# number of rings (size 3 to 8) (size 9 to 14) (size 15 to 20)
#    0.000    2.000    1.667    2.000    7.000    6.333 
#    0.000    3.333    0.000    3.500    0.000    0.000 
#    0.000    0.000    0.000    0.000    0.000    0.000 
#
# Total GULP energy -297387.482386 kJ/mol
# GULP energy per Si atom -12391.145099 kJ/mol
# Density = 2.065586 g / cm^3
# Si number density = 20.702986 Si / 1000 Ang^3
#
#
#
# Elastic Constant Matrix: (Units=GPa)
#
#
# Indices 1 2 3 4 5 6 
#
# 1 81.4661 2.1716 20.5262 0.0000 -22.2172 0.0000
# 2 2.1716 112.3805 13.4424 0.0000 -7.5543 0.0000
# 3 20.5262 13.4424 90.0149 0.0000 -6.2079 0.0000
# 4 0.0000 0.0000 0.0000 13.9028 0.0000 -1.8902
# 5 -22.2172 -7.5543 -6.2079 0.0000 27.6812 0.0000
# 6 0.0000 0.0000 0.0000 -1.8902 0.0000 20.3996
#
#
#
# Elastic Compliance Matrix: (Units=1/GPa)
#
#
# Indices 1 2 3 4 5 6 
#
# 1 0.016506 0.000903 -0.003015 0.000000 0.012819 0.000000
# 2 0.000903 0.009244 -0.001384 0.000000 0.002937 0.000000
# 3 -0.003015 -0.001384 0.011996 0.000000 -0.000107 0.000000
# 4 0.000000 0.000000 0.000000 0.072845 0.000000 0.006750
# 5 0.012819 0.002937 -0.000107 0.000000 0.047192 0.000000
# 6 0.000000 0.000000 0.000000 0.006750 0.000000 0.049646
#
#
# Mechanical properties :
#
#
# Convention : Reuss Voigt Hill
#
# Bulk Modulus (GPa) = 32.51441 39.57133 36.04287
# Shear Modulus (GPa) = 22.25469 28.91149 25.58309
#
# Velocity S-wave (km/s) = 3.28220 3.74102 3.51909
# Velocity P-wave (km/s) = 5.48663 6.14944 5.82746
#
# Compressibility (1/GPa) = 0.03075560
#
# Stress axis : x y z
#
# Youngs Moduli (GPa) = 60.58242 108.17991 83.36098
#
# Poissons Ratio (x) = -0.09772 0.25132
# Poissons Ratio (y) = -0.05473 0.11536
# Poissons Ratio (z) = 0.18265 0.14970
#
# Static dielectric constant tensor:
#      x y z
#    x 3.920770 0.000000 -0.157070 
#    y 0.000000 3.773090 0.000000 
#    z -0.157070 0.000000 3.809340 
# 
# 
# High freq. dielectric constant tensor:
#      x y z
#    x 1.819410 0.000000 -0.018900 
#    y 0.000000 1.796390 0.000000 
#    z -0.018900 0.000000 1.800820 
# 
# From -- ./inp_files/170793.got.cif
#   From: 2010.06.25/outbox.cif.g09.slc.cpg/sg12_86_cif.got.tgz:170793.got - 2010.06.28 00:19:55.
