data_PCOD8106213
_publ_section_title
;
Structure prediction by ZEFSAII (Michael W. Deem and Ramdas Pophale) SiO2 
 PCOD8106213
Probable space group: C 2/M
;
_chemical_formula_sum "Si O2"
_cell_formula_units_Z 64
_cell_length_a 30.499905
_cell_length_b 8.836184
_cell_length_c 11.817809
_cell_angle_alpha 90.000000
_cell_angle_beta 91.425866
_cell_angle_gamma 90.000000
_cell_volume 3183.946103
_symmetry_space_group_name_H-M "C 2/M"
_symmetry_group_IT_number 12
_symmetry_cell_setting 'monoclinic'
loop_
_space_group_symop_operation_xyz
x,y,z
-x,y,-z
-x,-y,-z
x,-y,z
1/2+x,1/2+y,z
1/2-x,1/2+y,-z
1/2-x,1/2-y,-z
1/2+x,1/2-y,z
loop_
_atom_site_type_symbol
_atom_site_label
_atom_site_fract_x
_atom_site_fract_y
_atom_site_fract_z
Si Si1 0.197426 0.177782 0.324579
Si Si2 0.344425 0.829916 0.880800
Si Si3 0.364109 0.679046 0.482841
Si Si4 0.524136 0.179209 0.822433
Si Si5 0.062107 0.679517 0.058134
Si Si6 0.459600 0.680026 0.419531
Si Si7 0.712545 0.321135 0.684202
Si Si8 0.785341 0.670256 0.079094
O O1 0.187617 0.225443 0.195208
O O2 0.156554 0.233543 0.399045
O O3 0.243241 0.251244 0.366965
O O4 0.203420 0.000000 0.335061
O O5 0.392890 0.757257 0.886351
O O6 0.343842 0.000000 0.829474
O O7 0.329730 0.835145 0.009909
O O8 0.367013 0.500000 0.478972
O O9 0.413381 0.743614 0.467531
O O10 0.330394 0.737019 0.384940
O O11 0.475607 0.230716 0.857846
O O12 0.536345 0.262445 0.707980
O O13 0.527187 0.000000 0.802619
O O14 0.555216 0.234902 0.927976
O O15 0.063216 0.500000 0.051740
O O16 0.500000 0.739664 0.500000
O O17 0.459752 0.500000 0.417041
O O18 0.717267 0.500000 0.677845
O O19 0.705779 0.269879 0.811392
O O20 0.770425 0.500000 0.112289
O O21 0.750000 0.750000 0.000000
#
# Coordination Sequence:
#
# PCOD8106213 Si02
#       8
#     8   8   8   8   8   8   8   8
#     4  11  22  38  60  84 114 148 195 241 285 338
#     4  10  21  36  56  82 115 152 188 229 283 339
#     4   9  22  41  59  83 113 152 192 237 288 337
#     4   9  18  36  61  85 112 146 188 233 283 333
#     4   8  17  35  58  84 115 149 182 231 287 335
#     4  10  22  40  60  82 116 154 187 229 285 339
#     4  11  22  39  61  82 114 151 191 238 289 340
#     4  11  22  36  56  83 117 150 186 228 281 337
#
# _framework density 20.100843000000001
#
# number of rings (size 3 to 8) (size 9 to 14) (size 15 to 20)
#    0.000    2.125    1.250    2.250    3.500    0.750 
#    0.000    5.625    0.000    0.000    0.000    0.000 
#    0.000    0.000    0.000    0.000    0.000    0.000 
#
# Total GULP energy -396680.162442 kJ/mol
# GULP energy per Si atom -12396.255076 kJ/mol
# Density = 2.005509 g / cm^3
# Si number density = 20.100843 Si / 1000 Ang^3
#
#
#
# Elastic Constant Matrix: (Units=GPa)
#
#
# Indices 1 2 3 4 5 6 
#
# 1 155.2526 30.1929 51.1331 0.0000 1.6565 0.0000
# 2 30.1929 51.7742 19.3790 0.0000 0.9637 0.0000
# 3 51.1331 19.3790 108.4060 0.0000 -10.7137 0.0000
# 4 0.0000 0.0000 0.0000 30.4067 0.0000 -4.9817
# 5 1.6565 0.9637 -10.7137 0.0000 31.9641 0.0000
# 6 0.0000 0.0000 0.0000 -4.9817 0.0000 17.9894
#
#
#
# Elastic Compliance Matrix: (Units=1/GPa)
#
#
# Indices 1 2 3 4 5 6 
#
# 1 0.008265 -0.003514 -0.003415 0.000000 -0.001467 0.000000
# 2 -0.003514 0.022309 -0.002460 0.000000 -0.001315 0.000000
# 3 -0.003415 -0.002460 0.011687 0.000000 0.004169 0.000000
# 4 0.000000 0.000000 0.000000 0.034450 0.000000 0.009540
# 5 -0.001467 -0.001315 0.004169 0.000000 0.032798 0.000000
# 6 0.000000 0.000000 0.000000 0.009540 0.000000 0.058230
#
#
# Mechanical properties :
#
#
# Convention : Reuss Voigt Hill
#
# Bulk Modulus (GPa) = 42.58608 57.42697 50.00652
# Shear Modulus (GPa) = 25.72710 30.38724 28.05717
#
# Velocity S-wave (km/s) = 3.58145 3.89233 3.74012
# Velocity P-wave (km/s) = 6.19150 6.98797 6.60176
#
# Compressibility (1/GPa) = 0.02348185
#
# Stress axis : x y z
#
# Youngs Moduli (GPa) = 120.99179 44.82406 85.56293
#
# Poissons Ratio (x) = 0.15752 0.29222
# Poissons Ratio (y) = 0.42519 0.21053
# Poissons Ratio (z) = 0.41322 0.11029
#
# Static dielectric constant tensor:
#      x y z
#    x 4.293250 0.000000 -0.089790 
#    y 0.000000 3.343640 0.000000 
#    z -0.089790 0.000000 3.743440 
# 
# 
# High freq. dielectric constant tensor:
#      x y z
#    x 1.797710 0.000000 -0.004220 
#    y 0.000000 1.755640 0.000000 
#    z -0.004220 0.000000 1.790360 
# 
# From -- ./inp_files/187484.got.cif
#   From: 2010.06.25/outbox.cif.g09.slc.cpg/sg12_94_cif.got.tgz:187484.got - 2010.06.28 00:19:55.
