data_PCOD8106379
_publ_section_title
;
Structure prediction by ZEFSAII (Michael W. Deem and Ramdas Pophale) SiO2 
 PCOD8106379
Probable space group: C 2/M
;
_chemical_formula_sum "Si O2"
_cell_formula_units_Z 48
_cell_length_a 29.328322
_cell_length_b 17.956563
_cell_length_c 15.652819
_cell_angle_alpha 90.000000
_cell_angle_beta 17.544484
_cell_angle_gamma 90.000000
_cell_volume 2484.921989
_symmetry_space_group_name_H-M "C 2/M"
_symmetry_group_IT_number 12
_symmetry_cell_setting 'monoclinic'
loop_
_space_group_symop_operation_xyz
x,y,z
-x,y,-z
-x,-y,-z
x,-y,z
1/2+x,1/2+y,z
1/2-x,1/2+y,-z
1/2-x,1/2-y,-z
1/2+x,1/2-y,z
loop_
_atom_site_type_symbol
_atom_site_label
_atom_site_fract_x
_atom_site_fract_y
_atom_site_fract_z
Si Si1 0.146287 0.913436 0.998060
Si Si2 0.958166 0.911890 0.167828
Si Si3 0.867434 0.707988 0.568755
Si Si4 0.645899 0.166953 0.961871
Si Si5 0.858302 0.587969 0.202713
Si Si6 0.058825 0.148189 0.486628
O O1 0.078381 0.891256 0.026734
O O2 0.027873 0.896212 0.284383
O O3 0.190589 0.000000 0.922596
O O4 0.298283 0.864464 0.739634
O O5 0.795933 0.877901 0.483566
O O6 0.945981 0.000000 0.182809
O O7 0.000000 0.878244 0.000000
O O8 0.962902 0.761895 0.462650
O O9 0.979753 0.682410 0.294178
O O10 0.726191 0.756944 0.784029
O O11 0.623878 0.107687 0.927441
O O12 0.760880 0.130637 0.826986
O O13 0.856358 0.500000 0.215116
O O14 0.000000 0.622715 0.000000
O O15 0.000000 0.121778 0.500000
#
# Coordination Sequence:
#
# PCOD8106379 Si02
#       6
#     8   8   8   8   8   8
#     4  11  22  39  62  94 131 162 205 267 312 366
#     4   9  18  34  56  83 119 161 201 241 301 368
#     4  10  21  39  61  89 121 158 213 252 313 376
#     4  10  21  39  61  88 122 161 209 254 309 370
#     4  10  21  36  57  89 126 163 205 251 308 373
#     4  10  21  41  68  91 118 170 210 252 316 385
#
# _framework density 19.316502
#
# number of rings (size 3 to 8) (size 9 to 14) (size 15 to 20)
#    1.000    1.000    3.333    0.000    2.333    3.667 
#    0.000    1.667    0.000    3.500    0.000    0.000 
#    0.000    0.000    0.000    0.000    0.000    0.000 
#
# Total GULP energy -297379.920524 kJ/mol
# GULP energy per Si atom -12390.830022 kJ/mol
# Density = 1.927254 g / cm^3
# Si number density = 19.316502 Si / 1000 Ang^3
#
#
#
# Elastic Constant Matrix: (Units=GPa)
#
#
# Indices 1 2 3 4 5 6 
#
# 1 99.9546 17.2586 8.6433 -0.0013 9.0265 -0.0005
# 2 17.2586 44.1941 14.9346 -0.0006 -4.7741 0.0003
# 3 8.6433 14.9346 101.0686 -0.0055 4.0223 0.0008
# 4 -0.0013 -0.0006 -0.0055 10.5350 0.0003 7.5939
# 5 9.0265 -4.7741 4.0223 0.0003 27.0991 0.0002
# 6 -0.0005 0.0003 0.0008 7.5939 0.0002 20.4927
#
#
#
# Elastic Compliance Matrix: (Units=1/GPa)
#
#
# Indices 1 2 3 4 5 6 
#
# 1 0.011268 -0.004877 -0.000060 0.000001 -0.004604 0.000000
# 2 -0.004877 0.026551 -0.003779 -0.000001 0.006863 0.000000
# 3 -0.000060 -0.003779 0.010546 0.000008 -0.002211 -0.000003
# 4 0.000001 -0.000001 0.000008 0.129518 -0.000003 -0.047995
# 5 -0.004604 0.006863 -0.002211 -0.000003 0.039972 0.000001
# 6 0.000000 0.000000 -0.000003 -0.047995 0.000001 0.066583
#
#
# Mechanical properties :
#
#
# Convention : Reuss Voigt Hill
#
# Bulk Modulus (GPa) = 32.32960 36.32114 34.32537
# Shear Modulus (GPa) = 16.01636 25.25076 20.63356
#
# Velocity S-wave (km/s) = 2.88263 3.61946 3.27185
# Velocity P-wave (km/s) = 5.27755 6.02589 5.66409
#
# Compressibility (1/GPa) = 0.03093140
#
# Stress axis : x y z
#
# Youngs Moduli (GPa) = 88.75028 37.66387 94.82419
#
# Poissons Ratio (x) = 0.18370 0.00566
# Poissons Ratio (y) = 0.43286 0.35837
# Poissons Ratio (z) = 0.00530 0.14234
#
# Static dielectric constant tensor:
#      x y z
#    x 3.322060 0.000000 -0.053610 
#    y 0.000000 3.330990 0.000000 
#    z -0.053610 0.000000 3.676230 
# 
# 
# High freq. dielectric constant tensor:
#      x y z
#    x 1.729770 0.000000 -0.000960 
#    y 0.000000 1.731400 0.000000 
#    z -0.000960 0.000000 1.759480 
# 
# From -- ./inp_files/251776.got.cif
#   From: 2010.06.25/outbox.cif.g09.slc.cpg/sg12_126_cif.got.tgz:251776.got - 2010.06.28 00:19:55.
