data_PCOD8106669
_publ_section_title
;
Structure prediction by ZEFSAII (Michael W. Deem and Ramdas Pophale) SiO2 
 PCOD8106669
Probable space group: C 2/M
;
_chemical_formula_sum "Si O2"
_cell_formula_units_Z 56
_cell_length_a 28.475696
_cell_length_b 8.944246
_cell_length_c 17.517155
_cell_angle_alpha 90.000000
_cell_angle_beta 43.094631
_cell_angle_gamma 90.000000
_cell_volume 3048.125993
_symmetry_space_group_name_H-M "C 2/M"
_symmetry_group_IT_number 12
_symmetry_cell_setting 'monoclinic'
loop_
_space_group_symop_operation_xyz
x,y,z
-x,y,-z
-x,-y,-z
x,-y,z
1/2+x,1/2+y,z
1/2-x,1/2+y,-z
1/2-x,1/2-y,-z
1/2+x,1/2-y,z
loop_
_atom_site_type_symbol
_atom_site_label
_atom_site_fract_x
_atom_site_fract_y
_atom_site_fract_z
Si Si1 0.786506 0.323046 0.267222
Si Si2 0.184284 0.824443 0.616554
Si Si3 0.645511 0.677129 0.243883
Si Si4 0.055212 0.824558 0.665773
Si Si5 0.700165 0.823259 0.918462
Si Si6 0.585400 0.822645 0.169506
Si Si7 0.366795 0.323523 0.572307
O O1 0.792103 0.500000 0.274350
O O2 0.828178 0.237467 0.283408
O O3 0.816986 0.276545 0.148315
O O4 0.707989 0.264409 0.364102
O O5 0.250000 0.750000 0.500000
O O6 0.116297 0.783318 0.650404
O O7 0.197004 0.000000 0.602811
O O8 0.639540 0.500000 0.237914
O O9 0.724508 0.733545 0.145112
O O10 0.600106 0.761588 0.236092
O O11 0.614977 0.724733 0.362922
O O12 0.076003 0.768967 0.555689
O O13 0.988232 0.734788 0.771556
O O14 0.038697 0.000000 0.686044
O O15 0.701784 0.000000 0.920972
O O16 0.642532 0.757381 0.043296
O O17 0.586064 0.000000 0.169513
O O18 0.360553 0.500000 0.576889
#
# Coordination Sequence:
#
# PCOD8106669 Si02
#       7
#     8   8   8   8   8   8   8
#     4   9  16  33  58  81 103 132 173 221 261 302
#     4  11  21  34  56  83 108 134 171 215 262 313
#     4   9  17  33  58  79  97 134 181 219 258 310
#     4  10  21  37  53  73 104 143 179 208 249 319
#     4   8  17  34  57  79 103 138 180 215 254 313
#     4  11  22  35  50  76 110 141 174 219 265 304
#     4   8  15  31  54  77 100 132 176 214 251 310
#
# _framework density 18.371943000000002
#
# number of rings (size 3 to 8) (size 9 to 14) (size 15 to 20)
#    0.000    2.571    1.429    3.000    0.000    1.714 
#    0.000    9.286    0.000    4.286    0.000    0.000 
#    0.000    0.000    0.000    0.000    0.000    0.000 
#
# Total GULP energy -347120.264142 kJ/mol
# GULP energy per Si atom -12397.152291 kJ/mol
# Density = 1.833013 g / cm^3
# Si number density = 18.371943 Si / 1000 Ang^3
#
#
#
# Elastic Constant Matrix: (Units=GPa)
#
#
# Indices 1 2 3 4 5 6 
#
# 1 117.2329 40.3645 42.8758 0.0074 5.0127 -0.0011
# 2 40.3645 45.7211 19.1106 -0.0053 -3.7630 0.0013
# 3 42.8758 19.1106 68.3987 -0.0060 -3.8502 -0.0019
# 4 0.0074 -0.0053 -0.0060 24.3498 -0.0097 0.2206
# 5 5.0127 -3.7630 -3.8502 -0.0097 25.6847 0.0034
# 6 -0.0011 0.0013 -0.0019 0.2206 0.0034 32.4513
#
#
#
# Elastic Compliance Matrix: (Units=1/GPa)
#
#
# Indices 1 2 3 4 5 6 
#
# 1 0.014931 -0.010862 -0.006635 -0.000011 -0.005500 0.000001
# 2 -0.010862 0.032840 -0.001994 0.000013 0.006632 -0.000003
# 3 -0.006635 -0.001994 0.019558 0.000008 0.003935 0.000001
# 4 -0.000011 0.000013 0.000008 0.041071 0.000021 -0.000279
# 5 -0.005500 0.006632 0.003935 0.000021 0.041569 -0.000005
# 6 0.000001 -0.000003 0.000001 -0.000279 -0.000005 0.030817
#
#
# Mechanical properties :
#
#
# Convention : Reuss Voigt Hill
#
# Bulk Modulus (GPa) = 35.27414 48.45049 41.86231
# Shear Modulus (GPa) = 21.81356 25.09727 23.45542
#
# Velocity S-wave (km/s) = 3.44950 3.70004 3.57697
# Velocity P-wave (km/s) = 5.92513 6.68453 6.31625
#
# Compressibility (1/GPa) = 0.02834938
#
# Stress axis : x y z
#
# Youngs Moduli (GPa) = 66.97255 30.45067 51.13107
#
# Poissons Ratio (x) = 0.33074 0.33924
# Poissons Ratio (y) = 0.72743 0.10193
# Poissons Ratio (z) = 0.44434 0.06070
#
# Static dielectric constant tensor:
#      x y z
#    x 3.438780 0.000000 0.219620 
#    y 0.000000 3.053550 0.000000 
#    z 0.219620 0.000000 3.781150 
# 
# 
# High freq. dielectric constant tensor:
#      x y z
#    x 1.715200 0.000000 0.012800 
#    y 0.000000 1.681050 0.000000 
#    z 0.012800 0.000000 1.710210 
# 
# From -- ./inp_files/292370.got.cif
#   From: 2010.06.25/outbox.cif.g09.slc.cpg/sg12_147_cif.got.tgz:292370.got - 2010.06.28 00:19:55.
