data_PCOD8106023
_publ_section_title
;
Structure prediction by ZEFSAII (Michael W. Deem and Ramdas Pophale) SiO2 
 PCOD8106023
Probable space group: C 2/M
;
_chemical_formula_sum "Si O2"
_cell_formula_units_Z 60
_cell_length_a 23.259331
_cell_length_b 28.893957
_cell_length_c 12.485311
_cell_angle_alpha 90.000000
_cell_angle_beta 157.532416
_cell_angle_gamma 90.000000
_cell_volume 3206.635509
_symmetry_space_group_name_H-M "C 2/M"
_symmetry_group_IT_number 12
_symmetry_cell_setting 'monoclinic'
loop_
_space_group_symop_operation_xyz
x,y,z
-x,y,-z
-x,-y,-z
x,-y,z
1/2+x,1/2+y,z
1/2-x,1/2+y,-z
1/2-x,1/2-y,-z
1/2+x,1/2-y,z
loop_
_atom_site_type_symbol
_atom_site_label
_atom_site_fract_x
_atom_site_fract_y
_atom_site_fract_z
Si Si1 0.828174 0.859398 0.233087
Si Si2 0.422538 0.049462 0.752212
Si Si3 0.271476 0.946346 0.816934
Si Si4 0.791961 0.195927 0.383349
Si Si5 0.120136 0.784648 0.042411
Si Si6 0.319254 0.205854 0.180317
Si Si7 0.710976 0.393859 0.506874
Si Si8 0.000000 0.151720 0.000000
O O1 0.780451 0.911924 0.179455
O O2 0.819520 0.822206 0.312023
O O3 0.000000 0.862789 0.500000
O O4 0.723230 0.841061 0.956242
O O5 0.301508 0.089883 0.556658
O O6 0.346140 0.000000 0.591888
O O7 0.500000 0.044934 0.000000
O O8 0.548633 0.061144 0.881511
O O9 0.194714 0.932719 0.570886
O O10 0.230982 0.000000 0.773052
O O11 0.662348 0.234021 0.157786
O O12 0.720456 0.153634 0.327929
O O13 0.950244 0.214961 0.702792
O O14 0.245251 0.799266 0.170357
O O15 0.127700 0.816694 0.162230
O O16 0.500000 0.210964 0.500000
O O17 0.250000 0.250000 0.000000
O O18 0.549553 0.381162 0.182573
#
# Coordination Sequence:
#
# PCOD8106023 Si02
#       8
#     8   8   8   8   8   8   8   4
#     4  11  21  37  59  85 113 149 191 238 298 343
#     4   8  14  30  53  77 104 132 170 224 273 324
#     4   9  19  36  60  87 111 138 186 245 293 346
#     4  10  21  36  54  79 113 151 190 236 280 338
#     4  11  22  39  53  78 116 157 194 239 283 337
#     4  12  23  37  61  88 117 157 201 242 284 342
#     4   9  18  34  53  80 112 147 186 228 282 342
#     4  10  24  38  51  76 122 160 181 238 290 340
#
# _framework density 18.711200000000002
#
# number of rings (size 3 to 8) (size 9 to 14) (size 15 to 20)
#    0.000    2.000    2.667    2.400    0.000    3.467 
#   13.200    1.333    0.000    0.400    0.000    0.000 
#    0.000    0.000    0.000    0.000    0.000    0.000 
#
# Total GULP energy -371673.194737 kJ/mol
# GULP energy per Si atom -12389.106491 kJ/mol
# Density = 1.866861 g / cm^3
# Si number density = 18.711200 Si / 1000 Ang^3
#
#
#
# Elastic Constant Matrix: (Units=GPa)
#
#
# Indices 1 2 3 4 5 6 
#
# 1 78.8260 40.3246 31.7308 0.0000 9.2785 0.0000
# 2 40.3246 122.5864 55.6248 0.0000 7.2517 0.0000
# 3 31.7308 55.6248 75.8216 0.0000 10.4832 0.0000
# 4 0.0000 0.0000 0.0000 26.5560 0.0000 2.6086
# 5 9.2785 7.2517 10.4832 0.0000 27.1924 0.0000
# 6 0.0000 0.0000 0.0000 2.6086 0.0000 15.2743
#
#
#
# Elastic Compliance Matrix: (Units=1/GPa)
#
#
# Indices 1 2 3 4 5 6 
#
# 1 0.016386 -0.003432 -0.003901 0.000000 -0.003172 0.000000
# 2 -0.003432 0.012948 -0.008183 0.000000 0.000873 0.000000
# 3 -0.003901 -0.008183 0.021484 0.000000 -0.004769 0.000000
# 4 0.000000 0.000000 0.000000 0.038299 0.000000 -0.006541
# 5 -0.003172 0.000873 -0.004769 0.000000 0.039463 0.000000
# 6 0.000000 0.000000 0.000000 -0.006541 0.000000 0.066587
#
#
# Mechanical properties :
#
#
# Convention : Reuss Voigt Hill
#
# Bulk Modulus (GPa) = 50.54298 59.17717 54.86008
# Shear Modulus (GPa) = 21.47814 23.77478 22.62646
#
# Velocity S-wave (km/s) = 3.39171 3.56844 3.48120
# Velocity P-wave (km/s) = 6.51222 6.97665 6.74843
#
# Compressibility (1/GPa) = 0.01978514
#
# Stress axis : x y z
#
# Youngs Moduli (GPa) = 61.02918 77.23022 46.54574
#
# Poissons Ratio (x) = 0.26509 0.18155
# Poissons Ratio (y) = 0.20948 0.38091
# Poissons Ratio (z) = 0.23805 0.63201
#
# Static dielectric constant tensor:
#      x y z
#    x 3.491470 0.000000 0.091850 
#    y 0.000000 3.795370 0.000000 
#    z 0.091850 0.000000 3.345670 
# 
# 
# High freq. dielectric constant tensor:
#      x y z
#    x 1.723260 0.000000 0.007370 
#    y 0.000000 1.731500 0.000000 
#    z 0.007370 0.000000 1.702510 
# 
# From -- ./inp_files/247487.got.cif
#   From: 2010.06.25/outbox.cif.g09.slc.cpg/sg12_124_cif.got.tgz:247487.got - 2010.06.28 00:19:55.
