data_PCOD8106117
_publ_section_title
;
Structure prediction by ZEFSAII (Michael W. Deem and Ramdas Pophale) SiO2 
 PCOD8106117
Probable space group: C 2/M
;
_chemical_formula_sum "Si O2"
_cell_formula_units_Z 64
_cell_length_a 15.214396
_cell_length_b 8.927675
_cell_length_c 23.642512
_cell_angle_alpha 90.000000
_cell_angle_beta 92.860205
_cell_angle_gamma 90.000000
_cell_volume 3207.342573
_symmetry_space_group_name_H-M "C 2/M"
_symmetry_group_IT_number 12
_symmetry_cell_setting 'monoclinic'
loop_
_space_group_symop_operation_xyz
x,y,z
-x,y,-z
-x,-y,-z
x,-y,z
1/2+x,1/2+y,z
1/2-x,1/2+y,-z
1/2-x,1/2-y,-z
1/2+x,1/2-y,z
loop_
_atom_site_type_symbol
_atom_site_label
_atom_site_fract_x
_atom_site_fract_y
_atom_site_fract_z
Si Si1 0.422404 0.821921 0.683318
Si Si2 0.850965 0.173646 0.450672
Si Si3 0.848826 0.675875 0.561515
Si Si4 0.400601 0.323818 0.328977
Si Si5 0.271355 0.175773 0.135279
Si Si6 0.262106 0.323118 0.736272
Si Si7 0.917081 0.822828 0.070527
Si Si8 0.111493 0.177680 0.056184
O O1 0.398536 0.769144 0.619137
O O2 0.520679 0.763910 0.699518
O O3 0.358143 0.740804 0.725150
O O4 0.416452 0.000000 0.691041
O O5 0.893330 0.255394 0.506487
O O6 0.751701 0.232134 0.437043
O O7 0.907151 0.208101 0.396416
O O8 0.849926 0.000000 0.464872
O O9 0.855027 0.500000 0.556701
O O10 0.405911 0.500000 0.316052
O O11 0.308298 0.261711 0.304313
O O12 0.256495 0.216822 0.199605
O O13 0.362878 0.247562 0.119002
O O14 0.190932 0.244851 0.095917
O O15 0.277331 0.000000 0.125747
O O16 0.258444 0.500000 0.724519
O O17 0.018104 0.767120 0.078462
O O18 0.910766 0.000000 0.076910
O O19 0.878228 0.770433 0.008557
O O20 0.111768 0.000000 0.058732
#
# Coordination Sequence:
#
# PCOD8106117 Si02
#       8
#     8   8   8   8   8   8   8   8
#     4  11  23  41  62  86 116 150 192 240 290 348
#     4   9  18  34  56  83 113 146 183 227 284 345
#     4   9  18  34  56  83 114 147 181 226 285 343
#     4  11  23  41  62  85 114 150 193 241 293 347
#     4  10  21  36  55  81 114 147 185 235 284 330
#     4  11  24  41  59  82 113 155 201 244 292 339
#     4   9  17  32  57  85 112 150 191 222 270 333
#     4   8  16  33  55  81 116 151 184 225 272 333
#
# _framework density 19.954214
#
# number of rings (size 3 to 8) (size 9 to 14) (size 15 to 20)
#    0.000    2.250    1.250    2.250    0.000    4.500 
#    0.000    5.625    0.000    0.000    0.000    0.000 
#    0.000    0.000    0.000    0.000    0.000    0.000 
#
# Total GULP energy -396825.471603 kJ/mol
# GULP energy per Si atom -12400.795988 kJ/mol
# Density = 1.990880 g / cm^3
# Si number density = 19.954214 Si / 1000 Ang^3
#
#
#
# Elastic Constant Matrix: (Units=GPa)
#
#
# Indices 1 2 3 4 5 6 
#
# 1 82.5228 22.2284 27.3706 0.0000 -26.7500 0.0000
# 2 22.2284 48.0622 37.4705 0.0000 -13.7420 0.0000
# 3 27.3706 37.4705 82.6191 0.0000 -22.0449 0.0000
# 4 0.0000 0.0000 0.0000 22.2049 0.0000 -6.7264
# 5 -26.7500 -13.7420 -22.0449 0.0000 26.8500 0.0000
# 6 0.0000 0.0000 0.0000 -6.7264 0.0000 30.8979
#
#
#
# Elastic Compliance Matrix: (Units=1/GPa)
#
#
# Indices 1 2 3 4 5 6 
#
# 1 0.018486 -0.003857 0.000016 0.000000 0.016456 0.000000
# 2 -0.003857 0.033700 -0.013355 0.000000 0.002440 0.000000
# 3 0.000016 -0.013355 0.020919 0.000000 0.010356 0.000000
# 4 0.000000 0.000000 0.000000 0.048215 0.000000 0.010496
# 5 0.016456 0.002440 0.010356 0.000000 0.063390 0.000000
# 6 0.000000 0.000000 0.000000 0.010496 0.000000 0.034650
#
#
# Mechanical properties :
#
#
# Convention : Reuss Voigt Hill
#
# Bulk Modulus (GPa) = 25.83168 43.03813 34.43490
# Shear Modulus (GPa) = 18.75086 24.39954 21.57520
#
# Velocity S-wave (km/s) = 3.06877 3.50062 3.29178
# Velocity P-wave (km/s) = 5.05273 6.16071 5.63402
#
# Compressibility (1/GPa) = 0.03871216
#
# Stress axis : x y z
#
# Youngs Moduli (GPa) = 54.09579 29.67373 47.80442
#
# Poissons Ratio (x) = 0.11445 -0.00077
# Poissons Ratio (y) = 0.20864 0.63844
# Poissons Ratio (z) = -0.00087 0.39630
#
# Static dielectric constant tensor:
#      x y z
#    x 3.712490 0.000000 0.034250 
#    y 0.000000 3.358690 0.000000 
#    z 0.034250 0.000000 3.693030 
# 
# 
# High freq. dielectric constant tensor:
#      x y z
#    x 1.782590 0.000000 -0.005550 
#    y 0.000000 1.760810 0.000000 
#    z -0.005550 0.000000 1.776650 
# 
# From -- ./inp_files/338765.got.cif
#   From: 2010.06.25/outbox.cif.g09.slc.cpg/sg12_170_cif.got.tgz:338765.got - 2010.06.28 00:19:55.
