data_PCOD8106557
_publ_section_title
;
Structure prediction by ZEFSAII (Michael W. Deem and Ramdas Pophale) SiO2 
 PCOD8106557
Probable space group: C 2/M
;
_chemical_formula_sum "Si O2"
_cell_formula_units_Z 56
_cell_length_a 16.638177
_cell_length_b 17.871135
_cell_length_c 20.729793
_cell_angle_alpha 90.000000
_cell_angle_beta 151.842601
_cell_angle_gamma 90.000000
_cell_volume 2908.697441
_symmetry_space_group_name_H-M "C 2/M"
_symmetry_group_IT_number 12
_symmetry_cell_setting 'monoclinic'
loop_
_space_group_symop_operation_xyz
x,y,z
-x,y,-z
-x,-y,-z
x,-y,z
1/2+x,1/2+y,z
1/2-x,1/2+y,-z
1/2-x,1/2-y,-z
1/2+x,1/2-y,z
loop_
_atom_site_type_symbol
_atom_site_label
_atom_site_fract_x
_atom_site_fract_y
_atom_site_fract_z
Si Si1 0.940456 0.085690 0.244925
Si Si2 0.192258 0.314003 0.145810
Si Si3 0.805452 0.190508 0.365806
Si Si4 0.809714 0.152785 0.683496
Si Si5 0.540033 0.086056 0.404745
Si Si6 0.259681 0.582762 0.447109
Si Si7 0.327178 0.359808 0.844429
O O1 0.790689 0.143461 0.157708
O O2 0.039580 0.120235 0.253905
O O3 0.057682 0.082688 0.390305
O O4 0.878382 0.000000 0.185209
O O5 0.251224 0.340081 0.257820
O O6 0.212285 0.224001 0.158515
O O7 0.000000 0.338392 0.000000
O O8 0.690485 0.257286 0.313255
O O9 0.775514 0.121776 0.390653
O O10 0.000000 0.217984 0.500000
O O11 0.623249 0.126299 0.526069
O O12 0.847442 0.127052 0.782723
O O13 0.624452 0.121649 0.400021
O O14 0.338035 0.092264 0.254037
O O15 0.596535 0.000000 0.450309
O O16 0.195255 0.500000 0.385531
O O17 0.500000 0.390399 0.000000
#
# Coordination Sequence:
#
# PCOD8106557 Si02
#       7
#     8   8   8   8   8   8   8
#     4  10  21  38  60  85 117 155 192 236 290 342
#     4  10  22  40  57  84 117 152 195 238 286 342
#     4  11  20  35  60  90 114 149 194 235 288 341
#     4  10  21  36  60  89 113 145 195 240 282 341
#     4  10  21  37  59  85 117 153 191 237 286 341
#     4   9  20  35  55  88 118 146 188 242 295 335
#     4  10  22  40  58  84 119 154 191 235 290 342
#
# _framework density 19.252604000000002
#
# number of rings (size 3 to 8) (size 9 to 14) (size 15 to 20)
#    0.000    2.000    1.429    3.429    2.000    4.286 
#    2.571    2.143    0.000    0.000    0.000    0.000 
#    0.000    0.000    0.000    0.000    0.000    0.000 
#
# Total GULP energy -347039.228757 kJ/mol
# GULP energy per Si atom -12394.258170 kJ/mol
# Density = 1.920878 g / cm^3
# Si number density = 19.252604 Si / 1000 Ang^3
#
#
#
# Elastic Constant Matrix: (Units=GPa)
#
#
# Indices 1 2 3 4 5 6 
#
# 1 98.3665 45.4961 46.1747 -0.0048 8.4565 0.0030
# 2 45.4961 60.9559 15.1664 0.0228 7.6079 0.0005
# 3 46.1747 15.1664 104.7867 0.0491 6.2737 -0.0099
# 4 -0.0048 0.0228 0.0491 32.6967 0.0168 8.9369
# 5 8.4565 7.6079 6.2737 0.0168 25.4007 -0.0029
# 6 0.0030 0.0005 -0.0099 8.9369 -0.0029 27.2087
#
#
#
# Elastic Compliance Matrix: (Units=1/GPa)
#
#
# Indices 1 2 3 4 5 6 
#
# 1 0.019114 -0.012512 -0.006552 0.000025 -0.000998 -0.000013
# 2 -0.012512 0.025744 0.002030 -0.000023 -0.004046 0.000009
# 3 -0.006552 0.002030 0.012223 -0.000023 -0.001446 0.000013
# 4 0.000025 -0.000023 -0.000023 0.033601 -0.000019 -0.011036
# 5 -0.000998 -0.004046 -0.001446 -0.000019 0.041270 0.000010
# 6 -0.000013 0.000009 0.000013 -0.011036 0.000010 0.040378
#
#
# Mechanical properties :
#
#
# Convention : Reuss Voigt Hill
#
# Bulk Modulus (GPa) = 43.45418 53.08706 48.27062
# Shear Modulus (GPa) = 23.35681 27.54602 25.45142
#
# Velocity S-wave (km/s) = 3.48685 3.78665 3.63984
# Velocity P-wave (km/s) = 6.23140 6.83755 6.54150
#
# Compressibility (1/GPa) = 0.02301274
#
# Stress axis : x y z
#
# Youngs Moduli (GPa) = 52.31633 38.84412 81.81114
#
# Poissons Ratio (x) = 0.48601 0.53605
# Poissons Ratio (y) = 0.65457 -0.16604
# Poissons Ratio (z) = 0.34279 -0.07884
#
# Static dielectric constant tensor:
#      x y z
#    x 3.517410 -0.000010 0.009320 
#    y -0.000010 3.469450 -0.000050 
#    z 0.009320 -0.000050 3.467350 
# 
# 
# High freq. dielectric constant tensor:
#      x y z
#    x 1.755750 0.000000 0.003010 
#    y 0.000000 1.745130 0.000000 
#    z 0.003010 0.000000 1.734500 
# 
# From -- ./inp_files/217637.got.cif
#   From: 2010.06.25/outbox.cif.g09.slc.cpg/sg12_109_cif.got.tgz:217637.got - 2010.06.28 00:19:55.
