data_PCOD8106041
_publ_section_title
;
Structure prediction by ZEFSAII (Michael W. Deem and Ramdas Pophale) SiO2 
 PCOD8106041
Probable space group: C 2/M
;
_chemical_formula_sum "Si O2"
_cell_formula_units_Z 56
_cell_length_a 25.808439
_cell_length_b 14.874150
_cell_length_c 16.984988
_cell_angle_alpha 90.000000
_cell_angle_beta 26.553932
_cell_angle_gamma 90.000000
_cell_volume 2914.778328
_symmetry_space_group_name_H-M "C 2/M"
_symmetry_group_IT_number 12
_symmetry_cell_setting 'monoclinic'
loop_
_space_group_symop_operation_xyz
x,y,z
-x,y,-z
-x,-y,-z
x,-y,z
1/2+x,1/2+y,z
1/2-x,1/2+y,-z
1/2-x,1/2-y,-z
1/2+x,1/2-y,z
loop_
_atom_site_type_symbol
_atom_site_label
_atom_site_fract_x
_atom_site_fract_y
_atom_site_fract_z
Si Si1 0.276587 0.679644 0.135672
Si Si2 0.715458 0.396740 0.457091
Si Si3 0.083049 0.398800 0.507411
Si Si4 0.046691 0.897443 0.222958
Si Si5 0.758626 0.897708 0.399998
Si Si6 0.371177 0.758354 0.159413
Si Si7 0.075493 0.238667 0.323363
O O1 0.184696 0.617364 0.306111
O O2 0.350116 0.740386 0.096008
O O3 0.207729 0.744876 0.169644
O O4 0.364064 0.617171 0.969155
O O5 0.739721 0.500000 0.402040
O O6 0.580123 0.373264 0.636817
O O7 0.761446 0.373774 0.481731
O O8 0.781194 0.335127 0.305777
O O9 0.035657 0.500000 0.561098
O O10 0.135711 0.384625 0.523059
O O11 0.977038 0.331243 0.639716
O O12 0.077899 0.837677 0.255186
O O13 0.053742 0.000000 0.241318
O O14 0.854557 0.832685 0.232222
O O15 0.804574 0.000000 0.328324
O O16 0.500000 0.794239 0.000000
O O17 0.000000 0.204734 0.500000
#
# Coordination Sequence:
#
# PCOD8106041 Si02
#       7
#     8   8   8   8   8   8   8
#     4  10  21  36  54  82 113 139 178 228 270 316
#     4  10  21  37  56  80 110 145 185 224 265 318
#     4   9  18  33  56  83 112 146 179 219 273 321
#     4  11  22  37  58  80 108 146 182 221 269 321
#     4   9  18  33  54  82 113 142 179 224 267 319
#     4  11  22  36  58  81 107 143 179 222 277 327
#     4  10  21  37  56  80 113 144 180 226 265 315
#
# _framework density 19.212439
#
# number of rings (size 3 to 8) (size 9 to 14) (size 15 to 20)
#    0.000    2.000    0.000    4.714    0.000    5.714 
#    0.000    0.714    0.000    0.857    0.000    0.000 
#    0.000    0.000    0.000    0.000    0.000    0.000 
#
# Total GULP energy -347301.374911 kJ/mol
# GULP energy per Si atom -12403.620533 kJ/mol
# Density = 1.916871 g / cm^3
# Si number density = 19.212439 Si / 1000 Ang^3
#
#
#
# Elastic Constant Matrix: (Units=GPa)
#
#
# Indices 1 2 3 4 5 6 
#
# 1 126.0799 55.6970 32.4558 0.0000 -1.6095 0.0000
# 2 55.6970 100.4237 44.1571 0.0000 2.1340 0.0000
# 3 32.4558 44.1571 70.9663 -0.0001 -11.5242 0.0000
# 4 0.0000 0.0000 -0.0001 25.7061 0.0000 1.0625
# 5 -1.6095 2.1340 -11.5242 0.0000 28.8277 0.0000
# 6 0.0000 0.0000 0.0000 1.0625 0.0000 22.8930
#
#
#
# Elastic Compliance Matrix: (Units=1/GPa)
#
#
# Indices 1 2 3 4 5 6 
#
# 1 0.010646 -0.005227 -0.001558 0.000000 0.000358 0.000000
# 2 -0.005227 0.016906 -0.008961 0.000000 -0.005126 0.000000
# 3 -0.001558 -0.008961 0.021895 0.000000 0.009329 0.000000
# 4 0.000000 0.000000 0.000000 0.038976 0.000000 -0.001809
# 5 0.000358 -0.005126 0.009329 0.000000 0.038818 0.000000
# 6 0.000000 0.000000 0.000000 -0.001809 0.000000 0.043765
#
#
# Mechanical properties :
#
#
# Convention : Reuss Voigt Hill
#
# Bulk Modulus (GPa) = 55.69842 62.45440 59.07641
# Shear Modulus (GPa) = 23.98262 26.49602 25.23932
#
# Velocity S-wave (km/s) = 3.53694 3.71766 3.62843
# Velocity P-wave (km/s) = 6.76267 7.14184 6.95484
#
# Compressibility (1/GPa) = 0.01795383
#
# Stress axis : x y z
#
# Youngs Moduli (GPa) = 93.92919 59.15029 45.67295
#
# Poissons Ratio (x) = 0.30918 0.07118
# Poissons Ratio (y) = 0.49097 0.40929
# Poissons Ratio (z) = 0.14638 0.53006
#
# Static dielectric constant tensor:
#      x y z
#    x 3.781550 0.000000 -0.010350 
#    y 0.000000 3.465880 0.000000 
#    z -0.010350 0.000000 3.256290 
# 
# 
# High freq. dielectric constant tensor:
#      x y z
#    x 1.766160 0.000000 -0.001710 
#    y 0.000000 1.745140 0.000000 
#    z -0.001710 0.000000 1.726520 
# 
# From -- ./inp_files/240860.got.cif
#   From: 2010.06.25/outbox.cif.g09.slc.cpg/sg12_121_cif.got.tgz:240860.got - 2010.06.28 00:19:55.
