data_PCOD8106518
_publ_section_title
;
Structure prediction by ZEFSAII (Michael W. Deem and Ramdas Pophale) SiO2 
 PCOD8106518
Probable space group: C 2/M
;
_chemical_formula_sum "Si O2"
_cell_formula_units_Z 64
_cell_length_a 23.398916
_cell_length_b 8.863914
_cell_length_c 15.034842
_cell_angle_alpha 90.000000
_cell_angle_beta 87.640578
_cell_angle_gamma 90.000000
_cell_volume 3115.672532
_symmetry_space_group_name_H-M "C 2/M"
_symmetry_group_IT_number 12
_symmetry_cell_setting 'monoclinic'
loop_
_space_group_symop_operation_xyz
x,y,z
-x,y,-z
-x,-y,-z
x,-y,z
1/2+x,1/2+y,z
1/2-x,1/2+y,-z
1/2-x,1/2-y,-z
1/2+x,1/2-y,z
loop_
_atom_site_type_symbol
_atom_site_label
_atom_site_fract_x
_atom_site_fract_y
_atom_site_fract_z
Si Si1 0.001862 0.677889 0.226963
Si Si2 0.833905 0.674177 0.536943
Si Si3 0.284342 0.327722 0.371467
Si Si4 0.539866 0.178771 0.417594
Si Si5 0.588038 0.322778 0.886037
Si Si6 0.911099 0.677189 0.932620
Si Si7 0.708714 0.671720 0.071694
Si Si8 0.193290 0.669630 0.807674
O O1 0.991767 0.500000 0.230467
O O2 0.018045 0.741151 0.323742
O O3 0.050945 0.722638 0.154125
O O4 0.943969 0.757051 0.198189
O O5 0.837000 0.500000 0.504809
O O6 0.783984 0.693808 0.613207
O O7 0.819066 0.781973 0.456467
O O8 0.894324 0.728770 0.573303
O O9 0.298750 0.500000 0.347445
O O10 0.308207 0.222953 0.292986
O O11 0.500000 0.243147 0.500000
O O12 0.535900 0.000000 0.416407
O O13 0.580855 0.500000 0.889373
O O14 0.654458 0.275949 0.873004
O O15 0.563905 0.254655 0.979881
O O16 0.910523 0.500000 0.949705
O O17 0.848210 0.733191 0.913472
O O18 0.694363 0.500000 0.043313
O O19 0.741367 0.674862 0.163717
O O20 0.750000 0.750000 0.000000
O O21 0.168664 0.500000 0.814837
#
# Coordination Sequence:
#
# PCOD8106518 Si02
#       8
#     8   8   8   8   8   8   8   8
#     4  10  23  41  64  92 122 162 210 256 307 366
#     4   9  19  37  61  88 121 160 202 248 304 364
#     4  10  21  36  59  90 124 157 200 252 305 362
#     4   9  19  37  62  91 118 156 206 251 297 357
#     4  12  25  41  63  90 124 162 207 259 312 365
#     4  11  23  40  64  91 125 165 207 255 307 366
#     4  11  23  39  61  89 122 160 201 247 306 365
#     4  11  24  40  61  88 121 161 205 248 306 373
#
# _framework density 20.541312000000001
#
# number of rings (size 3 to 8) (size 9 to 14) (size 15 to 20)
#    0.000    1.625    1.250    3.000    3.500    4.500 
#    0.000    0.625    0.000    0.750    0.000    0.000 
#    0.000    0.000    0.000    0.000    0.000    0.000 
#
# Total GULP energy -396892.006354 kJ/mol
# GULP energy per Si atom -12402.875199 kJ/mol
# Density = 2.049456 g / cm^3
# Si number density = 20.541312 Si / 1000 Ang^3
#
#
#
# Elastic Constant Matrix: (Units=GPa)
#
#
# Indices 1 2 3 4 5 6 
#
# 1 98.7162 22.4870 40.8113 0.0000 13.2026 0.0000
# 2 22.4870 60.6322 37.3809 0.0000 0.2231 0.0000
# 3 40.8113 37.3809 129.7524 0.0000 4.3086 0.0000
# 4 0.0000 0.0000 0.0000 25.7055 0.0000 3.9506
# 5 13.2026 0.2231 4.3086 0.0000 31.0433 0.0000
# 6 0.0000 0.0000 0.0000 3.9506 0.0000 30.1491
#
#
#
# Elastic Compliance Matrix: (Units=1/GPa)
#
#
# Indices 1 2 3 4 5 6 
#
# 1 0.012681 -0.002830 -0.003009 0.000000 -0.004955 0.000000
# 2 -0.002830 0.020700 -0.005132 0.000000 0.001767 0.000000
# 3 -0.003009 -0.005132 0.010135 0.000000 -0.000090 0.000000
# 4 0.000000 0.000000 0.000000 0.039702 0.000000 -0.005202
# 5 -0.004955 0.001767 -0.000090 0.000000 0.034320 0.000000
# 6 0.000000 0.000000 0.000000 -0.005202 0.000000 0.033850
#
#
# Mechanical properties :
#
#
# Convention : Reuss Voigt Hill
#
# Bulk Modulus (GPa) = 46.35122 54.49545 50.42333
# Shear Modulus (GPa) = 27.69750 29.94103 28.81927
#
# Velocity S-wave (km/s) = 3.67601 3.82200 3.74972
# Velocity P-wave (km/s) = 6.37427 6.78706 6.58390
#
# Compressibility (1/GPa) = 0.02157441
#
# Stress axis : x y z
#
# Youngs Moduli (GPa) = 78.85589 48.30921 98.66899
#
# Poissons Ratio (x) = 0.13671 0.29688
# Poissons Ratio (y) = 0.22316 0.50638
# Poissons Ratio (z) = 0.23727 0.24793
#
# Static dielectric constant tensor:
#      x y z
#    x 3.844780 0.000000 0.085840 
#    y 0.000000 3.582150 0.000000 
#    z 0.085840 0.000000 3.798770 
# 
# 
# High freq. dielectric constant tensor:
#      x y z
#    x 1.810670 0.000000 0.004630 
#    y 0.000000 1.791400 0.000000 
#    z 0.004630 0.000000 1.806560 
# 
# From -- ./inp_files/238591.got.cif
#   From: 2010.06.25/outbox.cif.g09.slc.cpg/sg12_120_cif.got.tgz:238591.got - 2010.06.28 00:19:55.
