data_PCOD8106977
_publ_section_title
;
Structure prediction by ZEFSAII (Michael W. Deem and Ramdas Pophale) SiO2 
 PCOD8106977
Probable space group: C 2/M
;
_chemical_formula_sum "Si O2"
_cell_formula_units_Z 64
_cell_length_a 20.257153
_cell_length_b 9.067274
_cell_length_c 20.299452
_cell_angle_alpha 90.000000
_cell_angle_beta 56.831480
_cell_angle_gamma 90.000000
_cell_volume 3121.035174
_symmetry_space_group_name_H-M "C 2/M"
_symmetry_group_IT_number 12
_symmetry_cell_setting 'monoclinic'
loop_
_space_group_symop_operation_xyz
x,y,z
-x,y,-z
-x,-y,-z
x,-y,z
1/2+x,1/2+y,z
1/2-x,1/2+y,-z
1/2-x,1/2-y,-z
1/2+x,1/2-y,z
loop_
_atom_site_type_symbol
_atom_site_label
_atom_site_fract_x
_atom_site_fract_y
_atom_site_fract_z
Si Si1 0.450236 0.670892 0.833178
Si Si2 0.990029 0.829625 0.580194
Si Si3 0.698814 0.669275 0.863807
Si Si4 0.326218 0.824604 0.989854
Si Si5 0.872473 0.832249 0.235185
Si Si6 0.363451 0.168316 0.466114
Si Si7 0.236732 0.668527 0.609309
Si Si8 0.641950 0.331734 0.249240
O O1 0.440295 0.500000 0.859748
O O2 0.541172 0.720445 0.789198
O O3 0.419771 0.697398 0.775991
O O4 0.402984 0.774918 0.908582
O O5 0.902701 0.802232 0.657105
O O6 0.000000 0.773977 0.500000
O O7 0.050785 0.737510 0.591085
O O8 0.013273 0.000000 0.573809
O O9 0.705641 0.500000 0.883926
O O10 0.665400 0.771505 0.939789
O O11 0.636630 0.683407 0.838372
O O12 0.785500 0.720945 0.794454
O O13 0.316857 0.000000 0.992631
O O14 0.250000 0.750000 0.000000
O O15 0.805161 0.732381 0.303781
O O16 0.858435 0.000000 0.265805
O O17 0.318675 0.249716 0.550287
O O18 0.320252 0.190765 0.421065
O O19 0.370461 0.000000 0.482982
O O20 0.257706 0.500000 0.611979
O O21 0.673057 0.500000 0.228636
#
# Coordination Sequence:
#
# PCOD8106977 Si02
#       8
#     8   8   8   8   8   8   8   8
#     4  10  21  40  66  92 123 165 209 252 304 366
#     4  10  22  38  57  86 122 161 205 253 308 364
#     4  11  24  41  63  93 128 165 204 251 308 369
#     4  12  24  41  66  95 126 162 207 254 306 366
#     4  10  23  41  62  92 127 164 202 249 307 366
#     4  10  21  37  57  84 115 155 204 255 309 362
#     4  10  21  37  60  85 116 158 202 251 305 365
#     4  10  21  38  62  89 121 165 212 257 307 366
#
# _framework density 20.506017
#
# number of rings (size 3 to 8) (size 9 to 14) (size 15 to 20)
#    0.000    1.625    1.250    3.000    1.750    5.250 
#    0.000    2.500    0.000    0.000    0.000    0.000 
#    0.000    0.000    0.000    0.000    0.000    0.000 
#
# Total GULP energy -396946.516230 kJ/mol
# GULP energy per Si atom -12404.578632 kJ/mol
# Density = 2.045934 g / cm^3
# Si number density = 20.506017 Si / 1000 Ang^3
#
#
#
# Elastic Constant Matrix: (Units=GPa)
#
#
# Indices 1 2 3 4 5 6 
#
# 1 55.3866 15.8144 1.5882 0.0000 0.8660 -0.0003
# 2 15.8144 96.0645 33.9038 0.0002 5.5299 -0.0006
# 3 1.5882 33.9038 103.2679 0.0001 6.5091 -0.0001
# 4 0.0000 0.0002 0.0001 38.5259 0.0000 -4.3461
# 5 0.8660 5.5299 6.5091 0.0000 20.4383 0.0000
# 6 -0.0003 -0.0006 -0.0001 -4.3461 0.0000 29.8577
#
#
#
# Elastic Compliance Matrix: (Units=1/GPa)
#
#
# Indices 1 2 3 4 5 6 
#
# 1 0.019009 -0.003417 0.000839 0.000000 -0.000148 0.000000
# 2 -0.003417 0.012468 -0.003916 0.000000 -0.001982 0.000000
# 3 0.000839 -0.003916 0.011115 0.000000 -0.002516 0.000000
# 4 0.000000 0.000000 0.000000 0.026390 0.000000 0.003841
# 5 -0.000148 -0.001982 -0.002516 0.000000 0.050271 0.000000
# 6 0.000000 0.000000 0.000000 0.003841 0.000000 0.034051
#
#
# Mechanical properties :
#
#
# Convention : Reuss Voigt Hill
#
# Bulk Modulus (GPa) = 33.77934 39.70352 36.74143
# Shear Modulus (GPa) = 28.38318 31.32522 29.85420
#
# Velocity S-wave (km/s) = 3.72444 3.91271 3.81973
# Velocity P-wave (km/s) = 5.91641 6.31002 6.11638
#
# Compressibility (1/GPa) = 0.02960389
#
# Stress axis : x y z
#
# Youngs Moduli (GPa) = 52.60730 80.20345 89.96937
#
# Poissons Ratio (x) = 0.27404 -0.07546
# Poissons Ratio (y) = 0.17975 0.35232
# Poissons Ratio (z) = -0.04412 0.31408
#
# Static dielectric constant tensor:
#      x y z
#    x 3.691100 0.000000 0.005070 
#    y 0.000000 3.727200 0.000000 
#    z 0.005070 0.000000 3.816580 
# 
# 
# High freq. dielectric constant tensor:
#      x y z
#    x 1.801530 0.000000 0.001740 
#    y 0.000000 1.801060 0.000000 
#    z 0.001740 0.000000 1.807140 
# 
# From -- ./inp_files/319886.got.cif
#   From: 2010.06.25/outbox.cif.g09.slc.cpg/sg12_160_cif.got.tgz:319886.got - 2010.06.28 00:19:55.
