data_PCOD8106323
_publ_section_title
;
Structure prediction by ZEFSAII (Michael W. Deem and Ramdas Pophale) SiO2 
 PCOD8106323
Probable space group: C 2/M
;
_chemical_formula_sum "Si O2"
_cell_formula_units_Z 56
_cell_length_a 30.645215
_cell_length_b 9.175501
_cell_length_c 20.953770
_cell_angle_alpha 90.000000
_cell_angle_beta 28.704766
_cell_angle_gamma 90.000000
_cell_volume 2829.853916
_symmetry_space_group_name_H-M "C 2/M"
_symmetry_group_IT_number 12
_symmetry_cell_setting 'monoclinic'
loop_
_space_group_symop_operation_xyz
x,y,z
-x,y,-z
-x,-y,-z
x,-y,z
1/2+x,1/2+y,z
1/2-x,1/2+y,-z
1/2-x,1/2-y,-z
1/2+x,1/2-y,z
loop_
_atom_site_type_symbol
_atom_site_label
_atom_site_fract_x
_atom_site_fract_y
_atom_site_fract_z
Si Si1 0.573051 0.171026 0.959305
Si Si2 0.925300 0.660504 0.686501
Si Si3 0.029322 0.827722 0.147334
Si Si4 0.675409 0.673528 0.551844
Si Si5 0.738389 0.329515 0.334224
Si Si6 0.628336 0.160149 0.379823
Si Si7 0.656137 0.670865 0.101968
O O1 0.663639 0.233675 0.810104
O O2 0.578557 0.000000 0.968039
O O3 0.500000 0.207894 0.000000
O O4 0.552293 0.252755 0.051373
O O5 0.904357 0.500000 0.742971
O O6 0.857233 0.687941 0.714215
O O7 0.914879 0.786415 0.751903
O O8 0.024219 0.664373 0.531299
O O9 0.107500 0.781273 0.098109
O O10 0.927971 0.778136 0.299311
O O11 0.030659 0.000000 0.136346
O O12 0.686252 0.500000 0.544020
O O13 0.750000 0.750000 0.500000
O O14 0.698361 0.732979 0.451514
O O15 0.744926 0.500000 0.333069
O O16 0.674414 0.290096 0.357940
O O17 0.668619 0.000000 0.345803
O O18 0.674258 0.500000 0.079125
O O19 0.750000 0.750000 0.000000
#
# Coordination Sequence:
#
# PCOD8106323 Si02
#       7
#     8   8   8   8   8   8   8
#     4  10  22  40  61  86 118 156 196 242 296 352
#     4   9  19  37  57  81 114 150 190 236 285 341
#     4  10  23  41  61  87 121 160 199 244 299 357
#     4  10  21  39  62  88 118 151 193 245 299 357
#     4  10  21  36  57  85 115 146 191 243 290 346
#     4   9  19  35  57  83 113 148 186 234 289 343
#     4  11  24  40  59  84 117 159 203 247 295 350
#
# _framework density 19.789007000000002
#
# number of rings (size 3 to 8) (size 9 to 14) (size 15 to 20)
#    0.000    2.143    0.000    3.000    2.000    6.571 
#    0.000    1.429    0.000    0.000    0.000    0.000 
#    0.000    0.000    0.000    0.000    0.000    0.000 
#
# Total GULP energy -347031.926035 kJ/mol
# GULP energy per Si atom -12393.997358 kJ/mol
# Density = 1.974397 g / cm^3
# Si number density = 19.789007 Si / 1000 Ang^3
#
#
#
# Elastic Constant Matrix: (Units=GPa)
#
#
# Indices 1 2 3 4 5 6 
#
# 1 145.5231 43.4378 68.8857 0.0065 -0.2845 -0.0009
# 2 43.4378 33.8789 38.8625 0.0113 2.7210 -0.0063
# 3 68.8857 38.8625 114.7348 0.0052 7.9519 -0.0059
# 4 0.0065 0.0113 0.0052 32.5991 -0.0011 1.8075
# 5 -0.2845 2.7210 7.9519 -0.0011 34.9269 0.0006
# 6 -0.0009 -0.0063 -0.0059 1.8075 0.0006 41.3564
#
#
#
# Elastic Compliance Matrix: (Units=1/GPa)
#
#
# Indices 1 2 3 4 5 6 
#
# 1 0.011919 -0.011570 -0.003359 0.000002 0.001763 -0.000002
# 2 -0.011570 0.059504 -0.013087 -0.000017 -0.001750 0.000008
# 3 -0.003359 -0.013087 0.015339 0.000003 -0.002500 0.000000
# 4 0.000002 -0.000017 0.000003 0.030750 0.000002 -0.001344
# 5 0.001763 -0.001750 -0.002500 0.000002 0.029351 -0.000001
# 6 -0.000002 0.000008 0.000000 -0.001344 -0.000001 0.024239
#
#
# Mechanical properties :
#
#
# Convention : Reuss Voigt Hill
#
# Bulk Modulus (GPa) = 32.54253 66.27875 49.41064
# Shear Modulus (GPa) = 21.06340 31.30653 26.18497
#
# Velocity S-wave (km/s) = 3.26605 3.98177 3.64154
# Velocity P-wave (km/s) = 5.54105 7.39627 6.53483
#
# Compressibility (1/GPa) = 0.03072902
#
# Stress axis : x y z
#
# Youngs Moduli (GPa) = 83.89965 16.80545 65.19438
#
# Poissons Ratio (x) = 0.19444 0.21901
# Poissons Ratio (y) = 0.97073 0.85321
# Poissons Ratio (z) = 0.28184 0.21994
#
# Static dielectric constant tensor:
#      x y z
#    x 3.910490 -0.000020 0.085860 
#    y -0.000020 3.624250 0.000000 
#    z 0.085860 0.000000 3.862490 
# 
# 
# High freq. dielectric constant tensor:
#      x y z
#    x 1.782020 0.000000 0.001670 
#    y 0.000000 1.757530 0.000000 
#    z 0.001670 0.000000 1.783970 
# 
# From -- ./inp_files/329458.got.cif
#   From: 2010.06.25/outbox.cif.g09.slc.cpg/sg12_165_cif.got.tgz:329458.got - 2010.06.28 00:19:55.
