data_PCOD8106278
_publ_section_title
;
Structure prediction by ZEFSAII (Michael W. Deem and Ramdas Pophale) SiO2 
 PCOD8106278
Probable space group: C 2/M
;
_chemical_formula_sum "Si O2"
_cell_formula_units_Z 40
_cell_length_a 13.203773
_cell_length_b 24.190651
_cell_length_c 9.059126
_cell_angle_alpha 90.000000
_cell_angle_beta 37.355853
_cell_angle_gamma 90.000000
_cell_volume 1755.704379
_symmetry_space_group_name_H-M "C 2/M"
_symmetry_group_IT_number 12
_symmetry_cell_setting 'monoclinic'
loop_
_space_group_symop_operation_xyz
x,y,z
-x,y,-z
-x,-y,-z
x,-y,z
1/2+x,1/2+y,z
1/2-x,1/2+y,-z
1/2-x,1/2-y,-z
1/2+x,1/2-y,z
loop_
_atom_site_type_symbol
_atom_site_label
_atom_site_fract_x
_atom_site_fract_y
_atom_site_fract_z
Si Si1 0.115274 0.611811 0.694188
Si Si2 0.885098 0.160651 0.810928
Si Si3 0.739996 0.936334 0.829682
Si Si4 0.686472 0.827798 0.336051
Si Si5 0.264611 0.291957 0.663178
O O1 0.233401 0.573210 0.659778
O O2 0.185878 0.619236 0.446460
O O3 0.109181 0.673446 0.776324
O O4 0.932881 0.585291 0.898303
O O5 0.885777 0.098867 0.738667
O O6 0.777538 0.200044 0.826074
O O7 0.072356 0.182311 0.605571
O O8 0.806466 0.157981 0.063140
O O9 0.771023 0.000000 0.829946
O O10 0.500000 0.813744 0.500000
O O11 0.754750 0.773442 0.344646
#
# Coordination Sequence:
#
# PCOD8106278 Si02
#       5
#     8   8   8   8   8
#     4  10  21  36  56  88 113 151 197 234 285 346
#     4  10  21  38  58  86 120 153 198 236 284 353
#     4  10  21  41  63  82 114 157 201 244 289 347
#     4  12  21  35  59  90 123 154 189 240 291 338
#     4  10  22  37  59  86 123 163 186 228 290 355
#
# _framework density 22.782876999999999
#
# number of rings (size 3 to 8) (size 9 to 14) (size 15 to 20)
#    0.000    1.600    4.000    2.400    0.000    0.800 
#    0.000   12.000    0.000    0.000    0.000   23.800 
#    0.000    0.000    0.000    0.000    0.000    0.000 
#
# Total GULP energy -247911.195991 kJ/mol
# GULP energy per Si atom -12395.559800 kJ/mol
# Density = 2.273102 g / cm^3
# Si number density = 22.782877 Si / 1000 Ang^3
#
#
#
# Elastic Constant Matrix: (Units=GPa)
#
#
# Indices 1 2 3 4 5 6 
#
# 1 43.3952 18.7169 33.1345 0.0000 2.3149 0.0000
# 2 18.7169 134.0624 32.9815 0.0000 2.0679 0.0000
# 3 33.1345 32.9815 140.5450 0.0000 39.4419 0.0000
# 4 0.0000 0.0000 0.0000 26.3835 0.0000 -2.0063
# 5 2.3149 2.0679 39.4419 0.0000 21.7424 0.0000
# 6 0.0000 0.0000 0.0000 -2.0063 0.0000 15.3987
#
#
#
# Elastic Compliance Matrix: (Units=1/GPa)
#
#
# Indices 1 2 3 4 5 6 
#
# 1 0.032580 -0.001673 -0.012954 0.000000 0.020190 0.000000
# 2 -0.001673 0.008318 -0.002822 0.000000 0.004507 0.000000
# 3 -0.012954 -0.002822 0.021122 0.000000 -0.036669 0.000000
# 4 0.000000 0.000000 0.000000 0.038282 0.000000 0.004988
# 5 0.020190 0.004507 -0.036669 0.000000 0.109934 0.000000
# 6 0.000000 0.000000 0.000000 0.004988 0.000000 0.065590
#
#
# Mechanical properties :
#
#
# Convention : Reuss Voigt Hill
#
# Bulk Modulus (GPa) = 36.87267 54.18538 45.52902
# Shear Modulus (GPa) = 15.63647 28.24958 21.94302
#
# Velocity S-wave (km/s) = 2.62262 3.52511 3.10681
# Velocity P-wave (km/s) = 5.03889 6.35638 5.73559
#
# Compressibility (1/GPa) = 0.02712036
#
# Stress axis : x y z
#
# Youngs Moduli (GPa) = 30.69373 120.22744 47.34370
#
# Poissons Ratio (x) = 0.20114 0.61331
# Poissons Ratio (y) = 0.05135 0.13361
# Poissons Ratio (z) = 0.39762 0.33930
#
# Static dielectric constant tensor:
#      x y z
#    x 4.098360 0.000000 0.100080 
#    y 0.000000 3.937360 0.000000 
#    z 0.100080 0.000000 4.049970 
# 
# 
# High freq. dielectric constant tensor:
#      x y z
#    x 1.896730 0.000000 0.003680 
#    y 0.000000 1.869440 0.000000 
#    z 0.003680 0.000000 1.897100 
# 
# From -- ./inp_files/64623.got.cif
#   From: 2010.06.25/outbox.cif.g09.slc.cpg/sg12_33_cif.got.tgz:64623.got - 2010.06.28 00:19:55.
