data_PCOD8106937
_publ_section_title
;
Structure prediction by ZEFSAII (Michael W. Deem and Ramdas Pophale) SiO2 
 PCOD8106937
Probable space group: C 2/M
;
_chemical_formula_sum "Si O2"
_cell_formula_units_Z 64
_cell_length_a 23.986513
_cell_length_b 8.939151
_cell_length_c 14.832060
_cell_angle_alpha 90.000000
_cell_angle_beta 85.965534
_cell_angle_gamma 90.000000
_cell_volume 3172.395371
_symmetry_space_group_name_H-M "C 2/M"
_symmetry_group_IT_number 12
_symmetry_cell_setting 'monoclinic'
loop_
_space_group_symop_operation_xyz
x,y,z
-x,y,-z
-x,-y,-z
x,-y,z
1/2+x,1/2+y,z
1/2-x,1/2+y,-z
1/2-x,1/2-y,-z
1/2+x,1/2-y,z
loop_
_atom_site_type_symbol
_atom_site_label
_atom_site_fract_x
_atom_site_fract_y
_atom_site_fract_z
Si Si1 0.458873 0.669777 0.659986
Si Si2 0.067699 0.672567 0.683782
Si Si3 0.621169 0.329210 0.166965
Si Si4 0.358972 0.822920 0.158533
Si Si5 0.716420 0.676344 0.423264
Si Si6 0.261245 0.678122 0.779427
Si Si7 0.936992 0.322318 0.990580
Si Si8 0.103458 0.672698 0.477469
O O1 0.468106 0.500000 0.626779
O O2 0.513303 0.727331 0.706257
O O3 0.406141 0.681870 0.731766
O O4 0.450470 0.776138 0.573833
O O5 0.051145 0.500000 0.700622
O O6 0.113309 0.726086 0.750693
O O7 0.093499 0.700329 0.583292
O O8 0.621009 0.500000 0.132154
O O9 0.684510 0.265894 0.170700
O O10 0.585955 0.229160 0.102738
O O11 0.295060 0.761833 0.165056
O O12 0.395292 0.756799 0.071918
O O13 0.357465 0.000000 0.150873
O O14 0.723667 0.500000 0.430383
O O15 0.750000 0.750000 0.500000
O O16 0.738631 0.735383 0.324074
O O17 0.652170 0.719564 0.438898
O O18 0.263216 0.500000 0.776422
O O19 0.937795 0.500000 0.992761
O O20 0.000000 0.261220 0.000000
O O21 0.117521 0.500000 0.456350
#
# Coordination Sequence:
#
# PCOD8106937 Si02
#       8
#     8   8   8   8   8   8   8   8
#     4  11  22  37  56  82 115 154 193 236 292 349
#     4  10  21  37  57  83 113 151 195 239 288 349
#     4  10  21  38  59  83 113 151 192 235 290 351
#     4   9  18  35  59  82 110 149 191 233 286 346
#     4  11  21  36  57  82 116 157 202 246 291 344
#     4   9  18  36  58  80 112 153 193 234 285 348
#     4  10  21  37  59  88 116 144 186 239 292 344
#     4  11  22  36  56  84 115 150 196 242 290 348
#
# _framework density 20.174029999999998
#
# number of rings (size 3 to 8) (size 9 to 14) (size 15 to 20)
#    0.000    1.875    1.250    3.000    0.000    7.250 
#    0.000    0.625    0.000    2.250    0.000    0.000 
#    0.000    0.000    0.000    0.000    0.000    0.000 
#
# Total GULP energy -396832.249383 kJ/mol
# GULP energy per Si atom -12401.007793 kJ/mol
# Density = 2.012811 g / cm^3
# Si number density = 20.174030 Si / 1000 Ang^3
#
#
#
# Elastic Constant Matrix: (Units=GPa)
#
#
# Indices 1 2 3 4 5 6 
#
# 1 134.6375 29.2991 39.5001 0.0000 4.1376 0.0000
# 2 29.2991 40.6147 28.5133 0.0000 -1.2194 0.0000
# 3 39.5001 28.5133 93.8180 0.0000 10.6134 0.0000
# 4 0.0000 0.0000 0.0000 24.3363 0.0000 3.6610
# 5 4.1376 -1.2194 10.6134 0.0000 35.7719 0.0000
# 6 0.0000 0.0000 0.0000 3.6610 0.0000 29.0304
#
#
#
# Elastic Compliance Matrix: (Units=1/GPa)
#
#
# Indices 1 2 3 4 5 6 
#
# 1 0.009215 -0.005067 -0.002276 0.000000 -0.000563 0.000000
# 2 -0.005067 0.034656 -0.008898 0.000000 0.004407 0.000000
# 3 -0.002276 -0.008898 0.014824 0.000000 -0.004438 0.000000
# 4 0.000000 0.000000 0.000000 0.041886 0.000000 -0.005282
# 5 -0.000563 0.004407 -0.004438 0.000000 0.029487 0.000000
# 6 0.000000 0.000000 0.000000 -0.005282 0.000000 0.035113
#
#
# Mechanical properties :
#
#
# Convention : Reuss Voigt Hill
#
# Bulk Modulus (GPa) = 38.14933 51.52168 44.83551
# Shear Modulus (GPa) = 24.22492 29.27824 26.75158
#
# Velocity S-wave (km/s) = 3.46901 3.81370 3.64543
# Velocity P-wave (km/s) = 5.91579 6.70720 6.32389
#
# Compressibility (1/GPa) = 0.02621278
#
# Stress axis : x y z
#
# Youngs Moduli (GPa) = 108.51853 28.85526 67.45956
#
# Poissons Ratio (x) = 0.14620 0.15356
# Poissons Ratio (y) = 0.54981 0.60026
# Poissons Ratio (z) = 0.24702 0.25676
#
# Static dielectric constant tensor:
#      x y z
#    x 4.035570 0.000000 -0.014460 
#    y 0.000000 3.352740 0.000000 
#    z -0.014460 0.000000 3.691450 
# 
# 
# High freq. dielectric constant tensor:
#      x y z
#    x 1.804420 0.000000 0.002950 
#    y 0.000000 1.754990 0.000000 
#    z 0.002950 0.000000 1.789680 
# 
# From -- ./inp_files/238720.got.cif
#   From: 2010.06.25/outbox.cif.g09.slc.cpg/sg12_120_cif.got.tgz:238720.got - 2010.06.28 00:19:55.
