data_PCOD8106853
_publ_section_title
;
Structure prediction by ZEFSAII (Michael W. Deem and Ramdas Pophale) SiO2 
 PCOD8106853
Probable space group: C 2/M
;
_chemical_formula_sum "Si O2"
_cell_formula_units_Z 64
_cell_length_a 18.244669
_cell_length_b 27.561787
_cell_length_c 9.868110
_cell_angle_alpha 90.000000
_cell_angle_beta 41.833832
_cell_angle_gamma 90.000000
_cell_volume 3309.674610
_symmetry_space_group_name_H-M "C 2/M"
_symmetry_group_IT_number 12
_symmetry_cell_setting 'monoclinic'
loop_
_space_group_symop_operation_xyz
x,y,z
-x,y,-z
-x,-y,-z
x,-y,z
1/2+x,1/2+y,z
1/2-x,1/2+y,-z
1/2-x,1/2-y,-z
1/2+x,1/2-y,z
loop_
_atom_site_type_symbol
_atom_site_label
_atom_site_fract_x
_atom_site_fract_y
_atom_site_fract_z
Si Si1 0.085345 0.288932 0.761671
Si Si2 0.139629 0.443682 0.083457
Si Si3 0.742310 0.396362 0.641844
Si Si4 0.543417 0.391783 0.586751
Si Si5 0.754080 0.555062 0.343305
Si Si6 0.968554 0.361444 0.397799
Si Si7 0.847863 0.055266 0.986375
Si Si8 0.165623 0.184735 0.584966
O O1 0.031397 0.318814 0.712627
O O2 0.096896 0.233023 0.704850
O O3 0.207188 0.306992 0.635154
O O4 0.000000 0.294914 0.000000
O O5 0.102021 0.500000 0.153011
O O6 0.044289 0.407261 0.257022
O O7 0.164132 0.432162 0.892131
O O8 0.246072 0.433649 0.028399
O O9 0.781756 0.414506 0.439433
O O10 0.847265 0.382211 0.584366
O O11 0.666466 0.348775 0.719665
O O12 0.678972 0.436267 0.817750
O O13 0.500000 0.379914 0.500000
O O14 0.630219 0.435716 0.463101
O O15 0.444629 0.407521 0.819930
O O16 0.602619 0.342867 0.552769
O O17 0.766901 0.500000 0.368541
O O18 0.000000 0.338804 0.500000
O O19 0.887182 0.000000 0.914211
#
# Coordination Sequence:
#
# PCOD8106853 Si02
#       8
#     8   8   8   8   8   8   8   8
#     4  10  23  42  71  89 119 158 197 252 311 377
#     4  10  22  37  59  90 127 163 207 247 296 362
#     4  10  22  39  61  86 124 160 199 261 298 369
#     4  11  22  36  62  87 124 163 204 257 298 363
#     4  10  21  37  56  84 121 160 202 250 293 352
#     4  11  23  40  62  90 123 160 204 252 308 356
#     4  11  22  36  58  91 126 169 210 246 305 363
#     4   9  23  43  61  94 121 152 201 250 316 362
#
# _framework density 19.337247000000001
#
# number of rings (size 3 to 8) (size 9 to 14) (size 15 to 20)
#    0.000    1.750    2.500    0.750    7.000    3.750 
#    0.000    4.375    0.000    3.750    0.000    0.000 
#    0.000    0.000    0.000    0.000    0.000    0.000 
#
# Total GULP energy -396716.228204 kJ/mol
# GULP energy per Si atom -12397.382131 kJ/mol
# Density = 1.929323 g / cm^3
# Si number density = 19.337247 Si / 1000 Ang^3
#
#
#
# Elastic Constant Matrix: (Units=GPa)
#
#
# Indices 1 2 3 4 5 6 
#
# 1 110.5013 38.9849 47.8404 0.0000 11.0159 0.0000
# 2 38.9849 102.3663 46.2384 0.0000 8.7225 0.0000
# 3 47.8404 46.2384 90.7520 0.0000 23.1574 0.0000
# 4 0.0000 0.0000 0.0000 14.2776 0.0000 -14.9007
# 5 11.0159 8.7225 23.1574 0.0000 22.4431 0.0000
# 6 0.0000 0.0000 0.0000 -14.9007 0.0000 21.4099
#
#
#
# Elastic Compliance Matrix: (Units=1/GPa)
#
#
# Indices 1 2 3 4 5 6 
#
# 1 0.012114 -0.002228 -0.005368 0.000000 0.000459 0.000000
# 2 -0.002228 0.013192 -0.006132 0.000000 0.002294 0.000000
# 3 -0.005368 -0.006132 0.021301 0.000000 -0.016961 0.000000
# 4 0.000000 0.000000 0.000000 0.255945 0.000000 0.178131
# 5 0.000459 0.002294 -0.016961 0.000000 0.060941 0.000000
# 6 0.000000 0.000000 0.000000 0.178131 0.000000 0.170682
#
#
# Mechanical properties :
#
#
# Convention : Reuss Voigt Hill
#
# Bulk Modulus (GPa) = 52.21652 63.30524 57.76088
# Shear Modulus (GPa) = 8.80260 22.99652 15.89956
#
# Velocity S-wave (km/s) = 2.13589 3.45227 2.87056
# Velocity P-wave (km/s) = 5.75712 6.97850 6.39702
#
# Compressibility (1/GPa) = 0.01915103
#
# Stress axis : x y z
#
# Youngs Moduli (GPa) = 82.54996 75.80539 46.94617
#
# Poissons Ratio (x) = 0.16889 0.25200
# Poissons Ratio (y) = 0.18391 0.28788
# Poissons Ratio (z) = 0.44311 0.46484
#
# Static dielectric constant tensor:
#      x y z
#    x 3.612760 0.000000 -0.010470 
#    y 0.000000 3.612290 0.000000 
#    z -0.010470 0.000000 3.485760 
# 
# 
# High freq. dielectric constant tensor:
#      x y z
#    x 1.759910 0.000000 0.000720 
#    y 0.000000 1.753370 0.000000 
#    z 0.000720 0.000000 1.750240 
# 
# From -- ./inp_files/80700.got.cif
#   From: 2010.06.25/outbox.cif.g09.slc.cpg/sg12_41_cif.got.tgz:80700.got - 2010.06.28 00:19:55.
