data_PCOD8106986
_publ_section_title
;
Structure prediction by ZEFSAII (Michael W. Deem and Ramdas Pophale) SiO2 
 PCOD8106986
Probable space group: C 2/M
;
_chemical_formula_sum "Si O2"
_cell_formula_units_Z 64
_cell_length_a 14.244143
_cell_length_b 9.259019
_cell_length_c 24.112444
_cell_angle_alpha 90.000000
_cell_angle_beta 90.907729
_cell_angle_gamma 90.000000
_cell_volume 3179.713765
_symmetry_space_group_name_H-M "C 2/M"
_symmetry_group_IT_number 12
_symmetry_cell_setting 'monoclinic'
loop_
_space_group_symop_operation_xyz
x,y,z
-x,y,-z
-x,-y,-z
x,-y,z
1/2+x,1/2+y,z
1/2-x,1/2+y,-z
1/2-x,1/2-y,-z
1/2+x,1/2-y,z
loop_
_atom_site_type_symbol
_atom_site_label
_atom_site_fract_x
_atom_site_fract_y
_atom_site_fract_z
Si Si1 0.785413 0.831616 0.198152
Si Si2 0.754136 0.168097 0.914896
Si Si3 0.412310 0.338740 0.388031
Si Si4 0.838556 0.829010 0.715843
Si Si5 0.107673 0.666950 0.008423
Si Si6 0.046214 0.832591 0.728433
Si Si7 0.111395 0.337956 0.509418
Si Si8 0.366221 0.659496 0.592487
O O1 0.763242 0.745289 0.142904
O O2 0.730337 0.767712 0.249269
O O3 0.894947 0.808490 0.214770
O O4 0.761339 0.000000 0.189537
O O5 0.846788 0.235403 0.943496
O O6 0.773442 0.000000 0.904793
O O7 0.662427 0.193828 0.951595
O O8 0.369275 0.500000 0.391838
O O9 0.401550 0.268293 0.326022
O O10 0.359790 0.239125 0.432588
O O11 0.522299 0.343782 0.401619
O O12 0.822406 0.790153 0.650969
O O13 0.941597 0.773214 0.736173
O O14 0.824030 0.000000 0.727065
O O15 0.114828 0.500000 0.026671
O O16 0.000000 0.715015 0.000000
O O17 0.035155 0.000000 0.712877
O O18 0.148333 0.500000 0.513241
O O19 0.164417 0.263512 0.458012
O O20 0.000000 0.331159 0.500000
O O21 0.329277 0.500000 0.577483
#
# Coordination Sequence:
#
# PCOD8106986 Si02
#       8
#     8   8   8   8   8   8   8   8
#     4  11  22  36  55  80 111 145 181 223 269 311
#     4  10  21  37  57  84 117 150 185 220 258 311
#     4   8  13  25  44  63  86 122 168 210 254 315
#     4   9  18  35  55  75 101 136 181 226 269 322
#     4   9  19  38  63  89 118 149 181 222 267 305
#     4   8  17  34  54  74 100 138 180 221 267 324
#     4   9  15  21  34  62  96 123 153 203 265 321
#     4   8  14  25  43  64  88 123 166 210 257 317
#
# _framework density 20.127597000000002
#
# number of rings (size 3 to 8) (size 9 to 14) (size 15 to 20)
#    0.000    3.000    0.000    2.625    0.000    3.750 
#    0.000    6.875    0.000    0.750    0.000    0.000 
#    0.000    0.000    0.000    0.000    0.000    0.000 
#
# Total GULP energy -396677.760224 kJ/mol
# GULP energy per Si atom -12396.180007 kJ/mol
# Density = 2.008179 g / cm^3
# Si number density = 20.127597 Si / 1000 Ang^3
#
#
#
# Elastic Constant Matrix: (Units=GPa)
#
#
# Indices 1 2 3 4 5 6 
#
# 1 53.9997 13.0805 14.8905 0.0000 2.4182 0.0000
# 2 13.0805 88.2929 39.8124 0.0000 1.6852 0.0000
# 3 14.8905 39.8124 91.3756 0.0000 6.7073 0.0000
# 4 0.0000 0.0000 0.0000 27.0201 0.0000 -6.9748
# 5 2.4182 1.6852 6.7073 0.0000 22.1497 0.0000
# 6 0.0000 0.0000 0.0000 -6.9748 0.0000 15.7704
#
#
#
# Elastic Compliance Matrix: (Units=1/GPa)
#
#
# Indices 1 2 3 4 5 6 
#
# 1 0.019660 -0.001850 -0.002302 0.000000 -0.001309 0.000000
# 2 -0.001850 0.014283 -0.005990 0.000000 0.000929 0.000000
# 3 -0.002302 -0.005990 0.014192 0.000000 -0.003591 0.000000
# 4 0.000000 0.000000 0.000000 0.041779 0.000000 0.018478
# 5 -0.001309 0.000929 -0.003591 0.000000 0.046307 0.000000
# 6 0.000000 0.000000 0.000000 0.018478 0.000000 0.071582
#
#
# Mechanical properties :
#
#
# Convention : Reuss Voigt Hill
#
# Bulk Modulus (GPa) = 35.90332 41.02612 38.46472
# Shear Modulus (GPa) = 21.06409 24.04703 22.55556
#
# Velocity S-wave (km/s) = 3.23852 3.46024 3.35121
# Velocity P-wave (km/s) = 5.64452 6.03254 5.84175
#
# Compressibility (1/GPa) = 0.02785257
#
# Stress axis : x y z
#
# Youngs Moduli (GPa) = 50.86464 70.01233 70.46053
#
# Poissons Ratio (x) = 0.12950 0.16219
# Poissons Ratio (y) = 0.09408 0.42206
# Poissons Ratio (z) = 0.11708 0.41937
#
# Static dielectric constant tensor:
#      x y z
#    x 3.480660 0.000000 0.040810 
#    y 0.000000 3.596980 0.000000 
#    z 0.040810 0.000000 3.704630 
# 
# 
# High freq. dielectric constant tensor:
#      x y z
#    x 1.777530 0.000000 0.003510 
#    y 0.000000 1.772220 0.000000 
#    z 0.003510 0.000000 1.786440 
# 
# From -- ./inp_files/338832.got.cif
#   From: 2010.06.25/outbox.cif.g09.slc.cpg/sg12_170_cif.got.tgz:338832.got - 2010.06.28 00:19:55.
