data_PCOD8106644
_publ_section_title
;
Structure prediction by ZEFSAII (Michael W. Deem and Ramdas Pophale) SiO2 
 PCOD8106644
Probable space group: C 2/M
;
_chemical_formula_sum "Si O2"
_cell_formula_units_Z 40
_cell_length_a 7.572889
_cell_length_b 22.628594
_cell_length_c 13.799231
_cell_angle_alpha 90.000000
_cell_angle_beta 124.521690
_cell_angle_gamma 90.000000
_cell_volume 1948.295026
_symmetry_space_group_name_H-M "C 2/M"
_symmetry_group_IT_number 12
_symmetry_cell_setting 'monoclinic'
loop_
_space_group_symop_operation_xyz
x,y,z
-x,y,-z
-x,-y,-z
x,-y,z
1/2+x,1/2+y,z
1/2-x,1/2+y,-z
1/2-x,1/2-y,-z
1/2+x,1/2-y,z
loop_
_atom_site_type_symbol
_atom_site_label
_atom_site_fract_x
_atom_site_fract_y
_atom_site_fract_z
Si Si1 0.754070 0.000000 0.514607
Si Si2 0.856901 0.114024 0.865251
Si Si3 0.695819 0.369147 0.505144
Si Si4 0.780991 0.500000 0.289602
Si Si5 0.977517 0.821205 0.262477
Si Si6 0.444696 0.815720 0.742813
O O1 0.830290 0.939509 0.488891
O O2 0.500934 0.000000 0.417593
O O3 0.862003 0.000000 0.656921
O O4 0.669758 0.156917 0.847584
O O5 0.014414 0.145958 0.837803
O O6 0.749172 0.056497 0.786302
O O7 0.000000 0.094177 0.000000
O O8 0.500000 0.337825 0.500000
O O9 0.674530 0.348561 0.387177
O O10 0.906535 0.344042 0.623749
O O11 0.744878 0.831221 0.239834
O O12 0.029108 0.753533 0.260025
#
# Coordination Sequence:
#
# PCOD8106644 Si02
#       6
#     4   8   8   4   8   8
#     4  11  19  36  68  90 127 169 206 271 333 386
#     4  12  26  45  68  91 131 179 222 268 314 376
#     4  10  21  36  63  97 131 166 206 268 335 388
#     4  11  23  42  66  98 125 167 220 272 328 385
#     4  11  23  42  65  98 132 168 215 268 327 389
#     4  11  23  42  65  98 132 168 215 268 327 389
#
# _framework density 20.53077
#
# number of rings (size 3 to 8) (size 9 to 14) (size 15 to 20)
#    0.000    1.000    6.000    1.200    0.000    2.400 
#    0.000    1.000    0.000    2.400    0.000    0.000 
#    0.000    0.000    0.000    0.000    0.000    0.000 
#
# Total GULP energy -247832.596026 kJ/mol
# GULP energy per Si atom -12391.629801 kJ/mol
# Density = 2.048404 g / cm^3
# Si number density = 20.530770 Si / 1000 Ang^3
#
#
#
# Elastic Constant Matrix: (Units=GPa)
#
#
# Indices 1 2 3 4 5 6 
#
# 1 102.8490 22.6364 33.2196 0.0000 -5.9673 0.0000
# 2 22.6364 131.4325 38.0814 0.0000 -5.8088 0.0000
# 3 33.2196 38.0814 124.0666 0.0000 -8.2029 0.0000
# 4 0.0000 0.0000 0.0000 38.8220 0.0000 -1.7933
# 5 -5.9673 -5.8088 -8.2029 0.0000 24.5982 0.0000
# 6 0.0000 0.0000 0.0000 -1.7933 0.0000 26.7962
#
#
#
# Elastic Compliance Matrix: (Units=1/GPa)
#
#
# Indices 1 2 3 4 5 6 
#
# 1 0.010849 -0.001084 -0.002469 0.000000 0.001552 0.000000
# 2 -0.001084 0.008491 -0.002250 0.000000 0.000992 0.000000
# 3 -0.002469 -0.002250 0.009548 0.000000 0.002054 0.000000
# 4 0.000000 0.000000 0.000000 0.025838 0.000000 0.001729
# 5 0.001552 0.000992 0.002054 0.000000 0.041949 0.000000
# 6 0.000000 0.000000 0.000000 0.001729 0.000000 0.037434
#
#
# Mechanical properties :
#
#
# Convention : Reuss Voigt Hill
#
# Bulk Modulus (GPa) = 57.87107 60.69144 59.28125
# Shear Modulus (GPa) = 33.00795 35.67066 34.33930
#
# Velocity S-wave (km/s) = 4.01400 4.17276 4.09415
# Velocity P-wave (km/s) = 7.05206 7.26920 7.16146
#
# Compressibility (1/GPa) = 0.01727979
#
# Stress axis : x y z
#
# Youngs Moduli (GPa) = 92.17121 117.77060 104.73494
#
# Poissons Ratio (x) = 0.12772 0.25864
# Poissons Ratio (y) = 0.09995 0.23569
# Poissons Ratio (z) = 0.22762 0.26503
#
# Static dielectric constant tensor:
#      x y z
#    x 3.697840 0.000000 -0.037190 
#    y 0.000000 3.695940 0.000000 
#    z -0.037190 0.000000 3.652350 
# 
# 
# High freq. dielectric constant tensor:
#      x y z
#    x 1.799830 0.000000 -0.003890 
#    y 0.000000 1.813910 0.000000 
#    z -0.003890 0.000000 1.791240 
# 
# From -- ./inp_files/196408.got.cif
#   From: 2010.06.25/outbox.cif.g09.slc.cpg/sg12_99_cif.got.tgz:196408.got - 2010.06.28 00:19:55.
