data_PCOD8106985
_publ_section_title
;
Structure prediction by ZEFSAII (Michael W. Deem and Ramdas Pophale) SiO2 
 PCOD8106985
Probable space group: C 2/M
;
_chemical_formula_sum "Si O2"
_cell_formula_units_Z 56
_cell_length_a 15.920570
_cell_length_b 8.713009
_cell_length_c 19.242491
_cell_angle_alpha 90.000000
_cell_angle_beta 90.512235
_cell_angle_gamma 90.000000
_cell_volume 2669.136051
_symmetry_space_group_name_H-M "C 2/M"
_symmetry_group_IT_number 12
_symmetry_cell_setting 'monoclinic'
loop_
_space_group_symop_operation_xyz
x,y,z
-x,y,-z
-x,-y,-z
x,-y,z
1/2+x,1/2+y,z
1/2-x,1/2+y,-z
1/2-x,1/2-y,-z
1/2+x,1/2-y,z
loop_
_atom_site_type_symbol
_atom_site_label
_atom_site_fract_x
_atom_site_fract_y
_atom_site_fract_z
Si Si1 0.501887 0.182481 0.421405
Si Si2 0.417622 0.680023 0.209307
Si Si3 0.168403 0.677331 0.346535
Si Si4 0.339877 0.181312 0.335395
Si Si5 0.150040 0.322185 0.926675
Si Si6 0.411334 0.824233 0.797184
Si Si7 0.844638 0.177241 0.932281
O O1 0.500000 0.244318 0.500000
O O2 0.586797 0.245266 0.385622
O O3 0.417539 0.241673 0.382676
O O4 0.502761 0.000000 0.418713
O O5 0.431575 0.500000 0.216842
O O6 0.344146 0.737164 0.260040
O O7 0.397840 0.719836 0.129613
O O8 0.500122 0.772015 0.234124
O O9 0.180857 0.500000 0.366649
O O10 0.251691 0.769717 0.370022
O O11 0.157087 0.697371 0.263595
O O12 0.341986 0.000000 0.325510
O O13 0.130361 0.500000 0.913165
O O14 0.247712 0.282275 0.920116
O O15 0.118518 0.275157 0.003243
O O16 0.393023 0.717976 0.862725
O O17 0.415341 0.000000 0.821814
O O18 0.857911 0.000000 0.950132
#
# Coordination Sequence:
#
# PCOD8106985 Si02
#       7
#     8   8   8   8   8   8   8
#     4   9  19  39  65  92 127 168 206 248 303 367
#     4  12  24  38  59  86 118 156 202 257 309 362
#     4  10  21  39  63  92 125 165 209 254 306 366
#     4  11  22  39  63  93 125 164 209 254 306 367
#     4  10  21  38  59  83 115 155 199 250 306 367
#     4  11  22  38  59  84 117 158 204 253 308 367
#     4  10  21  37  57  84 116 153 199 252 306 364
#
# _framework density 20.980571999999999
#
# number of rings (size 3 to 8) (size 9 to 14) (size 15 to 20)
#    0.000    1.571    1.429    3.857    0.000    6.286 
#    0.000    2.857    0.000    3.000    0.000    0.000 
#    0.000    0.000    0.000    0.000    0.000    0.000 
#
# Total GULP energy -347315.898485 kJ/mol
# GULP energy per Si atom -12404.139232 kJ/mol
# Density = 2.093282 g / cm^3
# Si number density = 20.980572 Si / 1000 Ang^3
#
#
#
# Elastic Constant Matrix: (Units=GPa)
#
#
# Indices 1 2 3 4 5 6 
#
# 1 127.1484 29.1524 44.9592 0.0000 -1.9873 0.0000
# 2 29.1524 60.1861 23.0876 0.0000 8.7832 0.0000
# 3 44.9592 23.0876 106.3158 0.0000 -4.4117 0.0000
# 4 0.0000 0.0000 0.0000 18.1744 0.0000 -2.5973
# 5 -1.9873 8.7832 -4.4117 0.0000 26.9427 0.0000
# 6 0.0000 0.0000 0.0000 -2.5973 0.0000 35.0373
#
#
#
# Elastic Compliance Matrix: (Units=1/GPa)
#
#
# Indices 1 2 3 4 5 6 
#
# 1 0.009919 -0.003734 -0.003325 0.000000 0.001404 0.000000
# 2 -0.003734 0.020775 -0.003247 0.000000 -0.007580 0.000000
# 3 -0.003325 -0.003247 0.011630 0.000000 0.002718 0.000000
# 4 0.000000 0.000000 0.000000 0.055612 0.000000 0.004122
# 5 0.001404 -0.007580 0.002718 0.000000 0.040135 0.000000
# 6 0.000000 0.000000 0.000000 0.004122 0.000000 0.028847
#
#
# Mechanical properties :
#
#
# Convention : Reuss Voigt Hill
#
# Bulk Modulus (GPa) = 46.05807 54.22762 50.14284
# Shear Modulus (GPa) = 25.67162 29.12759 27.39961
#
# Velocity S-wave (km/s) = 3.50178 3.73005 3.61772
# Velocity P-wave (km/s) = 6.19276 6.66736 6.43444
#
# Compressibility (1/GPa) = 0.02171172
#
# Stress axis : x y z
#
# Youngs Moduli (GPa) = 100.82019 48.13389 85.98349
#
# Poissons Ratio (x) = 0.17971 0.28593
# Poissons Ratio (y) = 0.37642 0.27921
# Poissons Ratio (z) = 0.33526 0.15630
#
# Static dielectric constant tensor:
#      x y z
#    x 3.882830 0.000000 -0.022570 
#    y 0.000000 3.533220 0.000000 
#    z -0.022570 0.000000 3.754510 
# 
# 
# High freq. dielectric constant tensor:
#      x y z
#    x 1.827220 0.000000 -0.001590 
#    y 0.000000 1.807820 0.000000 
#    z -0.001590 0.000000 1.820030 
# 
# From -- ./inp_files/308971.got.cif
#   From: 2010.06.25/outbox.cif.g09.slc.cpg/sg12_155_cif.got.tgz:308971.got - 2010.06.28 00:19:55.
