data_PCOD8106784
_publ_section_title
;
Structure prediction by ZEFSAII (Michael W. Deem and Ramdas Pophale) SiO2 
 PCOD8106784
Probable space group: C 2/M
;
_chemical_formula_sum "Si O2"
_cell_formula_units_Z 56
_cell_length_a 15.642317
_cell_length_b 9.312562
_cell_length_c 23.157586
_cell_angle_alpha 90.000000
_cell_angle_beta 58.752185
_cell_angle_gamma 90.000000
_cell_volume 2883.997919
_symmetry_space_group_name_H-M "C 2/M"
_symmetry_group_IT_number 12
_symmetry_cell_setting 'monoclinic'
loop_
_space_group_symop_operation_xyz
x,y,z
-x,y,-z
-x,-y,-z
x,-y,z
1/2+x,1/2+y,z
1/2-x,1/2+y,-z
1/2-x,1/2-y,-z
1/2+x,1/2-y,z
loop_
_atom_site_type_symbol
_atom_site_label
_atom_site_fract_x
_atom_site_fract_y
_atom_site_fract_z
Si Si1 0.565760 0.333153 0.921603
Si Si2 0.472239 0.332935 0.833235
Si Si3 0.760705 0.668449 0.436930
Si Si4 0.930272 0.342286 0.293640
Si Si5 0.229421 0.169788 0.161538
Si Si6 0.897628 0.338758 0.569919
Si Si7 0.367436 0.843544 0.710841
O O1 0.596283 0.500000 0.908116
O O2 0.496133 0.291359 0.891041
O O3 0.666733 0.241722 0.893335
O O4 0.500000 0.297028 0.000000
O O5 0.484217 0.500000 0.817470
O O6 0.560622 0.258654 0.765271
O O7 0.359356 0.287153 0.852986
O O8 0.766020 0.500000 0.447786
O O9 0.750000 0.750000 0.500000
O O10 0.857173 0.723525 0.367691
O O11 0.666930 0.709407 0.431509
O O12 0.890385 0.500000 0.288581
O O13 0.038329 0.357324 0.281870
O O14 0.205024 0.225428 0.235118
O O15 0.243842 0.000000 0.158910
O O16 0.852017 0.500000 0.577890
O O17 0.907715 0.300414 0.633756
O O18 0.000000 0.332390 0.500000
O O19 0.313002 0.000000 0.727980
#
# Coordination Sequence:
#
# PCOD8106784 Si02
#       7
#     8   8   8   8   8   8   8
#     4  10  22  40  61  86 118 156 197 238 287 355
#     4   9  20  38  59  85 117 153 192 237 290 346
#     4  11  23  37  54  79 111 146 188 236 287 341
#     4   9  19  36  57  81 109 143 185 233 280 335
#     4  10  21  37  58  86 119 150 190 243 293 341
#     4  10  21  37  56  78 108 147 189 234 285 342
#     4   9  18  35  58  80 107 146 187 227 280 343
#
# _framework density 19.417489
#
# number of rings (size 3 to 8) (size 9 to 14) (size 15 to 20)
#    0.000    2.286    0.000    1.714    2.000    6.286 
#    0.000    2.857    0.000    0.000    0.000    0.000 
#    0.000    0.000    0.000    0.000    0.000    0.000 
#
# Total GULP energy -347026.972498 kJ/mol
# GULP energy per Si atom -12393.820446 kJ/mol
# Density = 1.937329 g / cm^3
# Si number density = 19.417489 Si / 1000 Ang^3
#
#
#
# Elastic Constant Matrix: (Units=GPa)
#
#
# Indices 1 2 3 4 5 6 
#
# 1 74.9239 51.5603 60.7301 0.0000 0.8974 0.0000
# 2 51.5603 79.4645 71.0630 0.0000 -2.2220 0.0001
# 3 60.7301 71.0630 173.0206 0.0000 5.4662 0.0000
# 4 0.0000 0.0000 0.0000 31.1599 0.0000 -4.2992
# 5 0.8974 -2.2220 5.4662 0.0000 33.9239 0.0000
# 6 0.0000 0.0001 0.0000 -4.2992 0.0000 29.3849
#
#
#
# Elastic Compliance Matrix: (Units=1/GPa)
#
#
# Indices 1 2 3 4 5 6 
#
# 1 0.025341 -0.013506 -0.003315 0.000000 -0.001021 0.000000
# 2 -0.013506 0.027325 -0.006584 0.000000 0.003208 0.000000
# 3 -0.003315 -0.006584 0.009708 0.000000 -0.001908 0.000000
# 4 0.000000 0.000000 0.000000 0.032754 0.000000 0.004792
# 5 -0.001021 0.003208 -0.001908 0.000000 0.030022 0.000000
# 6 0.000000 0.000000 0.000000 0.004792 0.000000 0.034732
#
#
# Mechanical properties :
#
#
# Convention : Reuss Voigt Hill
#
# Bulk Modulus (GPa) = 64.25303 77.12398 70.68851
# Shear Modulus (GPa) = 23.59843 28.49746 26.04795
#
# Velocity S-wave (km/s) = 3.48992 3.83511 3.66658
# Velocity P-wave (km/s) = 7.02862 7.70816 7.37622
#
# Compressibility (1/GPa) = 0.01556347
#
# Stress axis : x y z
#
# Youngs Moduli (GPa) = 39.46229 36.59669 103.01311
#
# Poissons Ratio (x) = 0.49428 0.34149
# Poissons Ratio (y) = 0.53298 0.67819
# Poissons Ratio (z) = 0.13082 0.24094
#
# Static dielectric constant tensor:
#      x y z
#    x 3.541630 0.000000 0.019810 
#    y 0.000000 3.824860 0.000000 
#    z 0.019810 0.000000 3.534610 
# 
# 
# High freq. dielectric constant tensor:
#      x y z
#    x 1.750220 0.000000 0.002950 
#    y 0.000000 1.753100 0.000000 
#    z 0.002950 0.000000 1.762320 
# 
# From -- ./inp_files/338446.got.cif
#   From: 2010.06.25/outbox.cif.g09.slc.cpg/sg12_170_cif.got.tgz:338446.got - 2010.06.28 00:19:55.
