data_PCOD8106769
_publ_section_title
;
Structure prediction by ZEFSAII (Michael W. Deem and Ramdas Pophale) SiO2 
 PCOD8106769
Probable space group: C 2/M
;
_chemical_formula_sum "Si O2"
_cell_formula_units_Z 56
_cell_length_a 17.820481
_cell_length_b 21.740286
_cell_length_c 14.374526
_cell_angle_alpha 90.000000
_cell_angle_beta 150.301213
_cell_angle_gamma 90.000000
_cell_volume 2759.113201
_symmetry_space_group_name_H-M "C 2/M"
_symmetry_group_IT_number 12
_symmetry_cell_setting 'monoclinic'
loop_
_space_group_symop_operation_xyz
x,y,z
-x,y,-z
-x,-y,-z
x,-y,z
1/2+x,1/2+y,z
1/2-x,1/2+y,-z
1/2-x,1/2-y,-z
1/2+x,1/2-y,z
loop_
_atom_site_type_symbol
_atom_site_label
_atom_site_fract_x
_atom_site_fract_y
_atom_site_fract_z
Si Si1 0.677620 0.568589 0.466658
Si Si2 0.360742 0.292333 0.005970
Si Si3 0.199364 0.331807 0.997080
Si Si4 0.020755 0.829426 0.418529
Si Si5 0.844911 0.706821 0.382377
Si Si6 0.992845 0.571310 0.100727
Si Si7 0.893065 0.122004 0.797133
O O1 0.638753 0.500000 0.459754
O O2 0.575590 0.616166 0.412156
O O3 0.642251 0.569675 0.317553
O O4 0.851100 0.583752 0.678050
O O5 0.406318 0.228568 0.106888
O O6 0.287603 0.274126 0.830135
O O7 0.243320 0.338438 0.935035
O O8 0.520510 0.324433 0.163836
O O9 0.355373 0.309030 0.210402
O O10 0.133042 0.391873 0.975569
O O11 0.125823 0.768358 0.525149
O O12 0.000000 0.855177 0.500000
O O13 0.774546 0.648061 0.359697
O O14 0.000000 0.685612 0.500000
O O15 0.944843 0.500000 0.052043
O O16 0.000000 0.593266 0.000000
O O17 0.000000 0.099078 0.000000
#
# Coordination Sequence:
#
# PCOD8106769 Si02
#       7
#     8   8   8   8   8   8   8
#     4  11  25  43  63  89 123 166 217 256 301 366
#     4  10  21  37  55  95 122 158 199 249 314 377
#     4  11  21  36  60  83 128 157 203 254 302 369
#     4  11  21  38  60  94 124 160 200 250 313 370
#     4  10  21  37  60  92 126 152 196 254 306 378
#     4  10  24  42  60  87 122 169 217 257 304 364
#     4  10  23  41  65  94 125 163 206 252 323 366
#
# _framework density 20.296375999999999
#
# number of rings (size 3 to 8) (size 9 to 14) (size 15 to 20)
#    0.000    1.571    4.286    0.857    4.000    2.286 
#    0.000    0.000    0.000    0.429    0.000    0.000 
#    0.000    0.000    0.000    0.000    0.000    0.000 
#
# Total GULP energy -346871.179968 kJ/mol
# GULP energy per Si atom -12388.256427 kJ/mol
# Density = 2.025018 g / cm^3
# Si number density = 20.296376 Si / 1000 Ang^3
#
#
#
# Elastic Constant Matrix: (Units=GPa)
#
#
# Indices 1 2 3 4 5 6 
#
# 1 73.7706 33.8704 19.7359 0.0000 -5.9354 0.0000
# 2 33.8704 62.9133 26.4685 0.0000 0.0537 0.0000
# 3 19.7359 26.4685 87.8485 0.0000 -13.3327 0.0000
# 4 0.0000 0.0000 0.0000 -28.2964 0.0000 -83.5492
# 5 -5.9354 0.0537 -13.3327 0.0000 38.8394 0.0000
# 6 0.0000 0.0000 0.0000 -83.5492 0.0000 -94.2369
#
#
#
# Elastic Compliance Matrix: (Units=1/GPa)
#
#
# Indices 1 2 3 4 5 6 
#
# 1 0.018363 -0.009520 -0.000875 0.000000 0.002519 0.000000
# 2 -0.009520 0.023288 -0.005384 0.000000 -0.003335 0.000000
# 3 -0.000875 -0.005384 0.013907 0.000000 0.004648 0.000000
# 4 0.000000 0.000000 0.000000 0.021845 0.000000 -0.019367
# 5 0.002519 -0.003335 0.004648 0.000000 0.027732 0.000000
# 6 0.000000 0.000000 0.000000 -0.019367 0.000000 0.006559
#
#
# Mechanical properties :
#
#
# Convention : Reuss Voigt Hill
#
# Bulk Modulus (GPa) = 41.66533 42.74244 42.20388
# Shear Modulus (GPa) = 33.05698 -7.10828 12.97435
#
# Velocity S-wave (km/s) = 4.04011 -1.87346 2.53107
# Velocity P-wave (km/s) = 6.50664 4.05279 5.42040
#
# Compressibility (1/GPa) = 0.02400077
#
# Stress axis : x y z
#
# Youngs Moduli (GPa) = 54.45638 42.93995 71.90446
#
# Poissons Ratio (x) = 0.40880 0.06289
# Poissons Ratio (y) = 0.51844 0.38714
# Poissons Ratio (z) = 0.04763 0.23119
#
# Static dielectric constant tensor:
#      x y z
#    x 2.407080 0.000000 -0.345930 
#    y 0.000000 3.445670 0.000000 
#    z -0.345930 0.000000 3.840670 
# 
# 
# High freq. dielectric constant tensor:
#      x y z
#    x 1.797630 0.000000 -0.010730 
#    y 0.000000 1.766610 0.000000 
#    z -0.010730 0.000000 1.802020 
# 
# From -- ./inp_files/77623.got.cif
#   From: 2010.06.25/outbox.cif.g09.slc.cpg/sg12_39_cif.got.tgz:77623.got - 2010.06.28 00:19:55.
