data_PCOD8106525
_publ_section_title
;
Structure prediction by ZEFSAII (Michael W. Deem and Ramdas Pophale) SiO2 
 PCOD8106525
Probable space group: C 2/M
;
_chemical_formula_sum "Si O2"
_cell_formula_units_Z 48
_cell_length_a 10.307145
_cell_length_b 17.909281
_cell_length_c 20.862171
_cell_angle_alpha 90.000000
_cell_angle_beta 143.074967
_cell_angle_gamma 90.000000
_cell_volume 2313.576980
_symmetry_space_group_name_H-M "C 2/M"
_symmetry_group_IT_number 12
_symmetry_cell_setting 'monoclinic'
loop_
_space_group_symop_operation_xyz
x,y,z
-x,y,-z
-x,-y,-z
x,-y,z
1/2+x,1/2+y,z
1/2-x,1/2+y,-z
1/2-x,1/2-y,-z
1/2+x,1/2-y,z
loop_
_atom_site_type_symbol
_atom_site_label
_atom_site_fract_x
_atom_site_fract_y
_atom_site_fract_z
Si Si1 0.474504 0.415096 0.837259
Si Si2 0.792917 0.916091 0.946463
Si Si3 0.839377 0.291914 0.258001
Si Si4 0.802474 0.786935 0.375860
Si Si5 0.673426 0.914834 0.246367
Si Si6 0.294653 0.846604 0.872363
O O1 0.410400 0.500000 0.791105
O O2 0.266187 0.375069 0.788350
O O3 0.566745 0.363507 0.816940
O O4 0.678203 0.418945 0.965899
O O5 0.567133 0.878477 0.837161
O O6 0.788089 0.000000 0.915532
O O7 0.000000 0.871767 0.000000
O O8 0.808799 0.272737 0.321107
O O9 0.704747 0.235084 0.159946
O O10 0.088104 0.288055 0.334979
O O11 0.835022 0.867607 0.354304
O O12 0.000000 0.769747 0.500000
O O13 0.708376 0.909107 0.184306
O O14 0.693086 0.000000 0.275340
O O15 0.500000 0.853635 0.000000
#
# Coordination Sequence:
#
# PCOD8106525 Si02
#       6
#     8   8   8   8   8   8
#     4  11  22  38  64  94 131 172 209 254 313 385
#     4   9  17  30  51  84 123 160 197 247 306 367
#     4  11  24  43  65  96 127 166 213 270 323 380
#     4  11  24  43  67  89 120 168 219 273 328 382
#     4  10  21  36  59  91 125 161 209 262 314 373
#     4  11  22  38  64  94 132 173 210 252 311 388
#
# _framework density 20.747095000000002
#
# number of rings (size 3 to 8) (size 9 to 14) (size 15 to 20)
#    0.000    1.500    3.333    2.000    0.000    5.667 
#    0.000    0.000    0.000    0.500    0.000    0.000 
#    0.000    0.000    0.000    0.000    0.000    0.000 
#
# Total GULP energy -297365.067371 kJ/mol
# GULP energy per Si atom -12390.211140 kJ/mol
# Density = 2.069987 g / cm^3
# Si number density = 20.747095 Si / 1000 Ang^3
#
#
#
# Elastic Constant Matrix: (Units=GPa)
#
#
# Indices 1 2 3 4 5 6 
#
# 1 104.9098 18.9054 21.1735 -0.0003 9.5438 -0.0001
# 2 18.9054 100.2845 25.9852 -0.0003 -2.0428 -0.0001
# 3 21.1735 25.9852 62.4305 -0.0006 -3.2417 -0.0001
# 4 -0.0003 -0.0003 -0.0006 15.1246 -0.0002 5.8042
# 5 9.5438 -2.0428 -3.2417 -0.0002 29.9781 -0.0001
# 6 -0.0001 -0.0001 -0.0001 5.8042 -0.0001 25.6342
#
#
#
# Elastic Compliance Matrix: (Units=1/GPa)
#
#
# Indices 1 2 3 4 5 6 
#
# 1 0.010784 -0.001247 -0.003340 0.000000 -0.003879 0.000000
# 2 -0.001247 0.011323 -0.004253 0.000000 0.000708 0.000000
# 3 -0.003340 -0.004253 0.019068 0.000001 0.002835 0.000000
# 4 0.000000 0.000000 0.000001 0.072409 0.000001 -0.016395
# 5 -0.003879 0.000708 0.002835 0.000001 0.034947 0.000000
# 6 0.000000 0.000000 0.000000 -0.016395 0.000000 0.042723
#
#
# Mechanical properties :
#
#
# Convention : Reuss Voigt Hill
#
# Bulk Modulus (GPa) = 42.56179 44.41700 43.48939
# Shear Modulus (GPa) = 23.06634 27.58475 25.32555
#
# Velocity S-wave (km/s) = 3.33796 3.65029 3.49761
# Velocity P-wave (km/s) = 5.95106 6.26270 6.10887
#
# Compressibility (1/GPa) = 0.02349525
#
# Stress axis : x y z
#
# Youngs Moduli (GPa) = 92.73343 88.31434 52.44335
#
# Poissons Ratio (x) = 0.11008 0.17516
# Poissons Ratio (y) = 0.11559 0.22307
# Poissons Ratio (z) = 0.30972 0.37564
#
# Static dielectric constant tensor:
#      x y z
#    x 4.043450 0.000000 0.050080 
#    y 0.000000 3.555320 0.000000 
#    z 0.050080 0.000000 3.455400 
# 
# 
# High freq. dielectric constant tensor:
#      x y z
#    x 1.835460 0.000000 -0.002210 
#    y 0.000000 1.801950 0.000000 
#    z -0.002210 0.000000 1.778060 
# 
# From -- ./inp_files/336490.got.cif
#   From: 2010.06.25/outbox.cif.g09.slc.cpg/sg12_169_cif.got.tgz:336490.got - 2010.06.28 00:19:55.
