data_PCOD8106885
_publ_section_title
;
Structure prediction by ZEFSAII (Michael W. Deem and Ramdas Pophale) SiO2 
 PCOD8106885
Probable space group: C 2/M
;
_chemical_formula_sum "Si O2"
_cell_formula_units_Z 40
_cell_length_a 30.001518
_cell_length_b 13.291036
_cell_length_c 5.066026
_cell_angle_alpha 90.000000
_cell_angle_beta 98.089523
_cell_angle_gamma 90.000000
_cell_volume 1999.983192
_symmetry_space_group_name_H-M "C 2/M"
_symmetry_group_IT_number 12
_symmetry_cell_setting 'monoclinic'
loop_
_space_group_symop_operation_xyz
x,y,z
-x,y,-z
-x,-y,-z
x,-y,z
1/2+x,1/2+y,z
1/2-x,1/2+y,-z
1/2-x,1/2-y,-z
1/2+x,1/2-y,z
loop_
_atom_site_type_symbol
_atom_site_label
_atom_site_fract_x
_atom_site_fract_y
_atom_site_fract_z
Si Si1 0.450546 0.115545 0.361512
Si Si2 0.910396 0.710686 0.812788
Si Si3 0.470292 0.387608 0.717173
Si Si4 0.739207 0.116360 0.740083
Si Si5 0.305843 0.205249 0.798971
O O1 0.500000 0.147343 0.500000
O O2 0.416405 0.132445 0.576871
O O3 0.448465 0.000000 0.273040
O O4 0.438853 0.179739 0.093275
O O5 0.926751 0.818567 0.720350
O O6 0.858852 0.719626 0.848435
O O7 0.500000 0.345478 0.500000
O O8 0.452862 0.500000 0.636468
O O9 0.500000 0.387694 0.000000
O O10 0.709648 0.140513 0.461538
O O11 0.784234 0.183553 0.783458
O O12 0.753956 0.000000 0.753729
O O13 0.707819 0.140575 0.960509
#
# Coordination Sequence:
#
# PCOD8106885 Si02
#       5
#     8   8   8   8   8
#     4  11  24  39  56  82 117 157 194 229 279 335
#     4  12  22  37  60  85 116 147 189 243 281 324
#     4  10  21  37  57  81 110 148 189 227 277 332
#     4  10  21  41  61  80 117 152 179 231 291 340
#     4  10  23  37  58  91 111 143 196 229 278 352
#
# _framework density 20.000167999999999
#
# number of rings (size 3 to 8) (size 9 to 14) (size 15 to 20)
#    0.000    1.400    0.000    6.000    0.000    7.200 
#    0.000    0.000    0.000    9.600    0.000    0.000 
#    0.000    0.000    0.000    0.000    0.000    0.000 
#
# Total GULP energy -248091.543998 kJ/mol
# GULP energy per Si atom -12404.577200 kJ/mol
# Density = 1.995465 g / cm^3
# Si number density = 20.000168 Si / 1000 Ang^3
#
#
#
# Elastic Constant Matrix: (Units=GPa)
#
#
# Indices 1 2 3 4 5 6 
#
# 1 125.2769 59.5046 40.2503 0.0000 -11.3188 0.0000
# 2 59.5046 142.3539 46.8586 0.0000 -0.7285 0.0000
# 3 40.2503 46.8586 147.2239 0.0000 -16.7043 0.0000
# 4 0.0000 0.0000 0.0000 22.1365 0.0000 -6.6167
# 5 -11.3188 -0.7285 -16.7043 0.0000 30.5667 0.0000
# 6 0.0000 0.0000 0.0000 -6.6167 0.0000 17.5439
#
#
#
# Elastic Compliance Matrix: (Units=1/GPa)
#
#
# Indices 1 2 3 4 5 6 
#
# 1 0.010563 -0.003983 -0.001266 0.000000 0.003125 0.000000
# 2 -0.003983 0.009394 -0.002178 0.000000 -0.002441 0.000000
# 3 -0.001266 -0.002178 0.008286 0.000000 0.004008 0.000000
# 4 0.000000 0.000000 0.000000 0.050914 0.000000 0.019202
# 5 0.003125 -0.002441 0.004008 0.000000 0.036004 0.000000
# 6 0.000000 0.000000 0.000000 0.019202 0.000000 0.064242
#
#
# Mechanical properties :
#
#
# Convention : Reuss Voigt Hill
#
# Bulk Modulus (GPa) = 74.68035 78.67574 76.67805
# Shear Modulus (GPa) = 25.16099 31.93217 28.54658
#
# Velocity S-wave (km/s) = 3.55073 4.00008 3.78208
# Velocity P-wave (km/s) = 7.36418 7.79468 7.58249
#
# Compressibility (1/GPa) = 0.01339040
#
# Stress axis : x y z
#
# Youngs Moduli (GPa) = 94.66939 106.45061 120.68013
#
# Poissons Ratio (x) = 0.42397 0.15274
# Poissons Ratio (y) = 0.37705 0.26285
# Poissons Ratio (z) = 0.11982 0.23185
#
# Static dielectric constant tensor:
#      x y z
#    x 3.435320 0.000000 -0.170010 
#    y 0.000000 3.819280 0.000000 
#    z -0.170010 0.000000 3.821660 
# 
# 
# High freq. dielectric constant tensor:
#      x y z
#    x 1.766470 0.000000 -0.013740 
#    y 0.000000 1.791660 0.000000 
#    z -0.013740 0.000000 1.801970 
# 
# From -- ./inp_files/30652.got.cif
#   From: 2010.06.25/outbox.cif.g09.slc.cpg/sg12_16_cif.got.tgz:30652.got - 2010.06.28 00:19:55.
