data_PCOD8106065
_publ_section_title
;
Structure prediction by ZEFSAII (Michael W. Deem and Ramdas Pophale) SiO2 
 PCOD8106065
Probable space group: C 2/M
;
_chemical_formula_sum "Si O2"
_cell_formula_units_Z 48
_cell_length_a 28.730952
_cell_length_b 14.080548
_cell_length_c 13.680361
_cell_angle_alpha 90.000000
_cell_angle_beta 29.072291
_cell_angle_gamma 90.000000
_cell_volume 2689.214422
_symmetry_space_group_name_H-M "C 2/M"
_symmetry_group_IT_number 12
_symmetry_cell_setting 'monoclinic'
loop_
_space_group_symop_operation_xyz
x,y,z
-x,y,-z
-x,-y,-z
x,-y,z
1/2+x,1/2+y,z
1/2-x,1/2+y,-z
1/2-x,1/2-y,-z
1/2+x,1/2-y,z
loop_
_atom_site_type_symbol
_atom_site_label
_atom_site_fract_x
_atom_site_fract_y
_atom_site_fract_z
Si Si1 0.279829 0.268394 0.254984
Si Si2 0.172460 0.739301 0.267446
Si Si3 0.906813 0.392780 0.958808
Si Si4 0.547412 0.389442 0.016261
Si Si5 0.430021 0.248064 0.355763
Si Si6 0.698535 0.892450 0.049145
O O1 0.261031 0.294285 0.174914
O O2 0.176108 0.259909 0.499180
O O3 0.333237 0.166395 0.161547
O O4 0.344180 0.349948 0.185441
O O5 0.081290 0.759928 0.505392
O O6 0.203426 0.836047 0.155482
O O7 0.148011 0.656600 0.235408
O O8 0.909854 0.500000 0.993517
O O9 0.012261 0.347659 0.774649
O O10 0.876011 0.390290 0.902597
O O11 0.549776 0.500000 0.035670
O O12 0.486258 0.339403 0.213352
O O13 0.500000 0.366656 0.000000
O O14 0.726880 0.000000 0.023580
#
# Coordination Sequence:
#
# PCOD8106065 Si02
#       6
#     8   8   8   8   8   8
#     4   8  18  35  51  70 102 136 158 204 253 297
#     4   8  17  31  46  72  99 135 170 195 243 294
#     4   9  17  30  50  76 101 132 172 207 238 283
#     4  10  21  36  55  78  99 124 165 210 252 303
#     4   9  19  34  52  73 101 136 162 202 251 300
#     4   9  16  28  48  72 102 132 168 210 236 272
#
# _framework density 17.849077999999999
#
# number of rings (size 3 to 8) (size 9 to 14) (size 15 to 20)
#    1.000    2.167    0.000    0.000    0.000    4.667 
#    0.000    1.667    0.000    8.000    0.000    9.333 
#    0.000    0.000    0.000    0.000    0.000    0.000 
#
# Total GULP energy -297391.409691 kJ/mol
# GULP energy per Si atom -12391.308737 kJ/mol
# Density = 1.780845 g / cm^3
# Si number density = 17.849078 Si / 1000 Ang^3
#
#
#
# Elastic Constant Matrix: (Units=GPa)
#
#
# Indices 1 2 3 4 5 6 
#
# 1 30.4691 40.5917 9.6351 0.0000 -7.4244 0.0000
# 2 40.5917 137.7983 45.7733 0.0000 -10.5038 0.0000
# 3 9.6351 45.7733 89.5682 0.0000 -22.4234 0.0000
# 4 0.0000 0.0000 0.0000 14.5578 0.0000 -0.1946
# 5 -7.4244 -10.5038 -22.4234 0.0000 23.9987 0.0000
# 6 0.0000 0.0000 0.0000 -0.1946 0.0000 26.6941
#
#
#
# Elastic Compliance Matrix: (Units=1/GPa)
#
#
# Indices 1 2 3 4 5 6 
#
# 1 0.059601 -0.018725 0.007470 0.000000 0.017222 0.000000
# 2 -0.018725 0.014628 -0.006929 0.000000 -0.005865 0.000000
# 3 0.007470 -0.006929 0.017911 0.000000 0.016014 0.000000
# 4 0.000000 0.000000 0.000000 0.068698 0.000000 0.000501
# 5 0.017222 -0.005865 0.016014 0.000000 0.059392 0.000000
# 6 0.000000 0.000000 0.000000 0.000501 0.000000 0.037465
#
#
# Mechanical properties :
#
#
# Convention : Reuss Voigt Hill
#
# Bulk Modulus (GPa) = 17.93089 49.98177 33.95633
# Shear Modulus (GPa) = 15.99201 23.83915 19.91558
#
# Velocity S-wave (km/s) = 2.99650 3.65854 3.34395
# Velocity P-wave (km/s) = 4.69464 6.77568 5.82879
#
# Compressibility (1/GPa) = 0.05576968
#
# Stress axis : x y z
#
# Youngs Moduli (GPa) = 16.77824 68.36361 55.83037
#
# Poissons Ratio (x) = 1.28013 -0.41703
# Poissons Ratio (y) = 0.31418 0.38687
# Poissons Ratio (z) = -0.12533 0.47372
#
# Static dielectric constant tensor:
#      x y z
#    x 3.114990 0.000000 -0.052640 
#    y 0.000000 3.269500 0.000000 
#    z -0.052640 0.000000 3.167940 
# 
# 
# High freq. dielectric constant tensor:
#      x y z
#    x 1.670370 0.000000 -0.003690 
#    y 0.000000 1.685960 0.000000 
#    z -0.003690 0.000000 1.680560 
# 
# From -- ./inp_files/251054.got.cif
#   From: 2010.06.25/outbox.cif.g09.slc.cpg/sg12_126_cif.got.tgz:251054.got - 2010.06.28 00:19:55.
