data_PCOD8106678
_publ_section_title
;
Structure prediction by ZEFSAII (Michael W. Deem and Ramdas Pophale) SiO2 
 PCOD8106678
Probable space group: C 2/M
;
_chemical_formula_sum "Si O2"
_cell_formula_units_Z 56
_cell_length_a 20.348220
_cell_length_b 9.201194
_cell_length_c 21.786391
_cell_angle_alpha 90.000000
_cell_angle_beta 127.189512
_cell_angle_gamma 90.000000
_cell_volume 3249.513376
_symmetry_space_group_name_H-M "C 2/M"
_symmetry_group_IT_number 12
_symmetry_cell_setting 'monoclinic'
loop_
_space_group_symop_operation_xyz
x,y,z
-x,y,-z
-x,-y,-z
x,-y,z
1/2+x,1/2+y,z
1/2-x,1/2+y,-z
1/2-x,1/2-y,-z
1/2+x,1/2-y,z
loop_
_atom_site_type_symbol
_atom_site_label
_atom_site_fract_x
_atom_site_fract_y
_atom_site_fract_z
Si Si1 0.663872 0.169768 0.458368
Si Si2 0.239842 0.832969 0.700217
Si Si3 0.328505 0.335816 0.848436
Si Si4 0.091983 0.167783 0.531349
Si Si5 0.510345 0.664073 0.144423
Si Si6 0.103919 0.666138 0.292227
Si Si7 0.580645 0.164363 0.003538
O O1 0.750000 0.250000 0.500000
O O2 0.612482 0.230357 0.486002
O O3 0.608167 0.197142 0.366857
O O4 0.682133 0.000000 0.477967
O O5 0.253418 0.736176 0.768481
O O6 0.150913 0.795317 0.622001
O O7 0.307042 0.796007 0.686094
O O8 0.246507 0.000000 0.724448
O O9 0.304333 0.500000 0.852190
O O10 0.409613 0.331636 0.852872
O O11 0.344855 0.246663 0.919994
O O12 0.000000 0.202543 0.500000
O O13 0.103829 0.000000 0.518284
O O14 0.479749 0.500000 0.137748
O O15 0.532406 0.734749 0.222461
O O16 0.437406 0.753974 0.070649
O O17 0.080778 0.500000 0.264787
O O18 0.608312 0.000000 0.004947
O O19 0.500000 0.165740 0.000000
#
# Coordination Sequence:
#
# PCOD8106678 Si02
#       7
#     8   8   8   8   8   8   8
#     4  11  21  34  53  75 100 129 168 211 253 301
#     4   9  16  29  45  63  89 122 159 197 241 293
#     4   9  16  24  36  57  83 114 153 195 234 278
#     4  10  21  37  54  73 100 133 168 209 257 304
#     4   9  16  24  36  57  85 116 150 192 235 280
#     4   9  17  29  44  64  90 122 158 198 240 290
#     4   9  15  23  35  52  79 118 154 185 228 283
#
# _framework density 17.233350000000002
#
# number of rings (size 3 to 8) (size 9 to 14) (size 15 to 20)
#    0.000    2.571    1.429    1.714    0.000    7.143 
#    0.000    0.000    0.000    0.000    0.000    0.000 
#    0.000    1.143    0.000    3.429    0.000    5.714 
#
# Total GULP energy -347207.729284 kJ/mol
# GULP energy per Si atom -12400.276046 kJ/mol
# Density = 1.719413 g / cm^3
# Si number density = 17.233350 Si / 1000 Ang^3
#
#
#
# Elastic Constant Matrix: (Units=GPa)
#
#
# Indices 1 2 3 4 5 6 
#
# 1 39.6478 34.2846 40.2520 0.0000 1.8775 0.0000
# 2 34.2846 144.4193 96.0230 0.0000 -1.8083 0.0000
# 3 40.2520 96.0230 158.7140 0.0000 5.4109 0.0000
# 4 0.0000 0.0000 0.0000 36.5543 0.0000 -3.2882
# 5 1.8775 -1.8083 5.4109 0.0000 11.1110 0.0000
# 6 0.0000 0.0000 0.0000 -3.2882 0.0000 13.7689
#
#
#
# Elastic Compliance Matrix: (Units=1/GPa)
#
#
# Indices 1 2 3 4 5 6 
#
# 1 0.035480 -0.004296 -0.006275 0.000000 -0.003639 0.000000
# 2 -0.004296 0.012431 -0.006635 0.000000 0.005980 0.000000
# 3 -0.006275 -0.006635 0.012108 0.000000 -0.005916 0.000000
# 4 0.000000 0.000000 0.000000 0.027957 0.000000 0.006677
# 5 -0.003639 0.005980 -0.005916 0.000000 0.094470 0.000000
# 6 0.000000 0.000000 0.000000 0.006677 0.000000 0.074222
#
#
# Mechanical properties :
#
#
# Convention : Reuss Voigt Hill
#
# Bulk Modulus (GPa) = 39.05276 75.98895 57.52086
# Shear Modulus (GPa) = 16.68809 23.76826 20.22818
#
# Velocity S-wave (km/s) = 3.11522 3.71779 3.42977
# Velocity P-wave (km/s) = 5.97075 7.91322 7.00960
#
# Compressibility (1/GPa) = 0.02560638
#
# Stress axis : x y z
#
# Youngs Moduli (GPa) = 28.18490 80.44720 82.59119
#
# Poissons Ratio (x) = 0.34562 0.51825
# Poissons Ratio (y) = 0.12109 0.54798
# Poissons Ratio (z) = 0.17686 0.53375
#
# Static dielectric constant tensor:
#      x y z
#    x 2.608430 0.000000 -0.020040 
#    y 0.000000 3.376620 0.000000 
#    z -0.020040 0.000000 3.435630 
# 
# 
# High freq. dielectric constant tensor:
#      x y z
#    x 1.585000 0.000000 0.001300 
#    y 0.000000 1.677420 0.000000 
#    z 0.001300 0.000000 1.684080 
# 
# From -- ./inp_files/323828.got.cif
#   From: 2010.06.25/outbox.cif.g09.slc.cpg/sg12_162_cif.got.tgz:323828.got - 2010.06.28 00:19:55.
