data_PCOD8106341
_publ_section_title
;
Structure prediction by ZEFSAII (Michael W. Deem and Ramdas Pophale) SiO2 
 PCOD8106341
Probable space group: C 2/M
;
_chemical_formula_sum "Si O2"
_cell_formula_units_Z 36
_cell_length_a 5.075551
_cell_length_b 17.337395
_cell_length_c 23.359922
_cell_angle_alpha 90.000000
_cell_angle_beta 123.115547
_cell_angle_gamma 90.000000
_cell_volume 1721.709209
_symmetry_space_group_name_H-M "C 2/M"
_symmetry_group_IT_number 12
_symmetry_cell_setting 'monoclinic'
loop_
_space_group_symop_operation_xyz
x,y,z
-x,y,-z
-x,-y,-z
x,-y,z
1/2+x,1/2+y,z
1/2-x,1/2+y,-z
1/2-x,1/2-y,-z
1/2+x,1/2-y,z
loop_
_atom_site_type_symbol
_atom_site_label
_atom_site_fract_x
_atom_site_fract_y
_atom_site_fract_z
Si Si1 0.357841 0.409342 0.042999
Si Si2 0.000000 0.694162 0.500000
Si Si3 0.717680 0.700489 0.165564
Si Si4 0.897621 0.699186 0.678399
Si Si5 0.162626 0.588054 0.429190
O O1 0.387765 0.500000 0.055574
O O2 0.542116 0.371803 0.117380
O O3 0.500000 0.381837 0.000000
O O4 0.000000 0.381255 0.000000
O O5 0.750000 0.750000 0.500000
O O6 0.094257 0.635608 0.563077
O O7 0.471789 0.767984 0.150846
O O8 0.884398 0.671334 0.243304
O O9 0.073648 0.763773 0.661570
O O10 0.814860 0.624498 0.631184
O O11 0.500000 0.594670 0.500000
O O12 0.048886 0.500000 0.410475
#
# Coordination Sequence:
#
# PCOD8106341 Si02
#       5
#     8   4   8   8   8
#     4  10  21  36  57  86 119 154 193 235 288 351
#     4  12  23  40  63  86 114 154 196 238 295 356
#     4  10  21  38  59  86 118 151 198 245 285 343
#     4  10  23  41  61  86 116 157 201 240 294 360
#     4  11  25  42  62  93 125 153 200 256 303 359
#
# _framework density 20.909455000000001
#
# number of rings (size 3 to 8) (size 9 to 14) (size 15 to 20)
#    0.000    1.556    1.111    3.000    3.111    3.556 
#    0.000    0.000    0.000    8.000    0.000    0.000 
#    0.000    0.000    0.000    0.000    0.000    0.000 
#
# Total GULP energy -223145.287292 kJ/mol
# GULP energy per Si atom -12396.960405 kJ/mol
# Density = 2.086186 g / cm^3
# Si number density = 20.909455 Si / 1000 Ang^3
#
#
#
# Elastic Constant Matrix: (Units=GPa)
#
#
# Indices 1 2 3 4 5 6 
#
# 1 109.8534 30.3358 26.7014 0.0000 -10.6056 0.0000
# 2 30.3358 115.0024 64.5620 0.0000 -7.7850 0.0000
# 3 26.7014 64.5620 121.1843 0.0000 -3.5136 0.0000
# 4 0.0000 0.0000 0.0000 33.2178 0.0000 -3.6157
# 5 -10.6056 -7.7850 -3.5136 0.0000 30.0576 0.0000
# 6 0.0000 0.0000 0.0000 -3.6157 0.0000 0.6358
#
#
#
# Elastic Compliance Matrix: (Units=1/GPa)
#
#
# Indices 1 2 3 4 5 6 
#
# 1 0.010182 -0.001816 -0.001189 0.000000 0.002983 0.000000
# 2 -0.001816 0.012912 -0.006422 0.000000 0.001953 0.000000
# 3 -0.001189 -0.006422 0.011915 0.000000 -0.000690 0.000000
# 4 0.000000 0.000000 0.000000 0.079022 0.000000 0.449415
# 5 0.002983 0.001953 -0.000690 0.000000 0.034747 0.000001
# 6 0.000000 0.000000 0.000000 0.449415 0.000001 4.128840
#
#
# Mechanical properties :
#
#
# Convention : Reuss Voigt Hill
#
# Bulk Modulus (GPa) = 61.90507 65.47094 63.68801
# Shear Modulus (GPa) = 1.16229 27.74495 14.45362
#
# Velocity S-wave (km/s) = 0.74637 3.64663 2.63201
# Velocity P-wave (km/s) = 5.51483 7.00786 6.30569
#
# Compressibility (1/GPa) = 0.01615377
#
# Stress axis : x y z
#
# Youngs Moduli (GPa) = 98.21589 77.44626 83.92445
#
# Poissons Ratio (x) = 0.14065 0.09982
# Poissons Ratio (y) = 0.17837 0.53899
# Poissons Ratio (z) = 0.11681 0.49738
#
# Static dielectric constant tensor:
#      x y z
#    x 3.969710 0.000000 -0.130260 
#    y 0.000000 3.789220 0.000000 
#    z -0.130260 0.000000 3.930180 
# 
# 
# High freq. dielectric constant tensor:
#      x y z
#    x 1.834160 0.000000 -0.012050 
#    y 0.000000 1.809640 0.000000 
#    z -0.012050 0.000000 1.821560 
# 
# From -- ./inp_files/297586.got.cif
#   From: 2010.06.25/outbox.cif.g09.slc.cpg/sg12_149_cif.got.tgz:297586.got - 2010.06.28 00:19:55.
