data_PCOD8106529
_publ_section_title
;
Structure prediction by ZEFSAII (Michael W. Deem and Ramdas Pophale) SiO2 
 PCOD8106529
Probable space group: C 2/M
;
_chemical_formula_sum "Si O2"
_cell_formula_units_Z 56
_cell_length_a 14.985278
_cell_length_b 9.097140
_cell_length_c 23.875739
_cell_angle_alpha 90.000000
_cell_angle_beta 118.423086
_cell_angle_gamma 90.000000
_cell_volume 2862.470674
_symmetry_space_group_name_H-M "C 2/M"
_symmetry_group_IT_number 12
_symmetry_cell_setting 'monoclinic'
loop_
_space_group_symop_operation_xyz
x,y,z
-x,y,-z
-x,-y,-z
x,-y,z
1/2+x,1/2+y,z
1/2-x,1/2+y,-z
1/2-x,1/2-y,-z
1/2+x,1/2-y,z
loop_
_atom_site_type_symbol
_atom_site_label
_atom_site_fract_x
_atom_site_fract_y
_atom_site_fract_z
Si Si1 0.640708 0.335444 0.805539
Si Si2 0.313955 0.670105 0.814176
Si Si3 0.907869 0.169497 0.723819
Si Si4 0.834721 0.832872 0.060003
Si Si5 0.325972 0.827732 0.592463
Si Si6 0.098617 0.827344 0.492976
Si Si7 0.478191 0.172471 0.929389
O O1 0.654757 0.500000 0.785600
O O2 0.696589 0.217766 0.782739
O O3 0.523696 0.292089 0.770925
O O4 0.689765 0.327790 0.881864
O O5 0.329723 0.500000 0.833391
O O6 0.348235 0.707598 0.762220
O O7 0.369685 0.767546 0.877911
O O8 0.865575 0.274569 0.663672
O O9 0.892582 0.000000 0.701669
O O10 0.941671 0.754879 0.085054
O O11 0.840559 0.000000 0.040061
O O12 0.750000 0.750000 0.000000
O O13 0.205670 0.788929 0.554954
O O14 0.395078 0.751506 0.565348
O O15 0.342849 0.000000 0.590824
O O16 0.000000 0.772948 0.500000
O O17 0.087334 0.000000 0.478537
O O18 0.485005 0.000000 0.920646
O O19 0.500000 0.211970 0.000000
#
# Coordination Sequence:
#
# PCOD8106529 Si02
#       7
#     8   8   8   8   8   8   8
#     4  10  22  41  60  81 114 154 194 241 298 364
#     4  11  23  40  61  87 115 151 198 248 300 359
#     4  10  22  42  61  81 120 164 198 240 300 359
#     4  11  22  38  58  83 114 148 193 245 303 366
#     4  10  21  36  59  92 122 154 202 250 290 341
#     4   9  19  38  62  88 123 164 201 238 290 352
#     4  11  23  38  57  83 114 150 192 243 304 365
#
# _framework density 19.563518999999999
#
# number of rings (size 3 to 8) (size 9 to 14) (size 15 to 20)
#    0.000    1.714    1.429    2.571    0.000    9.429 
#    0.000    4.286    0.000    0.000    0.000    0.000 
#    0.000    0.000    0.000    0.000    0.000    0.000 
#
# Total GULP energy -347230.698806 kJ/mol
# GULP energy per Si atom -12401.096386 kJ/mol
# Density = 1.951899 g / cm^3
# Si number density = 19.563519 Si / 1000 Ang^3
#
#
#
# Elastic Constant Matrix: (Units=GPa)
#
#
# Indices 1 2 3 4 5 6 
#
# 1 137.6098 51.6145 36.0789 0.0000 -12.0277 0.0000
# 2 51.6145 82.5836 48.9426 0.0000 -13.0709 0.0000
# 3 36.0789 48.9426 98.4591 0.0000 -6.4624 0.0000
# 4 0.0000 0.0000 0.0000 34.1477 0.0000 1.1381
# 5 -12.0277 -13.0709 -6.4624 0.0000 18.4438 0.0000
# 6 0.0000 0.0000 0.0000 1.1381 0.0000 36.5347
#
#
#
# Elastic Compliance Matrix: (Units=1/GPa)
#
#
# Indices 1 2 3 4 5 6 
#
# 1 0.009619 -0.005167 -0.000803 0.000000 0.002330 0.000000
# 2 -0.005167 0.021693 -0.008293 0.000000 0.009098 0.000000
# 3 -0.000803 -0.008293 0.014486 0.000000 -0.001325 0.000000
# 4 0.000000 0.000000 0.000000 0.029315 0.000000 -0.000913
# 5 0.002330 0.009098 -0.001325 0.000000 0.061721 0.000000
# 6 0.000000 0.000000 0.000000 -0.000913 0.000000 0.027400
#
#
# Mechanical properties :
#
#
# Convention : Reuss Voigt Hill
#
# Bulk Modulus (GPa) = 57.89764 65.76940 61.83352
# Shear Modulus (GPa) = 25.18658 29.95968 27.57313
#
# Velocity S-wave (km/s) = 3.59196 3.91756 3.75829
# Velocity P-wave (km/s) = 6.84557 7.35897 7.10691
#
# Compressibility (1/GPa) = 0.01727186
#
# Stress axis : x y z
#
# Youngs Moduli (GPa) = 103.95793 46.09770 69.03161
#
# Poissons Ratio (x) = 0.23820 0.05546
# Poissons Ratio (y) = 0.53717 0.57246
# Poissons Ratio (z) = 0.08352 0.38227
#
# Static dielectric constant tensor:
#      x y z
#    x 3.518390 0.000000 -0.037920 
#    y 0.000000 3.599740 0.000000 
#    z -0.037920 0.000000 3.330470 
# 
# 
# High freq. dielectric constant tensor:
#      x y z
#    x 1.773330 0.000000 0.002140 
#    y 0.000000 1.766220 0.000000 
#    z 0.002140 0.000000 1.755210 
# 
# From -- ./inp_files/339019.got.cif
#   From: 2010.06.25/outbox.cif.g09.slc.cpg/sg12_170_cif.got.tgz:339019.got - 2010.06.28 00:19:55.
