data_PCOD8106725
_publ_section_title
;
Structure prediction by ZEFSAII (Michael W. Deem and Ramdas Pophale) SiO2 
 PCOD8106725
Probable space group: C 2/M
;
_chemical_formula_sum "Si O2"
_cell_formula_units_Z 64
_cell_length_a 20.403120
_cell_length_b 8.945848
_cell_length_c 25.101340
_cell_angle_alpha 90.000000
_cell_angle_beta 50.735162
_cell_angle_gamma 90.000000
_cell_volume 3547.188826
_symmetry_space_group_name_H-M "C 2/M"
_symmetry_group_IT_number 12
_symmetry_cell_setting 'monoclinic'
loop_
_space_group_symop_operation_xyz
x,y,z
-x,y,-z
-x,-y,-z
x,-y,z
1/2+x,1/2+y,z
1/2-x,1/2+y,-z
1/2-x,1/2-y,-z
1/2+x,1/2-y,z
loop_
_atom_site_type_symbol
_atom_site_label
_atom_site_fract_x
_atom_site_fract_y
_atom_site_fract_z
Si Si1 0.000640 0.824663 0.642434
Si Si2 0.075660 0.326432 0.706342
Si Si3 0.572557 0.173624 0.141750
Si Si4 0.221846 0.325282 0.139473
Si Si5 0.679627 0.177858 0.276018
Si Si6 0.827176 0.825065 0.990589
Si Si7 0.577705 0.675375 0.493483
Si Si8 0.259197 0.323419 0.651132
O O1 0.041783 0.773696 0.676054
O O2 0.067564 0.787382 0.561059
O O3 0.915711 0.736586 0.672551
O O4 0.979677 0.000000 0.655282
O O5 0.067745 0.500000 0.693956
O O6 0.171158 0.278456 0.669174
O O7 0.020833 0.294507 0.787691
O O8 0.640816 0.239602 0.148969
O O9 0.585673 0.255873 0.077643
O O10 0.588445 0.000000 0.123171
O O11 0.205488 0.500000 0.152197
O O12 0.223310 0.262156 0.198759
O O13 0.310167 0.291503 0.062438
O O14 0.735138 0.244104 0.294923
O O15 0.678640 0.000000 0.280601
O O16 0.826989 0.000000 0.979654
O O17 0.750000 0.750000 0.000000
O O18 0.500000 0.747003 0.500000
O O19 0.577809 0.500000 0.483205
O O20 0.666715 0.738580 0.425719
O O21 0.264708 0.500000 0.657595
#
# Coordination Sequence:
#
# PCOD8106725 Si02
#       8
#     8   8   8   8   8   8   8   8
#     4  11  21  34  56  81 105 138 180 220 260 318
#     4  10  21  37  55  76 109 144 176 218 270 320
#     4   9  16  30  48  70 102 138 169 209 263 312
#     4   8  15  28  47  70 101 132 164 209 261 305
#     4  11  20  34  55  79 108 139 174 220 269 312
#     4   9  16  27  44  71 102 134 170 211 257 310
#     4   9  17  33  55  77 106 138 171 219 273 313
#     4  10  21  38  57  77 103 143 183 215 266 326
#
# _framework density 18.042456999999999
#
# number of rings (size 3 to 8) (size 9 to 14) (size 15 to 20)
#    0.000    2.375    2.500    1.875    0.000    1.500 
#    0.000    3.750    0.000    0.750    0.000    5.250 
#    0.000    0.000    0.000    0.000    0.000    0.000 
#
# Total GULP energy -396616.320907 kJ/mol
# GULP energy per Si atom -12394.260028 kJ/mol
# Density = 1.800139 g / cm^3
# Si number density = 18.042457 Si / 1000 Ang^3
#
#
#
# Elastic Constant Matrix: (Units=GPa)
#
#
# Indices 1 2 3 4 5 6 
#
# 1 57.5690 22.4994 21.9462 -0.0001 -4.5162 -0.0005
# 2 22.4994 50.9856 30.2765 -0.0002 3.8133 -0.0009
# 3 21.9462 30.2765 117.1035 0.0000 -0.3719 -0.0003
# 4 -0.0001 -0.0002 0.0000 25.9290 0.0000 3.0900
# 5 -4.5162 3.8133 -0.3719 0.0000 23.8181 -0.0001
# 6 -0.0005 -0.0009 -0.0003 3.0900 -0.0001 21.0739
#
#
#
# Elastic Compliance Matrix: (Units=1/GPa)
#
#
# Indices 1 2 3 4 5 6 
#
# 1 0.022037 -0.009099 -0.001760 0.000000 0.005608 0.000000
# 2 -0.009099 0.027278 -0.005367 0.000000 -0.006176 0.000001
# 3 -0.001760 -0.005367 0.010259 0.000000 0.000686 0.000000
# 4 0.000000 0.000000 0.000000 0.039253 0.000000 -0.005756
# 5 0.005608 -0.006176 0.000686 0.000000 0.044048 0.000000
# 6 0.000000 0.000001 0.000000 -0.005756 0.000000 0.048296
#
#
# Mechanical properties :
#
#
# Convention : Reuss Voigt Hill
#
# Bulk Modulus (GPa) = 36.86980 41.67805 39.27392
# Shear Modulus (GPa) = 21.49029 24.22659 22.85844
#
# Velocity S-wave (km/s) = 3.45497 3.66834 3.56325
# Velocity P-wave (km/s) = 6.03284 6.41033 6.22445
#
# Compressibility (1/GPa) = 0.02712247
#
# Stress axis : x y z
#
# Youngs Moduli (GPa) = 45.37733 36.65992 97.47571
#
# Poissons Ratio (x) = 0.33358 0.17152
# Poissons Ratio (y) = 0.41291 0.52314
# Poissons Ratio (z) = 0.07985 0.19675
#
# Static dielectric constant tensor:
#      x y z
#    x 3.067480 0.000000 0.033650 
#    y 0.000000 3.194090 0.000000 
#    z 0.033650 0.000000 3.934620 
# 
# 
# High freq. dielectric constant tensor:
#      x y z
#    x 1.659070 0.000000 0.004070 
#    y 0.000000 1.679320 0.000000 
#    z 0.004070 0.000000 1.723160 
# 
# From -- ./inp_files/346003.got.cif
#   From: 2010.06.25/outbox.cif.g09.slc.cpg/sg12_174_cif.got.tgz:346003.got - 2010.06.28 00:19:55.
