data_PCOD8106155
_publ_section_title
;
Structure prediction by ZEFSAII (Michael W. Deem and Ramdas Pophale) SiO2 
 PCOD8106155
Probable space group: C 2/M
;
_chemical_formula_sum "Si O2"
_cell_formula_units_Z 64
_cell_length_a 15.095731
_cell_length_b 9.427713
_cell_length_c 23.770478
_cell_angle_alpha 90.000000
_cell_angle_beta 91.416233
_cell_angle_gamma 90.000000
_cell_volume 3381.938698
_symmetry_space_group_name_H-M "C 2/M"
_symmetry_group_IT_number 12
_symmetry_cell_setting 'monoclinic'
loop_
_space_group_symop_operation_xyz
x,y,z
-x,y,-z
-x,-y,-z
x,-y,z
1/2+x,1/2+y,z
1/2-x,1/2+y,-z
1/2-x,1/2-y,-z
1/2+x,1/2-y,z
loop_
_atom_site_type_symbol
_atom_site_label
_atom_site_fract_x
_atom_site_fract_y
_atom_site_fract_z
Si Si1 0.427707 0.667014 0.372997
Si Si2 0.261226 0.334193 0.443244
Si Si3 0.858090 0.335825 0.144940
Si Si4 0.345444 0.332305 0.864201
Si Si5 0.348836 0.160481 0.755802
Si Si6 0.904861 0.664994 0.634011
Si Si7 0.858860 0.160730 0.252257
Si Si8 0.515171 0.835584 0.064906
O O1 0.443291 0.500000 0.373828
O O2 0.353275 0.710983 0.416373
O O3 0.516732 0.745896 0.393095
O O4 0.401590 0.718991 0.310141
O O5 0.258798 0.500000 0.456947
O O6 0.250000 0.250000 0.500000
O O7 0.184853 0.291439 0.398496
O O8 0.861458 0.500000 0.160626
O O9 0.757695 0.292913 0.126304
O O10 0.891860 0.253869 0.200534
O O11 0.923909 0.297068 0.095300
O O12 0.361424 0.500000 0.864247
O O13 0.377559 0.268416 0.805137
O O14 0.403340 0.260877 0.913780
O O15 0.399010 0.204552 0.699813
O O16 0.245634 0.171469 0.741213
O O17 0.373671 0.000000 0.774700
O O18 0.924985 0.500000 0.626390
O O19 0.888244 0.000000 0.240665
O O20 0.540478 0.000000 0.074368
O O21 0.500000 0.799405 0.000000
#
# Coordination Sequence:
#
# PCOD8106155 Si02
#       8
#     8   8   8   8   8   8   8   8
#     4  10  21  37  57  84 116 148 185 232 283 333
#     4  10  22  42  62  81 113 154 193 235 279 330
#     4   9  20  37  55  80 113 146 182 230 280 328
#     4  10  21  36  55  83 115 144 180 234 286 327
#     4   9  17  34  58  81 111 150 186 222 274 340
#     4  10  21  37  58  84 113 148 188 230 277 333
#     4   9  17  33  57  82 111 147 184 224 276 337
#     4  10  22  40  59  79 109 152 195 229 273 338
#
# _framework density 18.924057999999999
#
# number of rings (size 3 to 8) (size 9 to 14) (size 15 to 20)
#    0.000    2.375    1.250    0.375    1.750    4.250 
#    0.000    2.500    0.000    0.000    0.000    0.000 
#    0.000    0.000    0.000    0.000    0.000    0.000 
#
# Total GULP energy -396879.550543 kJ/mol
# GULP energy per Si atom -12402.485954 kJ/mol
# Density = 1.888099 g / cm^3
# Si number density = 18.924058 Si / 1000 Ang^3
#
#
#
# Elastic Constant Matrix: (Units=GPa)
#
#
# Indices 1 2 3 4 5 6 
#
# 1 81.2225 39.8511 42.2778 0.0000 -20.1648 0.0000
# 2 39.8511 60.5966 49.0855 0.0000 -7.6394 0.0000
# 3 42.2778 49.0855 109.8852 0.0000 -19.7489 0.0000
# 4 0.0000 0.0000 0.0000 33.8696 0.0000 2.7788
# 5 -20.1648 -7.6394 -19.7489 0.0000 25.1612 0.0000
# 6 0.0000 0.0000 0.0000 2.7788 0.0000 31.7159
#
#
#
# Elastic Compliance Matrix: (Units=1/GPa)
#
#
# Indices 1 2 3 4 5 6 
#
# 1 0.021976 -0.012326 -0.000531 0.000000 0.013453 0.000000
# 2 -0.012326 0.032816 -0.011527 0.000000 -0.008963 0.000000
# 3 -0.000531 -0.011527 0.016007 0.000000 0.008638 0.000000
# 4 0.000000 0.000000 0.000000 0.029739 0.000000 -0.002606
# 5 0.013453 -0.008963 0.008638 0.000000 0.054583 0.000000
# 6 0.000000 0.000000 0.000000 -0.002606 0.000000 0.031758
#
#
# Mechanical properties :
#
#
# Convention : Reuss Voigt Hill
#
# Bulk Modulus (GPa) = 45.39421 57.12593 51.26007
# Shear Modulus (GPa) = 20.57681 26.18201 23.37941
#
# Velocity S-wave (km/s) = 3.30106 3.72362 3.51869
# Velocity P-wave (km/s) = 6.21039 6.98137 6.60714
#
# Compressibility (1/GPa) = 0.02202924
#
# Stress axis : x y z
#
# Youngs Moduli (GPa) = 45.50437 30.47252 62.47444
#
# Poissons Ratio (x) = 0.37560 0.03320
# Poissons Ratio (y) = 0.56088 0.72017
# Poissons Ratio (z) = 0.02418 0.35127
#
# Static dielectric constant tensor:
#      x y z
#    x 3.521780 0.000000 -0.004490 
#    y 0.000000 3.397210 0.000000 
#    z -0.004490 0.000000 3.486640 
# 
# 
# High freq. dielectric constant tensor:
#      x y z
#    x 1.741830 0.000000 -0.001600 
#    y 0.000000 1.728130 0.000000 
#    z -0.001600 0.000000 1.731750 
# 
# From -- ./inp_files/338753.got.cif
#   From: 2010.06.25/outbox.cif.g09.slc.cpg/sg12_170_cif.got.tgz:338753.got - 2010.06.28 00:19:55.
