data_PCOD8106783
_publ_section_title
;
Structure prediction by ZEFSAII (Michael W. Deem and Ramdas Pophale) SiO2 
 PCOD8106783
Probable space group: C 2/M
;
_chemical_formula_sum "Si O2"
_cell_formula_units_Z 48
_cell_length_a 23.953214
_cell_length_b 8.734769
_cell_length_c 26.557843
_cell_angle_alpha 90.000000
_cell_angle_beta 153.137718
_cell_angle_gamma 90.000000
_cell_volume 2510.729574
_symmetry_space_group_name_H-M "C 2/M"
_symmetry_group_IT_number 12
_symmetry_cell_setting 'monoclinic'
loop_
_space_group_symop_operation_xyz
x,y,z
-x,y,-z
-x,-y,-z
x,-y,z
1/2+x,1/2+y,z
1/2-x,1/2+y,-z
1/2-x,1/2-y,-z
1/2+x,1/2-y,z
loop_
_atom_site_type_symbol
_atom_site_label
_atom_site_fract_x
_atom_site_fract_y
_atom_site_fract_z
Si Si1 0.880469 0.319035 0.590691
Si Si2 0.958047 0.182401 0.912100
Si Si3 0.955126 0.318101 0.541676
Si Si4 0.593145 0.322596 0.824930
Si Si5 0.846690 0.178595 0.012622
Si Si6 0.811084 0.317738 0.329701
O O1 0.867902 0.500000 0.578394
O O2 0.750000 0.250000 0.500000
O O3 0.922287 0.251474 0.570063
O O4 0.980224 0.273685 0.712511
O O5 0.823268 0.251371 0.790817
O O6 0.952573 0.000000 0.907633
O O7 0.000000 0.245306 0.000000
O O8 0.054872 0.240087 0.948453
O O9 0.955046 0.500000 0.543384
O O10 0.853760 0.261227 0.419385
O O11 0.090885 0.260518 0.633508
O O12 0.570701 0.500000 0.795531
O O13 0.720617 0.270326 0.901782
O O14 0.597493 0.287921 0.887717
O O15 0.817157 0.000000 0.981570
O O16 0.806204 0.500000 0.325171
#
# Coordination Sequence:
#
# PCOD8106783 Si02
#       6
#     8   8   8   8   8   8
#     4  11  23  36  55  82 110 141 179 222 265 316
#     4   9  17  26  46  79 109 132 167 222 271 309
#     4   8  16  29  48  73 103 135 170 216 267 312
#     4  10  21  37  56  78 108 145 180 219 266 319
#     4   9  19  35  56  81 108 141 179 222 270 318
#     4   8  14  27  46  73 104 134 168 214 270 313
#
# _framework density 19.117948999999999
#
# number of rings (size 3 to 8) (size 9 to 14) (size 15 to 20)
#    0.000    2.833    0.000    2.000    4.667    0.667 
#    0.000    0.000    0.000    0.500    0.000    9.333 
#    0.000    0.000    0.000    0.000    0.000    0.000 
#
# Total GULP energy -297569.436091 kJ/mol
# GULP energy per Si atom -12398.726504 kJ/mol
# Density = 1.907444 g / cm^3
# Si number density = 19.117949 Si / 1000 Ang^3
#
#
#
# Elastic Constant Matrix: (Units=GPa)
#
#
# Indices 1 2 3 4 5 6 
#
# 1 156.9918 26.0357 82.5690 0.0014 15.5820 0.0002
# 2 26.0357 30.7558 25.8903 0.0015 0.8408 0.0007
# 3 82.5690 25.8903 156.3111 0.0037 14.8824 0.0006
# 4 0.0014 0.0015 0.0037 23.8126 0.0006 3.8209
# 5 15.5820 0.8408 14.8824 0.0006 26.4606 -0.0001
# 6 0.0002 0.0007 0.0006 3.8209 -0.0001 20.1804
#
#
#
# Elastic Compliance Matrix: (Units=1/GPa)
#
#
# Indices 1 2 3 4 5 6 
#
# 1 0.009549 -0.004658 -0.003964 0.000000 -0.003246 0.000000
# 2 -0.004658 0.040206 -0.004584 -0.000002 0.004044 -0.000001
# 3 -0.003964 -0.004584 0.009524 -0.000001 -0.002877 0.000000
# 4 0.000000 -0.000002 -0.000001 0.043310 -0.000001 -0.008200
# 5 -0.003246 0.004044 -0.002877 -0.000001 0.041193 0.000000
# 6 0.000000 -0.000001 0.000000 -0.008200 0.000000 0.051106
#
#
# Mechanical properties :
#
#
# Convention : Reuss Voigt Hill
#
# Bulk Modulus (GPa) = 30.42481 68.11653 49.27067
# Shear Modulus (GPa) = 21.52802 28.06162 24.79482
#
# Velocity S-wave (km/s) = 3.35933 3.83536 3.60521
# Velocity P-wave (km/s) = 5.56737 7.43776 6.56947
#
# Compressibility (1/GPa) = 0.03286791
#
# Stress axis : x y z
#
# Youngs Moduli (GPa) = 104.72207 24.87212 104.99430
#
# Poissons Ratio (x) = 0.11586 0.41615
# Poissons Ratio (y) = 0.48783 0.48126
# Poissons Ratio (z) = 0.41507 0.11401
#
# Static dielectric constant tensor:
#      x y z
#    x 3.795890 0.000000 0.003790 
#    y 0.000000 2.988220 0.000000 
#    z 0.003790 0.000000 3.750570 
# 
# 
# High freq. dielectric constant tensor:
#      x y z
#    x 1.754100 0.000000 0.002250 
#    y 0.000000 1.689220 0.000000 
#    z 0.002250 0.000000 1.754830 
# 
# From -- ./inp_files/367216.got.cif
#   From: 2010.06.25/outbox.cif.g09.slc.cpg/sg12_184_cif.got.tgz:367216.got - 2010.06.28 00:19:55.
