data_PCOD8106070
_publ_section_title
;
Structure prediction by ZEFSAII (Michael W. Deem and Ramdas Pophale) SiO2 
 PCOD8106070
Probable space group: C 2/M
;
_chemical_formula_sum "Si O2"
_cell_formula_units_Z 56
_cell_length_a 19.877245
_cell_length_b 8.992785
_cell_length_c 26.023704
_cell_angle_alpha 90.000000
_cell_angle_beta 40.506528
_cell_angle_gamma 90.000000
_cell_volume 3021.494835
_symmetry_space_group_name_H-M "C 2/M"
_symmetry_group_IT_number 12
_symmetry_cell_setting 'monoclinic'
loop_
_space_group_symop_operation_xyz
x,y,z
-x,y,-z
-x,-y,-z
x,-y,z
1/2+x,1/2+y,z
1/2-x,1/2+y,-z
1/2-x,1/2-y,-z
1/2+x,1/2-y,z
loop_
_atom_site_type_symbol
_atom_site_label
_atom_site_fract_x
_atom_site_fract_y
_atom_site_fract_z
Si Si1 0.350028 0.671089 0.920321
Si Si2 0.298751 0.330559 0.833604
Si Si3 0.489749 0.326038 0.330068
Si Si4 0.559391 0.823698 0.830090
Si Si5 0.102719 0.825476 0.909594
Si Si6 0.653836 0.174339 0.670037
Si Si7 0.320609 0.672883 0.500083
O O1 0.351725 0.500000 0.937205
O O2 0.351666 0.685684 0.858229
O O3 0.447383 0.752731 0.888336
O O4 0.250000 0.750000 0.000000
O O5 0.261351 0.500000 0.845856
O O6 0.388713 0.282309 0.740814
O O7 0.201781 0.220727 0.885806
O O8 0.480280 0.500000 0.323793
O O9 0.428961 0.246580 0.319719
O O10 0.439981 0.285665 0.415651
O O11 0.611043 0.762375 0.851567
O O12 0.634396 0.773726 0.739679
O O13 0.547405 0.000000 0.840919
O O14 0.104453 0.000000 0.897755
O O15 0.000000 0.778299 0.000000
O O16 0.773637 0.216305 0.583632
O O17 0.634557 0.000000 0.677308
O O18 0.305015 0.500000 0.501073
O O19 0.250000 0.750000 0.500000
#
# Coordination Sequence:
#
# PCOD8106070 Si02
#       7
#     8   8   8   8   8   8   8
#     4  11  22  36  55  80 109 138 174 220 270 320
#     4  10  21  36  55  79 107 139 175 218 266 318
#     4   9  16  29  50  77 108 141 174 212 260 311
#     4  11  22  36  56  80 109 142 177 219 266 319
#     4  11  25  42  58  76 100 136 182 228 273 323
#     4   9  17  29  48  78 110 140 174 213 257 307
#     4   8  14  25  44  72 107 140 171 208 252 305
#
# _framework density 18.533873
#
# number of rings (size 3 to 8) (size 9 to 14) (size 15 to 20)
#    0.000    2.143    1.429    2.143    0.000    5.714 
#    0.000    0.000    0.000    0.857    0.000    6.000 
#    0.000    0.000    0.000    0.000    0.000    0.000 
#
# Total GULP energy -346961.504816 kJ/mol
# GULP energy per Si atom -12391.482315 kJ/mol
# Density = 1.849169 g / cm^3
# Si number density = 18.533873 Si / 1000 Ang^3
#
#
#
# Elastic Constant Matrix: (Units=GPa)
#
#
# Indices 1 2 3 4 5 6 
#
# 1 41.1956 12.9055 8.3587 -0.0001 3.3776 0.0005
# 2 12.9055 48.0124 27.4969 -0.0001 6.8093 0.0006
# 3 8.3587 27.4969 131.9102 0.0001 6.6834 0.0000
# 4 -0.0001 -0.0001 0.0001 22.9772 0.0000 -0.8535
# 5 3.3776 6.8093 6.6834 0.0000 23.0061 0.0001
# 6 0.0005 0.0006 0.0000 -0.8535 0.0001 27.1586
#
#
#
# Elastic Compliance Matrix: (Units=1/GPa)
#
#
# Indices 1 2 3 4 5 6 
#
# 1 0.026587 -0.006783 -0.000177 0.000000 -0.001844 0.000000
# 2 -0.006783 0.026129 -0.004745 0.000000 -0.005359 0.000000
# 3 -0.000177 -0.004745 0.008636 0.000000 -0.001078 0.000000
# 4 0.000000 0.000000 0.000000 0.043572 0.000000 0.001369
# 5 -0.001844 -0.005359 -0.001078 0.000000 0.045637 0.000000
# 6 0.000000 0.000000 0.000000 0.001369 0.000000 0.036864
#
#
# Mechanical properties :
#
#
# Convention : Reuss Voigt Hill
#
# Bulk Modulus (GPa) = 26.35750 35.40449 30.88099
# Shear Modulus (GPa) = 22.37309 26.11886 24.24598
#
# Velocity S-wave (km/s) = 3.47817 3.75807 3.62083
# Velocity P-wave (km/s) = 5.51202 6.16237 5.84625
#
# Compressibility (1/GPa) = 0.03793986
#
# Stress axis : x y z
#
# Youngs Moduli (GPa) = 37.61291 38.27171 115.79522
#
# Poissons Ratio (x) = 0.25961 0.02053
# Poissons Ratio (y) = 0.25514 0.54948
# Poissons Ratio (z) = 0.00667 0.18161
#
# Static dielectric constant tensor:
#      x y z
#    x 3.029150 0.000000 0.227970 
#    y 0.000000 3.458810 0.000000 
#    z 0.227970 0.000000 4.215630 
# 
# 
# High freq. dielectric constant tensor:
#      x y z
#    x 1.673640 0.000000 0.007830 
#    y 0.000000 1.721650 0.000000 
#    z 0.007830 0.000000 1.749710 
# 
# From -- ./inp_files/363026.got.cif
#   From: 2010.06.25/outbox.cif.g09.slc.cpg/sg12_182_cif.got.tgz:363026.got - 2010.06.28 00:19:55.
