data_PCOD8106122
_publ_section_title
;
Structure prediction by ZEFSAII (Michael W. Deem and Ramdas Pophale) SiO2 
 PCOD8106122
Probable space group: C 2/M
;
_chemical_formula_sum "Si O2"
_cell_formula_units_Z 64
_cell_length_a 14.885417
_cell_length_b 8.730960
_cell_length_c 33.172734
_cell_angle_alpha 90.000000
_cell_angle_beta 45.236894
_cell_angle_gamma 90.000000
_cell_volume 3061.099836
_symmetry_space_group_name_H-M "C 2/M"
_symmetry_group_IT_number 12
_symmetry_cell_setting 'monoclinic'
loop_
_space_group_symop_operation_xyz
x,y,z
-x,y,-z
-x,-y,-z
x,-y,z
1/2+x,1/2+y,z
1/2-x,1/2+y,-z
1/2-x,1/2-y,-z
1/2+x,1/2-y,z
loop_
_atom_site_type_symbol
_atom_site_label
_atom_site_fract_x
_atom_site_fract_y
_atom_site_fract_z
Si Si1 0.149925 0.321052 0.500373
Si Si2 0.041314 0.327340 0.874868
Si Si3 0.682849 0.829538 0.112392
Si Si4 0.774994 0.321654 0.762923
Si Si5 0.360846 0.180736 0.588619
Si Si6 0.102187 0.327555 0.002292
Si Si7 0.692301 0.179202 0.709172
Si Si8 0.926873 0.178417 0.780067
O O1 0.163943 0.500000 0.501346
O O2 0.250000 0.250000 0.500000
O O3 0.176270 0.275546 0.445575
O O4 0.004668 0.272295 0.554890
O O5 0.089651 0.500000 0.869900
O O6 0.157855 0.216874 0.829137
O O7 0.956577 0.332403 0.861959
O O8 0.961886 0.258459 0.937341
O O9 0.778561 0.773305 0.047857
O O10 0.678639 0.719523 0.152629
O O11 0.722289 0.000000 0.113850
O O12 0.778256 0.500000 0.751291
O O13 0.774191 0.224566 0.722221
O O14 0.900556 0.272467 0.747450
O O15 0.268671 0.279992 0.645062
O O16 0.341099 0.000000 0.602054
O O17 0.149569 0.500000 0.995899
O O18 0.000000 0.323370 0.000000
O O19 0.564531 0.276351 0.751980
O O20 0.660687 0.000000 0.719958
O O21 0.919333 0.000000 0.773161
#
# Coordination Sequence:
#
# PCOD8106122 Si02
#       8
#     8   8   8   8   8   8   8   8
#     4   9  19  37  64  94 130 171 213 259 308 364
#     4  10  21  38  59  85 120 158 199 253 312 376
#     4  11  22  37  59  86 118 155 201 255 311 378
#     4  12  25  42  66  93 122 163 209 259 319 382
#     4   9  20  40  62  90 129 174 214 255 311 369
#     4  10  21  36  55  81 114 155 201 250 309 375
#     4  12  25  43  65  94 130 168 214 265 313 372
#     4  12  25  43  66  90 121 164 210 262 319 378
#
# _framework density 20.907516999999999
#
# number of rings (size 3 to 8) (size 9 to 14) (size 15 to 20)
#    0.000    1.375    1.250    5.625    0.000    4.250 
#    0.000    3.750    0.000    0.000    0.000    0.000 
#    0.000    0.000    0.000    0.000    0.000    0.000 
#
# Total GULP energy -396874.240449 kJ/mol
# GULP energy per Si atom -12402.320014 kJ/mol
# Density = 2.085993 g / cm^3
# Si number density = 20.907517 Si / 1000 Ang^3
#
#
#
# Elastic Constant Matrix: (Units=GPa)
#
#
# Indices 1 2 3 4 5 6 
#
# 1 90.0634 23.1795 24.1307 0.0010 18.7864 -0.0024
# 2 23.1795 94.4436 34.6269 0.0004 -0.6906 -0.0049
# 3 24.1307 34.6269 110.7146 -0.0010 11.4730 -0.0002
# 4 0.0010 0.0004 -0.0010 49.0806 -0.0019 -14.1460
# 5 18.7864 -0.6906 11.4730 -0.0019 24.1705 -0.0009
# 6 -0.0024 -0.0049 -0.0002 -14.1460 -0.0009 52.4271
#
#
#
# Elastic Compliance Matrix: (Units=1/GPa)
#
#
# Indices 1 2 3 4 5 6 
#
# 1 0.014481 -0.003264 -0.001009 -0.000001 -0.010869 0.000000
# 2 -0.003264 0.012810 -0.003782 0.000000 0.004698 0.000001
# 3 -0.001009 -0.003782 0.010901 0.000000 -0.004498 0.000000
# 4 -0.000001 0.000000 0.000000 0.022093 0.000002 0.005961
# 5 -0.010869 0.004698 -0.004498 0.000002 0.052090 0.000001
# 6 0.000000 0.000001 0.000000 0.005961 0.000001 0.020683
#
#
# Mechanical properties :
#
#
# Convention : Reuss Voigt Hill
#
# Bulk Modulus (GPa) = 45.28385 51.01065 48.14725
# Shear Modulus (GPa) = 31.94307 39.35461 35.64884
#
# Velocity S-wave (km/s) = 3.91298 4.34328 4.13373
# Velocity P-wave (km/s) = 6.49010 7.04296 6.77217
#
# Compressibility (1/GPa) = 0.02208293
#
# Stress axis : x y z
#
# Youngs Moduli (GPa) = 69.05669 78.06207 91.73330
#
# Poissons Ratio (x) = 0.25476 0.09257
# Poissons Ratio (y) = 0.22537 0.34694
# Poissons Ratio (z) = 0.06968 0.29523
#
# Static dielectric constant tensor:
#      x y z
#    x 3.907640 0.000000 0.088650 
#    y 0.000000 3.681590 0.000000 
#    z 0.088650 0.000000 3.799380 
# 
# 
# High freq. dielectric constant tensor:
#      x y z
#    x 1.827020 0.000000 0.009900 
#    y 0.000000 1.812830 0.000000 
#    z 0.009900 0.000000 1.816860 
# 
# From -- ./inp_files/375410.got.cif
#   From: 2010.06.25/outbox.cif.g09.slc.cpg/sg12_188_cif.got.tgz:375410.got - 2010.06.28 00:19:55.
