data_PCOD8106968
_publ_section_title
;
Structure prediction by ZEFSAII (Michael W. Deem and Ramdas Pophale) SiO2 
 PCOD8106968
Probable space group: C 2/M
;
_chemical_formula_sum "Si O2"
_cell_formula_units_Z 64
_cell_length_a 29.777544
_cell_length_b 8.753493
_cell_length_c 23.748572
_cell_angle_alpha 90.000000
_cell_angle_beta 150.092124
_cell_angle_gamma 90.000000
_cell_volume 3086.498350
_symmetry_space_group_name_H-M "C 2/M"
_symmetry_group_IT_number 12
_symmetry_cell_setting 'monoclinic'
loop_
_space_group_symop_operation_xyz
x,y,z
-x,y,-z
-x,-y,-z
x,-y,z
1/2+x,1/2+y,z
1/2-x,1/2+y,-z
1/2-x,1/2-y,-z
1/2+x,1/2-y,z
loop_
_atom_site_type_symbol
_atom_site_label
_atom_site_fract_x
_atom_site_fract_y
_atom_site_fract_z
Si Si1 0.365144 0.178762 0.505694
Si Si2 0.855557 0.676570 0.894068
Si Si3 0.500380 0.177825 0.140387
Si Si4 0.178866 0.322254 0.266930
Si Si5 0.503674 0.318971 0.266787
Si Si6 0.015109 0.333398 0.580908
Si Si7 0.825894 0.324734 0.118400
Si Si8 0.689924 0.672786 0.788990
O O1 0.265246 0.236031 0.384459
O O2 0.404308 0.258672 0.604642
O O3 0.426069 0.219113 0.517546
O O4 0.361073 0.000000 0.513564
O O5 0.881519 0.500000 0.917138
O O6 0.855360 0.746069 0.830620
O O7 0.755205 0.704984 0.807810
O O8 0.929507 0.747621 0.017479
O O9 0.600605 0.203357 0.226947
O O10 0.491002 0.264054 0.189152
O O11 0.478851 0.000000 0.127792
O O12 0.203388 0.500000 0.286119
O O13 0.503548 0.500000 0.267425
O O14 0.421799 0.257363 0.215809
O O15 0.047409 0.500000 0.641592
O O16 0.086698 0.197204 0.660200
O O17 0.000000 0.363759 0.500000
O O18 0.836519 0.500000 0.114045
O O19 0.788874 0.298237 0.140784
O O20 0.750000 0.250000 0.000000
O O21 0.703534 0.500000 0.826087
#
# Coordination Sequence:
#
# PCOD8106968 Si02
#       8
#     8   8   8   8   8   8   8   8
#     4  11  23  40  62  88 125 169 208 259 318 376
#     4   9  19  37  62  94 128 161 205 257 312 376
#     4  10  21  40  66  92 123 165 210 261 320 379
#     4  10  21  39  65  94 123 162 211 263 316 374
#     4  12  25  42  64  91 125 165 212 265 315 373
#     4  10  21  37  57  83 118 161 205 251 306 366
#     4  12  24  40  61  88 124 163 205 251 302 366
#     4  11  21  34  57  89 122 160 201 246 302 362
#
# _framework density 20.735471
#
# number of rings (size 3 to 8) (size 9 to 14) (size 15 to 20)
#    0.000    1.375    1.250    4.875    0.000    4.250 
#    0.000    1.875    0.000    1.500    0.000    0.000 
#    0.000    0.000    0.000    0.000    0.000    0.000 
#
# Total GULP energy -396721.024380 kJ/mol
# GULP energy per Si atom -12397.532012 kJ/mol
# Density = 2.068828 g / cm^3
# Si number density = 20.735471 Si / 1000 Ang^3
#
#
#
# Elastic Constant Matrix: (Units=GPa)
#
#
# Indices 1 2 3 4 5 6 
#
# 1 67.6571 31.2769 11.8548 0.0000 -4.5923 0.0000
# 2 31.2769 101.0910 41.8661 0.0002 1.4147 -0.0001
# 3 11.8548 41.8661 108.4205 0.0000 -4.6726 0.0000
# 4 0.0000 0.0002 0.0000 -180.3446 0.0000 175.6305
# 5 -4.5923 1.4147 -4.6726 0.0000 38.0308 0.0000
# 6 0.0000 -0.0001 0.0000 175.6305 0.0000 -118.7558
#
#
#
# Elastic Compliance Matrix: (Units=1/GPa)
#
#
# Indices 1 2 3 4 5 6 
#
# 1 0.017458 -0.005578 0.000347 0.000000 0.002358 0.000000
# 2 -0.005578 0.013596 -0.004716 0.000000 -0.001759 0.000000
# 3 0.000347 -0.004716 0.011074 0.000000 0.001578 0.000000
# 4 0.000000 0.000000 0.000000 0.012595 0.000000 0.018626
# 5 0.002358 -0.001759 0.001578 0.000000 0.026838 0.000000
# 6 0.000000 0.000000 0.000000 0.018626 0.000000 0.019126
#
#
# Mechanical properties :
#
#
# Convention : Reuss Voigt Hill
#
# Bulk Modulus (GPa) = 44.97616 49.68494 47.33055
# Shear Modulus (GPa) = 39.06452 -39.40253 -0.16900
#
# Velocity S-wave (km/s) = 4.34515 -4.36391 -0.28580
# Velocity P-wave (km/s) = 6.84919 1.17401 4.77143
#
# Compressibility (1/GPa) = 0.02223400
#
# Stress axis : x y z
#
# Youngs Moduli (GPa) = 57.27901 73.55370 90.29826
#
# Poissons Ratio (x) = 0.41029 -0.03130
# Poissons Ratio (y) = 0.31951 0.42582
# Poissons Ratio (z) = -0.01986 0.34686
#
# Static dielectric constant tensor:
#      x y z
#    x 3.738870 0.000000 -0.043650 
#    y 0.000000 3.697710 0.000000 
#    z -0.043650 0.000000 3.831290 
# 
# 
# High freq. dielectric constant tensor:
#      x y z
#    x 1.818400 0.000000 -0.006270 
#    y 0.000000 1.794970 0.000000 
#    z -0.006270 0.000000 1.821890 
# 
# From -- ./inp_files/353519.got.cif
#   From: 2010.06.25/outbox.cif.g09.slc.cpg/sg12_177_cif.got.tgz:353519.got - 2010.06.28 00:19:55.
