data_PCOD8106402
_publ_section_title
;
Structure prediction by ZEFSAII (Michael W. Deem and Ramdas Pophale) SiO2 
 PCOD8106402
Probable space group: C 2/M
;
_chemical_formula_sum "Si O2"
_cell_formula_units_Z 64
_cell_length_a 9.367211
_cell_length_b 17.340944
_cell_length_c 19.190676
_cell_angle_alpha 90.000000
_cell_angle_beta 90.153915
_cell_angle_gamma 90.000000
_cell_volume 3117.250799
_symmetry_space_group_name_H-M "C 2/M"
_symmetry_group_IT_number 12
_symmetry_cell_setting 'monoclinic'
loop_
_space_group_symop_operation_xyz
x,y,z
-x,y,-z
-x,-y,-z
x,-y,z
1/2+x,1/2+y,z
1/2-x,1/2+y,-z
1/2-x,1/2-y,-z
1/2+x,1/2-y,z
loop_
_atom_site_type_symbol
_atom_site_label
_atom_site_fract_x
_atom_site_fract_y
_atom_site_fract_z
Si Si1 0.967620 0.590083 0.153312
Si Si2 0.278428 0.667308 0.914923
Si Si3 0.082843 0.670210 0.284228
Si Si4 0.786983 0.346261 0.928495
Si Si5 0.466737 0.412153 0.147675
Si Si6 0.086694 0.171605 0.716183
Si Si7 0.917214 0.669210 0.561865
Si Si8 0.083121 0.169581 0.562068
O O1 0.970937 0.500000 0.139623
O O2 0.027360 0.606990 0.230117
O O3 0.051646 0.634785 0.092238
O O4 0.808213 0.622946 0.145528
O O5 0.251953 0.758108 0.909689
O O6 0.442015 0.645743 0.900299
O O7 0.236092 0.635928 0.990691
O O8 0.247518 0.690071 0.269811
O O9 0.065394 0.632122 0.361355
O O10 0.996441 0.748758 0.274914
O O11 0.693027 0.403229 0.881075
O O12 0.518627 0.500000 0.140000
O O13 0.473532 0.389663 0.228931
O O14 0.066675 0.133152 0.639208
O O15 0.750061 0.679315 0.542907
O O16 0.000000 0.621474 0.500000
O O17 0.000352 0.749771 0.565860
O O18 0.000000 0.121862 0.500000
#
# Coordination Sequence:
#
# PCOD8106402 Si02
#       8
#     8   8   8   8   8   8   8   8
#     4  12  25  40  60  89 123 157 196 243 296 352
#     4  11  25  43  63  91 118 151 196 247 299 350
#     4  10  21  36  58  85 116 159 203 244 292 351
#     4  11  23  43  69  87 114 155 198 243 293 358
#     4  12  25  40  60  89 123 157 196 243 296 352
#     4  10  21  36  58  85 116 159 203 244 292 351
#     4   9  16  28  48  79 114 147 191 243 291 339
#     4   9  16  28  48  79 114 147 191 243 291 339
#
# _framework density 20.530912000000001
#
# number of rings (size 3 to 8) (size 9 to 14) (size 15 to 20)
#    0.000    1.500    1.250    5.250    1.750    6.000 
#    0.000    0.000    0.000    0.750    0.000    0.000 
#    0.000    0.000    0.000    0.000    0.000    0.000 
#
# Total GULP energy -396673.346324 kJ/mol
# GULP energy per Si atom -12396.042073 kJ/mol
# Density = 2.048418 g / cm^3
# Si number density = 20.530912 Si / 1000 Ang^3
#
#
#
# Elastic Constant Matrix: (Units=GPa)
#
#
# Indices 1 2 3 4 5 6 
#
# 1 91.1513 22.6552 36.9868 0.0000 1.3934 0.0000
# 2 22.6552 68.3483 43.8437 0.0000 2.5849 0.0000
# 3 36.9868 43.8437 116.8633 0.0000 -0.7919 0.0000
# 4 0.0000 0.0000 0.0000 10.0043 0.0000 -2.3088
# 5 1.3934 2.5849 -0.7919 0.0000 35.6323 0.0000
# 6 0.0000 0.0000 0.0000 -2.3088 0.0000 20.0568
#
#
#
# Elastic Compliance Matrix: (Units=1/GPa)
#
#
# Indices 1 2 3 4 5 6 
#
# 1 0.012833 -0.002148 -0.003259 0.000000 -0.000418 0.000000
# 2 -0.002148 0.019714 -0.006727 0.000000 -0.001496 0.000000
# 3 -0.003259 -0.006727 0.012118 0.000000 0.000885 0.000000
# 4 0.000000 0.000000 0.000000 0.102685 0.000000 0.011820
# 5 -0.000418 -0.001496 0.000885 0.000000 0.028209 0.000000
# 6 0.000000 0.000000 0.000000 0.011820 0.000000 0.051219
#
#
# Mechanical properties :
#
#
# Convention : Reuss Voigt Hill
#
# Bulk Modulus (GPa) = 49.02062 53.70383 51.36222
# Shear Modulus (GPa) = 19.39155 24.66383 22.02769
#
# Velocity S-wave (km/s) = 3.07661 3.46974 3.27907
# Velocity P-wave (km/s) = 6.04558 6.50127 6.27756
#
# Compressibility (1/GPa) = 0.02039958
#
# Stress axis : x y z
#
# Youngs Moduli (GPa) = 77.92239 50.72451 82.52141
#
# Poissons Ratio (x) = 0.10893 0.26892
# Poissons Ratio (y) = 0.16734 0.55510
# Poissons Ratio (z) = 0.25394 0.34121
#
# Static dielectric constant tensor:
#      x y z
#    x 3.842710 0.000000 -0.018200 
#    y 0.000000 3.133870 0.000000 
#    z -0.018200 0.000000 4.692100 
# 
# 
# High freq. dielectric constant tensor:
#      x y z
#    x 1.819160 0.000000 -0.000590 
#    y 0.000000 1.749320 0.000000 
#    z -0.000590 0.000000 1.828290 
# 
# From -- ./inp_files/300779.got.cif
#   From: 2010.06.25/outbox.cif.g09.slc.cpg/sg12_151_cif.got.tgz:300779.got - 2010.06.28 00:19:55.
