data_PCOD8106904
_publ_section_title
;
Structure prediction by ZEFSAII (Michael W. Deem and Ramdas Pophale) SiO2 
 PCOD8106904
Probable space group: C 2/M
;
_chemical_formula_sum "Si O2"
_cell_formula_units_Z 52
_cell_length_a 21.639820
_cell_length_b 23.031386
_cell_length_c 8.328514
_cell_angle_alpha 90.000000
_cell_angle_beta 140.210537
_cell_angle_gamma 90.000000
_cell_volume 2656.438503
_symmetry_space_group_name_H-M "C 2/M"
_symmetry_group_IT_number 12
_symmetry_cell_setting 'monoclinic'
loop_
_space_group_symop_operation_xyz
x,y,z
-x,y,-z
-x,-y,-z
x,-y,z
1/2+x,1/2+y,z
1/2-x,1/2+y,-z
1/2-x,1/2-y,-z
1/2+x,1/2-y,z
loop_
_atom_site_type_symbol
_atom_site_label
_atom_site_fract_x
_atom_site_fract_y
_atom_site_fract_z
Si Si1 0.500000 0.199035 0.500000
Si Si2 0.200673 0.796435 0.192527
Si Si3 0.782380 0.176793 0.418066
Si Si4 0.519254 0.065785 0.213486
Si Si5 0.664535 0.874078 0.732331
Si Si6 0.489273 0.725760 0.797767
Si Si7 0.692917 0.935298 0.087169
O O1 0.404375 0.161146 0.282228
O O2 0.521732 0.231095 0.374482
O O3 0.244546 0.816987 0.449021
O O4 0.223838 0.728015 0.209577
O O5 0.248300 0.833456 0.147723
O O6 0.086747 0.810010 0.957993
O O7 0.896983 0.183483 0.614739
O O8 0.751056 0.112647 0.303481
O O9 0.603878 0.102921 0.461384
O O10 0.557450 0.000000 0.273907
O O11 0.500000 0.092665 0.000000
O O12 0.421763 0.068831 0.119308
O O13 0.710246 0.925431 0.931297
O O14 0.500000 0.754972 0.000000
O O15 0.729888 0.000000 0.208342
#
# Coordination Sequence:
#
# PCOD8106904 Si02
#       7
#     4   8   8   8   8   8   8
#     4  12  22  34  59  92 119 164 184 240 306 370
#     4  10  22  37  62  90 119 154 192 251 307 360
#     4  10  21  40  61  88 118 154 200 246 303 362
#     4  10  21  37  57  81 115 158 201 245 294 353
#     4  12  22  36  55  92 121 154 196 242 300 366
#     4  10  23  40  58  88 127 154 198 248 304 365
#     4  11  23  38  58  83 118 161 201 246 295 354
#
# _framework density 19.575082999999999
#
# number of rings (size 3 to 8) (size 9 to 14) (size 15 to 20)
#    0.000    1.385    3.077    2.308    2.154    3.077 
#    0.000    0.769    0.000    6.923    0.000    0.000 
#    0.000    0.000    0.000    0.000    0.000    0.000 
#
# Total GULP energy -322247.998219 kJ/mol
# GULP energy per Si atom -12394.153778 kJ/mol
# Density = 1.953053 g / cm^3
# Si number density = 19.575083 Si / 1000 Ang^3
#
#
#
# Elastic Constant Matrix: (Units=GPa)
#
#
# Indices 1 2 3 4 5 6 
#
# 1 94.6900 41.7199 17.8601 0.0000 3.2332 0.0000
# 2 41.7199 117.6636 41.1341 0.0000 -6.3212 0.0000
# 3 17.8601 41.1341 65.9301 0.0000 -3.6860 0.0000
# 4 0.0000 0.0000 0.0000 27.3713 0.0000 -3.1884
# 5 3.2332 -6.3212 -3.6860 0.0000 40.4307 0.0000
# 6 0.0000 0.0000 0.0000 -3.1884 0.0000 19.0088
#
#
#
# Elastic Compliance Matrix: (Units=1/GPa)
#
#
# Indices 1 2 3 4 5 6 
#
# 1 0.012672 -0.004289 -0.000856 0.000000 -0.001762 0.000000
# 2 -0.004289 0.012369 -0.006461 0.000000 0.001688 0.000000
# 3 -0.000856 -0.006461 0.019477 0.000000 0.000834 0.000000
# 4 0.000000 0.000000 0.000000 0.037263 0.000000 0.006250
# 5 -0.001762 0.001688 0.000834 0.000000 0.025215 0.000000
# 6 0.000000 0.000000 0.000000 0.006250 0.000000 0.053656
#
#
# Mechanical properties :
#
#
# Convention : Reuss Voigt Hill
#
# Bulk Modulus (GPa) = 46.93169 53.30131 50.11650
# Shear Modulus (GPa) = 26.18311 29.20012 27.69162
#
# Velocity S-wave (km/s) = 3.66125 3.86644 3.76525
# Velocity P-wave (km/s) = 6.47304 6.87174 6.67537
#
# Compressibility (1/GPa) = 0.02130757
#
# Stress axis : x y z
#
# Youngs Moduli (GPa) = 78.91516 80.84912 51.34286
#
# Poissons Ratio (x) = 0.34673 0.04393
# Poissons Ratio (y) = 0.33844 0.33172
# Poissons Ratio (z) = 0.06752 0.52235
#
# Static dielectric constant tensor:
#      x y z
#    x 3.673170 0.000000 -0.083990 
#    y 0.000000 3.442260 0.000000 
#    z -0.083990 0.000000 3.523430 
# 
# 
# High freq. dielectric constant tensor:
#      x y z
#    x 1.772540 0.000000 -0.012960 
#    y 0.000000 1.739270 0.000000 
#    z -0.012960 0.000000 1.759430 
# 
# From -- ./inp_files/99180.got.cif
#   From: 2010.06.25/outbox.cif.g09.slc.cpg/sg12_50_cif.got.tgz:99180.got - 2010.06.28 00:19:55.
