data_PCOD8106145
_publ_section_title
;
Structure prediction by ZEFSAII (Michael W. Deem and Ramdas Pophale) SiO2 
 PCOD8106145
Probable space group: C 2/M
;
_chemical_formula_sum "Si O2"
_cell_formula_units_Z 48
_cell_length_a 17.913115
_cell_length_b 18.215367
_cell_length_c 15.292347
_cell_angle_alpha 90.000000
_cell_angle_beta 29.603924
_cell_angle_gamma 90.000000
_cell_volume 2464.968513
_symmetry_space_group_name_H-M "C 2/M"
_symmetry_group_IT_number 12
_symmetry_cell_setting 'monoclinic'
loop_
_space_group_symop_operation_xyz
x,y,z
-x,y,-z
-x,-y,-z
x,-y,z
1/2+x,1/2+y,z
1/2-x,1/2+y,-z
1/2-x,1/2-y,-z
1/2+x,1/2-y,z
loop_
_atom_site_type_symbol
_atom_site_label
_atom_site_fract_x
_atom_site_fract_y
_atom_site_fract_z
Si Si1 0.821460 0.334893 0.676806
Si Si2 0.824011 0.315509 0.193857
Si Si3 0.361803 0.915088 0.316876
Si Si4 0.366169 0.672585 0.961331
Si Si5 0.828792 0.341740 1.000000
Si Si6 0.331421 0.585221 0.318452
O O1 0.769178 0.257487 0.688956
O O2 0.760622 0.399330 0.676450
O O3 0.000000 0.339275 0.500000
O O4 0.758312 0.344488 0.838562
O O5 0.797381 0.371438 0.299482
O O6 0.764378 0.352044 0.164088
O O7 0.000000 0.294939 0.000000
O O8 0.536919 0.898200 0.155869
O O9 0.269294 0.891913 0.496376
O O10 0.342570 0.000000 0.314525
O O11 0.394981 0.759371 0.922304
O O12 0.518956 0.633482 0.832703
O O13 0.305653 0.641480 0.930667
O O14 0.375729 0.500000 0.275484
#
# Coordination Sequence:
#
# PCOD8106145 Si02
#       6
#     8   8   8   8   8   8
#     4  11  22  37  60  85 108 140 184 231 277 327
#     4   9  19  36  59  86 113 144 182 225 273 324
#     4  10  21  36  55  82 114 149 187 224 268 323
#     4  10  21  38  58  84 112 143 183 226 276 328
#     4   9  19  36  59  85 112 141 183 229 270 323
#     4  11  24  39  55  79 113 150 185 224 274 328
#
# _framework density 19.472866
#
# number of rings (size 3 to 8) (size 9 to 14) (size 15 to 20)
#    0.000    2.000    0.000    4.500    0.000   12.000 
#    0.000    0.000    0.000    2.500    0.000    0.000 
#    0.000    0.000    0.000    0.000    0.000    0.000 
#
# Total GULP energy -297676.455917 kJ/mol
# GULP energy per Si atom -12403.185663 kJ/mol
# Density = 1.942854 g / cm^3
# Si number density = 19.472866 Si / 1000 Ang^3
#
#
#
# Elastic Constant Matrix: (Units=GPa)
#
#
# Indices 1 2 3 4 5 6 
#
# 1 129.5761 26.9250 24.9214 0.0023 2.5811 -0.0016
# 2 26.9250 52.8956 20.3633 0.0042 -1.2328 -0.0036
# 3 24.9214 20.3633 66.1387 0.0024 -1.9985 -0.0024
# 4 0.0023 0.0042 0.0024 25.3479 -0.0039 7.2336
# 5 2.5811 -1.2328 -1.9985 -0.0039 31.4081 0.0031
# 6 -0.0016 -0.0036 -0.0024 7.2336 0.0031 18.8469
#
#
#
# Elastic Compliance Matrix: (Units=1/GPa)
#
#
# Indices 1 2 3 4 5 6 
#
# 1 0.008943 -0.003706 -0.002260 0.000000 -0.001024 0.000000
# 2 -0.003706 0.022989 -0.005656 -0.000004 0.000847 0.000005
# 3 -0.002260 -0.005656 0.017746 -0.000001 0.001093 0.000001
# 4 0.000000 -0.000004 -0.000001 0.044304 0.000007 -0.017004
# 5 -0.001024 0.000847 0.001093 0.000007 0.032026 -0.000008
# 6 0.000000 0.000005 0.000001 -0.017004 -0.000008 0.059586
#
#
# Mechanical properties :
#
#
# Convention : Reuss Voigt Hill
#
# Bulk Modulus (GPa) = 37.83009 43.66996 40.75003
# Shear Modulus (GPa) = 22.97309 26.88062 24.92685
#
# Velocity S-wave (km/s) = 3.43847 3.71942 3.58170
# Velocity P-wave (km/s) = 5.93577 6.39689 6.17064
#
# Compressibility (1/GPa) = 0.02643398
#
# Stress axis : x y z
#
# Youngs Moduli (GPa) = 111.82542 43.49971 56.35219
#
# Poissons Ratio (x) = 0.16121 0.12733
# Poissons Ratio (y) = 0.41442 0.31872
# Poissons Ratio (z) = 0.25267 0.24603
#
# Static dielectric constant tensor:
#      x y z
#    x 3.888570 0.000000 0.193020 
#    y 0.000000 3.408620 0.000000 
#    z 0.193020 0.000000 3.464490 
# 
# 
# High freq. dielectric constant tensor:
#      x y z
#    x 1.777000 0.000000 0.010900 
#    y 0.000000 1.746620 0.000000 
#    z 0.010900 0.000000 1.750690 
# 
# From -- ./inp_files/75085.got.cif
#   From: 2010.06.25/outbox.cif.g09.slc.cpg/sg12_38_cif.got.tgz:75085.got - 2010.06.28 00:19:55.
