data_PCOD8106150
_publ_section_title
;
Structure prediction by ZEFSAII (Michael W. Deem and Ramdas Pophale) SiO2 
 PCOD8106150
Probable space group: C 2/M
;
_chemical_formula_sum "Si O2"
_cell_formula_units_Z 56
_cell_length_a 17.916555
_cell_length_b 8.429218
_cell_length_c 18.536944
_cell_angle_alpha 90.000000
_cell_angle_beta 75.616930
_cell_angle_gamma 90.000000
_cell_volume 2711.750782
_symmetry_space_group_name_H-M "C 2/M"
_symmetry_group_IT_number 12
_symmetry_cell_setting 'monoclinic'
loop_
_space_group_symop_operation_xyz
x,y,z
-x,y,-z
-x,-y,-z
x,-y,z
1/2+x,1/2+y,z
1/2-x,1/2+y,-z
1/2-x,1/2-y,-z
1/2+x,1/2-y,z
loop_
_atom_site_type_symbol
_atom_site_label
_atom_site_fract_x
_atom_site_fract_y
_atom_site_fract_z
Si Si1 0.867651 0.685568 0.356667
Si Si2 0.917311 0.313237 0.498363
Si Si3 0.199536 0.186400 0.358403
Si Si4 0.659089 0.314550 0.205089
Si Si5 0.485070 0.682870 0.216352
Si Si6 0.779979 0.184798 0.067905
Si Si7 0.559139 0.184036 0.923664
O O1 0.857933 0.500000 0.368320
O O2 0.890800 0.762042 0.428194
O O3 0.785625 0.754106 0.350041
O O4 0.932482 0.716881 0.282229
O O5 0.925923 0.500000 0.487375
O O6 0.855839 0.276284 0.574043
O O7 0.000000 0.238630 0.500000
O O8 0.173896 0.229173 0.284185
O O9 0.193617 0.000000 0.374497
O O10 0.674092 0.500000 0.186015
O O11 0.572921 0.263221 0.205361
O O12 0.715547 0.209240 0.143773
O O13 0.474830 0.500000 0.239056
O O14 0.459522 0.710300 0.140863
O O15 0.855077 0.283367 0.070628
O O16 0.800432 0.000000 0.056307
O O17 0.750000 0.250000 0.000000
O O18 0.550452 0.000000 0.905131
O O19 0.500000 0.233962 0.000000
#
# Coordination Sequence:
#
# PCOD8106150 Si02
#       7
#     8   8   8   8   8   8   8
#     4  10  21  37  57  82 115 155 197 243 298 358
#     4  10  21  36  55  82 115 151 193 243 296 350
#     4  10  21  37  58  83 112 151 194 239 295 353
#     4  10  22  40  60  86 121 156 196 247 298 352
#     4  11  23  38  60  89 118 153 197 245 297 352
#     4  12  25  41  64  92 122 158 199 243 293 348
#     4  11  24  42  64  89 119 157 198 241 294 353
#
# _framework density 20.650866000000001
#
# number of rings (size 3 to 8) (size 9 to 14) (size 15 to 20)
#    0.000    1.429    0.000    5.143    0.000    7.714 
#    0.000    0.000    0.000    0.000    0.000    0.000 
#    0.000    0.000    0.000    0.000    0.000    0.000 
#
# Total GULP energy -347369.874568 kJ/mol
# GULP energy per Si atom -12406.066949 kJ/mol
# Density = 2.060386 g / cm^3
# Si number density = 20.650866 Si / 1000 Ang^3
#
#
#
# Elastic Constant Matrix: (Units=GPa)
#
#
# Indices 1 2 3 4 5 6 
#
# 1 165.8750 5.4979 62.5747 0.0000 6.6860 0.0000
# 2 5.4979 21.9321 8.2163 0.0000 0.8654 0.0000
# 3 62.5747 8.2163 134.8730 0.0000 4.5148 0.0000
# 4 0.0000 0.0000 0.0000 32.0369 0.0000 -2.2239
# 5 6.6860 0.8654 4.5148 0.0000 45.2303 0.0000
# 6 0.0000 0.0000 0.0000 -2.2239 0.0000 34.4770
#
#
#
# Elastic Compliance Matrix: (Units=1/GPa)
#
#
# Indices 1 2 3 4 5 6 
#
# 1 0.007339 -0.000557 -0.003346 0.000000 -0.000740 0.000000
# 2 -0.000557 0.046719 -0.002569 0.000000 -0.000555 0.000000
# 3 -0.003346 -0.002569 0.009136 0.000000 -0.000368 0.000000
# 4 0.000000 0.000000 0.000000 0.031354 0.000000 0.002022
# 5 -0.000740 -0.000555 -0.000368 0.000000 0.022266 0.000000
# 6 0.000000 0.000000 0.000000 0.002022 0.000000 0.029135
#
#
# Mechanical properties :
#
#
# Convention : Reuss Voigt Hill
#
# Bulk Modulus (GPa) = 19.90074 52.80642 36.35358
# Shear Modulus (GPa) = 28.46660 38.77494 33.62077
#
# Velocity S-wave (km/s) = 3.71680 4.33788 4.03930
# Velocity P-wave (km/s) = 5.29879 7.12153 6.27668
#
# Compressibility (1/GPa) = 0.05024940
#
# Stress axis : x y z
#
# Youngs Moduli (GPa) = 136.25232 21.40449 109.45975
#
# Poissons Ratio (x) = 0.01192 0.36630
# Poissons Ratio (y) = 0.07589 0.28121
# Poissons Ratio (z) = 0.45595 0.05499
#
# Static dielectric constant tensor:
#      x y z
#    x 4.051720 0.000000 0.096420 
#    y 0.000000 3.579430 0.000000 
#    z 0.096420 0.000000 3.698620 
# 
# 
# High freq. dielectric constant tensor:
#      x y z
#    x 1.830240 0.000000 0.003580 
#    y 0.000000 1.794300 0.000000 
#    z 0.003580 0.000000 1.822990 
# 
# From -- ./inp_files/275061.got.cif
#   From: 2010.06.25/outbox.cif.g09.slc.cpg/sg12_138_cif.got.tgz:275061.got - 2010.06.28 00:19:55.
