data_PCOD8106269
_publ_section_title
;
Structure prediction by ZEFSAII (Michael W. Deem and Ramdas Pophale) SiO2 
 PCOD8106269
Probable space group: C 2/M
;
_chemical_formula_sum "Si O2"
_cell_formula_units_Z 56
_cell_length_a 9.842502
_cell_length_b 22.782211
_cell_length_c 14.380565
_cell_angle_alpha 90.000000
_cell_angle_beta 60.372828
_cell_angle_gamma 90.000000
_cell_volume 2803.027241
_symmetry_space_group_name_H-M "C 2/M"
_symmetry_group_IT_number 12
_symmetry_cell_setting 'monoclinic'
loop_
_space_group_symop_operation_xyz
x,y,z
-x,y,-z
-x,-y,-z
x,-y,z
1/2+x,1/2+y,z
1/2-x,1/2+y,-z
1/2-x,1/2-y,-z
1/2+x,1/2-y,z
loop_
_atom_site_type_symbol
_atom_site_label
_atom_site_fract_x
_atom_site_fract_y
_atom_site_fract_z
Si Si1 0.348678 0.434567 0.991869
Si Si2 0.776834 0.349823 0.252389
Si Si3 0.839448 0.223946 0.879547
Si Si4 0.953363 0.064727 0.745470
Si Si5 0.653565 0.343199 0.750302
Si Si6 0.626017 0.854074 0.164710
Si Si7 0.178745 0.246105 0.423946
O O1 0.289402 0.500000 0.043344
O O2 0.388662 0.436798 0.871260
O O3 0.500000 0.416472 0.000000
O O4 0.217536 0.382998 0.045967
O O5 0.768604 0.311052 0.158858
O O6 0.676544 0.408780 0.278166
O O7 0.707632 0.315829 0.364233
O O8 0.948425 0.375064 0.217027
O O9 0.891029 0.284308 0.814734
O O10 0.994883 0.185538 0.850881
O O11 0.750000 0.250000 0.000000
O O12 0.104915 0.106694 0.693209
O O13 0.998628 0.000000 0.694866
O O14 0.768424 0.375507 0.784413
O O15 0.747243 0.294637 0.665586
O O16 0.250000 0.250000 0.500000
O O17 0.000000 0.259370 0.500000
#
# Coordination Sequence:
#
# PCOD8106269 Si02
#       7
#     8   8   8   8   8   8   8
#     4  10  21  36  56  86 118 174 225 246 288 362
#     4  11  24  40  58  97 127 159 217 255 322 389
#     4  11  22  35  55  84 134 173 192 244 312 381
#     4  10  22  41  62  85 131 174 214 254 300 374
#     4  11  22  39  60  94 122 163 217 249 318 389
#     4  12  20  34  57  82 127 156 205 265 295 354
#     4  12  23  42  68  89 123 159 203 275 330 381
#
# _framework density 19.978401000000002
#
# number of rings (size 3 to 8) (size 9 to 14) (size 15 to 20)
#    0.000    1.000    4.286    4.286    0.000    4.000 
#    0.000    1.429    0.000    4.286    0.000    0.000 
#    0.000    0.000    0.000    0.000    0.000    0.000 
#
# Total GULP energy -346943.169820 kJ/mol
# GULP energy per Si atom -12390.827494 kJ/mol
# Density = 1.993293 g / cm^3
# Si number density = 19.978401 Si / 1000 Ang^3
#
#
#
# Elastic Constant Matrix: (Units=GPa)
#
#
# Indices 1 2 3 4 5 6 
#
# 1 155.0016 29.8175 32.4936 0.0000 -9.6466 0.0000
# 2 29.8175 96.2022 3.0301 0.0000 -11.2954 0.0000
# 3 32.4936 3.0301 67.6838 0.0000 -0.6391 0.0000
# 4 0.0000 0.0000 0.0000 44.5813 0.0000 21.5811
# 5 -9.6466 -11.2954 -0.6391 0.0000 29.8122 0.0000
# 6 0.0000 0.0000 0.0000 21.5811 0.0000 40.0156
#
#
#
# Elastic Compliance Matrix: (Units=1/GPa)
#
#
# Indices 1 2 3 4 5 6 
#
# 1 0.007707 -0.002085 -0.003591 0.000000 0.001627 0.000000
# 2 -0.002085 0.011456 0.000523 0.000000 0.003677 0.000000
# 3 -0.003591 0.000523 0.016469 0.000000 -0.000611 0.000000
# 4 0.000000 0.000000 0.000000 0.030356 0.000000 -0.016372
# 5 0.001627 0.003677 -0.000611 0.000000 0.035450 0.000000
# 6 0.000000 0.000000 0.000000 -0.016372 0.000000 0.033820
#
#
# Mechanical properties :
#
#
# Convention : Reuss Voigt Hill
#
# Bulk Modulus (GPa) = 39.48491 49.95224 44.71857
# Shear Modulus (GPa) = 32.46625 39.78490 36.12558
#
# Velocity S-wave (km/s) = 4.03559 4.46735 4.25694
# Velocity P-wave (km/s) = 6.44370 7.18798 6.82599
#
# Compressibility (1/GPa) = 0.02532613
#
# Stress axis : x y z
#
# Youngs Moduli (GPa) = 129.75873 87.28929 60.71849
#
# Poissons Ratio (x) = 0.18195 0.21805
# Poissons Ratio (y) = 0.27048 -0.03173
# Poissons Ratio (z) = 0.46598 -0.04561
#
# Static dielectric constant tensor:
#      x y z
#    x 4.067220 0.000000 0.379710 
#    y 0.000000 4.194940 0.000000 
#    z 0.379710 0.000000 4.084040 
# 
# 
# High freq. dielectric constant tensor:
#      x y z
#    x 1.792920 0.000000 0.004600 
#    y 0.000000 1.781000 0.000000 
#    z 0.004600 0.000000 1.744700 
# 
# From -- ./inp_files/198773.got.cif
#   From: 2010.06.25/outbox.cif.g09.slc.cpg/sg12_100_cif.got.tgz:198773.got - 2010.06.28 00:19:55.
