data_PCOD8106136
_publ_section_title
;
Structure prediction by ZEFSAII (Michael W. Deem and Ramdas Pophale) SiO2 
 PCOD8106136
Probable space group: C 2/M
;
_chemical_formula_sum "Si O2"
_cell_formula_units_Z 48
_cell_length_a 10.020030
_cell_length_b 9.015645
_cell_length_c 26.436964
_cell_angle_alpha 90.000000
_cell_angle_beta 90.454688
_cell_angle_gamma 90.000000
_cell_volume 2388.161697
_symmetry_space_group_name_H-M "C 2/M"
_symmetry_group_IT_number 12
_symmetry_cell_setting 'monoclinic'
loop_
_space_group_symop_operation_xyz
x,y,z
-x,y,-z
-x,-y,-z
x,-y,z
1/2+x,1/2+y,z
1/2-x,1/2+y,-z
1/2-x,1/2-y,-z
1/2+x,1/2-y,z
loop_
_atom_site_type_symbol
_atom_site_label
_atom_site_fract_x
_atom_site_fract_y
_atom_site_fract_z
Si Si1 0.981089 0.327964 0.609756
Si Si2 0.712056 0.672121 0.551538
Si Si3 0.218794 0.328479 0.225738
Si Si4 0.466478 0.826356 0.055348
Si Si5 0.232898 0.672348 0.111086
Si Si6 0.491555 0.327956 0.283919
O O1 0.021181 0.500000 0.608876
O O2 0.076243 0.241637 0.571734
O O3 0.828559 0.304249 0.592742
O O4 0.995191 0.267502 0.665865
O O5 0.686956 0.500000 0.540632
O O6 0.750000 0.750000 0.500000
O O7 0.173004 0.500000 0.227020
O O8 0.255417 0.279332 0.169082
O O9 0.345082 0.301340 0.261613
O O10 0.098709 0.225620 0.243555
O O11 0.330799 0.757022 0.074428
O O12 0.583040 0.785555 0.094898
O O13 0.442557 0.000000 0.051463
O O14 0.500000 0.761585 0.000000
O O15 0.261432 0.500000 0.103732
O O16 0.515840 0.500000 0.296625
#
# Coordination Sequence:
#
# PCOD8106136 Si02
#       6
#     8   8   8   8   8   8
#     4  11  24  41  61  87 119 153 190 234 283 334
#     4  11  24  41  62  89 119 152 192 235 280 334
#     4  10  22  39  57  82 115 147 186 235 282 334
#     4  10  21  36  55  82 113 145 186 233 280 335
#     4  10  21  37  57  81 111 148 187 230 282 336
#     4  11  23  38  59  86 113 147 191 233 279 337
#
# _framework density 20.099143000000002
#
# number of rings (size 3 to 8) (size 9 to 14) (size 15 to 20)
#    0.000    1.500    0.000    4.500    0.000   11.667 
#    0.000    0.000    0.000    0.000    0.000    0.000 
#    0.000    0.000    0.000    0.000    0.000    0.000 
#
# Total GULP energy -297757.951545 kJ/mol
# GULP energy per Si atom -12406.581314 kJ/mol
# Density = 2.005340 g / cm^3
# Si number density = 20.099143 Si / 1000 Ang^3
#
#
#
# Elastic Constant Matrix: (Units=GPa)
#
#
# Indices 1 2 3 4 5 6 
#
# 1 57.1904 38.6643 -0.7416 0.0000 -15.3353 0.0000
# 2 38.6643 85.8876 29.9963 0.0000 -0.9395 0.0000
# 3 -0.7416 29.9963 94.0716 0.0000 -1.7934 0.0000
# 4 0.0000 0.0000 0.0000 34.6949 0.0000 -10.2641
# 5 -15.3353 -0.9395 -1.7934 0.0000 38.0564 0.0000
# 6 0.0000 0.0000 0.0000 -10.2641 0.0000 35.4783
#
#
#
# Elastic Compliance Matrix: (Units=1/GPa)
#
#
# Indices 1 2 3 4 5 6 
#
# 1 0.031938 -0.016217 0.005666 0.000000 0.012736 0.000000
# 2 -0.016217 0.021337 -0.007052 0.000000 -0.006340 0.000000
# 3 0.005666 -0.007052 0.012976 0.000000 0.002720 0.000000
# 4 0.000000 0.000000 0.000000 0.031520 0.000000 0.009119
# 5 0.012736 -0.006340 0.002720 0.000000 0.031381 0.000000
# 6 0.000000 0.000000 0.000000 0.009119 0.000000 0.030824
#
#
# Mechanical properties :
#
#
# Convention : Reuss Voigt Hill
#
# Bulk Modulus (GPa) = 32.21334 41.44308 36.82821
# Shear Modulus (GPa) = 24.32714 32.92796 28.62755
#
# Velocity S-wave (km/s) = 3.48279 4.05195 3.77811
# Velocity P-wave (km/s) = 5.67760 6.52343 6.11516
#
# Compressibility (1/GPa) = 0.03104304
#
# Stress axis : x y z
#
# Youngs Moduli (GPa) = 31.31080 46.86625 77.06814
#
# Poissons Ratio (x) = 0.76003 -0.43664
# Poissons Ratio (y) = 0.50777 0.54352
# Poissons Ratio (z) = -0.17740 0.33052
#
# Static dielectric constant tensor:
#      x y z
#    x 4.082160 0.000000 -0.376510 
#    y 0.000000 3.281550 0.000000 
#    z -0.376510 0.000000 4.357290 
# 
# 
# High freq. dielectric constant tensor:
#      x y z
#    x 1.795210 0.000000 0.001750 
#    y 0.000000 1.786290 0.000000 
#    z 0.001750 0.000000 1.802940 
# 
# From -- ./inp_files/334643.got.cif
#   From: 2010.06.25/outbox.cif.g09.slc.cpg/sg12_168_cif.got.tgz:334643.got - 2010.06.28 00:19:55.
