data_PCOD8106466
_publ_section_title
;
Structure prediction by ZEFSAII (Michael W. Deem and Ramdas Pophale) SiO2 
 PCOD8106466
Probable space group: C 2/M
;
_chemical_formula_sum "Si O2"
_cell_formula_units_Z 48
_cell_length_a 19.304516
_cell_length_b 13.424052
_cell_length_c 15.099930
_cell_angle_alpha 90.000000
_cell_angle_beta 142.481815
_cell_angle_gamma 90.000000
_cell_volume 2383.110513
_symmetry_space_group_name_H-M "C 2/M"
_symmetry_group_IT_number 12
_symmetry_cell_setting 'monoclinic'
loop_
_space_group_symop_operation_xyz
x,y,z
-x,y,-z
-x,-y,-z
x,-y,z
1/2+x,1/2+y,z
1/2-x,1/2+y,-z
1/2-x,1/2-y,-z
1/2+x,1/2-y,z
loop_
_atom_site_type_symbol
_atom_site_label
_atom_site_fract_x
_atom_site_fract_y
_atom_site_fract_z
Si Si1 0.511901 0.889057 0.416618
Si Si2 0.335048 0.891035 0.094056
Si Si3 0.074700 0.884528 0.159896
Si Si4 0.086392 0.181342 0.850047
Si Si5 0.047810 0.114093 0.450173
Si Si6 0.285442 0.233850 0.435322
O O1 0.500000 0.833980 0.500000
O O2 0.389031 0.889353 0.246340
O O3 0.605149 0.837304 0.449579
O O4 0.557546 0.000000 0.479552
O O5 0.387511 0.796429 0.094448
O O6 0.361417 0.000000 0.075784
O O7 0.200805 0.882221 0.969948
O O8 0.186012 0.815044 0.275809
O O9 0.003506 0.867849 0.176273
O O10 0.111429 0.000000 0.190788
O O11 0.000000 0.852325 0.000000
O O12 0.037432 0.175014 0.700647
O O13 0.174125 0.162523 0.569637
O O14 0.000000 0.122591 0.500000
O O15 0.056487 0.000000 0.428231
O O16 0.250000 0.250000 0.500000
#
# Coordination Sequence:
#
# PCOD8106466 Si02
#       6
#     8   8   8   8   8   8
#     4  10  21  36  58  91 123 154 198 259 319 372
#     4  10  21  36  61  90 120 160 205 256 321 382
#     4  11  25  42  64  95 130 170 214 264 328 393
#     4  11  22  40  62  89 127 168 210 267 321 383
#     4  11  24  42  64  92 126 171 222 267 317 382
#     4  12  23  39  62  91 128 171 208 262 319 382
#
# _framework density 20.141743999999999
#
# number of rings (size 3 to 8) (size 9 to 14) (size 15 to 20)
#    0.000    1.167    3.333    2.500    2.333    2.000 
#    0.000    0.833    0.000    1.000    0.000    0.000 
#    0.000    0.000    0.000    0.000    0.000    0.000 
#
# Total GULP energy -297527.378364 kJ/mol
# GULP energy per Si atom -12396.974098 kJ/mol
# Density = 2.009590 g / cm^3
# Si number density = 20.141744 Si / 1000 Ang^3
#
#
#
# Elastic Constant Matrix: (Units=GPa)
#
#
# Indices 1 2 3 4 5 6 
#
# 1 105.9977 29.0252 45.0070 0.0000 2.0218 0.0000
# 2 29.0252 142.1452 40.9935 0.0000 12.2451 0.0000
# 3 45.0070 40.9935 139.8229 0.0000 12.6942 0.0000
# 4 0.0000 0.0000 0.0000 35.6138 0.0000 5.0468
# 5 2.0218 12.2451 12.6942 0.0000 30.2479 0.0000
# 6 0.0000 0.0000 0.0000 5.0468 0.0000 16.6814
#
#
#
# Elastic Compliance Matrix: (Units=1/GPa)
#
#
# Indices 1 2 3 4 5 6 
#
# 1 0.011205 -0.001443 -0.003294 0.000000 0.001218 0.000000
# 2 -0.001443 0.008021 -0.001665 0.000000 -0.002452 0.000000
# 3 -0.003294 -0.001665 0.008961 0.000000 -0.002866 0.000000
# 4 0.000000 0.000000 0.000000 0.029337 0.000000 -0.008875
# 5 0.001218 -0.002452 -0.002866 0.000000 0.035174 0.000000
# 6 0.000000 0.000000 0.000000 -0.008875 0.000000 0.062632
#
#
# Mechanical properties :
#
#
# Convention : Reuss Voigt Hill
#
# Bulk Modulus (GPa) = 65.00646 68.66858 66.83752
# Shear Modulus (GPa) = 28.85834 34.70464 31.78149
#
# Velocity S-wave (km/s) = 3.78929 4.15543 3.97658
# Velocity P-wave (km/s) = 7.17562 7.56242 7.37156
#
# Compressibility (1/GPa) = 0.01538309
#
# Stress axis : x y z
#
# Youngs Moduli (GPa) = 89.24789 124.67352 111.60076
#
# Poissons Ratio (x) = 0.17988 0.36763
# Poissons Ratio (y) = 0.12877 0.18577
# Poissons Ratio (z) = 0.29400 0.20753
#
# Static dielectric constant tensor:
#      x y z
#    x 3.566890 0.000000 0.310660 
#    y 0.000000 4.159670 0.000000 
#    z 0.310660 0.000000 4.183730 
# 
# 
# High freq. dielectric constant tensor:
#      x y z
#    x 1.763550 0.000000 0.007120 
#    y 0.000000 1.809790 0.000000 
#    z 0.007120 0.000000 1.792220 
# 
# From -- ./inp_files/225469.got.cif
#   From: 2010.06.25/outbox.cif.g09.slc.cpg/sg12_113_cif.got.tgz:225469.got - 2010.06.28 00:19:55.
