data_PCOD8106024
_publ_section_title
;
Structure prediction by ZEFSAII (Michael W. Deem and Ramdas Pophale) SiO2 
 PCOD8106024
Probable space group: C 2/M
;
_chemical_formula_sum "Si O2"
_cell_formula_units_Z 48
_cell_length_a 15.754963
_cell_length_b 8.908703
_cell_length_c 29.167752
_cell_angle_alpha 90.000000
_cell_angle_beta 144.790896
_cell_angle_gamma 90.000000
_cell_volume 2360.374720
_symmetry_space_group_name_H-M "C 2/M"
_symmetry_group_IT_number 12
_symmetry_cell_setting 'monoclinic'
loop_
_space_group_symop_operation_xyz
x,y,z
-x,y,-z
-x,-y,-z
x,-y,z
1/2+x,1/2+y,z
1/2-x,1/2+y,-z
1/2-x,1/2-y,-z
1/2+x,1/2-y,z
loop_
_atom_site_type_symbol
_atom_site_label
_atom_site_fract_x
_atom_site_fract_y
_atom_site_fract_z
Si Si1 0.108298 0.171645 0.005663
Si Si2 0.865845 0.178569 0.410247
Si Si3 0.388414 0.677267 0.316322
Si Si4 0.104156 0.828309 0.836092
Si Si5 0.057070 0.677505 0.314150
Si Si6 0.094809 0.172055 0.166283
O O1 0.248058 0.276794 0.073803
O O2 0.161456 0.000000 0.023912
O O3 0.000000 0.191267 0.000000
O O4 0.025145 0.227328 0.923398
O O5 0.887124 0.238488 0.367900
O O6 0.713776 0.238577 0.364983
O O7 0.000000 0.240623 0.500000
O O8 0.863419 0.000000 0.408751
O O9 0.405752 0.500000 0.322305
O O10 0.525731 0.750982 0.350129
O O11 0.238065 0.724983 0.224856
O O12 0.071511 0.727230 0.777423
O O13 0.969521 0.809334 0.811506
O O14 0.121723 0.000000 0.828112
O O15 0.056213 0.500000 0.318461
O O16 0.139457 0.000000 0.175557
#
# Coordination Sequence:
#
# PCOD8106024 Si02
#       6
#     8   8   8   8   8   8
#     4  10  21  36  54  79 114 158 204 247 297 356
#     4   9  20  40  64  90 122 159 198 242 298 364
#     4  11  22  38  63  93 122 158 203 249 296 355
#     4  11  22  36  57  85 118 156 203 255 297 347
#     4  11  22  39  63  89 121 163 202 244 302 360
#     4  10  21  37  57  84 120 160 201 248 299 353
#
# _framework density 20.335754000000001
#
# number of rings (size 3 to 8) (size 9 to 14) (size 15 to 20)
#    0.000    1.667    1.667    3.000    0.000    3.667 
#    0.000    0.000    0.000    7.000    0.000    0.000 
#    0.000    0.000    0.000    0.000    0.000    0.000 
#
# Total GULP energy -297717.233091 kJ/mol
# GULP energy per Si atom -12404.884712 kJ/mol
# Density = 2.028947 g / cm^3
# Si number density = 20.335754 Si / 1000 Ang^3
#
#
#
# Elastic Constant Matrix: (Units=GPa)
#
#
# Indices 1 2 3 4 5 6 
#
# 1 143.6225 47.4844 60.0274 0.0000 -7.0546 0.0000
# 2 47.4844 70.7807 33.3247 -0.0001 1.3241 0.0001
# 3 60.0274 33.3247 121.7358 0.0000 -1.0616 0.0000
# 4 0.0000 -0.0001 0.0000 20.3562 0.0000 -2.5382
# 5 -7.0546 1.3241 -1.0616 0.0000 23.4360 0.0000
# 6 0.0000 0.0001 0.0000 -2.5382 0.0000 7.3076
#
#
#
# Elastic Compliance Matrix: (Units=1/GPa)
#
#
# Indices 1 2 3 4 5 6 
#
# 1 0.010408 -0.005327 -0.003645 0.000000 0.003269 0.000000
# 2 -0.005327 0.018975 -0.002592 0.000000 -0.002793 0.000000
# 3 -0.003645 -0.002592 0.010717 0.000000 -0.000465 0.000000
# 4 0.000000 0.000000 0.000000 0.051349 0.000000 0.017835
# 5 0.003269 -0.002793 -0.000465 0.000000 0.043790 0.000000
# 6 0.000000 0.000000 0.000000 0.017835 0.000000 0.143039
#
#
# Mechanical properties :
#
#
# Convention : Reuss Voigt Hill
#
# Bulk Modulus (GPa) = 58.92282 68.64578 63.78430
# Shear Modulus (GPa) = 16.28326 23.24013 19.76169
#
# Velocity S-wave (km/s) = 2.83277 3.38423 3.12071
# Velocity P-wave (km/s) = 6.30376 7.00715 6.66474
#
# Compressibility (1/GPa) = 0.01697135
#
# Stress axis : x y z
#
# Youngs Moduli (GPa) = 96.07827 52.70216 93.30593
#
# Poissons Ratio (x) = 0.28076 0.34014
# Poissons Ratio (y) = 0.51184 0.24182
# Poissons Ratio (z) = 0.35024 0.13659
#
# Static dielectric constant tensor:
#      x y z
#    x 3.884590 0.000000 -0.072220 
#    y 0.000000 3.460430 0.000000 
#    z -0.072220 0.000000 3.705190 
# 
# 
# High freq. dielectric constant tensor:
#      x y z
#    x 1.810310 0.000000 -0.004930 
#    y 0.000000 1.776240 0.000000 
#    z -0.004930 0.000000 1.791040 
# 
# From -- ./inp_files/360230.got.cif
#   From: 2010.06.25/outbox.cif.g09.slc.cpg/sg12_181_cif.got.tgz:360230.got - 2010.06.28 00:19:55.
