data_PCOD8106217
_publ_section_title
;
Structure prediction by ZEFSAII (Michael W. Deem and Ramdas Pophale) SiO2 
 PCOD8106217
Probable space group: C 2/M
;
_chemical_formula_sum "Si O2"
_cell_formula_units_Z 56
_cell_length_a 10.102098
_cell_length_b 8.997535
_cell_length_c 31.767175
_cell_angle_alpha 90.000000
_cell_angle_beta 103.522416
_cell_angle_gamma 90.000000
_cell_volume 2807.400715
_symmetry_space_group_name_H-M "C 2/M"
_symmetry_group_IT_number 12
_symmetry_cell_setting 'monoclinic'
loop_
_space_group_symop_operation_xyz
x,y,z
-x,y,-z
-x,-y,-z
x,-y,z
1/2+x,1/2+y,z
1/2-x,1/2+y,-z
1/2-x,1/2-y,-z
1/2+x,1/2-y,z
loop_
_atom_site_type_symbol
_atom_site_label
_atom_site_fract_x
_atom_site_fract_y
_atom_site_fract_z
Si Si1 0.149281 0.824602 0.024606
Si Si2 0.035192 0.826109 0.830957
Si Si3 0.327591 0.328062 0.316181
Si Si4 0.410081 0.173063 0.406325
Si Si5 0.059855 0.828947 0.267752
Si Si6 0.320408 0.673343 0.544416
Si Si7 0.305896 0.324558 0.877687
O O1 0.179597 0.764738 0.073714
O O2 0.167214 0.000000 0.023414
O O3 0.250000 0.750000 0.000000
O O4 0.000000 0.774332 0.000000
O O5 0.176705 0.742689 0.845107
O O6 0.963804 0.781167 0.782077
O O7 0.939359 0.774656 0.862090
O O8 0.065931 0.000000 0.834647
O O9 0.322465 0.500000 0.329036
O O10 0.394193 0.235736 0.358573
O O11 0.175872 0.273741 0.295747
O O12 0.419422 0.302739 0.281926
O O13 0.531658 0.256497 0.438813
O O14 0.269921 0.200330 0.420800
O O15 0.446965 0.000000 0.406785
O O16 0.107193 0.000000 0.274745
O O17 0.337401 0.500000 0.536036
O O18 0.250000 0.750000 0.500000
O O19 0.290660 0.500000 0.875697
#
# Coordination Sequence:
#
# PCOD8106217 Si02
#       7
#     8   8   8   8   8   8   8
#     4  10  21  37  56  80 111 145 184 230 278 332
#     4  10  21  38  59  82 112 149 185 228 282 334
#     4  11  23  38  59  87 116 150 192 234 280 335
#     4  11  24  41  61  87 119 154 193 237 284 336
#     4  10  22  39  58  84 116 148 187 233 280 334
#     4  11  24  41  62  89 119 152 193 238 285 340
#     4  10  21  36  56  83 111 143 186 231 277 333
#
# _framework density 19.947278000000001
#
# number of rings (size 3 to 8) (size 9 to 14) (size 15 to 20)
#    0.000    1.571    0.000    4.286    0.000   11.714 
#    0.000    0.000    0.000    0.000    0.000    0.000 
#    0.000    0.000    0.000    0.000    0.000    0.000 
#
# Total GULP energy -347381.166425 kJ/mol
# GULP energy per Si atom -12406.470229 kJ/mol
# Density = 1.990188 g / cm^3
# Si number density = 19.947278 Si / 1000 Ang^3
#
#
#
# Elastic Constant Matrix: (Units=GPa)
#
#
# Indices 1 2 3 4 5 6 
#
# 1 84.7896 41.9889 13.5096 0.0000 10.0707 0.0000
# 2 41.9889 76.0952 34.6538 0.0000 0.9060 0.0000
# 3 13.5096 34.6538 99.4636 0.0000 -0.2904 0.0000
# 4 0.0000 0.0000 0.0000 35.8208 0.0000 2.9464
# 5 10.0707 0.9060 -0.2904 0.0000 37.9776 0.0000
# 6 0.0000 0.0000 0.0000 2.9464 0.0000 31.4329
#
#
#
# Elastic Compliance Matrix: (Units=1/GPa)
#
#
# Indices 1 2 3 4 5 6 
#
# 1 0.016991 -0.009827 0.001104 0.000000 -0.004263 0.000000
# 2 -0.009827 0.021310 -0.006084 0.000000 0.002051 0.000000
# 3 0.001104 -0.006084 0.012024 0.000000 -0.000056 0.000000
# 4 0.000000 0.000000 0.000000 0.028134 0.000000 -0.002637
# 5 -0.004263 0.002051 -0.000056 0.000000 0.027412 0.000000
# 6 0.000000 0.000000 0.000000 -0.002637 0.000000 0.032061
#
#
# Mechanical properties :
#
#
# Convention : Reuss Voigt Hill
#
# Bulk Modulus (GPa) = 48.28660 48.96144 48.62402
# Shear Modulus (GPa) = 28.66147 32.39267 30.52707
#
# Velocity S-wave (km/s) = 3.79471 4.03415 3.91626
# Velocity P-wave (km/s) = 6.59237 6.80426 6.69915
#
# Compressibility (1/GPa) = 0.02070968
#
# Stress axis : x y z
#
# Youngs Moduli (GPa) = 58.85466 46.92561 83.17025
#
# Poissons Ratio (x) = 0.46116 -0.09180
# Poissons Ratio (y) = 0.57839 0.50600
# Poissons Ratio (z) = -0.06496 0.28549
#
# Static dielectric constant tensor:
#      x y z
#    x 3.895510 0.000000 0.408960 
#    y 0.000000 3.633490 0.000000 
#    z 0.408960 0.000000 5.030900 
# 
# 
# High freq. dielectric constant tensor:
#      x y z
#    x 1.790910 0.000000 -0.002320 
#    y 0.000000 1.777040 0.000000 
#    z -0.002320 0.000000 1.795340 
# 
# From -- ./inp_files/357519.got.cif
#   From: 2010.06.25/outbox.cif.g09.slc.cpg/sg12_179_cif.got.tgz:357519.got - 2010.06.28 00:19:55.
