data_PCOD8106886
_publ_section_title
;
Structure prediction by ZEFSAII (Michael W. Deem and Ramdas Pophale) SiO2 
 PCOD8106886
Probable space group: C 2/M
;
_chemical_formula_sum "Si O2"
_cell_formula_units_Z 64
_cell_length_a 14.648799
_cell_length_b 8.948253
_cell_length_c 26.034441
_cell_angle_alpha 90.000000
_cell_angle_beta 89.136859
_cell_angle_gamma 90.000000
_cell_volume 3412.237486
_symmetry_space_group_name_H-M "C 2/M"
_symmetry_group_IT_number 12
_symmetry_cell_setting 'monoclinic'
loop_
_space_group_symop_operation_xyz
x,y,z
-x,y,-z
-x,-y,-z
x,-y,z
1/2+x,1/2+y,z
1/2-x,1/2+y,-z
1/2-x,1/2-y,-z
1/2+x,1/2-y,z
loop_
_atom_site_type_symbol
_atom_site_label
_atom_site_fract_x
_atom_site_fract_y
_atom_site_fract_z
Si Si1 0.388685 0.322941 0.769723
Si Si2 0.573914 0.173335 0.760712
Si Si3 0.895602 0.824184 0.495264
Si Si4 0.868832 0.170993 0.138441
Si Si5 0.242752 0.673830 0.691371
Si Si6 0.523848 0.324874 0.056701
Si Si7 0.338288 0.171854 0.875882
Si Si8 0.756905 0.323756 0.423101
O O1 0.381934 0.500000 0.773845
O O2 0.487097 0.274047 0.748671
O O3 0.315306 0.254568 0.730406
O O4 0.374076 0.258507 0.826096
O O5 0.621773 0.220833 0.813198
O O6 0.641629 0.203333 0.712951
O O7 0.546863 0.000000 0.765060
O O8 0.847046 0.748139 0.447187
O O9 0.836445 0.781954 0.546250
O O10 0.000000 0.765341 0.500000
O O11 0.895875 0.000000 0.485485
O O12 0.769235 0.192838 0.115227
O O13 0.940263 0.217640 0.094402
O O14 0.884724 0.000000 0.156238
O O15 0.265425 0.500000 0.687935
O O16 0.252658 0.742670 0.634339
O O17 0.545024 0.500000 0.057056
O O18 0.613982 0.238418 0.074141
O O19 0.500000 0.268946 0.000000
O O20 0.365537 0.000000 0.868819
O O21 0.773346 0.500000 0.422606
#
# Coordination Sequence:
#
# PCOD8106886 Si02
#       8
#     8   8   8   8   8   8   8   8
#     4  11  21  36  56  80 109 146 184 222 276 334
#     4  11  21  35  55  81 108 142 186 227 270 325
#     4   9  18  33  55  81 109 143 184 228 276 325
#     4  10  21  37  57  81 111 144 180 222 271 325
#     4   9  20  36  54  78 112 148 183 222 274 333
#     4  10  22  40  60  82 111 148 185 225 276 332
#     4  11  22  36  57  84 111 142 184 229 272 321
#     4   9  18  35  55  77 109 147 184 226 272 324
#
# _framework density 18.756021
#
# number of rings (size 3 to 8) (size 9 to 14) (size 15 to 20)
#    0.000    2.000    2.500    1.125    0.000    2.500 
#    0.000    3.750    0.000    0.000    0.000    0.000 
#    0.000    0.000    0.000    0.000    0.000    0.000 
#
# Total GULP energy -396867.159438 kJ/mol
# GULP energy per Si atom -12402.098732 kJ/mol
# Density = 1.871333 g / cm^3
# Si number density = 18.756021 Si / 1000 Ang^3
#
#
#
# Elastic Constant Matrix: (Units=GPa)
#
#
# Indices 1 2 3 4 5 6 
#
# 1 99.2065 22.4174 26.9312 0.0000 12.5661 0.0000
# 2 22.4174 47.5100 24.3595 0.0000 4.9393 0.0000
# 3 26.9312 24.3595 108.8842 0.0000 8.2525 0.0000
# 4 0.0000 0.0000 0.0000 22.9503 0.0000 3.8928
# 5 12.5661 4.9393 8.2525 0.0000 26.4431 0.0000
# 6 0.0000 0.0000 0.0000 3.8928 0.0000 29.2781
#
#
#
# Elastic Compliance Matrix: (Units=1/GPa)
#
#
# Indices 1 2 3 4 5 6 
#
# 1 0.012083 -0.004385 -0.001674 0.000000 -0.004400 0.000000
# 2 -0.004385 0.025578 -0.004541 0.000000 -0.001277 0.000000
# 3 -0.001674 -0.004541 0.010744 0.000000 -0.001709 0.000000
# 4 0.000000 0.000000 0.000000 0.044578 0.000000 -0.005927
# 5 -0.004400 -0.001277 -0.001709 0.000000 0.040680 0.000000
# 6 0.000000 0.000000 0.000000 -0.005927 0.000000 0.034943
#
#
# Mechanical properties :
#
#
# Convention : Reuss Voigt Hill
#
# Bulk Modulus (GPa) = 36.75917 44.77964 40.76941
# Shear Modulus (GPa) = 25.14149 27.86047 26.50098
#
# Velocity S-wave (km/s) = 3.66519 3.85829 3.76298
# Velocity P-wave (km/s) = 6.12802 6.61628 6.37682
#
# Compressibility (1/GPa) = 0.02720409
#
# Stress axis : x y z
#
# Youngs Moduli (GPa) = 82.76276 39.09540 93.07926
#
# Poissons Ratio (x) = 0.17145 0.15581
# Poissons Ratio (y) = 0.36295 0.42267
# Poissons Ratio (z) = 0.13854 0.17753
#
# Static dielectric constant tensor:
#      x y z
#    x 3.654900 0.000000 0.059090 
#    y 0.000000 3.326340 0.000000 
#    z 0.059090 0.000000 3.544920 
# 
# 
# High freq. dielectric constant tensor:
#      x y z
#    x 1.740160 0.000000 0.001800 
#    y 0.000000 1.715960 0.000000 
#    z 0.001800 0.000000 1.725690 
# 
# From -- ./inp_files/338729.got.cif
#   From: 2010.06.25/outbox.cif.g09.slc.cpg/sg12_170_cif.got.tgz:338729.got - 2010.06.28 00:19:55.
