data_PCOD8106029
_publ_section_title
;
Structure prediction by ZEFSAII (Michael W. Deem and Ramdas Pophale) SiO2 
 PCOD8106029
Probable space group: C 2/M
;
_chemical_formula_sum "Si O2"
_cell_formula_units_Z 48
_cell_length_a 5.252262
_cell_length_b 18.933816
_cell_length_c 23.371651
_cell_angle_alpha 90.000000
_cell_angle_beta 106.494847
_cell_angle_gamma 90.000000
_cell_volume 2228.550393
_symmetry_space_group_name_H-M "C 2/M"
_symmetry_group_IT_number 12
_symmetry_cell_setting 'monoclinic'
loop_
_space_group_symop_operation_xyz
x,y,z
-x,y,-z
-x,-y,-z
x,-y,z
1/2+x,1/2+y,z
1/2-x,1/2+y,-z
1/2-x,1/2-y,-z
1/2+x,1/2-y,z
loop_
_atom_site_type_symbol
_atom_site_label
_atom_site_fract_x
_atom_site_fract_y
_atom_site_fract_z
Si Si1 0.052963 0.775715 0.928700
Si Si2 0.798482 0.076533 0.039253
Si Si3 0.911666 0.293019 0.429940
Si Si4 0.276438 0.919697 0.342711
Si Si5 0.663653 0.216357 0.201723
Si Si6 0.679432 0.920304 0.266570
O O1 0.320793 0.731117 0.962717
O O2 0.113519 0.857311 0.915824
O O3 0.896793 0.735064 0.867959
O O4 0.814348 0.000000 0.072456
O O5 0.500000 0.090513 0.000000
O O6 0.000000 0.074589 0.000000
O O7 0.637232 0.249738 0.410128
O O8 0.874231 0.369005 0.399078
O O9 0.000000 0.307753 0.500000
O O10 0.446651 0.904846 0.296745
O O11 0.965511 0.906359 0.312591
O O12 0.324787 0.000000 0.366327
O O13 0.464635 0.257158 0.232370
O O14 0.640305 0.132549 0.210626
O O15 0.659157 0.000000 0.241244
#
# Coordination Sequence:
#
# PCOD8106029 Si02
#       6
#     8   8   8   8   8   8
#     4  10  21  37  55  82 113 143 181 223 269 324
#     4  10  21  37  58  84 113 146 183 224 272 322
#     4  10  21  36  54  80 113 147 183 223 273 331
#     4  10  21  36  56  82 109 143 185 228 276 325
#     4  10  21  37  55  80 110 142 183 224 271 328
#     4  10  21  37  56  80 110 141 181 231 277 325
#
# _framework density 21.538667
#
# number of rings (size 3 to 8) (size 9 to 14) (size 15 to 20)
#    0.000    2.000    0.000    3.000    0.000    6.333 
#    0.000    6.667    0.000    6.000    0.000    0.000 
#    0.000    0.000    0.000    0.000    0.000    0.000 
#
# Total GULP energy -297493.863222 kJ/mol
# GULP energy per Si atom -12395.577634 kJ/mol
# Density = 2.148964 g / cm^3
# Si number density = 21.538667 Si / 1000 Ang^3
#
#
#
# Elastic Constant Matrix: (Units=GPa)
#
#
# Indices 1 2 3 4 5 6 
#
# 1 161.7083 41.8019 12.4086 0.0000 -3.3172 0.0000
# 2 41.8019 175.3993 48.7527 0.0000 -1.6626 0.0000
# 3 12.4086 48.7527 42.0116 0.0000 -1.3096 0.0000
# 4 0.0000 0.0000 0.0000 42.8504 0.0000 2.8258
# 5 -3.3172 -1.6626 -1.3096 0.0000 12.7859 0.0000
# 6 0.0000 0.0000 0.0000 2.8258 0.0000 32.6172
#
#
#
# Elastic Compliance Matrix: (Units=1/GPa)
#
#
# Indices 1 2 3 4 5 6 
#
# 1 0.006620 -0.001525 -0.000139 0.000000 0.001505 0.000000
# 2 -0.001525 0.008767 -0.009731 0.000000 -0.000252 0.000000
# 3 -0.000139 -0.009731 0.035209 0.000000 0.002305 0.000000
# 4 0.000000 0.000000 0.000000 0.023471 0.000000 -0.002033
# 5 0.001505 -0.000252 0.002305 0.000000 0.078805 0.000000
# 6 0.000000 0.000000 0.000000 -0.002033 0.000000 0.030835
#
#
# Mechanical properties :
#
#
# Convention : Reuss Voigt Hill
#
# Bulk Modulus (GPa) = 35.96419 65.00508 50.48464
# Shear Modulus (GPa) = 23.17341 36.06111 29.61726
#
# Velocity S-wave (km/s) = 3.28365 4.09620 3.71222
# Velocity P-wave (km/s) = 5.57765 7.25382 6.47025
#
# Compressibility (1/GPa) = 0.02780543
#
# Stress axis : x y z
#
# Youngs Moduli (GPa) = 151.06532 114.06214 28.40208
#
# Poissons Ratio (x) = 0.17392 0.00394
# Poissons Ratio (y) = 0.23034 0.27639
# Poissons Ratio (z) = 0.02097 1.10999
#
# Static dielectric constant tensor:
#      x y z
#    x 4.824130 0.000000 -0.089950 
#    y 0.000000 4.315880 0.000000 
#    z -0.089950 0.000000 3.369400 
# 
# 
# High freq. dielectric constant tensor:
#      x y z
#    x 1.893490 0.000000 -0.001720 
#    y 0.000000 1.858960 0.000000 
#    z -0.001720 0.000000 1.803180 
# 
# From -- ./inp_files/331056.got.cif
#   From: 2010.06.25/outbox.cif.g09.slc.cpg/sg12_166_cif.got.tgz:331056.got - 2010.06.28 00:19:55.
