data_PCOD8106320
_publ_section_title
;
Structure prediction by ZEFSAII (Michael W. Deem and Ramdas Pophale) SiO2 
 PCOD8106320
Probable space group: C 2/M
;
_chemical_formula_sum "Si O2"
_cell_formula_units_Z 48
_cell_length_a 27.070395
_cell_length_b 8.946974
_cell_length_c 15.372566
_cell_angle_alpha 90.000000
_cell_angle_beta 139.366498
_cell_angle_gamma 90.000000
_cell_volume 2424.619399
_symmetry_space_group_name_H-M "C 2/M"
_symmetry_group_IT_number 12
_symmetry_cell_setting 'monoclinic'
loop_
_space_group_symop_operation_xyz
x,y,z
-x,y,-z
-x,-y,-z
x,-y,z
1/2+x,1/2+y,z
1/2-x,1/2+y,-z
1/2-x,1/2-y,-z
1/2+x,1/2-y,z
loop_
_atom_site_type_symbol
_atom_site_label
_atom_site_fract_x
_atom_site_fract_y
_atom_site_fract_z
Si Si1 0.222061 0.671725 0.711392
Si Si2 0.528392 0.676376 0.779298
Si Si3 0.699722 0.323335 0.006578
Si Si4 0.551822 0.326805 0.152190
Si Si5 0.453419 0.828322 0.519415
Si Si6 0.712024 0.823520 0.365997
O O1 0.240650 0.500000 0.711634
O O2 0.270524 0.724363 0.858900
O O3 0.134581 0.692084 0.619302
O O4 0.241465 0.776513 0.656766
O O5 0.529017 0.500000 0.773765
O O6 0.495169 0.728089 0.827169
O O7 0.473985 0.738617 0.632742
O O8 0.613927 0.737203 0.883092
O O9 0.704863 0.500000 0.002089
O O10 0.750000 0.250000 0.000000
O O11 0.575917 0.500000 0.192232
O O12 0.625767 0.226918 0.241289
O O13 0.500000 0.298891 0.000000
O O14 0.500000 0.763064 0.500000
O O15 0.475462 0.000000 0.564829
O O16 0.750000 0.750000 0.500000
O O17 0.715972 0.000000 0.382160
#
# Coordination Sequence:
#
# PCOD8106320 Si02
#       6
#     8   8   8   8   8   8
#     4  10  21  39  61  84 114 153 195 238 287 343
#     4  10  21  36  57  85 114 147 186 229 280 338
#     4  10  21  38  60  86 116 151 191 234 283 339
#     4  10  21  40  64  87 116 154 193 236 291 351
#     4  10  21  37  58  83 111 147 189 233 282 334
#     4  12  25  40  60  87 119 154 196 244 293 349
#
# _framework density 19.796921999999999
#
# number of rings (size 3 to 8) (size 9 to 14) (size 15 to 20)
#    0.000    1.667    0.000    4.500    0.000   10.000 
#    0.000    1.667    0.000    0.000    0.000    0.000 
#    0.000    0.000    0.000    0.000    0.000    0.000 
#
# Total GULP energy -297737.675886 kJ/mol
# GULP energy per Si atom -12405.736495 kJ/mol
# Density = 1.975186 g / cm^3
# Si number density = 19.796922 Si / 1000 Ang^3
#
#
#
# Elastic Constant Matrix: (Units=GPa)
#
#
# Indices 1 2 3 4 5 6 
#
# 1 116.6232 44.9340 23.6166 0.0000 -6.5844 0.0000
# 2 44.9340 57.0680 26.4925 0.0000 -0.5014 0.0000
# 3 23.6166 26.4925 91.2723 0.0000 -5.5994 0.0000
# 4 0.0000 0.0000 0.0000 30.8309 0.0000 -2.6597
# 5 -6.5844 -0.5014 -5.5994 0.0000 39.9386 0.0000
# 6 0.0000 0.0000 0.0000 -2.6597 0.0000 34.0519
#
#
#
# Elastic Compliance Matrix: (Units=1/GPa)
#
#
# Indices 1 2 3 4 5 6 
#
# 1 0.012463 -0.009654 -0.000307 0.000000 0.001891 0.000000
# 2 -0.009654 0.027743 -0.005680 0.000000 -0.002040 0.000000
# 3 -0.000307 -0.005680 0.012787 0.000000 0.001671 0.000000
# 4 0.000000 0.000000 0.000000 0.032655 0.000000 0.002551
# 5 0.001891 -0.002040 0.001671 0.000000 0.025559 0.000000
# 6 0.000000 0.000000 0.000000 0.002551 0.000000 0.029566
#
#
# Mechanical properties :
#
#
# Convention : Reuss Voigt Hill
#
# Bulk Modulus (GPa) = 46.05798 50.56108 48.30953
# Shear Modulus (GPa) = 27.88749 32.29229 30.08989
#
# Velocity S-wave (km/s) = 3.75731 4.04317 3.90285
# Velocity P-wave (km/s) = 6.49145 6.88415 6.69068
#
# Compressibility (1/GPa) = 0.02171176
#
# Stress axis : x y z
#
# Youngs Moduli (GPa) = 80.23638 36.04468 78.20636
#
# Poissons Ratio (x) = 0.34799 0.02398
# Poissons Ratio (y) = 0.77462 0.44420
# Poissons Ratio (z) = 0.02460 0.20473
#
# Static dielectric constant tensor:
#      x y z
#    x 3.804840 0.000000 0.017190 
#    y 0.000000 3.443590 0.000000 
#    z 0.017190 0.000000 4.086190 
# 
# 
# High freq. dielectric constant tensor:
#      x y z
#    x 1.790360 0.000000 0.001420 
#    y 0.000000 1.756790 0.000000 
#    z 0.001420 0.000000 1.788940 
# 
# From -- ./inp_files/244599.got.cif
#   From: 2010.06.25/outbox.cif.g09.slc.cpg/sg12_123_cif.got.tgz:244599.got - 2010.06.28 00:19:55.
