data_PCOD8106724
_publ_section_title
;
Structure prediction by ZEFSAII (Michael W. Deem and Ramdas Pophale) SiO2 
 PCOD8106724
Probable space group: C 2/M
;
_chemical_formula_sum "Si O2"
_cell_formula_units_Z 56
_cell_length_a 14.314734
_cell_length_b 9.834834
_cell_length_c 21.702673
_cell_angle_alpha 90.000000
_cell_angle_beta 74.497149
_cell_angle_gamma 90.000000
_cell_volume 2944.205135
_symmetry_space_group_name_H-M "C 2/M"
_symmetry_group_IT_number 12
_symmetry_cell_setting 'monoclinic'
loop_
_space_group_symop_operation_xyz
x,y,z
-x,y,-z
-x,-y,-z
x,-y,z
1/2+x,1/2+y,z
1/2-x,1/2+y,-z
1/2-x,1/2-y,-z
1/2+x,1/2-y,z
loop_
_atom_site_type_symbol
_atom_site_label
_atom_site_fract_x
_atom_site_fract_y
_atom_site_fract_z
Si Si1 0.157629 0.341801 0.499495
Si Si2 0.119003 0.153408 0.281617
Si Si3 0.501984 0.654726 0.815977
Si Si4 0.670931 0.842512 0.795381
Si Si5 0.387755 0.653606 0.954725
Si Si6 0.459262 0.157389 0.600955
Si Si7 0.675792 0.153309 0.935607
O O1 0.187863 0.500000 0.498647
O O2 0.250000 0.250000 0.500000
O O3 0.119033 0.306604 0.438019
O O4 0.069095 0.310115 0.561220
O O5 0.232493 0.188388 0.260286
O O6 0.061972 0.254423 0.335579
O O7 0.083734 0.168493 0.217920
O O8 0.101713 0.000000 0.308606
O O9 0.539525 0.500000 0.812479
O O10 0.588333 0.751800 0.778696
O O11 0.463539 0.702650 0.889514
O O12 0.681491 0.797302 0.864385
O O13 0.642469 0.000000 0.795404
O O14 0.410034 0.500000 0.971881
O O15 0.282356 0.663167 0.943997
O O16 0.396490 0.749333 0.013142
O O17 0.449978 0.000000 0.620218
O O18 0.635672 0.000000 0.947549
#
# Coordination Sequence:
#
# PCOD8106724 Si02
#       7
#     8   8   8   8   8   8   8
#     4   9  19  37  60  86 118 149 179 219 264 310
#     4  10  21  39  58  77 109 149 184 221 265 317
#     4  10  21  37  55  76 105 141 180 223 273 325
#     4  10  21  37  55  76 105 141 180 223 273 325
#     4   9  17  32  53  74  99 133 173 220 273 327
#     4   9  20  38  58  83 115 149 181 219 266 311
#     4   9  17  32  53  74  99 133 173 220 273 327
#
# _framework density 19.020413999999999
#
# number of rings (size 3 to 8) (size 9 to 14) (size 15 to 20)
#    0.000    2.571    1.429    0.857    0.000    5.143 
#    0.000   10.000    0.000    0.000    0.000    0.000 
#    0.000    0.000    0.000    0.000    0.000    0.000 
#
# Total GULP energy -347195.302597 kJ/mol
# GULP energy per Si atom -12399.832236 kJ/mol
# Density = 1.897712 g / cm^3
# Si number density = 19.020414 Si / 1000 Ang^3
#
#
#
# Elastic Constant Matrix: (Units=GPa)
#
#
# Indices 1 2 3 4 5 6 
#
# 1 77.1296 45.8387 23.2859 0.0000 -15.9460 0.0000
# 2 45.8387 87.2852 53.8397 0.0000 -16.9884 0.0000
# 3 23.2859 53.8397 89.5378 0.0000 -15.7959 0.0000
# 4 0.0000 0.0000 0.0000 37.4208 0.0000 -2.0376
# 5 -15.9460 -16.9884 -15.7959 0.0000 19.4606 0.0000
# 6 0.0000 0.0000 0.0000 -2.0376 0.0000 33.4821
#
#
#
# Elastic Compliance Matrix: (Units=1/GPa)
#
#
# Indices 1 2 3 4 5 6 
#
# 1 0.020397 -0.010494 0.002728 0.000000 0.009767 0.000000
# 2 -0.010494 0.024799 -0.011532 0.000000 0.003690 0.000000
# 3 0.002728 -0.011532 0.018687 0.000000 0.007337 0.000000
# 4 0.000000 0.000000 0.000000 0.026812 0.000000 0.001632
# 5 0.009767 0.003690 0.007337 0.000000 0.068566 0.000000
# 6 0.000000 0.000000 0.000000 0.001632 0.000000 0.029966
#
#
# Mechanical properties :
#
#
# Convention : Reuss Voigt Hill
#
# Bulk Modulus (GPa) = 39.54215 55.54237 47.54226
# Shear Modulus (GPa) = 21.16392 26.80525 23.98459
#
# Velocity S-wave (km/s) = 3.33933 3.75812 3.55490
# Velocity P-wave (km/s) = 5.97516 6.93514 6.47297
#
# Compressibility (1/GPa) = 0.02528947
#
# Stress axis : x y z
#
# Youngs Moduli (GPa) = 49.02599 40.32465 53.51226
#
# Poissons Ratio (x) = 0.42316 -0.14600
# Poissons Ratio (y) = 0.51447 0.61708
# Poissons Ratio (z) = -0.13376 0.46501
#
# Static dielectric constant tensor:
#      x y z
#    x 3.360120 0.000000 -0.066520 
#    y 0.000000 3.479660 0.000000 
#    z -0.066520 0.000000 3.392150 
# 
# 
# High freq. dielectric constant tensor:
#      x y z
#    x 1.739210 0.000000 -0.003520 
#    y 0.000000 1.735840 0.000000 
#    z -0.003520 0.000000 1.733380 
# 
# From -- ./inp_files/337916.got.cif
#   From: 2010.06.25/outbox.cif.g09.slc.cpg/sg12_169_cif.got.tgz:337916.got - 2010.06.28 00:19:55.
