data_PCOD8106843
_publ_section_title
;
Structure prediction by ZEFSAII (Michael W. Deem and Ramdas Pophale) SiO2 
 PCOD8106843
Probable space group: C 2/M
;
_chemical_formula_sum "Si O2"
_cell_formula_units_Z 44
_cell_length_a 13.911561
_cell_length_b 11.329682
_cell_length_c 25.421890
_cell_angle_alpha 90.000000
_cell_angle_beta 30.702850
_cell_angle_gamma 90.000000
_cell_volume 2045.832422
_symmetry_space_group_name_H-M "C 2/M"
_symmetry_group_IT_number 12
_symmetry_cell_setting 'monoclinic'
loop_
_space_group_symop_operation_xyz
x,y,z
-x,y,-z
-x,-y,-z
x,-y,z
1/2+x,1/2+y,z
1/2-x,1/2+y,-z
1/2-x,1/2-y,-z
1/2+x,1/2-y,z
loop_
_atom_site_type_symbol
_atom_site_label
_atom_site_fract_x
_atom_site_fract_y
_atom_site_fract_z
Si Si1 0.549207 0.242398 0.856307
Si Si2 0.681492 0.366393 0.694931
Si Si3 0.609637 0.239789 0.237145
Si Si4 0.282862 0.867742 0.449397
Si Si5 0.000000 0.789942 0.500000
Si Si6 0.750964 0.868229 0.066691
O O1 0.597074 0.346533 0.792651
O O2 0.739533 0.197189 0.795054
O O3 0.449176 0.138550 0.870136
O O4 0.405333 0.284921 0.968273
O O5 0.743777 0.500000 0.659371
O O6 0.524401 0.339081 0.724623
O O7 0.867593 0.289346 0.599299
O O8 0.487842 0.144893 0.326975
O O9 0.724422 0.169022 0.139233
O O10 0.250000 0.750000 0.500000
O O11 0.124045 0.871944 0.479231
O O12 0.276487 0.000000 0.480011
O O13 0.827733 0.000000 0.028704
#
# Coordination Sequence:
#
# PCOD8106843 Si02
#       6
#     8   8   8   8   4   8
#     4  10  21  37  56  83 115 146 189 239 288 343
#     4  10  21  37  58  86 118 154 196 241 291 346
#     4  10  22  38  57  85 116 150 191 238 289 346
#     4  11  24  41  62  89 120 156 199 244 294 352
#     4  10  22  40  60  84 119 158 195 238 291 348
#     4  10  21  37  58  82 110 148 190 233 286 347
#
# _framework density 21.507138000000001
#
# number of rings (size 3 to 8) (size 9 to 14) (size 15 to 20)
#    0.000    1.818    0.000    3.273    0.000    9.455 
#    0.000    6.364    0.000    6.545    0.000    0.000 
#    0.000    0.000    0.000    0.000    0.000    0.000 
#
# Total GULP energy -272720.258526 kJ/mol
# GULP energy per Si atom -12396.375388 kJ/mol
# Density = 2.145819 g / cm^3
# Si number density = 21.507138 Si / 1000 Ang^3
#
#
#
# Elastic Constant Matrix: (Units=GPa)
#
#
# Indices 1 2 3 4 5 6 
#
# 1 97.5496 0.1985 34.0453 0.0002 -13.5474 0.0001
# 2 0.1985 94.8310 24.5590 0.0000 17.7565 0.0001
# 3 34.0453 24.5590 99.5359 0.0015 3.5841 0.0002
# 4 0.0002 0.0000 0.0015 13.4745 0.0000 5.2188
# 5 -13.5474 17.7565 3.5841 0.0000 41.4690 0.0000
# 6 0.0001 0.0001 0.0002 5.2188 0.0000 10.2138
#
#
#
# Elastic Compliance Matrix: (Units=1/GPa)
#
#
# Indices 1 2 3 4 5 6 
#
# 1 0.012412 0.000329 -0.004481 0.000000 0.004301 0.000000
# 2 0.000329 0.012221 -0.002953 0.000000 -0.004870 0.000000
# 3 -0.004481 -0.002953 0.012354 -0.000002 -0.001267 0.000001
# 4 0.000000 0.000000 -0.000002 0.092525 0.000000 -0.047276
# 5 0.004301 -0.004870 -0.001267 0.000000 0.027714 0.000000
# 6 0.000000 0.000000 0.000001 -0.047276 0.000000 0.122063
#
#
# Mechanical properties :
#
#
# Convention : Reuss Voigt Hill
#
# Bulk Modulus (GPa) = 43.90427 45.50245 44.70336
# Shear Modulus (GPa) = 16.60631 28.57236 22.58934
#
# Velocity S-wave (km/s) = 2.78174 3.64882 3.24438
# Velocity P-wave (km/s) = 5.54757 6.24137 5.90467
#
# Compressibility (1/GPa) = 0.02277683
#
# Stress axis : x y z
#
# Youngs Moduli (GPa) = 80.56774 81.82686 80.94792
#
# Poissons Ratio (x) = -0.02694 0.36277
# Poissons Ratio (y) = -0.02653 0.23901
# Poissons Ratio (z) = 0.36106 0.24160
#
# Static dielectric constant tensor:
#      x y z
#    x 4.110290 0.000000 -0.090990 
#    y 0.000000 3.470830 0.000000 
#    z -0.090990 0.000000 4.038130 
# 
# 
# High freq. dielectric constant tensor:
#      x y z
#    x 1.857250 0.000000 -0.004550 
#    y 0.000000 1.813040 0.000000 
#    z -0.004550 0.000000 1.859650 
# 
# From -- ./inp_files/360708.got.cif
#   From: 2010.06.25/outbox.cif.g09.slc.cpg/sg12_181_cif.got.tgz:360708.got - 2010.06.28 00:19:55.
