data_PCOD8106182
_publ_section_title
;
Structure prediction by ZEFSAII (Michael W. Deem and Ramdas Pophale) SiO2 
 PCOD8106182
Probable space group: C 2/M
;
_chemical_formula_sum "Si O2"
_cell_formula_units_Z 48
_cell_length_a 8.906205
_cell_length_b 21.972606
_cell_length_c 12.265075
_cell_angle_alpha 90.000000
_cell_angle_beta 95.108382
_cell_angle_gamma 90.000000
_cell_volume 2390.650190
_symmetry_space_group_name_H-M "C 2/M"
_symmetry_group_IT_number 12
_symmetry_cell_setting 'monoclinic'
loop_
_space_group_symop_operation_xyz
x,y,z
-x,y,-z
-x,-y,-z
x,-y,z
1/2+x,1/2+y,z
1/2-x,1/2+y,-z
1/2-x,1/2-y,-z
1/2+x,1/2-y,z
loop_
_atom_site_type_symbol
_atom_site_label
_atom_site_fract_x
_atom_site_fract_y
_atom_site_fract_z
Si Si1 0.264670 0.666338 0.692691
Si Si2 0.649791 0.429114 0.954309
Si Si3 0.518593 0.255518 0.645716
Si Si4 0.235081 0.665656 0.442160
Si Si5 0.809419 0.428131 0.751688
Si Si6 0.147577 0.569626 0.836347
O O1 0.424431 0.700369 0.720055
O O2 0.240660 0.643403 0.566954
O O3 0.259532 0.607149 0.766305
O O4 0.133724 0.713604 0.721560
O O5 0.617284 0.500000 0.939628
O O6 0.799047 0.417777 0.036793
O O7 0.500000 0.398720 0.000000
O O8 0.689145 0.404911 0.835136
O O9 0.611527 0.297796 0.568588
O O10 0.403397 0.212032 0.574076
O O11 0.218531 0.607862 0.361766
O O12 0.794213 0.500000 0.726879
O O13 0.974365 0.411999 0.809130
O O14 0.174075 0.500000 0.805802
#
# Coordination Sequence:
#
# PCOD8106182 Si02
#       6
#     8   8   8   8   8   8
#     4  11  20  35  57  84 113 147 184 227 270 322
#     4   9  19  37  59  80 105 142 188 228 267 327
#     4  10  21  36  56  79 110 151 196 224 257 318
#     4  11  20  35  57  84 113 147 184 227 270 322
#     4  10  21  36  57  84 113 145 180 224 278 331
#     4  10  21  36  57  84 113 145 180 224 278 331
#
# _framework density 20.078220999999999
#
# number of rings (size 3 to 8) (size 9 to 14) (size 15 to 20)
#    0.000    1.833    1.667    4.500    2.333    2.667 
#    0.000    1.667    0.000    8.000    0.000    0.000 
#    0.000    0.000    0.000    0.000    0.000    0.000 
#
# Total GULP energy -297480.281319 kJ/mol
# GULP energy per Si atom -12395.011722 kJ/mol
# Density = 2.003252 g / cm^3
# Si number density = 20.078221 Si / 1000 Ang^3
#
#
#
# Elastic Constant Matrix: (Units=GPa)
#
#
# Indices 1 2 3 4 5 6 
#
# 1 105.5370 33.8195 27.3764 0.0000 -20.3290 0.0000
# 2 33.8195 72.1674 48.1685 0.0000 -13.7792 0.0000
# 3 27.3764 48.1685 78.3696 0.0000 -15.3351 0.0000
# 4 0.0000 0.0000 0.0000 17.2128 0.0000 -14.7914
# 5 -20.3290 -13.7792 -15.3351 0.0000 22.1405 0.0000
# 6 0.0000 0.0000 0.0000 -14.7914 0.0000 48.8131
#
#
#
# Elastic Compliance Matrix: (Units=1/GPa)
#
#
# Indices 1 2 3 4 5 6 
#
# 1 0.012528 -0.004095 -0.000124 0.000000 0.008869 0.000000
# 2 -0.004095 0.025394 -0.013674 0.000000 0.002573 0.000000
# 3 -0.000124 -0.013674 0.022581 0.000000 0.007016 0.000000
# 4 0.000000 0.000000 0.000000 0.078550 0.000000 0.023802
# 5 0.008869 0.002573 0.007016 0.000000 0.059770 0.000000
# 6 0.000000 0.000000 0.000000 0.023802 0.000000 0.027699
#
#
# Mechanical properties :
#
#
# Convention : Reuss Voigt Hill
#
# Bulk Modulus (GPa) = 40.45841 52.75589 46.60715
# Shear Modulus (GPa) = 18.48115 27.41391 22.94753
#
# Velocity S-wave (km/s) = 3.03720 3.69908 3.38436
# Velocity P-wave (km/s) = 5.70031 6.67656 6.20766
#
# Compressibility (1/GPa) = 0.02471674
#
# Stress axis : x y z
#
# Youngs Moduli (GPa) = 79.82085 39.38015 44.28574
#
# Poissons Ratio (x) = 0.16125 0.00550
# Poissons Ratio (y) = 0.32685 0.60555
# Poissons Ratio (z) = 0.00992 0.53848
#
# Static dielectric constant tensor:
#      x y z
#    x 4.087930 0.000000 -0.165260 
#    y 0.000000 3.535940 0.000000 
#    z -0.165260 0.000000 3.412830 
# 
# 
# High freq. dielectric constant tensor:
#      x y z
#    x 1.807320 0.000000 -0.008130 
#    y 0.000000 1.759550 0.000000 
#    z -0.008130 0.000000 1.761800 
# 
# From -- ./inp_files/121873.got.cif
#   From: 2010.06.25/outbox.cif.g09.slc.cpg/sg12_61_cif.got.tgz:121873.got - 2010.06.28 00:19:55.
