data_PCOD8106631
_publ_section_title
;
Structure prediction by ZEFSAII (Michael W. Deem and Ramdas Pophale) SiO2 
 PCOD8106631
Probable space group: C 2/M
;
_chemical_formula_sum "Si O2"
_cell_formula_units_Z 44
_cell_length_a 5.220018
_cell_length_b 23.778295
_cell_length_c 16.259205
_cell_angle_alpha 90.000000
_cell_angle_beta 72.016870
_cell_angle_gamma 90.000000
_cell_volume 1919.551954
_symmetry_space_group_name_H-M "C 2/M"
_symmetry_group_IT_number 12
_symmetry_cell_setting 'monoclinic'
loop_
_space_group_symop_operation_xyz
x,y,z
-x,y,-z
-x,-y,-z
x,-y,z
1/2+x,1/2+y,z
1/2-x,1/2+y,-z
1/2-x,1/2-y,-z
1/2+x,1/2-y,z
loop_
_atom_site_type_symbol
_atom_site_label
_atom_site_fract_x
_atom_site_fract_y
_atom_site_fract_z
Si Si1 0.067608 0.860665 0.168441
Si Si2 0.817212 0.563970 0.697892
Si Si3 0.423065 0.599365 0.599685
Si Si4 0.960936 0.438893 0.908034
Si Si5 0.464272 0.714258 0.678280
Si Si6 0.000000 0.864007 0.000000
O O1 0.291710 0.908352 0.160243
O O2 0.133596 0.810044 0.223907
O O3 0.786979 0.892635 0.220625
O O4 0.108463 0.832034 0.071097
O O5 0.829753 0.500000 0.729938
O O6 0.616136 0.564418 0.640552
O O7 0.112339 0.584726 0.643949
O O8 0.500000 0.583198 0.500000
O O9 0.481209 0.665264 0.609351
O O10 0.925707 0.500000 0.869635
O O11 0.694532 0.402521 0.925815
O O12 0.000000 0.446402 0.000000
O O13 0.760223 0.739417 0.664066
#
# Coordination Sequence:
#
# PCOD8106631 Si02
#       6
#     8   8   8   8   8   4
#     4  10  23  40  62  91 132 174 226 277 327 388
#     4  11  24  41  67 103 144 184 215 257 325 404
#     4  11  25  45  70 102 135 171 222 274 329 403
#     4   9  18  33  55  88 125 164 209 261 320 380
#     4  11  25  45  70  95 128 170 223 286 347 391
#     4  10  21  36  62  90 132 172 222 274 321 380
#
# _framework density 22.922015999999999
#
# number of rings (size 3 to 8) (size 9 to 14) (size 15 to 20)
#    0.000    1.636    0.000    4.091    7.636    5.091 
#    0.000    0.909    0.000    0.000    0.000    0.000 
#    0.000    0.000    0.000    0.000    0.000    0.000 
#
# Total GULP energy -272552.462327 kJ/mol
# GULP energy per Si atom -12388.748288 kJ/mol
# Density = 2.286984 g / cm^3
# Si number density = 22.922016 Si / 1000 Ang^3
#
#
#
# Elastic Constant Matrix: (Units=GPa)
#
#
# Indices 1 2 3 4 5 6 
#
# 1 118.5890 13.4805 43.9071 0.0000 -23.2672 0.0000
# 2 13.4805 66.8847 -1.0885 0.0000 -5.6241 0.0000
# 3 43.9071 -1.0885 137.1133 0.0000 9.9417 0.0000
# 4 0.0000 0.0000 0.0000 8.9759 0.0000 15.6043
# 5 -23.2672 -5.6241 9.9417 0.0000 38.6507 0.0000
# 6 0.0000 0.0000 0.0000 15.6043 0.0000 -96.3853
#
#
#
# Elastic Compliance Matrix: (Units=1/GPa)
#
#
# Indices 1 2 3 4 5 6 
#
# 1 0.011823 -0.001783 -0.004379 0.000000 0.007984 0.000000
# 2 -0.001783 0.015405 0.000620 0.000000 0.001009 0.000000
# 3 -0.004379 0.000620 0.009054 0.000000 -0.004875 0.000000
# 4 0.000000 0.000000 0.000000 0.086941 0.000000 0.014075
# 5 0.007984 0.001009 -0.004875 0.000000 0.032080 0.000000
# 6 0.000000 0.000000 0.000000 0.014075 0.000000 -0.008096
#
#
# Mechanical properties :
#
#
# Convention : Reuss Voigt Hill
#
# Bulk Modulus (GPa) = 39.68478 48.35389 44.01934
# Shear Modulus (GPa) = 29.99586 8.00077 18.99832
#
# Velocity S-wave (km/s) = 3.62139 1.87030 2.88205
# Velocity P-wave (km/s) = 5.90224 5.07984 5.50642
#
# Compressibility (1/GPa) = 0.02519857
#
# Stress axis : x y z
#
# Youngs Moduli (GPa) = 84.58095 64.91244 110.44955
#
# Poissons Ratio (x) = 0.11573 0.48367
# Poissons Ratio (y) = 0.15079 -0.06848
# Poissons Ratio (z) = 0.37039 -0.04025
#
# Static dielectric constant tensor:
#      x y z
#    x 4.328070 0.000000 0.042390 
#    y 0.000000 4.266850 0.000000 
#    z 0.042390 0.000000 4.076590 
# 
# 
# High freq. dielectric constant tensor:
#      x y z
#    x 1.919770 0.000000 0.013100 
#    y 0.000000 1.881140 0.000000 
#    z 0.013100 0.000000 1.919620 
# 
# From -- ./inp_files/253125.got.cif
#   From: 2010.06.25/outbox.cif.g09.slc.cpg/sg12_127_cif.got.tgz:253125.got - 2010.06.28 00:19:55.
