data_PCOD8106049
_publ_section_title
;
Structure prediction by ZEFSAII (Michael W. Deem and Ramdas Pophale) SiO2 
 PCOD8106049
Probable space group: C 2/M
;
_chemical_formula_sum "Si O2"
_cell_formula_units_Z 64
_cell_length_a 9.536606
_cell_length_b 22.757571
_cell_length_c 32.323444
_cell_angle_alpha 90.000000
_cell_angle_beta 150.464900
_cell_angle_gamma 90.000000
_cell_volume 3458.168178
_symmetry_space_group_name_H-M "C 2/M"
_symmetry_group_IT_number 12
_symmetry_cell_setting 'monoclinic'
loop_
_space_group_symop_operation_xyz
x,y,z
-x,y,-z
-x,-y,-z
x,-y,z
1/2+x,1/2+y,z
1/2-x,1/2+y,-z
1/2-x,1/2-y,-z
1/2+x,1/2-y,z
loop_
_atom_site_type_symbol
_atom_site_label
_atom_site_fract_x
_atom_site_fract_y
_atom_site_fract_z
Si Si1 0.901350 0.569606 0.850066
Si Si2 0.732935 0.433034 0.318498
Si Si3 0.825128 0.430775 0.166423
Si Si4 0.840032 0.568500 0.999111
Si Si5 0.711933 0.866909 0.591947
Si Si6 0.242688 0.148571 0.678195
Si Si7 0.724810 0.868168 0.407067
Si Si8 0.001211 0.730240 0.595045
O O1 0.888336 0.500000 0.849644
O O2 0.581737 0.595934 0.764501
O O3 0.090539 0.586473 0.858781
O O4 0.041179 0.596510 0.927630
O O5 0.707335 0.500000 0.301361
O O6 0.862848 0.422364 0.397938
O O7 0.943536 0.407343 0.338379
O O8 0.905229 0.500000 0.196464
O O9 0.963650 0.381777 0.232388
O O10 0.494075 0.420081 0.088828
O O11 0.909514 0.500000 0.017972
O O12 0.000000 0.596336 0.000000
O O13 0.500000 0.857565 0.500000
O O14 0.710643 0.810908 0.622215
O O15 0.017977 0.879890 0.651626
O O16 0.178676 0.131827 0.615081
O O17 0.197272 0.219457 0.666753
O O18 0.652525 0.803745 0.406672
O O19 0.000000 0.895938 0.500000
O O20 0.750000 0.750000 0.500000
#
# Coordination Sequence:
#
# PCOD8106049 Si02
#       8
#     8   8   8   8   8   8   8   8
#     4   9  17  34  56  78 111 152 189 226 271 328
#     4  10  22  38  54  79 120 159 193 231 281 346
#     4  10  21  36  54  84 121 150 183 227 279 349
#     4   9  18  32  56  85 112 147 184 225 279 335
#     4  11  21  36  58  82 108 151 197 243 284 333
#     4  12  22  33  58  86 112 144 192 240 296 335
#     4  11  23  38  55  82 110 151 197 247 295 332
#     4  11  21  38  60  79 109 141 191 254 296 329
#
# _framework density 18.506907999999999
#
# number of rings (size 3 to 8) (size 9 to 14) (size 15 to 20)
#    0.000    1.625    3.750    1.875    1.750    2.500 
#    0.000    1.250    0.000    0.000    0.000    3.500 
#    0.000    0.000    0.000    0.000    0.000    0.000 
#
# Total GULP energy -396490.129413 kJ/mol
# GULP energy per Si atom -12390.316544 kJ/mol
# Density = 1.846479 g / cm^3
# Si number density = 18.506908 Si / 1000 Ang^3
#
#
#
# Elastic Constant Matrix: (Units=GPa)
#
#
# Indices 1 2 3 4 5 6 
#
# 1 114.2867 14.1201 41.1018 0.0136 8.4137 0.0023
# 2 14.1201 47.1646 36.9994 0.0068 2.5984 0.0038
# 3 41.1018 36.9994 92.4618 0.0052 0.4747 0.0036
# 4 0.0136 0.0068 0.0052 20.0780 0.0051 0.0039
# 5 8.4137 2.5984 0.4747 0.0051 36.2827 0.0023
# 6 0.0023 0.0038 0.0036 0.0039 0.0023 20.5014
#
#
#
# Elastic Compliance Matrix: (Units=1/GPa)
#
#
# Indices 1 2 3 4 5 6 
#
# 1 0.010649 0.000950 -0.005101 -0.000006 -0.002471 0.000000
# 2 0.000950 0.031142 -0.012872 -0.000007 -0.002282 -0.000003
# 3 -0.005101 -0.012872 0.018224 0.000003 0.001866 0.000000
# 4 -0.000006 -0.000007 0.000003 0.049806 -0.000005 -0.000009
# 5 -0.002471 -0.002282 0.001866 -0.000005 0.028273 -0.000003
# 6 0.000000 -0.000003 0.000000 -0.000009 -0.000003 0.048777
#
#
# Mechanical properties :
#
#
# Convention : Reuss Voigt Hill
#
# Bulk Modulus (GPa) = 38.50916 48.70618 43.60767
# Shear Modulus (GPa) = 21.77950 26.15188 23.96569
#
# Velocity S-wave (km/s) = 3.43422 3.76318 3.60246
# Velocity P-wave (km/s) = 6.04800 6.72734 6.39669
#
# Compressibility (1/GPa) = 0.02596785
#
# Stress axis : x y z
#
# Youngs Moduli (GPa) = 93.90511 32.11147 54.87220
#
# Poissons Ratio (x) = -0.03050 0.27991
# Poissons Ratio (y) = -0.08919 0.70632
# Poissons Ratio (z) = 0.47903 0.41334
#
# Static dielectric constant tensor:
#      x y z
#    x 3.735100 0.000010 0.038150 
#    y 0.000010 3.353680 -0.000020 
#    z 0.038150 -0.000020 3.554530 
# 
# 
# High freq. dielectric constant tensor:
#      x y z
#    x 1.746530 0.000000 0.003640 
#    y 0.000000 1.674370 0.000000 
#    z 0.003640 0.000000 1.706720 
# 
# From -- ./inp_files/198866.got.cif
#   From: 2010.06.25/outbox.cif.g09.slc.cpg/sg12_100_cif.got.tgz:198866.got - 2010.06.28 00:19:55.
