data_PCOD8106380
_publ_section_title
;
Structure prediction by ZEFSAII (Michael W. Deem and Ramdas Pophale) SiO2 
 PCOD8106380
Probable space group: C 2/M
;
_chemical_formula_sum "Si O2"
_cell_formula_units_Z 48
_cell_length_a 26.597629
_cell_length_b 8.995038
_cell_length_c 20.742678
_cell_angle_alpha 90.000000
_cell_angle_beta 26.536608
_cell_angle_gamma 90.000000
_cell_volume 2217.145992
_symmetry_space_group_name_H-M "C 2/M"
_symmetry_group_IT_number 12
_symmetry_cell_setting 'monoclinic'
loop_
_space_group_symop_operation_xyz
x,y,z
-x,y,-z
-x,-y,-z
x,-y,z
1/2+x,1/2+y,z
1/2-x,1/2+y,-z
1/2-x,1/2-y,-z
1/2+x,1/2-y,z
loop_
_atom_site_type_symbol
_atom_site_label
_atom_site_fract_x
_atom_site_fract_y
_atom_site_fract_z
Si Si1 0.192547 0.172844 0.159170
Si Si2 0.027280 0.329076 0.600582
Si Si3 0.329331 0.328596 0.664580
Si Si4 0.609786 0.332389 0.908947
Si Si5 0.136930 0.328324 0.606533
Si Si6 0.417654 0.331679 0.907799
O O1 0.169084 0.201423 0.261419
O O2 0.085354 0.243958 0.245614
O O3 0.203488 0.000000 0.129970
O O4 0.306953 0.253200 0.004757
O O5 0.995699 0.500000 0.624893
O O6 0.069810 0.260033 0.484788
O O7 0.122807 0.310974 0.545657
O O8 0.346219 0.500000 0.628176
O O9 0.211596 0.272598 0.770464
O O10 0.635744 0.500000 0.855177
O O11 0.500000 0.268188 0.000000
O O12 0.591869 0.329768 0.005061
O O13 0.143221 0.500000 0.619539
O O14 0.250000 0.250000 0.500000
O O15 0.029753 0.256774 0.763328
O O16 0.424435 0.500000 0.873400
#
# Coordination Sequence:
#
# PCOD8106380 Si02
#       6
#     8   8   8   8   8   8
#     4  10  21  39  63  92 125 157 196 247 301 355
#     4  11  24  40  61  88 120 161 204 245 298 358
#     4  10  21  36  57  90 125 156 194 244 299 354
#     4   9  19  35  57  85 118 156 196 242 295 353
#     4  11  26  45  63  86 119 159 203 251 299 352
#     4  10  21  39  63  89 120 158 199 246 299 353
#
# _framework density 21.649453000000001
#
# number of rings (size 3 to 8) (size 9 to 14) (size 15 to 20)
#    0.000    1.833    0.000    3.000    2.333    8.333 
#    0.000    0.000    0.000    0.000    0.000    0.000 
#    0.000    0.000    0.000    0.000    0.000    0.000 
#
# Total GULP energy -297696.726625 kJ/mol
# GULP energy per Si atom -12404.030276 kJ/mol
# Density = 2.160018 g / cm^3
# Si number density = 21.649453 Si / 1000 Ang^3
#
#
#
# Elastic Constant Matrix: (Units=GPa)
#
#
# Indices 1 2 3 4 5 6 
#
# 1 51.7882 35.3897 20.3124 -0.0003 -34.5184 0.0003
# 2 35.3897 164.1667 69.0217 0.0005 -18.6891 0.0008
# 3 20.3124 69.0217 122.9079 -0.0008 -30.9672 0.0007
# 4 -0.0003 0.0005 -0.0008 44.7407 0.0003 -9.1415
# 5 -34.5184 -18.6891 -30.9672 0.0003 36.7333 -0.0006
# 6 0.0003 0.0008 0.0007 -9.1415 -0.0006 29.1608
#
#
#
# Elastic Compliance Matrix: (Units=1/GPa)
#
#
# Indices 1 2 3 4 5 6 
#
# 1 0.069176 -0.012507 0.013162 0.000001 0.069737 0.000001
# 2 -0.012507 0.010239 -0.006770 0.000000 -0.012250 0.000000
# 3 0.013162 -0.006770 0.015250 0.000000 0.021780 0.000000
# 4 0.000001 0.000000 0.000000 0.023881 0.000001 0.007486
# 5 0.069737 -0.012250 0.021780 0.000001 0.104884 0.000001
# 6 0.000001 0.000000 0.000000 0.007486 0.000001 0.036640
#
#
# Mechanical properties :
#
#
# Convention : Reuss Voigt Hill
#
# Bulk Modulus (GPa) = 12.13068 65.36782 38.74925
# Shear Modulus (GPa) = 16.67904 36.40288 26.54096
#
# Velocity S-wave (km/s) = 2.77864 4.10502 3.50514
# Velocity P-wave (km/s) = 3.98872 7.26137 5.85822
#
# Compressibility (1/GPa) = 0.08243563
#
# Stress axis : x y z
#
# Youngs Moduli (GPa) = 14.45593 97.66501 65.57280
#
# Poissons Ratio (x) = 1.22150 -0.86306
# Poissons Ratio (y) = 0.18080 0.44390
# Poissons Ratio (z) = -0.19027 0.66115
#
# Static dielectric constant tensor:
#      x y z
#    x 3.909790 0.000000 -0.175350 
#    y 0.000000 4.037150 0.000000 
#    z -0.175350 0.000000 3.921480 
# 
# 
# High freq. dielectric constant tensor:
#      x y z
#    x 1.852050 0.000000 -0.008830 
#    y 0.000000 1.857470 0.000000 
#    z -0.008830 0.000000 1.857170 
# 
# From -- ./inp_files/327147.got.cif
#   From: 2010.06.25/outbox.cif.g09.slc.cpg/sg12_164_cif.got.tgz:327147.got - 2010.06.28 00:19:55.
