data_PCOD8106210
_publ_section_title
;
Structure prediction by ZEFSAII (Michael W. Deem and Ramdas Pophale) SiO2 
 PCOD8106210
Probable space group: C 2/M
;
_chemical_formula_sum "Si O2"
_cell_formula_units_Z 64
_cell_length_a 14.614010
_cell_length_b 9.067011
_cell_length_c 26.823154
_cell_angle_alpha 90.000000
_cell_angle_beta 105.700278
_cell_angle_gamma 90.000000
_cell_volume 3421.606340
_symmetry_space_group_name_H-M "C 2/M"
_symmetry_group_IT_number 12
_symmetry_cell_setting 'monoclinic'
loop_
_space_group_symop_operation_xyz
x,y,z
-x,y,-z
-x,-y,-z
x,-y,z
1/2+x,1/2+y,z
1/2-x,1/2+y,-z
1/2-x,1/2-y,-z
1/2+x,1/2-y,z
loop_
_atom_site_type_symbol
_atom_site_label
_atom_site_fract_x
_atom_site_fract_y
_atom_site_fract_z
Si Si1 0.219001 0.671813 0.424556
Si Si2 0.511377 0.670234 0.875455
Si Si3 0.275953 0.170028 0.239522
Si Si4 0.171916 0.671634 0.306622
Si Si5 0.214164 0.169007 0.946268
Si Si6 0.675692 0.175033 0.133725
Si Si7 0.893167 0.326204 0.494776
Si Si8 0.022717 0.331034 0.774712
O O1 0.242019 0.500000 0.432195
O O2 0.174107 0.714344 0.364919
O O3 0.140938 0.718131 0.454532
O O4 0.319059 0.755425 0.445165
O O5 0.480167 0.500000 0.867645
O O6 0.601884 0.689752 0.924348
O O7 0.431038 0.768414 0.889460
O O8 0.535008 0.725113 0.823562
O O9 0.252073 0.234092 0.290249
O O10 0.215336 0.258911 0.190371
O O11 0.387690 0.191442 0.247965
O O12 0.245867 0.000000 0.231738
O O13 0.193895 0.500000 0.301664
O O14 0.068855 0.715097 0.270422
O O15 0.263996 0.233938 0.904169
O O16 0.243364 0.000000 0.956436
O O17 0.250000 0.250000 0.000000
O O18 0.678476 0.000000 0.138716
O O19 0.890862 0.500000 0.486017
O O20 0.000000 0.266062 0.500000
O O21 0.015258 0.500000 0.792442
#
# Coordination Sequence:
#
# PCOD8106210 Si02
#       8
#     8   8   8   8   8   8   8   8
#     4   9  19  35  54  80 114 150 188 233 285 337
#     4  11  22  38  60  87 114 145 188 234 278 334
#     4  11  22  35  56  86 112 146 194 236 277 334
#     4  10  21  37  55  79 116 155 188 229 286 343
#     4  10  24  42  61  85 116 149 186 235 287 338
#     4  11  22  39  60  84 114 150 187 229 286 342
#     4   9  18  34  58  83 109 146 191 236 286 338
#     4  10  21  36  56  82 112 150 188 227 282 341
#
# _framework density 18.704666
#
# number of rings (size 3 to 8) (size 9 to 14) (size 15 to 20)
#    0.000    1.875    2.500    1.125    0.000    4.750 
#    0.000    5.000    0.000    0.000    0.000    0.000 
#    0.000    0.000    0.000    0.000    0.000    0.000 
#
# Total GULP energy -396907.110139 kJ/mol
# GULP energy per Si atom -12403.347192 kJ/mol
# Density = 1.866209 g / cm^3
# Si number density = 18.704666 Si / 1000 Ang^3
#
#
#
# Elastic Constant Matrix: (Units=GPa)
#
#
# Indices 1 2 3 4 5 6 
#
# 1 108.7338 32.2922 27.1774 0.0000 -1.2298 0.0000
# 2 32.2922 61.9910 35.2803 0.0000 -0.9232 0.0000
# 3 27.1774 35.2803 97.6160 0.0000 1.3820 0.0000
# 4 0.0000 0.0000 0.0000 31.1606 0.0000 -0.2266
# 5 -1.2298 -0.9232 1.3820 0.0000 24.6092 0.0000
# 6 0.0000 0.0000 0.0000 -0.2266 0.0000 31.8825
#
#
#
# Elastic Compliance Matrix: (Units=1/GPa)
#
#
# Indices 1 2 3 4 5 6 
#
# 1 0.011004 -0.005009 -0.001259 0.000000 0.000433 0.000000
# 2 -0.005009 0.022623 -0.006796 0.000000 0.000980 0.000000
# 3 -0.001259 -0.006796 0.013066 0.000000 -0.001052 0.000000
# 4 0.000000 0.000000 0.000000 0.032093 0.000000 0.000228
# 5 0.000433 0.000980 -0.001052 0.000000 0.040753 0.000000
# 6 0.000000 0.000000 0.000000 0.000228 0.000000 0.031367
#
#
# Mechanical properties :
#
#
# Convention : Reuss Voigt Hill
#
# Bulk Modulus (GPa) = 48.62739 50.87119 49.74929
# Shear Modulus (GPa) = 27.19039 29.10319 28.14679
#
# Velocity S-wave (km/s) = 3.81684 3.94881 3.88338
# Velocity P-wave (km/s) = 6.74376 6.93159 6.83832
#
# Compressibility (1/GPa) = 0.02056454
#
# Stress axis : x y z
#
# Youngs Moduli (GPa) = 90.87570 44.20325 76.53558
#
# Poissons Ratio (x) = 0.22141 0.09639
# Poissons Ratio (y) = 0.45520 0.52011
# Poissons Ratio (z) = 0.11445 0.30039
#
# Static dielectric constant tensor:
#      x y z
#    x 3.729110 0.000000 -0.066040 
#    y 0.000000 3.436530 0.000000 
#    z -0.066040 0.000000 3.375570 
# 
# 
# High freq. dielectric constant tensor:
#      x y z
#    x 1.737900 0.000000 -0.000700 
#    y 0.000000 1.725760 0.000000 
#    z -0.000700 0.000000 1.720320 
# 
# From -- ./inp_files/359948.got.cif
#   From: 2010.06.25/outbox.cif.g09.slc.cpg/sg12_180_cif.got.tgz:359948.got - 2010.06.28 00:19:55.
