data_PCOD8106188
_publ_section_title
;
Structure prediction by ZEFSAII (Michael W. Deem and Ramdas Pophale) SiO2 
 PCOD8106188
Probable space group: C 2/M
;
_chemical_formula_sum "Si O2"
_cell_formula_units_Z 64
_cell_length_a 31.225118
_cell_length_b 8.829431
_cell_length_c 15.651213
_cell_angle_alpha 90.000000
_cell_angle_beta 127.040368
_cell_angle_gamma 90.000000
_cell_volume 3444.313540
_symmetry_space_group_name_H-M "C 2/M"
_symmetry_group_IT_number 12
_symmetry_cell_setting 'monoclinic'
loop_
_space_group_symop_operation_xyz
x,y,z
-x,y,-z
-x,-y,-z
x,-y,z
1/2+x,1/2+y,z
1/2-x,1/2+y,-z
1/2-x,1/2-y,-z
1/2+x,1/2-y,z
loop_
_atom_site_type_symbol
_atom_site_label
_atom_site_fract_x
_atom_site_fract_y
_atom_site_fract_z
Si Si1 0.845046 0.175674 0.793503
Si Si2 0.099870 0.328057 0.295151
Si Si3 0.271063 0.324823 0.940139
Si Si4 0.529154 0.676116 0.446762
Si Si5 0.109973 0.172778 0.971786
Si Si6 0.362352 0.174400 0.470956
Si Si7 0.986998 0.675904 0.234005
Si Si8 0.740558 0.677931 0.729758
O O1 0.877318 0.214106 0.747278
O O2 0.790099 0.269277 0.730859
O O3 0.829077 0.000000 0.775498
O O4 0.882206 0.214036 0.919421
O O5 0.105578 0.500000 0.268856
O O6 0.132732 0.305131 0.421612
O O7 0.037805 0.285846 0.235398
O O8 0.255885 0.500000 0.922158
O O9 0.241544 0.251782 0.824121
O O10 0.250000 0.250000 0.000000
O O11 0.334748 0.300197 0.011918
O O12 0.500000 0.711125 0.500000
O O13 0.543183 0.500000 0.453345
O O14 0.583581 0.772042 0.510392
O O15 0.489259 0.726396 0.323095
O O16 0.066431 0.285993 0.881707
O O17 0.090359 0.000000 0.937476
O O18 0.313800 0.277349 0.382365
O O19 0.352092 0.000000 0.434282
O O20 0.987717 0.500000 0.260455
O O21 0.743120 0.500000 0.744328
#
# Coordination Sequence:
#
# PCOD8106188 Si02
#       8
#     8   8   8   8   8   8   8   8
#     4  10  21  37  57  81 109 143 182 225 273 324
#     4   9  20  37  55  79 109 141 179 223 270 323
#     4  10  21  38  58  82 112 145 183 227 274 325
#     4  10  21  37  57  81 110 143 180 223 271 323
#     4   9  20  37  55  78 109 142 179 223 269 320
#     4  10  21  38  58  81 111 144 182 226 270 323
#     4  10  21  36  56  81 109 143 182 223 268 320
#     4  11  22  37  58  82 110 145 183 225 274 324
#
# _framework density 18.581351999999999
#
# number of rings (size 3 to 8) (size 9 to 14) (size 15 to 20)
#    0.000    2.125    0.000    4.500    0.000    9.000 
#    0.000    3.750    0.000    0.000    0.000    0.000 
#    0.000    0.000    0.000    0.000    0.000    0.000 
#
# Total GULP energy -396948.460373 kJ/mol
# GULP energy per Si atom -12404.639387 kJ/mol
# Density = 1.853906 g / cm^3
# Si number density = 18.581352 Si / 1000 Ang^3
#
#
#
# Elastic Constant Matrix: (Units=GPa)
#
#
# Indices 1 2 3 4 5 6 
#
# 1 103.3992 53.3420 58.1790 0.0000 -17.2823 0.0000
# 2 53.3420 105.0816 45.8883 0.0000 -5.6579 0.0000
# 3 58.1790 45.8883 98.6402 0.0000 7.8113 0.0000
# 4 0.0000 0.0000 0.0000 36.0879 0.0000 0.5563
# 5 -17.2823 -5.6579 7.8113 0.0000 27.5455 0.0000
# 6 0.0000 0.0000 0.0000 0.5563 0.0000 35.3011
#
#
#
# Elastic Compliance Matrix: (Units=1/GPa)
#
#
# Indices 1 2 3 4 5 6 
#
# 1 0.021305 -0.004954 -0.011498 0.000000 0.015610 0.000000
# 2 -0.004954 0.013570 -0.003443 0.000000 0.000656 0.000000
# 3 -0.011498 -0.003443 0.019588 0.000000 -0.013476 0.000000
# 4 0.000000 0.000000 0.000000 0.027717 0.000000 -0.000437
# 5 0.015610 0.000656 -0.013476 0.000000 0.050054 0.000000
# 6 0.000000 0.000000 0.000000 -0.000437 0.000000 0.028335
#
#
# Mechanical properties :
#
#
# Convention : Reuss Voigt Hill
#
# Bulk Modulus (GPa) = 68.14543 69.10441 68.62492
# Shear Modulus (GPa) = 24.36072 29.76769 27.06420
#
# Velocity S-wave (km/s) = 3.62474 4.00687 3.82058
# Velocity P-wave (km/s) = 7.36696 7.66013 7.51497
#
# Compressibility (1/GPa) = 0.01467450
#
# Stress axis : x y z
#
# Youngs Moduli (GPa) = 46.93703 73.69294 51.05110
#
# Poissons Ratio (x) = 0.36504 0.58697
# Poissons Ratio (y) = 0.23250 0.17577
# Poissons Ratio (z) = 0.53967 0.25373
#
# Static dielectric constant tensor:
#      x y z
#    x 3.365320 0.000000 -0.013590 
#    y 0.000000 3.478480 0.000000 
#    z -0.013590 0.000000 3.387880 
# 
# 
# High freq. dielectric constant tensor:
#      x y z
#    x 1.721140 0.000000 -0.000380 
#    y 0.000000 1.734310 0.000000 
#    z -0.000380 0.000000 1.722430 
# 
# From -- ./inp_files/250111.got.cif
#   From: 2010.06.25/outbox.cif.g09.slc.cpg/sg12_126_cif.got.tgz:250111.got - 2010.06.28 00:19:55.
