data_PCOD8106387
_publ_section_title
;
Structure prediction by ZEFSAII (Michael W. Deem and Ramdas Pophale) SiO2 
 PCOD8106387
Probable space group: C 2/M
;
_chemical_formula_sum "Si O2"
_cell_formula_units_Z 44
_cell_length_a 16.747232
_cell_length_b 19.520207
_cell_length_c 8.243759
_cell_angle_alpha 90.000000
_cell_angle_beta 54.326936
_cell_angle_gamma 90.000000
_cell_volume 2189.273815
_symmetry_space_group_name_H-M "C 2/M"
_symmetry_group_IT_number 12
_symmetry_cell_setting 'monoclinic'
loop_
_space_group_symop_operation_xyz
x,y,z
-x,y,-z
-x,-y,-z
x,-y,z
1/2+x,1/2+y,z
1/2-x,1/2+y,-z
1/2-x,1/2-y,-z
1/2+x,1/2-y,z
loop_
_atom_site_type_symbol
_atom_site_label
_atom_site_fract_x
_atom_site_fract_y
_atom_site_fract_z
Si Si1 0.211080 0.925968 0.412816
Si Si2 0.297576 0.191635 0.131954
Si Si3 0.609428 0.419794 0.852206
Si Si4 0.000000 0.643896 0.000000
Si Si5 0.903248 0.575653 0.397974
Si Si6 0.283613 0.835093 0.777211
O O1 0.221211 0.868909 0.264307
O O2 0.129171 0.905073 0.639706
O O3 0.311597 0.931984 0.390287
O O4 0.186671 0.000000 0.361282
O O5 0.246875 0.261009 0.256731
O O6 0.401709 0.189223 0.102016
O O7 0.317083 0.182466 0.918932
O O8 0.616643 0.500000 0.885642
O O9 0.687054 0.382908 0.879289
O O10 0.500000 0.390463 0.000000
O O11 0.007031 0.599657 0.824495
O O12 0.928356 0.500000 0.442126
O O13 0.876158 0.629872 0.573616
#
# Coordination Sequence:
#
# PCOD8106387 Si02
#       6
#     8   8   8   4   8   8
#     4   8  16  32  54  78 106 141 177 220 271 321
#     4  10  22  37  53  80 112 146 185 225 271 332
#     4   9  18  34  57  83 107 138 186 229 267 324
#     4  10  21  36  58  82 109 142 186 232 273 328
#     4   9  18  35  58  82 109 142 182 227 276 330
#     4  10  21  37  54  78 114 147 181 224 278 328
#
# _framework density 20.097988000000001
#
# number of rings (size 3 to 8) (size 9 to 14) (size 15 to 20)
#    0.000    2.727    0.000    1.909    1.273    9.455 
#    0.000    1.818    0.000    3.273    0.000    0.000 
#    0.000    0.000    0.000    0.000    0.000    0.000 
#
# Total GULP energy -272588.247773 kJ/mol
# GULP energy per Si atom -12390.374899 kJ/mol
# Density = 2.005224 g / cm^3
# Si number density = 20.097988 Si / 1000 Ang^3
#
#
#
# Elastic Constant Matrix: (Units=GPa)
#
#
# Indices 1 2 3 4 5 6 
#
# 1 36.6981 19.6698 9.3478 0.0000 -3.1144 0.0000
# 2 19.6698 133.2626 52.6502 0.0000 5.6374 0.0000
# 3 9.3478 52.6502 98.1187 0.0000 -7.1646 0.0000
# 4 0.0000 0.0000 0.0000 29.4084 0.0000 8.4247
# 5 -3.1144 5.6374 -7.1646 0.0000 23.7194 0.0000
# 6 0.0000 0.0000 0.0000 8.4247 0.0000 12.2720
#
#
#
# Elastic Compliance Matrix: (Units=1/GPa)
#
#
# Indices 1 2 3 4 5 6 
#
# 1 0.030183 -0.004670 0.000001 0.000000 0.005073 0.000000
# 2 -0.004670 0.010610 -0.005601 0.000000 -0.004827 0.000000
# 3 0.000001 -0.005601 0.013594 0.000000 0.005438 0.000000
# 4 0.000000 0.000000 0.000000 0.042328 0.000000 -0.029058
# 5 0.005073 -0.004827 0.005438 0.000000 0.045615 0.000000
# 6 0.000000 0.000000 0.000000 -0.029058 0.000000 0.101434
#
#
# Mechanical properties :
#
#
# Convention : Reuss Voigt Hill
#
# Bulk Modulus (GPa) = 29.54479 47.93500 38.73989
# Shear Modulus (GPa) = 18.14308 25.50742 21.82525
#
# Velocity S-wave (km/s) = 3.00781 3.56638 3.29894
# Velocity P-wave (km/s) = 5.17637 6.39228 5.81619
#
# Compressibility (1/GPa) = 0.03384692
#
# Stress axis : x y z
#
# Youngs Moduli (GPa) = 33.13154 94.24759 73.56077
#
# Poissons Ratio (x) = 0.44013 -0.00006
# Poissons Ratio (y) = 0.15472 0.41202
# Poissons Ratio (z) = -0.00003 0.52788
#
# Static dielectric constant tensor:
#      x y z
#    x 3.245790 0.000000 -0.191000 
#    y 0.000000 4.106780 0.000000 
#    z -0.191000 0.000000 4.087810 
# 
# 
# High freq. dielectric constant tensor:
#      x y z
#    x 1.749270 0.000000 -0.005430 
#    y 0.000000 1.790590 0.000000 
#    z -0.005430 0.000000 1.787330 
# 
# From -- ./inp_files/75695.got.cif
#   From: 2010.06.25/outbox.cif.g09.slc.cpg/sg12_38_cif.got.tgz:75695.got - 2010.06.28 00:19:55.
