data_PCOD8106149
_publ_section_title
;
Structure prediction by ZEFSAII (Michael W. Deem and Ramdas Pophale) SiO2 
 PCOD8106149
Probable space group: C 2/M
;
_chemical_formula_sum "Si O2"
_cell_formula_units_Z 48
_cell_length_a 30.447640
_cell_length_b 8.859590
_cell_length_c 9.312361
_cell_angle_alpha 90.000000
_cell_angle_beta 89.517687
_cell_angle_gamma 90.000000
_cell_volume 2511.953965
_symmetry_space_group_name_H-M "C 2/M"
_symmetry_group_IT_number 12
_symmetry_cell_setting 'monoclinic'
loop_
_space_group_symop_operation_xyz
x,y,z
-x,y,-z
-x,-y,-z
x,-y,z
1/2+x,1/2+y,z
1/2-x,1/2+y,-z
1/2-x,1/2-y,-z
1/2+x,1/2-y,z
loop_
_atom_site_type_symbol
_atom_site_label
_atom_site_fract_x
_atom_site_fract_y
_atom_site_fract_z
Si Si1 0.135724 0.171847 0.586452
Si Si2 0.709998 0.821496 0.085980
Si Si3 0.958254 0.324412 0.093885
Si Si4 0.463193 0.672792 0.386748
Si Si5 0.632252 0.676529 0.919272
Si Si6 0.289421 0.822853 0.585439
O O1 0.085010 0.195575 0.543242
O O2 0.142692 0.214265 0.753147
O O3 0.164268 0.280078 0.486366
O O4 0.150701 0.000000 0.559588
O O5 0.711815 0.766207 0.250501
O O6 0.713656 0.000000 0.074887
O O7 0.750000 0.750000 0.000000
O O8 0.664515 0.768679 0.019501
O O9 0.946715 0.500000 0.078911
O O10 0.970186 0.287030 0.256847
O O11 0.916985 0.227122 0.040864
O O12 0.000000 0.277281 0.000000
O O13 0.500000 0.714353 0.500000
O O14 0.467530 0.500000 0.331788
O O15 0.637364 0.500000 0.950395
O O16 0.250000 0.750000 0.500000
O O17 0.283402 0.000000 0.578418
#
# Coordination Sequence:
#
# PCOD8106149 Si02
#       6
#     8   8   8   8   8   8
#     4   9  19  36  57  82 111 142 182 228 272 323
#     4  11  24  40  58  84 115 146 184 228 274 328
#     4  10  21  36  55  82 115 149 186 230 279 331
#     4   9  19  36  57  82 112 147 188 231 273 324
#     4  10  21  38  60  84 110 145 188 231 277 330
#     4  11  24  39  57  82 111 143 181 224 271 326
#
# _framework density 19.108630999999999
#
# number of rings (size 3 to 8) (size 9 to 14) (size 15 to 20)
#    0.000    2.000    0.000    4.000    0.000   13.000 
#    0.000    3.333    0.000    0.000    0.000    0.000 
#    0.000    0.000    0.000    0.000    0.000    0.000 
#
# Total GULP energy -297692.327338 kJ/mol
# GULP energy per Si atom -12403.846972 kJ/mol
# Density = 1.906514 g / cm^3
# Si number density = 19.108631 Si / 1000 Ang^3
#
#
#
# Elastic Constant Matrix: (Units=GPa)
#
#
# Indices 1 2 3 4 5 6 
#
# 1 133.2416 39.3916 82.4205 0.0000 5.2864 0.0000
# 2 39.3916 56.4761 44.5988 0.0000 -4.0449 0.0000
# 3 82.4205 44.5988 117.1310 0.0000 2.9111 0.0000
# 4 0.0000 0.0000 0.0000 32.9345 0.0000 -0.9977
# 5 5.2864 -4.0449 2.9111 0.0000 40.8990 0.0000
# 6 0.0000 0.0000 0.0000 -0.9977 0.0000 37.6512
#
#
#
# Elastic Compliance Matrix: (Units=1/GPa)
#
#
# Indices 1 2 3 4 5 6 
#
# 1 0.013668 -0.002962 -0.008454 0.000000 -0.001458 0.000000
# 2 -0.002962 0.026386 -0.008051 0.000000 0.003565 0.000000
# 3 -0.008454 -0.008051 0.017575 0.000000 -0.000955 0.000000
# 4 0.000000 0.000000 0.000000 0.030388 0.000000 0.000805
# 5 -0.001458 0.003565 -0.000955 0.000000 0.025059 0.000000
# 6 0.000000 0.000000 0.000000 0.000805 0.000000 0.026581
#
#
# Mechanical properties :
#
#
# Convention : Reuss Voigt Hill
#
# Bulk Modulus (GPa) = 53.48823 71.07450 62.28136
# Shear Modulus (GPa) = 27.05309 31.65943 29.35626
#
# Velocity S-wave (km/s) = 3.76673 4.07481 3.92380
# Velocity P-wave (km/s) = 6.85347 7.70808 7.29331
#
# Compressibility (1/GPa) = 0.01869570
#
# Stress axis : x y z
#
# Youngs Moduli (GPa) = 73.16443 37.89922 56.89871
#
# Poissons Ratio (x) = 0.11226 0.48099
# Poissons Ratio (y) = 0.21671 0.45809
# Poissons Ratio (z) = 0.61850 0.30513
#
# Static dielectric constant tensor:
#      x y z
#    x 3.626300 0.000000 0.027870 
#    y 0.000000 3.539360 0.000000 
#    z 0.027870 0.000000 3.524340 
# 
# 
# High freq. dielectric constant tensor:
#      x y z
#    x 1.758300 0.000000 0.002590 
#    y 0.000000 1.748440 0.000000 
#    z 0.002590 0.000000 1.738820 
# 
# From -- ./inp_files/108714.got.cif
#   From: 2010.06.25/outbox.cif.g09.slc.cpg/sg12_55_cif.got.tgz:108714.got - 2010.06.28 00:19:55.
