data_PCOD8106171
_publ_section_title
;
Structure prediction by ZEFSAII (Michael W. Deem and Ramdas Pophale) SiO2 
 PCOD8106171
Probable space group: C 2/M
;
_chemical_formula_sum "Si O2"
_cell_formula_units_Z 40
_cell_length_a 15.504521
_cell_length_b 8.470537
_cell_length_c 30.894999
_cell_angle_alpha 90.000000
_cell_angle_beta 151.215435
_cell_angle_gamma 90.000000
_cell_volume 1953.752905
_symmetry_space_group_name_H-M "C 2/M"
_symmetry_group_IT_number 12
_symmetry_cell_setting 'monoclinic'
loop_
_space_group_symop_operation_xyz
x,y,z
-x,y,-z
-x,-y,-z
x,-y,z
1/2+x,1/2+y,z
1/2-x,1/2+y,-z
1/2-x,1/2-y,-z
1/2+x,1/2-y,z
loop_
_atom_site_type_symbol
_atom_site_label
_atom_site_fract_x
_atom_site_fract_y
_atom_site_fract_z
Si Si1 0.208639 0.818773 0.092844
Si Si2 0.793197 0.685532 0.720520
Si Si3 0.389047 0.679331 0.094490
Si Si4 0.003457 0.186332 0.272410
Si Si5 0.925221 0.186298 0.599612
O O1 0.293732 0.690672 0.098577
O O2 0.311196 0.777327 0.182523
O O3 0.248521 0.000000 0.096788
O O4 0.000000 0.786413 0.000000
O O5 0.795285 0.500000 0.713245
O O6 0.854567 0.768299 0.702804
O O7 0.598032 0.748431 0.648886
O O8 0.924650 0.725931 0.818910
O O9 0.431663 0.500000 0.100401
O O10 0.250000 0.750000 0.000000
O O11 0.075320 0.243171 0.350683
O O12 0.970868 0.000000 0.257506
O O13 0.750000 0.250000 0.500000
O O14 0.925294 0.000000 0.597995
#
# Coordination Sequence:
#
# PCOD8106171 Si02
#       5
#     8   8   8   8   8
#     4  10  21  36  55  85 118 153 198 241 291 354
#     4  10  21  40  61  87 120 157 198 247 299 357
#     4  11  22  36  56  84 117 157 198 241 294 352
#     4  10  21  39  60  87 119 157 199 245 300 357
#     4  10  24  42  63  90 119 154 201 248 303 361
#
# _framework density 20.473417999999999
#
# number of rings (size 3 to 8) (size 9 to 14) (size 15 to 20)
#    0.000    1.800    0.000    6.000    2.800    5.600 
#    0.000    4.000    0.000    0.000    0.000    0.000 
#    0.000    0.000    0.000    0.000    0.000    0.000 
#
# Total GULP energy -247873.716133 kJ/mol
# GULP energy per Si atom -12393.685807 kJ/mol
# Density = 2.042682 g / cm^3
# Si number density = 20.473418 Si / 1000 Ang^3
#
#
#
# Elastic Constant Matrix: (Units=GPa)
#
#
# Indices 1 2 3 4 5 6 
#
# 1 104.0421 23.7101 86.6618 0.0000 4.4937 0.0000
# 2 23.7101 61.5676 29.8222 0.0002 1.9521 -0.0001
# 3 86.6618 29.8222 201.0259 0.0002 3.6240 -0.0002
# 4 0.0000 0.0002 0.0002 36.5275 -0.0001 -0.4502
# 5 4.4937 1.9521 3.6240 -0.0001 38.8578 0.0000
# 6 0.0000 -0.0001 -0.0002 -0.4502 0.0000 28.8245
#
#
#
# Elastic Compliance Matrix: (Units=1/GPa)
#
#
# Indices 1 2 3 4 5 6 
#
# 1 0.015519 -0.002921 -0.006238 0.000000 -0.001066 0.000000
# 2 -0.002921 0.018066 -0.001413 0.000000 -0.000438 0.000000
# 3 -0.006238 -0.001413 0.007872 0.000000 0.000058 0.000000
# 4 0.000000 0.000000 0.000000 0.027382 0.000000 0.000428
# 5 -0.001066 -0.000438 0.000058 0.000000 0.025875 0.000000
# 6 0.000000 0.000000 0.000000 0.000428 0.000000 0.034699
#
#
# Mechanical properties :
#
#
# Convention : Reuss Voigt Hill
#
# Bulk Modulus (GPa) = 49.22906 71.89153 60.56029
# Shear Modulus (GPa) = 31.78105 35.93808 33.85957
#
# Velocity S-wave (km/s) = 3.94421 4.19424 4.07114
# Velocity P-wave (km/s) = 6.69626 7.65809 7.19327
#
# Compressibility (1/GPa) = 0.02031321
#
# Stress axis : x y z
#
# Youngs Moduli (GPa) = 64.43790 55.35410 127.03236
#
# Poissons Ratio (x) = 0.16170 0.79237
# Poissons Ratio (y) = 0.18824 0.17947
# Poissons Ratio (z) = 0.40193 0.07820
#
# Static dielectric constant tensor:
#      x y z
#    x 3.219090 0.000000 0.507650 
#    y 0.000000 3.660090 0.000000 
#    z 0.507650 0.000000 3.600160 
# 
# 
# High freq. dielectric constant tensor:
#      x y z
#    x 1.792780 0.000000 -0.001720 
#    y 0.000000 1.802350 0.000000 
#    z -0.001720 0.000000 1.811440 
# 
# From -- ./inp_files/249513.got.cif
#   From: 2010.06.25/outbox.cif.g09.slc.cpg/sg12_125_cif.got.tgz:249513.got - 2010.06.28 00:19:55.
