data_PCOD8106452
_publ_section_title
;
Structure prediction by ZEFSAII (Michael W. Deem and Ramdas Pophale) SiO2 
 PCOD8106452
Probable space group: C 2/M
;
_chemical_formula_sum "Si O2"
_cell_formula_units_Z 48
_cell_length_a 24.568715
_cell_length_b 8.795273
_cell_length_c 12.420276
_cell_angle_alpha 90.000000
_cell_angle_beta 70.408244
_cell_angle_gamma 90.000000
_cell_volume 2528.498202
_symmetry_space_group_name_H-M "C 2/M"
_symmetry_group_IT_number 12
_symmetry_cell_setting 'monoclinic'
loop_
_space_group_symop_operation_xyz
x,y,z
-x,y,-z
-x,-y,-z
x,-y,z
1/2+x,1/2+y,z
1/2-x,1/2+y,-z
1/2-x,1/2-y,-z
1/2+x,1/2-y,z
loop_
_atom_site_type_symbol
_atom_site_label
_atom_site_fract_x
_atom_site_fract_y
_atom_site_fract_z
Si Si1 0.121920 0.675949 0.129049
Si Si2 0.616417 0.326104 0.725649
Si Si3 0.312827 0.677543 0.725142
Si Si4 0.183518 0.324085 0.869693
Si Si5 0.989883 0.174712 0.885121
Si Si6 0.690586 0.178545 0.499752
O O1 0.123482 0.500000 0.160314
O O2 0.139672 0.775518 0.219424
O O3 0.057480 0.719490 0.138089
O O4 0.166457 0.711043 0.003364
O O5 0.633513 0.500000 0.691308
O O6 0.644131 0.278830 0.820290
O O7 0.547807 0.305947 0.777491
O O8 0.639173 0.222233 0.614183
O O9 0.317678 0.500000 0.698274
O O10 0.249833 0.722917 0.810550
O O11 0.326308 0.765754 0.606958
O O12 0.173073 0.500000 0.846710
O O13 0.968637 0.000000 0.900427
O O14 0.000000 0.231839 0.000000
O O15 0.750000 0.250000 0.500000
O O16 0.698772 0.000000 0.494199
#
# Coordination Sequence:
#
# PCOD8106452 Si02
#       6
#     8   8   8   8   8   8
#     4  11  23  38  59  90 125 162 201 246 303 357
#     4  11  22  37  62  91 120 156 201 249 297 350
#     4  11  23  40  61  87 122 163 203 246 300 358
#     4  10  21  36  58  89 124 159 196 244 300 360
#     4  10  21  39  61  88 120 159 202 246 298 356
#     4  12  24  40  62  89 122 157 200 247 297 355
#
# _framework density 18.983599999999999
#
# number of rings (size 3 to 8) (size 9 to 14) (size 15 to 20)
#    0.000    1.167    3.333    3.500    0.000    3.000 
#    0.000    0.833    0.000    5.000    0.000    0.000 
#    0.000    0.000    0.000    0.000    0.000    0.000 
#
# Total GULP energy -297775.683218 kJ/mol
# GULP energy per Si atom -12407.320134 kJ/mol
# Density = 1.894039 g / cm^3
# Si number density = 18.983600 Si / 1000 Ang^3
#
#
#
# Elastic Constant Matrix: (Units=GPa)
#
#
# Indices 1 2 3 4 5 6 
#
# 1 69.3171 25.1578 27.0256 0.0000 8.7759 0.0000
# 2 25.1578 96.2603 40.9913 0.0000 5.0895 0.0000
# 3 27.0256 40.9913 103.3105 0.0000 8.7621 0.0000
# 4 0.0000 0.0000 0.0000 34.3292 0.0000 2.8700
# 5 8.7759 5.0895 8.7621 0.0000 29.1965 0.0000
# 6 0.0000 0.0000 0.0000 2.8700 0.0000 32.6702
#
#
#
# Elastic Compliance Matrix: (Units=1/GPa)
#
#
# Indices 1 2 3 4 5 6 
#
# 1 0.017155 -0.003020 -0.002972 0.000000 -0.003738 0.000000
# 2 -0.003020 0.013047 -0.004382 0.000000 -0.000051 0.000000
# 3 -0.002972 -0.004382 0.012370 0.000000 -0.002055 0.000000
# 4 0.000000 0.000000 0.000000 0.029345 0.000000 -0.002578
# 5 -0.003738 -0.000051 -0.002055 0.000000 0.036000 0.000000
# 6 0.000000 0.000000 0.000000 -0.002578 0.000000 0.030835
#
#
# Mechanical properties :
#
#
# Convention : Reuss Voigt Hill
#
# Bulk Modulus (GPa) = 45.82463 50.58192 48.20328
# Shear Modulus (GPa) = 29.98048 30.95339 30.46694
#
# Velocity S-wave (km/s) = 3.97833 4.04237 4.01048
# Velocity P-wave (km/s) = 6.73010 6.96352 6.84780
#
# Compressibility (1/GPa) = 0.02182233
#
# Stress axis : x y z
#
# Youngs Moduli (GPa) = 58.29326 76.64813 80.83978
#
# Poissons Ratio (x) = 0.23148 0.24028
# Poissons Ratio (y) = 0.17605 0.35426
# Poissons Ratio (z) = 0.17326 0.33589
#
# Static dielectric constant tensor:
#      x y z
#    x 3.379370 0.000000 -0.078080 
#    y 0.000000 3.553850 0.000000 
#    z -0.078080 0.000000 3.594530 
# 
# 
# High freq. dielectric constant tensor:
#      x y z
#    x 1.732800 0.000000 -0.002540 
#    y 0.000000 1.747640 0.000000 
#    z -0.002540 0.000000 1.742370 
# 
# From -- ./inp_files/172424.got.cif
#   From: 2010.06.25/outbox.cif.g09.slc.cpg/sg12_87_cif.got.tgz:172424.got - 2010.06.28 00:19:55.
