data_PCOD8106107
_publ_section_title
;
Structure prediction by ZEFSAII (Michael W. Deem and Ramdas Pophale) SiO2 
 PCOD8106107
Probable space group: C 2/M
;
_chemical_formula_sum "Si O2"
_cell_formula_units_Z 40
_cell_length_a 10.118054
_cell_length_b 9.200605
_cell_length_c 22.306417
_cell_angle_alpha 90.000000
_cell_angle_beta 83.707717
_cell_angle_gamma 90.000000
_cell_volume 2064.044110
_symmetry_space_group_name_H-M "C 2/M"
_symmetry_group_IT_number 12
_symmetry_cell_setting 'monoclinic'
loop_
_space_group_symop_operation_xyz
x,y,z
-x,y,-z
-x,-y,-z
x,-y,z
1/2+x,1/2+y,z
1/2-x,1/2+y,-z
1/2-x,1/2-y,-z
1/2+x,1/2-y,z
loop_
_atom_site_type_symbol
_atom_site_label
_atom_site_fract_x
_atom_site_fract_y
_atom_site_fract_z
Si Si1 0.364270 0.170395 0.169568
Si Si2 0.858400 0.329910 0.033270
Si Si3 0.002022 0.168587 0.629741
Si Si4 0.753452 0.329581 0.436860
Si Si5 0.582296 0.330340 0.233262
O O1 0.347785 0.223288 0.102235
O O2 0.490408 0.247960 0.191318
O O3 0.234059 0.214822 0.213459
O O4 0.391998 0.000000 0.170946
O O5 0.831582 0.500000 0.029496
O O6 0.750000 0.250000 0.000000
O O7 0.000000 0.285532 0.000000
O O8 0.128570 0.267136 0.609424
O O9 0.886383 0.200448 0.588024
O O10 0.950418 0.214974 0.697439
O O11 0.044202 0.000000 0.625465
O O12 0.777554 0.500000 0.445414
O O13 0.750000 0.250000 0.500000
O O14 0.561198 0.500000 0.223408
#
# Coordination Sequence:
#
# PCOD8106107 Si02
#       5
#     8   8   8   8   8
#     4  10  21  37  56  81 113 146 184 231 279 329
#     4  10  21  36  55  81 112 146 186 231 278 330
#     4  10  22  39  57  81 113 145 182 229 276 326
#     4  11  23  39  60  85 114 148 185 227 275 326
#     4  10  21  37  57  81 109 144 185 227 275 331
#
# _framework density 19.379429999999999
#
# number of rings (size 3 to 8) (size 9 to 14) (size 15 to 20)
#    0.000    1.800    0.000    3.600    0.000    8.400 
#    0.000    0.000    0.000    0.000    0.000    0.000 
#    0.000    0.000    0.000    0.000    0.000    0.000 
#
# Total GULP energy -248112.929215 kJ/mol
# GULP energy per Si atom -12405.646461 kJ/mol
# Density = 1.933532 g / cm^3
# Si number density = 19.379430 Si / 1000 Ang^3
#
#
#
# Elastic Constant Matrix: (Units=GPa)
#
#
# Indices 1 2 3 4 5 6 
#
# 1 59.4614 32.9675 7.6240 0.0000 3.3275 0.0000
# 2 32.9675 51.8858 24.8431 0.0000 1.4569 0.0000
# 3 7.6240 24.8431 100.0591 0.0000 -3.0630 0.0000
# 4 0.0000 0.0000 0.0000 30.4894 0.0000 4.2742
# 5 3.3275 1.4569 -3.0630 0.0000 41.0128 0.0000
# 6 0.0000 0.0000 0.0000 4.2742 0.0000 38.0815
#
#
#
# Elastic Compliance Matrix: (Units=1/GPa)
#
#
# Indices 1 2 3 4 5 6 
#
# 1 0.026556 -0.017986 0.002401 0.000000 -0.001336 0.000000
# 2 -0.017986 0.034112 -0.007108 0.000000 -0.000283 0.000000
# 3 0.002401 -0.007108 0.011604 0.000000 0.000924 0.000000
# 4 0.000000 0.000000 0.000000 0.033323 0.000000 -0.003740
# 5 -0.001336 -0.000283 0.000924 0.000000 0.024570 0.000000
# 6 0.000000 0.000000 0.000000 -0.003740 0.000000 0.026679
#
#
# Mechanical properties :
#
#
# Convention : Reuss Voigt Hill
#
# Bulk Modulus (GPa) = 37.19110 38.03061 37.61085
# Shear Modulus (GPa) = 23.67512 31.64820 27.66166
#
# Velocity S-wave (km/s) = 3.49902 4.04552 3.78216
# Velocity P-wave (km/s) = 5.96296 6.44116 6.20667
#
# Compressibility (1/GPa) = 0.02688816
#
# Stress axis : x y z
#
# Youngs Moduli (GPa) = 37.65560 29.31506 86.17591
#
# Poissons Ratio (x) = 0.52725 -0.20693
# Poissons Ratio (y) = 0.67727 0.61252
# Poissons Ratio (z) = -0.09042 0.20836
#
# Static dielectric constant tensor:
#      x y z
#    x 3.580870 0.000000 -0.094010 
#    y 0.000000 4.538790 0.000000 
#    z -0.094010 0.000000 3.754960 
# 
# 
# High freq. dielectric constant tensor:
#      x y z
#    x 1.766480 0.000000 -0.002890 
#    y 0.000000 1.748980 0.000000 
#    z -0.002890 0.000000 1.775840 
# 
# From -- ./inp_files/261041.got.cif
#   From: 2010.06.25/outbox.cif.g09.slc.cpg/sg12_131_cif.got.tgz:261041.got - 2010.06.28 00:19:55.
