data_PCOD8106710
_publ_section_title
;
Structure prediction by ZEFSAII (Michael W. Deem and Ramdas Pophale) SiO2 
 PCOD8106710
Probable space group: C 2/M
;
_chemical_formula_sum "Si O2"
_cell_formula_units_Z 48
_cell_length_a 33.524033
_cell_length_b 9.306016
_cell_length_c 10.161386
_cell_angle_alpha 90.000000
_cell_angle_beta 116.515010
_cell_angle_gamma 90.000000
_cell_volume 2836.661033
_symmetry_space_group_name_H-M "C 2/M"
_symmetry_group_IT_number 12
_symmetry_cell_setting 'monoclinic'
loop_
_space_group_symop_operation_xyz
x,y,z
-x,y,-z
-x,-y,-z
x,-y,z
1/2+x,1/2+y,z
1/2-x,1/2+y,-z
1/2-x,1/2-y,-z
1/2+x,1/2-y,z
loop_
_atom_site_type_symbol
_atom_site_label
_atom_site_fract_x
_atom_site_fract_y
_atom_site_fract_z
Si Si1 0.018182 0.332860 0.382928
Si Si2 0.614926 0.164688 0.449038
Si Si3 0.697569 0.335432 0.560239
Si Si4 0.110709 0.662375 0.133280
Si Si5 0.206602 0.663627 0.311406
Si Si6 0.970485 0.830374 0.081728
O O1 0.013226 0.500000 0.336455
O O2 0.990545 0.238213 0.241333
O O3 0.000000 0.300379 0.500000
O O4 0.069959 0.286037 0.455948
O O5 0.657355 0.250259 0.571732
O O6 0.609259 0.196830 0.286280
O O7 0.625145 0.000000 0.492081
O O8 0.682837 0.500000 0.536227
O O9 0.746776 0.315148 0.700998
O O10 0.703995 0.280597 0.421742
O O11 0.093848 0.500000 0.082249
O O12 0.161908 0.682426 0.156949
O O13 0.079526 0.772306 0.010034
O O14 0.205845 0.500000 0.369480
O O15 0.968745 0.000000 0.096903
O O16 0.000000 0.784393 0.000000
#
# Coordination Sequence:
#
# PCOD8106710 Si02
#       6
#     8   8   8   8   8   8
#     4  10  21  37  55  72  93 128 171 207 241 287
#     4   9  17  29  45  67  94 123 158 199 240 283
#     4   9  15  23  39  62  91 124 156 189 234 288
#     4   9  16  28  47  67  92 127 162 197 236 279
#     4   8  15  26  38  60  92 124 156 193 234 277
#     4  11  22  33  48  73 102 129 160 199 246 295
#
# _framework density 16.921302000000001
#
# number of rings (size 3 to 8) (size 9 to 14) (size 15 to 20)
#    0.000    2.667    1.667    2.000    0.000    5.000 
#    0.000    0.000    0.000    0.000    0.000    1.167 
#    0.000    0.000    0.000    0.000    0.000    0.000 
#
# Total GULP energy -297393.896723 kJ/mol
# GULP energy per Si atom -12391.412363 kJ/mol
# Density = 1.688279 g / cm^3
# Si number density = 16.921302 Si / 1000 Ang^3
#
#
#
# Elastic Constant Matrix: (Units=GPa)
#
#
# Indices 1 2 3 4 5 6 
#
# 1 144.8759 56.6134 59.3050 0.0000 38.7772 0.0000
# 2 56.6134 77.2195 44.3085 0.0000 18.7431 0.0000
# 3 59.3050 44.3085 59.5845 0.0000 16.3744 0.0000
# 4 0.0000 0.0000 0.0000 20.0200 0.0000 8.5060
# 5 38.7772 18.7431 16.3744 0.0000 25.6821 0.0000
# 6 0.0000 0.0000 0.0000 8.5060 0.0000 25.2033
#
#
#
# Elastic Compliance Matrix: (Units=1/GPa)
#
#
# Indices 1 2 3 4 5 6 
#
# 1 0.016323 -0.002143 -0.010075 0.000000 -0.016658 0.000000
# 2 -0.002143 0.023958 -0.014267 0.000000 -0.005153 0.000000
# 3 -0.010075 -0.014267 0.036832 0.000000 0.002141 0.000000
# 4 0.000000 0.000000 0.000000 0.058312 0.000000 -0.019680
# 5 -0.016658 -0.005153 0.002141 0.000000 0.066485 0.000000
# 6 0.000000 0.000000 0.000000 -0.019680 0.000000 0.046319
#
#
# Mechanical properties :
#
#
# Convention : Reuss Voigt Hill
#
# Bulk Modulus (GPa) = 41.42000 66.90375 54.16188
# Shear Modulus (GPa) = 16.16838 22.27795 19.22317
#
# Velocity S-wave (km/s) = 3.09448 3.63238 3.37417
# Velocity P-wave (km/s) = 6.10728 7.56414 6.87442
#
# Compressibility (1/GPa) = 0.02414292
#
# Stress axis : x y z
#
# Youngs Moduli (GPa) = 61.26491 41.73912 27.15060
#
# Poissons Ratio (x) = 0.08943 0.27354
# Poissons Ratio (y) = 0.13126 0.38736
# Poissons Ratio (z) = 0.61724 0.59550
#
# Static dielectric constant tensor:
#      x y z
#    x 3.635020 0.000000 0.456630 
#    y 0.000000 3.197680 0.000000 
#    z 0.456630 0.000000 2.776190 
# 
# 
# High freq. dielectric constant tensor:
#      x y z
#    x 1.661080 0.000000 0.044170 
#    y 0.000000 1.657700 0.000000 
#    z 0.044170 0.000000 1.594490 
# 
# From -- ./inp_files/185496.got.cif
#   From: 2010.06.25/outbox.cif.g09.slc.cpg/sg12_93_cif.got.tgz:185496.got - 2010.06.28 00:19:55.
