data_PCOD8106249
_publ_section_title
;
Structure prediction by ZEFSAII (Michael W. Deem and Ramdas Pophale) SiO2 
 PCOD8106249
Probable space group: C 2/M
;
_chemical_formula_sum "Si O2"
_cell_formula_units_Z 48
_cell_length_a 24.823754
_cell_length_b 8.445405
_cell_length_c 17.059916
_cell_angle_alpha 90.000000
_cell_angle_beta 136.135490
_cell_angle_gamma 90.000000
_cell_volume 2478.392551
_symmetry_space_group_name_H-M "C 2/M"
_symmetry_group_IT_number 12
_symmetry_cell_setting 'monoclinic'
loop_
_space_group_symop_operation_xyz
x,y,z
-x,y,-z
-x,-y,-z
x,-y,z
1/2+x,1/2+y,z
1/2-x,1/2+y,-z
1/2-x,1/2-y,-z
1/2+x,1/2-y,z
loop_
_atom_site_type_symbol
_atom_site_label
_atom_site_fract_x
_atom_site_fract_y
_atom_site_fract_z
Si Si1 0.871694 0.314398 0.121653
Si Si2 0.062131 0.314360 0.125152
Si Si3 0.533408 0.684245 0.263266
Si Si4 0.686340 0.814592 0.493200
Si Si5 0.246276 0.185089 0.120397
Si Si6 0.234356 0.314049 0.275562
O O1 0.883795 0.500000 0.122834
O O2 0.818497 0.274477 0.140272
O O3 0.953745 0.230125 0.223271
O O4 0.833198 0.245585 0.002371
O O5 0.065140 0.500000 0.114114
O O6 0.036879 0.279947 0.186487
O O7 0.147530 0.245316 0.197095
O O8 0.000000 0.236970 0.000000
O O9 0.536439 0.500000 0.247487
O O10 0.604332 0.730329 0.393444
O O11 0.750000 0.750000 0.500000
O O12 0.709846 0.778933 0.606780
O O13 0.676684 0.000000 0.468881
O O14 0.261888 0.278652 0.216655
O O15 0.238941 0.000000 0.129843
O O16 0.239527 0.500000 0.298970
#
# Coordination Sequence:
#
# PCOD8106249 Si02
#       6
#     8   8   8   8   8   8
#     4  10  21  39  62  88 122 161 199 245 300 354
#     4  10  21  36  56  84 119 155 191 237 297 357
#     4  12  24  38  60  88 118 154 200 248 297 354
#     4  12  24  41  62  85 118 158 202 246 295 355
#     4  10  21  38  62  91 122 158 200 246 297 354
#     4  11  22  37  60  88 121 158 198 244 297 355
#
# _framework density 19.367391999999999
#
# number of rings (size 3 to 8) (size 9 to 14) (size 15 to 20)
#    0.000    1.167    1.667    5.500    0.000    4.333 
#    0.000    0.833    0.000    5.000    0.000    0.000 
#    0.000    0.000    0.000    0.000    0.000    0.000 
#
# Total GULP energy -297763.481952 kJ/mol
# GULP energy per Si atom -12406.811748 kJ/mol
# Density = 1.932331 g / cm^3
# Si number density = 19.367392 Si / 1000 Ang^3
#
#
#
# Elastic Constant Matrix: (Units=GPa)
#
#
# Indices 1 2 3 4 5 6 
#
# 1 84.7968 12.6534 56.2701 0.0000 4.1103 0.0000
# 2 12.6534 29.9227 7.4527 0.0000 3.6856 0.0000
# 3 56.2701 7.4527 136.8991 0.0000 14.5768 0.0000
# 4 0.0000 0.0000 0.0000 33.0524 0.0000 -3.0544
# 5 4.1103 3.6856 14.5768 0.0000 30.2347 0.0000
# 6 0.0000 0.0000 0.0000 -3.0544 0.0000 29.9255
#
#
#
# Elastic Compliance Matrix: (Units=1/GPa)
#
#
# Indices 1 2 3 4 5 6 
#
# 1 0.017161 -0.005743 -0.006923 0.000000 0.001705 0.000000
# 2 -0.005743 0.036138 0.000821 0.000000 -0.004020 0.000000
# 3 -0.006923 0.000821 0.010558 0.000000 -0.004249 0.000000
# 4 0.000000 0.000000 0.000000 0.030543 0.000000 0.003117
# 5 0.001705 -0.004020 -0.004249 0.000000 0.035381 0.000000
# 6 0.000000 0.000000 0.000000 0.003117 0.000000 0.033734
#
#
# Mechanical properties :
#
#
# Convention : Reuss Voigt Hill
#
# Bulk Modulus (GPa) = 24.89476 44.93011 34.91244
# Shear Modulus (GPa) = 24.92597 30.32537 27.62567
#
# Velocity S-wave (km/s) = 3.59138 3.96131 3.78087
# Velocity P-wave (km/s) = 5.48445 6.64619 6.09307
#
# Compressibility (1/GPa) = 0.04016909
#
# Stress axis : x y z
#
# Youngs Moduli (GPa) = 58.27193 27.67134 94.71676
#
# Poissons Ratio (x) = 0.15891 0.65568
# Poissons Ratio (y) = 0.33463 -0.07778
# Poissons Ratio (z) = 0.40339 -0.02272
#
# Static dielectric constant tensor:
#      x y z
#    x 3.497360 0.000000 0.138840 
#    y 0.000000 3.583380 0.000000 
#    z 0.138840 0.000000 3.710780 
# 
# 
# High freq. dielectric constant tensor:
#      x y z
#    x 1.750990 0.000000 0.003790 
#    y 0.000000 1.761930 0.000000 
#    z 0.003790 0.000000 1.759610 
# 
# From -- ./inp_files/287961.got.cif
#   From: 2010.06.25/outbox.cif.g09.slc.cpg/sg12_144_cif.got.tgz:287961.got - 2010.06.28 00:19:55.
