data_PCOD8106800
_publ_section_title
;
Structure prediction by ZEFSAII (Michael W. Deem and Ramdas Pophale) SiO2 
 PCOD8106800
Probable space group: C 2/M
;
_chemical_formula_sum "Si O2"
_cell_formula_units_Z 56
_cell_length_a 15.046070
_cell_length_b 8.925253
_cell_length_c 21.854846
_cell_angle_alpha 90.000000
_cell_angle_beta 79.839780
_cell_angle_gamma 90.000000
_cell_volume 2888.862904
_symmetry_space_group_name_H-M "C 2/M"
_symmetry_group_IT_number 12
_symmetry_cell_setting 'monoclinic'
loop_
_space_group_symop_operation_xyz
x,y,z
-x,y,-z
-x,-y,-z
x,-y,z
1/2+x,1/2+y,z
1/2-x,1/2+y,-z
1/2-x,1/2-y,-z
1/2+x,1/2-y,z
loop_
_atom_site_type_symbol
_atom_site_label
_atom_site_fract_x
_atom_site_fract_y
_atom_site_fract_z
Si Si1 0.663968 0.677401 0.186949
Si Si2 0.197521 0.677640 0.730214
Si Si3 0.898058 0.823461 0.494594
Si Si4 0.252487 0.329958 0.064226
Si Si5 0.221961 0.676700 0.590523
Si Si6 0.988143 0.323541 0.189121
Si Si7 0.458447 0.669830 0.068530
O O1 0.668541 0.500000 0.182197
O O2 0.727989 0.741464 0.232372
O O3 0.687260 0.743482 0.117950
O O4 0.565214 0.735681 0.216560
O O5 0.202572 0.500000 0.728568
O O6 0.214831 0.740318 0.660186
O O7 0.102176 0.733082 0.767253
O O8 0.860817 0.749421 0.436995
O O9 0.822991 0.780973 0.555051
O O10 0.000000 0.765570 0.500000
O O11 0.902627 0.000000 0.483411
O O12 0.218493 0.500000 0.060774
O O13 0.351475 0.324338 0.079991
O O14 0.250000 0.250000 0.000000
O O15 0.207084 0.500000 0.588981
O O16 0.001885 0.500000 0.193180
O O17 0.991467 0.279182 0.117572
O O18 0.492738 0.500000 0.076980
O O19 0.500000 0.729516 0.000000
#
# Coordination Sequence:
#
# PCOD8106800 Si02
#       7
#     8   8   8   8   8   8   8
#     4  11  22  39  59  81 112 150 189 233 290 348
#     4   9  20  38  58  80 113 154 191 232 287 347
#     4   9  18  33  55  85 119 151 189 236 280 329
#     4  11  22  36  57  84 114 146 186 234 288 346
#     4   9  18  35  57  81 113 154 194 232 280 335
#     4  11  22  38  58  82 109 143 190 238 285 343
#     4  10  21  37  56  80 109 141 180 230 286 344
#
# _framework density 19.384789999999999
#
# number of rings (size 3 to 8) (size 9 to 14) (size 15 to 20)
#    0.000    2.000    1.429    2.143    0.000    3.429 
#    0.000    4.286    0.000    0.000    0.000    0.000 
#    0.000    0.000    0.000    0.000    0.000    0.000 
#
# Total GULP energy -347195.177918 kJ/mol
# GULP energy per Si atom -12399.827783 kJ/mol
# Density = 1.934067 g / cm^3
# Si number density = 19.384790 Si / 1000 Ang^3
#
#
#
# Elastic Constant Matrix: (Units=GPa)
#
#
# Indices 1 2 3 4 5 6 
#
# 1 150.9141 39.5578 70.9740 0.0000 9.6161 0.0000
# 2 39.5578 66.4342 37.9058 0.0000 5.8659 0.0000
# 3 70.9740 37.9058 153.6322 0.0000 4.2151 0.0000
# 4 0.0000 0.0000 0.0000 24.6408 0.0000 3.8396
# 5 9.6161 5.8659 4.2151 0.0000 24.7390 0.0000
# 6 0.0000 0.0000 0.0000 3.8396 0.0000 28.8873
#
#
#
# Elastic Compliance Matrix: (Units=1/GPa)
#
#
# Indices 1 2 3 4 5 6 
#
# 1 0.009240 -0.003382 -0.003374 0.000000 -0.002215 0.000000
# 2 -0.003382 0.019051 -0.003065 0.000000 -0.002681 0.000000
# 3 -0.003374 -0.003065 0.008809 0.000000 0.000537 0.000000
# 4 0.000000 0.000000 0.000000 0.041441 0.000000 -0.005508
# 5 -0.002215 -0.002681 0.000537 0.000000 0.041827 0.000000
# 6 0.000000 0.000000 0.000000 -0.005508 0.000000 0.035349
#
#
# Mechanical properties :
#
#
# Convention : Reuss Voigt Hill
#
# Bulk Modulus (GPa) = 57.27152 74.20616 65.73884
# Shear Modulus (GPa) = 27.59694 30.48962 29.04328
#
# Velocity S-wave (km/s) = 3.77721 3.97024 3.87492
# Velocity P-wave (km/s) = 6.97365 7.70589 7.34889
#
# Compressibility (1/GPa) = 0.01746068
#
# Stress axis : x y z
#
# Youngs Moduli (GPa) = 108.21962 52.48944 113.51934
#
# Poissons Ratio (x) = 0.17750 0.38298
# Poissons Ratio (y) = 0.36596 0.34792
# Poissons Ratio (z) = 0.36510 0.16087
#
# Static dielectric constant tensor:
#      x y z
#    x 3.925920 0.000000 -0.022110 
#    y 0.000000 3.400320 0.000000 
#    z -0.022110 0.000000 3.610730 
# 
# 
# High freq. dielectric constant tensor:
#      x y z
#    x 1.769430 0.000000 0.000430 
#    y 0.000000 1.740180 0.000000 
#    z 0.000430 0.000000 1.750750 
# 
# From -- ./inp_files/308941.got.cif
#   From: 2010.06.25/outbox.cif.g09.slc.cpg/sg12_155_cif.got.tgz:308941.got - 2010.06.28 00:19:55.
