data_PCOD8106760
_publ_section_title
;
Structure prediction by ZEFSAII (Michael W. Deem and Ramdas Pophale) SiO2 
 PCOD8106760
Probable space group: C 2/M
;
_chemical_formula_sum "Si O2"
_cell_formula_units_Z 64
_cell_length_a 30.824511
_cell_length_b 9.059198
_cell_length_c 16.260746
_cell_angle_alpha 90.000000
_cell_angle_beta 134.254284
_cell_angle_gamma 90.000000
_cell_volume 3252.302310
_symmetry_space_group_name_H-M "C 2/M"
_symmetry_group_IT_number 12
_symmetry_cell_setting 'monoclinic'
loop_
_space_group_symop_operation_xyz
x,y,z
-x,y,-z
-x,-y,-z
x,-y,z
1/2+x,1/2+y,z
1/2-x,1/2+y,-z
1/2-x,1/2-y,-z
1/2+x,1/2-y,z
loop_
_atom_site_type_symbol
_atom_site_label
_atom_site_fract_x
_atom_site_fract_y
_atom_site_fract_z
Si Si1 0.010268 0.831641 0.699937
Si Si2 0.114194 0.167812 0.540365
Si Si3 0.568628 0.327844 0.070564
Si Si4 0.311410 0.166344 0.066423
Si Si5 0.913182 0.669086 0.330197
Si Si6 0.410466 0.175710 0.069829
Si Si7 0.667219 0.331294 0.335634
Si Si8 0.199028 0.330602 0.539062
O O1 0.036238 0.758672 0.651966
O O2 0.030377 0.744510 0.808185
O O3 0.937608 0.825667 0.598217
O O4 0.033311 0.000000 0.736485
O O5 0.092937 0.262192 0.588982
O O6 0.175285 0.236391 0.584384
O O7 0.126852 0.000000 0.584761
O O8 0.572643 0.500000 0.052770
O O9 0.610204 0.289690 0.203658
O O10 0.500000 0.281083 0.000000
O O11 0.594056 0.233252 0.028589
O O12 0.349241 0.179744 0.199856
O O13 0.350987 0.228333 0.042092
O O14 0.293529 0.000000 0.022555
O O15 0.250000 0.250000 0.000000
O O16 0.934687 0.500000 0.365737
O O17 0.416777 0.000000 0.080586
O O18 0.662473 0.500000 0.360752
O O19 0.728812 0.309084 0.365702
O O20 0.667754 0.224017 0.413927
O O21 0.180595 0.500000 0.527059
#
# Coordination Sequence:
#
# PCOD8106760 Si02
#       8
#     8   8   8   8   8   8   8   8
#     4  10  21  37  57  80 112 151 189 228 278 339
#     4  11  23  36  55  83 113 147 189 232 277 336
#     4  10  22  39  61  87 116 153 195 239 290 346
#     4   9  20  37  57  82 112 149 188 231 280 335
#     4  10  21  37  55  81 115 146 184 233 282 331
#     4  10  22  39  57  84 118 149 189 238 290 342
#     4   9  20  40  60  81 115 151 188 236 287 344
#     4  10  21  37  59  85 112 149 191 234 289 340
#
# _framework density 19.678366
#
# number of rings (size 3 to 8) (size 9 to 14) (size 15 to 20)
#    0.000    2.125    0.000    3.000    1.750    8.750 
#    0.000    3.750    0.000    0.000    0.000    0.000 
#    0.000    0.000    0.000    0.000    0.000    0.000 
#
# Total GULP energy -396893.426462 kJ/mol
# GULP energy per Si atom -12402.919577 kJ/mol
# Density = 1.963358 g / cm^3
# Si number density = 19.678366 Si / 1000 Ang^3
#
#
#
# Elastic Constant Matrix: (Units=GPa)
#
#
# Indices 1 2 3 4 5 6 
#
# 1 58.3758 28.9231 29.5138 0.0000 8.9902 0.0000
# 2 28.9231 92.8660 28.6259 0.0000 5.2648 0.0000
# 3 29.5138 28.6259 81.3177 0.0000 9.9349 0.0000
# 4 0.0000 0.0000 0.0000 34.1032 0.0000 -5.7207
# 5 8.9902 5.2648 9.9349 0.0000 26.0794 0.0000
# 6 0.0000 0.0000 0.0000 -5.7207 0.0000 33.9585
#
#
#
# Elastic Compliance Matrix: (Units=1/GPa)
#
#
# Indices 1 2 3 4 5 6 
#
# 1 0.023522 -0.005165 -0.006142 0.000000 -0.004726 0.000000
# 2 -0.005165 0.013231 -0.002805 0.000000 0.000178 0.000000
# 3 -0.006142 -0.002805 0.015927 0.000000 -0.003384 0.000000
# 4 0.000000 0.000000 0.000000 0.030175 0.000000 0.005083
# 5 -0.004726 0.000178 -0.003384 0.000000 0.041227 0.000000
# 6 0.000000 0.000000 0.000000 0.005083 0.000000 0.030304
#
#
# Mechanical properties :
#
#
# Convention : Reuss Voigt Hill
#
# Bulk Modulus (GPa) = 40.88632 45.18724 43.03678
# Shear Modulus (GPa) = 26.21046 28.52800 27.36923
#
# Velocity S-wave (km/s) = 3.65354 3.81164 3.73343
# Velocity P-wave (km/s) = 6.21451 6.51032 6.36413
#
# Compressibility (1/GPa) = 0.02445806
#
# Stress axis : x y z
#
# Youngs Moduli (GPa) = 42.51256 75.57811 62.78485
#
# Poissons Ratio (x) = 0.39036 0.38561
# Poissons Ratio (y) = 0.21957 0.17611
# Poissons Ratio (z) = 0.26110 0.21199
#
# Static dielectric constant tensor:
#      x y z
#    x 3.594570 0.000000 0.029640 
#    y 0.000000 3.703230 0.000000 
#    z 0.029640 0.000000 3.541830 
# 
# 
# High freq. dielectric constant tensor:
#      x y z
#    x 1.768250 0.000000 0.001850 
#    y 0.000000 1.774440 0.000000 
#    z 0.001850 0.000000 1.762630 
# 
# From -- ./inp_files/250104.got.cif
#   From: 2010.06.25/outbox.cif.g09.slc.cpg/sg12_126_cif.got.tgz:250104.got - 2010.06.28 00:19:55.
