data_PCOD8106810
_publ_section_title
;
Structure prediction by ZEFSAII (Michael W. Deem and Ramdas Pophale) SiO2 
 PCOD8106810
Probable space group: C 2/M
;
_chemical_formula_sum "Si O2"
_cell_formula_units_Z 64
_cell_length_a 24.304082
_cell_length_b 9.305004
_cell_length_c 29.232657
_cell_angle_alpha 90.000000
_cell_angle_beta 149.476967
_cell_angle_gamma 90.000000
_cell_volume 3357.601926
_symmetry_space_group_name_H-M "C 2/M"
_symmetry_group_IT_number 12
_symmetry_cell_setting 'monoclinic'
loop_
_space_group_symop_operation_xyz
x,y,z
-x,y,-z
-x,-y,-z
x,-y,z
1/2+x,1/2+y,z
1/2-x,1/2+y,-z
1/2-x,1/2-y,-z
1/2+x,1/2-y,z
loop_
_atom_site_type_symbol
_atom_site_label
_atom_site_fract_x
_atom_site_fract_y
_atom_site_fract_z
Si Si1 0.893877 0.167233 0.664051
Si Si2 0.122996 0.667393 0.074860
Si Si3 0.505667 0.335682 0.360339
Si Si4 0.691337 0.831853 0.745786
Si Si5 0.902867 0.833042 0.129484
Si Si6 0.699491 0.333636 0.565725
Si Si7 0.376289 0.833228 0.405489
Si Si8 0.177073 0.667714 0.011211
O O1 0.930191 0.205982 0.639151
O O2 0.789511 0.262415 0.598540
O O3 0.988245 0.210756 0.766661
O O4 0.863675 0.000000 0.647030
O O5 0.151918 0.500000 0.101020
O O6 0.194964 0.758415 0.161375
O O7 0.147085 0.720117 0.040528
O O8 0.000000 0.699321 0.000000
O O9 0.464691 0.500000 0.328256
O O10 0.401949 0.234080 0.289260
O O11 0.583047 0.311252 0.459007
O O12 0.664490 0.798546 0.674170
O O13 0.698353 0.000000 0.760853
O O14 0.900309 0.747568 0.080152
O O15 0.900144 0.000000 0.115292
O O16 0.801946 0.793038 0.090066
O O17 0.727713 0.500000 0.592225
O O18 0.698859 0.258048 0.614495
O O19 0.500000 0.783754 0.500000
O O20 0.363284 0.000000 0.408837
O O21 0.154069 0.500000 0.989388
#
# Coordination Sequence:
#
# PCOD8106810 Si02
#       8
#     8   8   8   8   8   8   8   8
#     4  10  21  37  56  80 117 158 189 227 288 351
#     4  10  22  40  60  83 115 153 188 231 291 350
#     4  10  21  38  59  83 115 153 192 235 286 344
#     4  11  23  38  62  90 113 149 196 243 291 340
#     4   9  18  33  55  81 107 143 186 228 276 333
#     4  11  23  36  56  86 115 149 194 243 285 330
#     4  10  21  40  61  82 115 154 191 234 289 349
#     4   9  18  35  58  81 109 143 182 228 282 337
#
# _framework density 19.061223999999999
#
# number of rings (size 3 to 8) (size 9 to 14) (size 15 to 20)
#    0.000    2.000    1.250    1.875    0.000    6.500 
#    0.000    5.000    0.000    0.000    0.000    0.000 
#    0.000    0.000    0.000    0.000    0.000    0.000 
#
# Total GULP energy -396973.558821 kJ/mol
# GULP energy per Si atom -12405.423713 kJ/mol
# Density = 1.901784 g / cm^3
# Si number density = 19.061224 Si / 1000 Ang^3
#
#
#
# Elastic Constant Matrix: (Units=GPa)
#
#
# Indices 1 2 3 4 5 6 
#
# 1 117.8497 60.6864 52.8372 -0.0003 -2.9344 -0.0002
# 2 60.6864 82.8762 54.3198 0.0000 0.9118 -0.0016
# 3 52.8372 54.3198 87.7091 -0.0001 -1.3603 -0.0002
# 4 -0.0003 0.0000 -0.0001 35.0216 0.0000 0.5977
# 5 -2.9344 0.9118 -1.3603 0.0000 28.1277 -0.0001
# 6 -0.0002 -0.0016 -0.0002 0.5977 -0.0001 30.9090
#
#
#
# Elastic Compliance Matrix: (Units=1/GPa)
#
#
# Indices 1 2 3 4 5 6 
#
# 1 0.014328 -0.008194 -0.003532 0.000000 0.001590 0.000000
# 2 -0.008194 0.025043 -0.010607 0.000000 -0.002180 0.000001
# 3 -0.003532 -0.010607 0.020113 0.000000 0.000948 0.000000
# 4 0.000000 0.000000 0.000000 0.028563 0.000000 -0.000552
# 5 0.001590 -0.002180 0.000948 0.000000 0.035835 0.000000
# 6 0.000000 0.000001 0.000000 -0.000552 0.000000 0.032364
#
#
# Mechanical properties :
#
#
# Convention : Reuss Voigt Hill
#
# Bulk Modulus (GPa) = 67.48845 69.34686 68.41766
# Shear Modulus (GPa) = 24.28956 26.85109 25.57032
#
# Velocity S-wave (km/s) = 3.57359 3.75730 3.66660
# Velocity P-wave (km/s) = 7.24641 7.43527 7.34145
#
# Compressibility (1/GPa) = 0.01481735
#
# Stress axis : x y z
#
# Youngs Moduli (GPa) = 69.79259 39.93206 49.72023
#
# Poissons Ratio (x) = 0.32722 0.17560
# Poissons Ratio (y) = 0.57191 0.52736
# Poissons Ratio (z) = 0.24650 0.42354
#
# Static dielectric constant tensor:
#      x y z
#    x 3.482930 0.000000 -0.071360 
#    y 0.000000 3.424110 0.000000 
#    z -0.071360 0.000000 3.471170 
# 
# 
# High freq. dielectric constant tensor:
#      x y z
#    x 1.747120 0.000000 -0.004940 
#    y 0.000000 1.737380 0.000000 
#    z -0.004940 0.000000 1.743000 
# 
# From -- ./inp_files/238794.got.cif
#   From: 2010.06.25/outbox.cif.g09.slc.cpg/sg12_120_cif.got.tgz:238794.got - 2010.06.28 00:19:55.
