data_PCOD8106966
_publ_section_title
;
Structure prediction by ZEFSAII (Michael W. Deem and Ramdas Pophale) SiO2 
 PCOD8106966
Probable space group: C 2/M
;
_chemical_formula_sum "Si O2"
_cell_formula_units_Z 48
_cell_length_a 21.454084
_cell_length_b 21.334418
_cell_length_c 5.017646
_cell_angle_alpha 90.000000
_cell_angle_beta 90.399463
_cell_angle_gamma 90.000000
_cell_volume 2296.572920
_symmetry_space_group_name_H-M "C 2/M"
_symmetry_group_IT_number 12
_symmetry_cell_setting 'monoclinic'
loop_
_space_group_symop_operation_xyz
x,y,z
-x,y,-z
-x,-y,-z
x,-y,z
1/2+x,1/2+y,z
1/2-x,1/2+y,-z
1/2-x,1/2-y,-z
1/2+x,1/2-y,z
loop_
_atom_site_type_symbol
_atom_site_label
_atom_site_fract_x
_atom_site_fract_y
_atom_site_fract_z
Si Si1 0.269770 0.861375 0.555554
Si Si2 0.185559 0.571631 0.943266
Si Si3 0.112931 0.282358 0.443373
Si Si4 0.430970 0.148788 0.057654
Si Si5 0.926844 0.926715 0.972263
Si Si6 0.374118 0.358320 0.470954
O O1 0.293707 0.915250 0.357410
O O2 0.313377 0.799600 0.521996
O O3 0.198862 0.846799 0.484630
O O4 0.273060 0.886648 0.856564
O O5 0.196521 0.500000 0.014164
O O6 0.112948 0.588378 0.979472
O O7 0.090400 0.296493 0.144260
O O8 0.096592 0.210363 0.499827
O O9 0.072759 0.324019 0.645379
O O10 0.500000 0.125080 0.000000
O O11 0.903799 0.906448 0.680958
O O12 0.912360 0.000000 0.012908
O O13 0.888196 0.886274 0.182257
O O14 0.000000 0.912921 0.000000
#
# Coordination Sequence:
#
# PCOD8106966 Si02
#       6
#     8   8   8   8   8   8
#     4  10  22  38  57  86 119 146 184 239 284 326
#     4  10  21  37  57  83 117 153 189 234 280 326
#     4  10  22  38  57  86 119 146 184 239 284 326
#     4  10  21  37  57  83 117 153 189 234 280 326
#     4  11  26  44  59  84 118 146 185 240 284 327
#     4  12  23  39  66  86 108 154 192 221 283 356
#
# _framework density 20.900706
#
# number of rings (size 3 to 8) (size 9 to 14) (size 15 to 20)
#    0.000    1.500    0.000    4.500    0.000    9.667 
#    0.000    6.667    0.000    6.000    0.000    0.000 
#    0.000    0.000    0.000    0.000    0.000    0.000 
#
# Total GULP energy -297706.183312 kJ/mol
# GULP energy per Si atom -12404.424305 kJ/mol
# Density = 2.085314 g / cm^3
# Si number density = 20.900706 Si / 1000 Ang^3
#
#
#
# Elastic Constant Matrix: (Units=GPa)
#
#
# Indices 1 2 3 4 5 6 
#
# 1 90.2279 -9.7496 7.9148 0.0000 -3.3148 0.0000
# 2 -9.7496 81.0888 8.2010 0.0000 -2.9149 0.0000
# 3 7.9148 8.2010 77.3930 0.0000 0.4434 0.0000
# 4 0.0000 0.0000 0.0000 28.6005 0.0000 1.3426
# 5 -3.3148 -2.9149 0.4434 0.0000 29.1080 0.0000
# 6 0.0000 0.0000 0.0000 1.3426 0.0000 17.0646
#
#
#
# Elastic Compliance Matrix: (Units=1/GPa)
#
#
# Indices 1 2 3 4 5 6 
#
# 1 0.011424 0.001562 -0.001342 0.000000 0.001478 0.000000
# 2 0.001562 0.012726 -0.001517 0.000000 0.001475 0.000000
# 3 -0.001342 -0.001517 0.013222 0.000000 -0.000506 0.000000
# 4 0.000000 0.000000 0.000000 0.035094 0.000000 -0.002761
# 5 0.001478 0.001475 -0.000506 0.000000 0.034679 0.000000
# 6 0.000000 0.000000 0.000000 -0.002761 0.000000 0.058818
#
#
# Mechanical properties :
#
#
# Convention : Reuss Voigt Hill
#
# Bulk Modulus (GPa) = 28.75308 29.04916 28.90112
# Shear Modulus (GPa) = 27.75474 31.11085 29.43280
#
# Velocity S-wave (km/s) = 3.64803 3.86230 3.75670
# Velocity P-wave (km/s) = 5.61525 5.81538 5.71619
#
# Compressibility (1/GPa) = 0.03477888
#
# Stress axis : x y z
#
# Youngs Moduli (GPa) = 87.53568 78.57649 75.63170
#
# Poissons Ratio (x) = -0.12277 0.10152
# Poissons Ratio (y) = -0.13677 0.11472
# Poissons Ratio (z) = 0.11750 0.11919
#
# Static dielectric constant tensor:
#      x y z
#    x 3.778980 0.000000 0.003410 
#    y 0.000000 3.523830 0.000000 
#    z 0.003410 0.000000 3.869590 
# 
# 
# High freq. dielectric constant tensor:
#      x y z
#    x 1.821930 0.000000 0.000600 
#    y 0.000000 1.807350 0.000000 
#    z 0.000600 0.000000 1.834240 
# 
# From -- ./inp_files/20939.got.cif
#   From: 2010.06.25/outbox.cif.g09.slc.cpg/sg12_11_cif.got.tgz:20939.got - 2010.06.28 00:19:55.
