data_PCOD8106989
_publ_section_title
;
Structure prediction by ZEFSAII (Michael W. Deem and Ramdas Pophale) SiO2 
 PCOD8106989
Probable space group: C 2/M
;
_chemical_formula_sum "Si O2"
_cell_formula_units_Z 48
_cell_length_a 10.139081
_cell_length_b 9.965596
_cell_length_c 22.534227
_cell_angle_alpha 90.000000
_cell_angle_beta 94.300216
_cell_angle_gamma 90.000000
_cell_volume 2270.493206
_symmetry_space_group_name_H-M "C 2/M"
_symmetry_group_IT_number 12
_symmetry_cell_setting 'monoclinic'
loop_
_space_group_symop_operation_xyz
x,y,z
-x,y,-z
-x,-y,-z
x,-y,z
1/2+x,1/2+y,z
1/2-x,1/2+y,-z
1/2-x,1/2-y,-z
1/2+x,1/2-y,z
loop_
_atom_site_type_symbol
_atom_site_label
_atom_site_fract_x
_atom_site_fract_y
_atom_site_fract_z
Si Si1 0.739791 0.653318 0.260349
Si Si2 0.473944 0.154330 0.690303
Si Si3 0.274293 0.652797 0.878094
Si Si4 0.122567 0.646539 0.536563
Si Si5 0.779485 0.358263 0.585808
Si Si6 0.502065 0.155366 0.930598
O O1 0.703242 0.500000 0.276828
O O2 0.622059 0.752502 0.274115
O O3 0.765592 0.665259 0.191584
O O4 0.874846 0.701194 0.297458
O O5 0.424718 0.169759 0.619632
O O6 0.460861 0.000000 0.711921
O O7 0.316863 0.500000 0.895025
O O8 0.394147 0.752040 0.895634
O O9 0.146571 0.695539 0.911750
O O10 0.083145 0.500000 0.561803
O O11 0.224061 0.625852 0.485482
O O12 0.181350 0.732690 0.593676
O O13 0.000000 0.718952 0.500000
O O14 0.725810 0.500000 0.611070
O O15 0.469892 0.000000 0.914997
O O16 0.500000 0.184119 0.000000
#
# Coordination Sequence:
#
# PCOD8106989 Si02
#       6
#     8   8   8   8   8   8
#     4  10  22  39  59  83 113 151 192 236 282 332
#     4  10  22  39  59  83 114 148 189 238 285 335
#     4  10  21  37  57  84 117 152 192 234 280 333
#     4   9  18  32  53  76 100 134 174 213 269 337
#     4   9  19  34  50  75 105 135 173 222 275 329
#     4  10  21  37  59  88 119 152 190 232 281 335
#
# _framework density 21.140782000000002
#
# number of rings (size 3 to 8) (size 9 to 14) (size 15 to 20)
#    0.000    2.333    0.000    1.500    2.333    4.667 
#    0.000    0.000    0.000    0.000    0.000    0.000 
#    0.000    0.000    0.000    0.000    0.000    0.000 
#
# Total GULP energy -297389.694965 kJ/mol
# GULP energy per Si atom -12391.237290 kJ/mol
# Density = 2.109266 g / cm^3
# Si number density = 21.140782 Si / 1000 Ang^3
#
#
#
# Elastic Constant Matrix: (Units=GPa)
#
#
# Indices 1 2 3 4 5 6 
#
# 1 83.0048 47.2898 7.3045 0.0000 17.1532 0.0000
# 2 47.2898 88.6151 26.3291 0.0000 18.9228 0.0000
# 3 7.3045 26.3291 60.2096 0.0000 10.0323 0.0000
# 4 0.0000 0.0000 0.0000 24.2575 0.0000 4.9569
# 5 17.1532 18.9228 10.0323 0.0000 37.8849 0.0000
# 6 0.0000 0.0000 0.0000 4.9569 0.0000 35.0292
#
#
#
# Elastic Compliance Matrix: (Units=1/GPa)
#
#
# Indices 1 2 3 4 5 6 
#
# 1 0.018128 -0.009589 0.002682 0.000000 -0.004128 0.000000
# 2 -0.009589 0.019104 -0.006616 0.000000 -0.003448 0.000000
# 3 0.002682 -0.006616 0.019697 0.000000 -0.003126 0.000000
# 4 0.000000 0.000000 0.000000 0.042452 0.000000 -0.006007
# 5 -0.004128 -0.003448 -0.003126 0.000000 0.030815 0.000000
# 6 0.000000 0.000000 0.000000 -0.006007 0.000000 0.029398
#
#
# Mechanical properties :
#
#
# Convention : Reuss Voigt Hill
#
# Bulk Modulus (GPa) = 33.46457 43.74180 38.60318
# Shear Modulus (GPa) = 25.43210 29.49474 27.46342
#
# Velocity S-wave (km/s) = 3.47217 3.73923 3.60818
# Velocity P-wave (km/s) = 5.65141 6.27520 5.97145
#
# Compressibility (1/GPa) = 0.02988235
#
# Stress axis : x y z
#
# Youngs Moduli (GPa) = 55.16367 52.34422 50.76842
#
# Poissons Ratio (x) = 0.50195 -0.13616
# Poissons Ratio (y) = 0.52898 0.33589
# Poissons Ratio (z) = -0.14795 0.34632
#
# Static dielectric constant tensor:
#      x y z
#    x 3.661780 0.000000 0.055740 
#    y 0.000000 4.342550 0.000000 
#    z 0.055740 0.000000 3.857680 
# 
# 
# High freq. dielectric constant tensor:
#      x y z
#    x 1.822190 0.000000 0.004220 
#    y 0.000000 1.832690 0.000000 
#    z 0.004220 0.000000 1.829500 
# 
# From -- ./inp_files/334655.got.cif
#   From: 2010.06.25/outbox.cif.g09.slc.cpg/sg12_168_cif.got.tgz:334655.got - 2010.06.28 00:19:55.
