data_PCOD8106561
_publ_section_title
;
Structure prediction by ZEFSAII (Michael W. Deem and Ramdas Pophale) SiO2 
 PCOD8106561
Probable space group: C 2/M
;
_chemical_formula_sum "Si O2"
_cell_formula_units_Z 56
_cell_length_a 17.149610
_cell_length_b 14.640140
_cell_length_c 13.825562
_cell_angle_alpha 90.000000
_cell_angle_beta 54.462089
_cell_angle_gamma 90.000000
_cell_volume 2824.640551
_symmetry_space_group_name_H-M "C 2/M"
_symmetry_group_IT_number 12
_symmetry_cell_setting 'monoclinic'
loop_
_space_group_symop_operation_xyz
x,y,z
-x,y,-z
-x,-y,-z
x,-y,z
1/2+x,1/2+y,z
1/2-x,1/2+y,-z
1/2-x,1/2-y,-z
1/2+x,1/2-y,z
loop_
_atom_site_type_symbol
_atom_site_label
_atom_site_fract_x
_atom_site_fract_y
_atom_site_fract_z
Si Si1 0.224213 0.896437 0.192256
Si Si2 0.216260 0.396519 0.479035
Si Si3 0.465836 0.224823 0.421809
Si Si4 0.070287 0.804438 0.179182
Si Si5 0.611135 0.392991 0.787579
Si Si6 0.103979 0.261426 0.948680
Si Si7 0.640480 0.601241 0.459726
O O1 0.155702 0.868944 0.153612
O O2 0.316289 0.833090 0.139586
O O3 0.161657 0.885281 0.332800
O O4 0.259690 0.000000 0.151434
O O5 0.179515 0.500000 0.494073
O O6 0.126760 0.330246 0.542587
O O7 0.291279 0.372829 0.340540
O O8 0.263231 0.380187 0.549421
O O9 0.500000 0.182958 0.500000
O O10 0.544305 0.226263 0.278856
O O11 0.443752 0.331606 0.450313
O O12 0.977210 0.863312 0.216639
O O13 0.113724 0.753359 0.055698
O O14 0.601328 0.500000 0.820961
O O15 0.614685 0.334767 0.883653
O O16 0.000000 0.304146 0.000000
O O17 0.601728 0.500000 0.511495
#
# Coordination Sequence:
#
# PCOD8106561 Si02
#       7
#     8   8   8   8   8   8   8
#     4  11  23  40  62  87 121 157 193 244 297 349
#     4  10  22  39  61  88 119 157 199 240 286 351
#     4  12  23  37  62  88 122 157 186 242 301 349
#     4  11  23  38  60  88 121 153 196 245 297 345
#     4  10  21  39  64  89 116 154 200 247 290 339
#     4  10  24  41  61  87 117 156 203 244 284 351
#     4  10  21  36  60  91 118 149 194 240 292 354
#
# _framework density 19.825531000000002
#
# number of rings (size 3 to 8) (size 9 to 14) (size 15 to 20)
#    0.000    1.429    2.857    2.143    4.000    4.571 
#    0.000    0.714    0.000    0.000    0.000    0.000 
#    0.000    0.000    0.000    0.000    0.000    0.000 
#
# Total GULP energy -347237.616647 kJ/mol
# GULP energy per Si atom -12401.343452 kJ/mol
# Density = 1.978041 g / cm^3
# Si number density = 19.825531 Si / 1000 Ang^3
#
#
#
# Elastic Constant Matrix: (Units=GPa)
#
#
# Indices 1 2 3 4 5 6 
#
# 1 80.7865 28.7007 29.4001 0.0000 11.1828 0.0000
# 2 28.7007 64.8774 22.0522 0.0000 -7.8016 0.0000
# 3 29.4001 22.0522 53.3561 0.0000 13.1048 0.0000
# 4 0.0000 0.0000 0.0000 11.3791 0.0000 6.7636
# 5 11.1828 -7.8016 13.1048 0.0000 35.3382 0.0000
# 6 0.0000 0.0000 0.0000 6.7636 0.0000 6.7094
#
#
#
# Elastic Compliance Matrix: (Units=1/GPa)
#
#
# Indices 1 2 3 4 5 6 
#
# 1 0.017382 -0.006279 -0.005821 0.000000 -0.004728 0.000000
# 2 -0.006279 0.022140 -0.008118 0.000000 0.009885 0.000000
# 3 -0.005821 -0.008118 0.027827 0.000000 -0.010270 0.000000
# 4 0.000000 0.000000 0.000000 0.219259 0.000000 -0.221032
# 5 -0.004728 0.009885 -0.010270 0.000000 0.035785 0.000000
# 6 0.000000 0.000000 0.000000 -0.221032 0.000000 0.371863
#
#
# Mechanical properties :
#
#
# Convention : Reuss Voigt Hill
#
# Bulk Modulus (GPa) = 37.15937 39.92511 38.54224
# Shear Modulus (GPa) = 6.72345 18.60981 12.66663
#
# Velocity S-wave (km/s) = 1.84355 3.06711 2.53040
# Velocity P-wave (km/s) = 4.82861 5.72056 5.29341
#
# Compressibility (1/GPa) = 0.02691111
#
# Stress axis : x y z
#
# Youngs Moduli (GPa) = 57.53021 45.16751 35.93600
#
# Poissons Ratio (x) = 0.28363 0.20919
# Poissons Ratio (y) = 0.36126 0.29174
# Poissons Ratio (z) = 0.33490 0.36668
#
# Static dielectric constant tensor:
#      x y z
#    x 3.692270 0.000000 0.243750 
#    y 0.000000 3.551350 0.000000 
#    z 0.243750 0.000000 3.724460 
# 
# 
# High freq. dielectric constant tensor:
#      x y z
#    x 1.781500 0.000000 0.010780 
#    y 0.000000 1.761270 0.000000 
#    z 0.010780 0.000000 1.777410 
# 
# From -- ./inp_files/225189.got.cif
#   From: 2010.06.25/outbox.cif.g09.slc.cpg/sg12_113_cif.got.tgz:225189.got - 2010.06.28 00:19:55.
