data_PCOD8106499
_publ_section_title
;
Structure prediction by ZEFSAII (Michael W. Deem and Ramdas Pophale) SiO2 
 PCOD8106499
Probable space group: C 2/M
;
_chemical_formula_sum "Si O2"
_cell_formula_units_Z 56
_cell_length_a 17.700708
_cell_length_b 13.254490
_cell_length_c 12.558462
_cell_angle_alpha 90.000000
_cell_angle_beta 64.788439
_cell_angle_gamma 90.000000
_cell_volume 2665.719478
_symmetry_space_group_name_H-M "C 2/M"
_symmetry_group_IT_number 12
_symmetry_cell_setting 'monoclinic'
loop_
_space_group_symop_operation_xyz
x,y,z
-x,y,-z
-x,-y,-z
x,-y,z
1/2+x,1/2+y,z
1/2-x,1/2+y,-z
1/2-x,1/2-y,-z
1/2+x,1/2-y,z
loop_
_atom_site_type_symbol
_atom_site_label
_atom_site_fract_x
_atom_site_fract_y
_atom_site_fract_z
Si Si1 0.384103 0.618461 0.930266
Si Si2 0.471195 0.274322 0.267762
Si Si3 0.633429 0.254926 0.869466
Si Si4 0.288255 0.203121 0.637642
Si Si5 0.913592 0.382609 0.720111
Si Si6 0.697621 0.118164 0.008366
Si Si7 0.821322 0.881890 0.474390
O O1 0.384775 0.500000 0.930295
O O2 0.448666 0.656624 0.803592
O O3 0.291568 0.664018 0.961010
O O4 0.407617 0.656882 0.034207
O O5 0.431614 0.227464 0.184227
O O6 0.499938 0.179674 0.322237
O O7 0.405752 0.344199 0.368087
O O8 0.718514 0.297480 0.769794
O O9 0.650173 0.157731 0.932408
O O10 0.369431 0.149380 0.636856
O O11 0.257909 0.137658 0.554635
O O12 0.308082 0.318390 0.590675
O O13 0.935875 0.500000 0.702696
O O14 0.855912 0.354529 0.855528
O O15 0.706622 0.000000 0.988963
O O16 0.828060 0.000000 0.498681
#
# Coordination Sequence:
#
# PCOD8106499 Si02
#       7
#     8   8   8   8   8   8   8
#     4  11  21  35  58  89 122 161 202 248 305 368
#     4  11  24  38  59  92 131 165 200 250 311 370
#     4  11  21  37  59  89 126 157 200 255 301 367
#     4  10  22  41  69  91 118 162 212 262 303 362
#     4  11  22  40  63  88 123 165 210 258 308 368
#     4  10  21  36  59  87 120 164 208 249 299 364
#     4  10  23  45  67  93 123 160 207 260 315 366
#
# _framework density 21.007463999999999
#
# number of rings (size 3 to 8) (size 9 to 14) (size 15 to 20)
#    0.000    1.429    2.857    2.571    0.000    5.143 
#    0.000   10.714    0.000    0.000    0.000    0.000 
#    0.000    0.000    0.000    0.000    0.000    0.000 
#
# Total GULP energy -347286.505294 kJ/mol
# GULP energy per Si atom -12403.089475 kJ/mol
# Density = 2.095965 g / cm^3
# Si number density = 21.007464 Si / 1000 Ang^3
#
#
#
# Elastic Constant Matrix: (Units=GPa)
#
#
# Indices 1 2 3 4 5 6 
#
# 1 106.0379 38.0370 0.0904 0.0000 1.4304 0.0000
# 2 38.0370 71.2775 7.1811 0.0000 -7.1088 0.0000
# 3 0.0904 7.1811 29.8563 0.0000 -3.9009 0.0000
# 4 0.0000 0.0000 0.0000 28.6950 0.0000 -3.0361
# 5 1.4304 -7.1088 -3.9009 0.0000 22.1555 0.0000
# 6 0.0000 0.0000 0.0000 -3.0361 0.0000 25.1406
#
#
#
# Elastic Compliance Matrix: (Units=1/GPa)
#
#
# Indices 1 2 3 4 5 6 
#
# 1 0.011882 -0.006735 0.001230 0.000000 -0.002712 0.000000
# 2 -0.006735 0.018569 -0.003696 0.000000 0.005742 0.000000
# 3 0.001230 -0.003696 0.035019 0.000000 0.004901 0.000000
# 4 0.000000 0.000000 0.000000 0.035300 0.000000 0.004263
# 5 -0.002712 0.005742 0.004901 0.000000 0.048016 0.000000
# 6 0.000000 0.000000 0.000000 0.004263 0.000000 0.040291
#
#
# Mechanical properties :
#
#
# Convention : Reuss Voigt Hill
#
# Bulk Modulus (GPa) = 21.24584 33.08762 27.16673
# Shear Modulus (GPa) = 22.40456 25.98911 24.19684
#
# Velocity S-wave (km/s) = 3.26928 3.52111 3.39753
# Velocity P-wave (km/s) = 4.93826 5.68468 5.32456
#
# Compressibility (1/GPa) = 0.04706803
#
# Stress axis : x y z
#
# Youngs Moduli (GPa) = 84.16024 53.85359 28.55579
#
# Poissons Ratio (x) = 0.36271 -0.03511
# Poissons Ratio (y) = 0.56683 0.10553
# Poissons Ratio (z) = -0.10349 0.19902
#
# Static dielectric constant tensor:
#      x y z
#    x 4.015840 0.000000 0.060580 
#    y 0.000000 3.708790 0.000000 
#    z 0.060580 0.000000 3.840010 
# 
# 
# High freq. dielectric constant tensor:
#      x y z
#    x 1.828990 0.000000 -0.003070 
#    y 0.000000 1.823900 0.000000 
#    z -0.003070 0.000000 1.817530 
# 
# From -- ./inp_files/156535.got.cif
#   From: 2010.06.25/outbox.cif.g09.slc.cpg/sg12_79_cif.got.tgz:156535.got - 2010.06.28 00:19:55.
