data_PCOD8106711
_publ_section_title
;
Structure prediction by ZEFSAII (Michael W. Deem and Ramdas Pophale) SiO2 
 PCOD8106711
Probable space group: C 2/M
;
_chemical_formula_sum "Si O2"
_cell_formula_units_Z 40
_cell_length_a 25.649009
_cell_length_b 9.046950
_cell_length_c 9.208274
_cell_angle_alpha 90.000000
_cell_angle_beta 87.359012
_cell_angle_gamma 90.000000
_cell_volume 2134.467213
_symmetry_space_group_name_H-M "C 2/M"
_symmetry_group_IT_number 12
_symmetry_cell_setting 'monoclinic'
loop_
_space_group_symop_operation_xyz
x,y,z
-x,y,-z
-x,-y,-z
x,-y,z
1/2+x,1/2+y,z
1/2-x,1/2+y,-z
1/2-x,1/2-y,-z
1/2+x,1/2-y,z
loop_
_atom_site_type_symbol
_atom_site_label
_atom_site_fract_x
_atom_site_fract_y
_atom_site_fract_z
Si Si1 0.802925 0.163211 0.831440
Si Si2 0.486963 0.671377 0.336353
Si Si3 0.399971 0.175215 0.177346
Si Si4 0.584385 0.673938 0.125830
Si Si5 0.295049 0.664103 0.176617
O O1 0.862150 0.220015 0.797198
O O2 0.760355 0.269520 0.761892
O O3 0.795384 0.000000 0.765509
O O4 0.794441 0.157198 0.004164
O O5 0.500000 0.705947 0.500000
O O6 0.472439 0.500000 0.314513
O O7 0.438369 0.772683 0.299480
O O8 0.536628 0.716607 0.233907
O O9 0.342475 0.234307 0.224436
O O10 0.397985 0.000000 0.168268
O O11 0.421609 0.238870 0.023341
O O12 0.586295 0.500000 0.087670
O O13 0.301231 0.500000 0.241950
#
# Coordination Sequence:
#
# PCOD8106711 Si02
#       5
#     8   8   8   8   8
#     4   8  14  25  43  70 101 128 156 196 246 293
#     4  10  21  37  55  73  97 132 170 207 250 299
#     4  11  21  32  50  76 104 133 166 206 248 291
#     4   9  18  33  53  76 102 132 166 204 246 295
#     4   9  16  27  45  70 100 131 162 199 244 293
#
# _framework density 18.740041000000002
#
# number of rings (size 3 to 8) (size 9 to 14) (size 15 to 20)
#    0.000    2.600    0.000    4.200    0.000    8.400 
#    0.000    0.000    0.000    1.200    0.000    0.000 
#    0.000    0.000    0.000    0.000    0.000    0.000 
#
# Total GULP energy -247965.740437 kJ/mol
# GULP energy per Si atom -12398.287022 kJ/mol
# Density = 1.869739 g / cm^3
# Si number density = 18.740041 Si / 1000 Ang^3
#
#
#
# Elastic Constant Matrix: (Units=GPa)
#
#
# Indices 1 2 3 4 5 6 
#
# 1 133.2556 62.0363 38.1811 0.0000 22.9393 0.0000
# 2 62.0363 113.1529 35.8865 0.0000 15.0988 0.0000
# 3 38.1811 35.8865 46.8062 0.0000 14.4059 0.0000
# 4 0.0000 0.0000 0.0000 12.9144 0.0000 7.1905
# 5 22.9393 15.0988 14.4059 0.0000 7.7137 0.0000
# 6 0.0000 0.0000 0.0000 7.1905 0.0000 36.1543
#
#
#
# Elastic Compliance Matrix: (Units=1/GPa)
#
#
# Indices 1 2 3 4 5 6 
#
# 1 0.016807 -0.003947 0.005460 0.000000 -0.052452 0.000000
# 2 -0.003947 0.013329 -0.006073 0.000000 -0.003011 0.000000
# 3 0.005460 -0.006073 0.053871 0.000000 -0.104957 0.000000
# 4 0.000000 0.000000 0.000000 0.087075 0.000000 -0.017318
# 5 -0.052452 -0.003011 -0.104957 0.000000 0.487530 0.000000
# 6 0.000000 0.000000 0.000000 -0.017318 0.000000 0.031103
#
#
# Mechanical properties :
#
#
# Convention : Reuss Voigt Hill
#
# Bulk Modulus (GPa) = 13.35363 62.82471 38.08917
# Shear Modulus (GPa) = 6.90800 21.83054 14.36927
#
# Velocity S-wave (km/s) = 1.92204 3.41679 2.77206
# Velocity P-wave (km/s) = 3.47373 7.01163 5.53307
#
# Compressibility (1/GPa) = 0.07488600
#
# Stress axis : x y z
#
# Youngs Moduli (GPa) = 59.49999 75.02167 18.56293
#
# Poissons Ratio (x) = 0.29611 -0.10135
# Poissons Ratio (y) = 0.23484 0.11274
# Poissons Ratio (z) = -0.32486 0.45564
#
# Static dielectric constant tensor:
#      x y z
#    x 3.829560 0.000000 0.015660 
#    y 0.000000 3.505160 0.000000 
#    z 0.015660 0.000000 2.909090 
# 
# 
# High freq. dielectric constant tensor:
#      x y z
#    x 1.749320 0.000000 0.006380 
#    y 0.000000 1.723520 0.000000 
#    z 0.006380 0.000000 1.668940 
# 
# From -- ./inp_files/92925.got.cif
#   From: 2010.06.25/outbox.cif.g09.slc.cpg/sg12_47_cif.got.tgz:92925.got - 2010.06.28 00:19:55.
