data_PCOD8106191
_publ_section_title
;
Structure prediction by ZEFSAII (Michael W. Deem and Ramdas Pophale) SiO2 
 PCOD8106191
Probable space group: C 2/M
;
_chemical_formula_sum "Si O2"
_cell_formula_units_Z 56
_cell_length_a 20.074093
_cell_length_b 9.144999
_cell_length_c 28.664712
_cell_angle_alpha 90.000000
_cell_angle_beta 147.001355
_cell_angle_gamma 90.000000
_cell_volume 2865.894015
_symmetry_space_group_name_H-M "C 2/M"
_symmetry_group_IT_number 12
_symmetry_cell_setting 'monoclinic'
loop_
_space_group_symop_operation_xyz
x,y,z
-x,y,-z
-x,-y,-z
x,-y,z
1/2+x,1/2+y,z
1/2-x,1/2+y,-z
1/2-x,1/2-y,-z
1/2+x,1/2-y,z
loop_
_atom_site_type_symbol
_atom_site_label
_atom_site_fract_x
_atom_site_fract_y
_atom_site_fract_z
Si Si1 0.298357 0.331302 0.769985
Si Si2 0.245537 0.828363 0.926095
Si Si3 0.068235 0.170062 0.902946
Si Si4 0.859024 0.331405 0.409789
Si Si5 0.941069 0.332429 0.617227
Si Si6 0.186734 0.826627 0.787436
Si Si7 0.289242 0.333032 0.454318
O O1 0.298655 0.500000 0.785686
O O2 0.424725 0.290395 0.818140
O O3 0.184570 0.299367 0.668545
O O4 0.285254 0.232677 0.808259
O O5 0.128083 0.782842 0.888636
O O6 0.225246 0.774540 0.861522
O O7 0.267205 0.000000 0.940459
O O8 0.367774 0.753674 0.016974
O O9 0.089825 0.000000 0.924544
O O10 0.834189 0.500000 0.408077
O O11 0.778006 0.229027 0.395597
O O12 0.000000 0.289024 0.500000
O O13 0.978381 0.500000 0.629167
O O14 0.843335 0.319443 0.600938
O O15 0.888069 0.266299 0.538670
O O16 0.056009 0.240480 0.700198
O O17 0.178387 0.000000 0.778902
O O18 0.334943 0.500000 0.481278
#
# Coordination Sequence:
#
# PCOD8106191 Si02
#       7
#     8   8   8   8   8   8   8
#     4  10  22  38  58  84 118 156 196 240 286 346
#     4   9  20  38  60  86 115 148 188 238 294 345
#     4   9  19  38  61  85 112 150 195 236 285 346
#     4  10  21  36  56  81 112 155 197 235 285 340
#     4  10  21  37  56  81 115 150 191 236 285 345
#     4  11  23  37  58  86 117 152 188 238 294 342
#     4  10  21  36  56  83 111 147 192 242 290 335
#
# _framework density 19.540150000000001
#
# number of rings (size 3 to 8) (size 9 to 14) (size 15 to 20)
#    0.000    2.143    0.000    2.143    2.000    6.000 
#    0.000    2.857    0.000    0.000    0.000    0.000 
#    0.000    0.000    0.000    0.000    0.000    0.000 
#
# Total GULP energy -347294.529983 kJ/mol
# GULP energy per Si atom -12403.376071 kJ/mol
# Density = 1.949568 g / cm^3
# Si number density = 19.540150 Si / 1000 Ang^3
#
#
#
# Elastic Constant Matrix: (Units=GPa)
#
#
# Indices 1 2 3 4 5 6 
#
# 1 105.3553 51.4695 52.8565 0.0000 -15.8580 0.0001
# 2 51.4695 66.2766 26.1693 0.0000 -3.6045 0.0005
# 3 52.8565 26.1693 92.4584 0.0000 5.2895 0.0001
# 4 0.0000 0.0000 0.0000 32.5263 0.0000 -1.5711
# 5 -15.8580 -3.6045 5.2895 0.0000 27.4535 0.0000
# 6 0.0001 0.0005 0.0001 -1.5711 0.0000 36.0976
#
#
#
# Elastic Compliance Matrix: (Units=1/GPa)
#
#
# Indices 1 2 3 4 5 6 
#
# 1 0.023123 -0.013161 -0.010273 0.000000 0.013608 0.000000
# 2 -0.013161 0.024759 0.000774 0.000000 -0.004501 0.000000
# 3 -0.010273 0.000774 0.016990 0.000000 -0.009106 0.000000
# 4 0.000000 0.000000 0.000000 0.030809 0.000000 0.001341
# 5 0.013608 -0.004501 -0.009106 0.000000 0.045449 0.000000
# 6 0.000000 0.000000 0.000000 0.001341 0.000000 0.027761
#
#
# Mechanical properties :
#
#
# Convention : Reuss Voigt Hill
#
# Bulk Modulus (GPa) = 51.14442 58.34231 54.74336
# Shear Modulus (GPa) = 22.65225 28.12181 25.38703
#
# Velocity S-wave (km/s) = 3.40849 3.79777 3.60839
# Velocity P-wave (km/s) = 6.45920 7.01093 6.74072
#
# Compressibility (1/GPa) = 0.01955248
#
# Stress axis : x y z
#
# Youngs Moduli (GPa) = 43.24653 40.38985 58.85745
#
# Poissons Ratio (x) = 0.53157 0.60461
# Poissons Ratio (y) = 0.56917 -0.04554
# Poissons Ratio (z) = 0.44425 -0.03125
#
# Static dielectric constant tensor:
#      x y z
#    x 3.715130 0.000000 -0.043460 
#    y 0.000000 3.552560 0.000000 
#    z -0.043460 0.000000 3.499240 
# 
# 
# High freq. dielectric constant tensor:
#      x y z
#    x 1.769850 0.000000 0.000220 
#    y 0.000000 1.760840 0.000000 
#    z 0.000220 0.000000 1.755500 
# 
# From -- ./inp_files/237397.got.cif
#   From: 2010.06.25/outbox.cif.g09.slc.cpg/sg12_119_cif.got.tgz:237397.got - 2010.06.28 00:19:55.
