data_PCOD8106918
_publ_section_title
;
Structure prediction by ZEFSAII (Michael W. Deem and Ramdas Pophale) SiO2 
 PCOD8106918
Probable space group: C 2/M
;
_chemical_formula_sum "Si O2"
_cell_formula_units_Z 56
_cell_length_a 10.215019
_cell_length_b 14.106559
_cell_length_c 19.406790
_cell_angle_alpha 90.000000
_cell_angle_beta 66.281039
_cell_angle_gamma 90.000000
_cell_volume 2560.273315
_symmetry_space_group_name_H-M "C 2/M"
_symmetry_group_IT_number 12
_symmetry_cell_setting 'monoclinic'
loop_
_space_group_symop_operation_xyz
x,y,z
-x,y,-z
-x,-y,-z
x,-y,z
1/2+x,1/2+y,z
1/2-x,1/2+y,-z
1/2-x,1/2-y,-z
1/2+x,1/2-y,z
loop_
_atom_site_type_symbol
_atom_site_label
_atom_site_fract_x
_atom_site_fract_y
_atom_site_fract_z
Si Si1 0.592228 0.606370 0.417289
Si Si2 0.105259 0.690752 0.679099
Si Si3 0.113060 0.897976 0.668773
Si Si4 0.742642 0.392756 0.963531
Si Si5 0.052872 0.393276 0.415772
Si Si6 0.854723 0.293277 0.063878
Si Si7 0.553874 0.895737 0.832588
O O1 0.500000 0.648056 0.500000
O O2 0.648185 0.500000 0.422476
O O3 0.728642 0.673449 0.374682
O O4 0.486071 0.602845 0.376341
O O5 0.081334 0.798363 0.713724
O O6 0.005758 0.672711 0.633601
O O7 0.053895 0.624550 0.751794
O O8 0.277710 0.893931 0.613802
O O9 0.084963 0.000000 0.714498
O O10 0.680535 0.500000 0.978181
O O11 0.649046 0.321410 0.936619
O O12 0.895660 0.390759 0.895515
O O13 0.735810 0.346443 0.041976
O O14 0.994157 0.500000 0.415851
O O15 0.000000 0.352460 0.500000
O O16 0.843099 0.325395 0.145921
O O17 0.000000 0.332036 0.000000
O O18 0.618115 0.000000 0.829665
#
# Coordination Sequence:
#
# PCOD8106918 Si02
#       7
#     8   8   8   8   8   8   8
#     4  10  21  38  59  84 113 145 187 243 303 359
#     4  12  23  37  60  86 112 151 202 245 290 353
#     4  10  23  39  54  77 111 146 183 236 298 352
#     4   9  18  34  58  86 117 152 188 227 273 331
#     4  10  21  38  59  83 110 142 186 241 297 354
#     4   9  18  34  57  85 116 150 187 225 272 332
#     4  10  21  37  57  82 112 147 189 236 283 335
#
# _framework density 21.872665999999999
#
# number of rings (size 3 to 8) (size 9 to 14) (size 15 to 20)
#    0.000    2.000    0.000    3.429    0.000   10.000 
#    0.000    2.143    0.000    3.429    0.000    0.000 
#    0.000    0.000    0.000    0.000    0.000    0.000 
#
# Total GULP energy -346902.340374 kJ/mol
# GULP energy per Si atom -12389.369299 kJ/mol
# Density = 2.182288 g / cm^3
# Si number density = 21.872666 Si / 1000 Ang^3
#
#
#
# Elastic Constant Matrix: (Units=GPa)
#
#
# Indices 1 2 3 4 5 6 
#
# 1 64.0345 19.0228 0.4062 0.0000 11.4042 0.0000
# 2 19.0228 149.3287 24.4361 0.0000 9.2245 0.0000
# 3 0.4062 24.4361 72.0145 0.0000 15.9563 0.0000
# 4 0.0000 0.0000 0.0000 23.0832 0.0000 5.6678
# 5 11.4042 9.2245 15.9563 0.0000 21.1469 0.0000
# 6 0.0000 0.0000 0.0000 5.6678 0.0000 34.4285
#
#
#
# Elastic Compliance Matrix: (Units=1/GPa)
#
#
# Indices 1 2 3 4 5 6 
#
# 1 0.018236 -0.002138 0.003116 0.000000 -0.011253 0.000000
# 2 -0.002138 0.007383 -0.002443 0.000000 -0.000224 0.000000
# 3 0.003116 -0.002443 0.017812 0.000000 -0.014054 0.000000
# 4 0.000000 0.000000 0.000000 0.045146 0.000000 -0.007432
# 5 -0.011253 -0.000224 -0.014054 0.000000 0.064059 0.000000
# 6 0.000000 0.000000 0.000000 -0.007432 0.000000 0.030269
#
#
# Mechanical properties :
#
#
# Convention : Reuss Voigt Hill
#
# Bulk Modulus (GPa) = 24.69173 41.45642 33.07407
# Shear Modulus (GPa) = 25.08336 31.83255 28.45795
#
# Velocity S-wave (km/s) = 3.39010 3.81905 3.61095
# Velocity P-wave (km/s) = 5.16111 6.20013 5.70433
#
# Compressibility (1/GPa) = 0.04049940
#
# Stress axis : x y z
#
# Youngs Moduli (GPa) = 54.83669 135.45289 56.14316
#
# Poissons Ratio (x) = 0.28957 -0.17493
# Poissons Ratio (y) = 0.11723 0.13718
# Poissons Ratio (z) = -0.17086 0.33097
#
# Static dielectric constant tensor:
#      x y z
#    x 3.884700 0.000000 0.123240 
#    y 0.000000 4.659090 0.000000 
#    z 0.123240 0.000000 3.644000 
# 
# 
# High freq. dielectric constant tensor:
#      x y z
#    x 1.853640 0.000000 0.010070 
#    y 0.000000 1.884440 0.000000 
#    z 0.010070 0.000000 1.824320 
# 
# From -- ./inp_files/262829.got.cif
#   From: 2010.06.25/outbox.cif.g09.slc.cpg/sg12_132_cif.got.tgz:262829.got - 2010.06.28 00:19:55.
