data_PCOD8106621
_publ_section_title
;
Structure prediction by ZEFSAII (Michael W. Deem and Ramdas Pophale) SiO2 
 PCOD8106621
Probable space group: C 2/M
;
_chemical_formula_sum "Si O2"
_cell_formula_units_Z 48
_cell_length_a 19.178076
_cell_length_b 14.323437
_cell_length_c 11.773264
_cell_angle_alpha 90.000000
_cell_angle_beta 133.752370
_cell_angle_gamma 90.000000
_cell_volume 2336.081735
_symmetry_space_group_name_H-M "C 2/M"
_symmetry_group_IT_number 12
_symmetry_cell_setting 'monoclinic'
loop_
_space_group_symop_operation_xyz
x,y,z
-x,y,-z
-x,-y,-z
x,-y,z
1/2+x,1/2+y,z
1/2-x,1/2+y,-z
1/2-x,1/2-y,-z
1/2+x,1/2-y,z
loop_
_atom_site_type_symbol
_atom_site_label
_atom_site_fract_x
_atom_site_fract_y
_atom_site_fract_z
Si Si1 0.032662 0.223423 0.329528
Si Si2 0.160940 0.606685 0.414701
Si Si3 0.744607 0.893535 0.746365
Si Si4 0.800262 0.889439 0.365793
Si Si5 0.949853 0.900446 0.057635
Si Si6 0.679774 0.736187 0.814164
O O1 0.070022 0.327090 0.340287
O O2 0.105039 0.165606 0.488910
O O3 0.928822 0.218310 0.270618
O O4 0.020208 0.171318 0.197064
O O5 0.122624 0.500000 0.366879
O O6 0.239444 0.618681 0.604167
O O7 0.212945 0.633479 0.354882
O O8 0.845769 0.857123 0.910863
O O9 0.667574 0.828333 0.722419
O O10 0.724022 0.000000 0.756977
O O11 0.777371 0.849512 0.214035
O O12 0.819521 0.000000 0.382534
O O13 0.938011 0.000000 0.111812
O O14 0.000000 0.928449 0.000000
O O15 0.750000 0.750000 0.000000
#
# Coordination Sequence:
#
# PCOD8106621 Si02
#       6
#     8   8   8   8   8   8
#     4  12  23  38  68  95 132 166 215 263 319 385
#     4  10  23  43  69  97 127 169 216 266 323 379
#     4  10  21  41  64  88 127 169 214 264 314 374
#     4  11  25  44  67  98 131 165 213 272 327 380
#     4  10  21  36  61  95 123 161 213 267 319 369
#     4  12  26  42  60  94 131 174 212 253 326 386
#
# _framework density 20.547225999999998
#
# number of rings (size 3 to 8) (size 9 to 14) (size 15 to 20)
#    0.000    1.167    3.333    2.500    2.333    6.000 
#    0.000    1.667    0.000    2.500    0.000    0.000 
#    0.000    0.000    0.000    0.000    0.000    0.000 
#
# Total GULP energy -297454.303480 kJ/mol
# GULP energy per Si atom -12393.929312 kJ/mol
# Density = 2.050046 g / cm^3
# Si number density = 20.547226 Si / 1000 Ang^3
#
#
#
# Elastic Constant Matrix: (Units=GPa)
#
#
# Indices 1 2 3 4 5 6 
#
# 1 99.9295 53.1176 29.7953 0.0000 -15.8764 0.0000
# 2 53.1176 130.1216 50.8599 0.0000 -9.0050 0.0000
# 3 29.7953 50.8599 86.5678 0.0000 -15.4630 0.0000
# 4 0.0000 0.0000 0.0000 38.8404 0.0000 -1.9993
# 5 -15.8764 -9.0050 -15.4630 0.0000 25.2698 0.0000
# 6 0.0000 0.0000 0.0000 -1.9993 0.0000 31.5212
#
#
#
# Elastic Compliance Matrix: (Units=1/GPa)
#
#
# Indices 1 2 3 4 5 6 
#
# 1 0.013880 -0.004936 -0.000711 0.000000 0.006526 0.000000
# 2 -0.004936 0.011732 -0.005614 0.000000 -0.002356 0.000000
# 3 -0.000711 -0.005614 0.016457 0.000000 0.007622 0.000000
# 4 0.000000 0.000000 0.000000 0.025831 0.000000 0.001638
# 5 0.006526 -0.002356 0.007622 0.000000 0.047498 0.000000
# 6 0.000000 0.000000 0.000000 0.001638 0.000000 0.031829
#
#
# Mechanical properties :
#
#
# Convention : Reuss Voigt Hill
#
# Bulk Modulus (GPa) = 51.16693 64.90716 58.03704
# Shear Modulus (GPa) = 28.36661 31.31603 29.84132
#
# Velocity S-wave (km/s) = 3.71962 3.90821 3.81508
# Velocity P-wave (km/s) = 6.58814 7.21272 6.90749
#
# Compressibility (1/GPa) = 0.01954388
#
# Stress axis : x y z
#
# Youngs Moduli (GPa) = 72.04677 85.24002 60.76615
#
# Poissons Ratio (x) = 0.42077 0.04323
# Poissons Ratio (y) = 0.35564 0.34116
# Poissons Ratio (z) = 0.05125 0.47857
#
# Static dielectric constant tensor:
#      x y z
#    x 3.888720 0.000000 -0.090780 
#    y 0.000000 4.134130 0.000000 
#    z -0.090780 0.000000 3.896070 
# 
# 
# High freq. dielectric constant tensor:
#      x y z
#    x 1.801440 0.000000 -0.011060 
#    y 0.000000 1.817390 0.000000 
#    z -0.011060 0.000000 1.797810 
# 
# From -- ./inp_files/167621.got.cif
#   From: 2010.06.25/outbox.cif.g09.slc.cpg/sg12_84_cif.got.tgz:167621.got - 2010.06.28 00:19:55.
