data_PCOD8106821
_publ_section_title
;
Structure prediction by ZEFSAII (Michael W. Deem and Ramdas Pophale) SiO2 
 PCOD8106821
Probable space group: C 2/M
;
_chemical_formula_sum "Si O2"
_cell_formula_units_Z 56
_cell_length_a 11.831623
_cell_length_b 18.644526
_cell_length_c 15.669796
_cell_angle_alpha 90.000000
_cell_angle_beta 120.413623
_cell_angle_gamma 90.000000
_cell_volume 2981.016636
_symmetry_space_group_name_H-M "C 2/M"
_symmetry_group_IT_number 12
_symmetry_cell_setting 'monoclinic'
loop_
_space_group_symop_operation_xyz
x,y,z
-x,y,-z
-x,-y,-z
x,-y,z
1/2+x,1/2+y,z
1/2-x,1/2+y,-z
1/2-x,1/2-y,-z
1/2+x,1/2-y,z
loop_
_atom_site_type_symbol
_atom_site_label
_atom_site_fract_x
_atom_site_fract_y
_atom_site_fract_z
Si Si1 0.118477 0.678075 0.698005
Si Si2 0.948408 0.174664 0.260799
Si Si3 0.753864 0.809823 0.577665
Si Si4 0.138026 0.417613 0.415285
Si Si5 0.598981 0.420122 0.915673
Si Si6 0.385345 0.581874 0.394366
Si Si7 0.807454 0.921068 0.870485
O O1 0.103067 0.744775 0.754866
O O2 0.153043 0.708030 0.616174
O O3 0.235282 0.632614 0.780689
O O4 0.987760 0.630812 0.650323
O O5 0.894525 0.140520 0.153493
O O6 0.884074 0.127990 0.309705
O O7 0.104538 0.178600 0.328015
O O8 0.750000 0.750000 0.500000
O O9 0.710639 0.887375 0.526432
O O10 0.097437 0.500000 0.416231
O O11 0.240156 0.410898 0.377034
O O12 0.637138 0.500000 0.895431
O O13 0.454631 0.424482 0.896428
O O14 0.696156 0.398011 0.030770
O O15 0.500000 0.611911 0.500000
O O16 0.419000 0.500000 0.384210
O O17 0.742895 0.000000 0.837217
#
# Coordination Sequence:
#
# PCOD8106821 Si02
#       7
#     8   8   8   8   8   8   8
#     4  12  25  37  60  86 120 161 193 241 300 361
#     4  12  23  35  63  84 118 157 198 242 290 359
#     4  12  24  40  54  83 123 161 198 240 295 345
#     4  11  24  39  57  83 119 160 202 243 289 349
#     4   9  19  38  64  91 113 146 196 252 299 351
#     4  10  21  37  56  81 115 156 200 243 284 338
#     4   9  19  39  63  87 119 147 189 252 308 349
#
# _framework density 18.785537000000001
#
# number of rings (size 3 to 8) (size 9 to 14) (size 15 to 20)
#    0.000    1.286    4.286    3.000    0.000    2.857 
#    0.000    0.000    0.000    0.857    0.000    4.000 
#    0.000    0.000    0.000    0.000    0.000    0.000 
#
# Total GULP energy -347104.918360 kJ/mol
# GULP energy per Si atom -12396.604227 kJ/mol
# Density = 1.874278 g / cm^3
# Si number density = 18.785537 Si / 1000 Ang^3
#
#
#
# Elastic Constant Matrix: (Units=GPa)
#
#
# Indices 1 2 3 4 5 6 
#
# 1 71.0299 40.4953 26.8794 0.0000 -6.7934 0.0000
# 2 40.4953 115.4679 52.0439 0.0000 -19.9054 0.0000
# 3 26.8794 52.0439 85.6429 0.0000 -18.0189 0.0000
# 4 0.0000 0.0000 0.0000 29.4285 0.0000 -3.1888
# 5 -6.7934 -19.9054 -18.0189 0.0000 23.2063 0.0000
# 6 0.0000 0.0000 0.0000 -3.1888 0.0000 23.1743
#
#
#
# Elastic Compliance Matrix: (Units=1/GPa)
#
#
# Indices 1 2 3 4 5 6 
#
# 1 0.018012 -0.005341 -0.002704 0.000000 -0.001408 0.000000
# 2 -0.005341 0.014129 -0.005604 0.000000 0.006204 0.000000
# 3 -0.002704 -0.005604 0.017633 0.000000 0.008093 0.000000
# 4 0.000000 0.000000 0.000000 0.034495 0.000000 0.004747
# 5 -0.001408 0.006204 0.008093 0.000000 0.054285 0.000000
# 6 0.000000 0.000000 0.000000 0.004747 0.000000 0.043804
#
#
# Mechanical properties :
#
#
# Convention : Reuss Voigt Hill
#
# Bulk Modulus (GPa) = 44.49123 56.77533 50.63328
# Shear Modulus (GPa) = 23.02560 25.34331 24.18445
#
# Velocity S-wave (km/s) = 3.50481 3.67698 3.59192
# Velocity P-wave (km/s) = 6.33352 6.95093 6.64939
#
# Compressibility (1/GPa) = 0.02247634
#
# Stress axis : x y z
#
# Youngs Moduli (GPa) = 55.51830 70.77592 56.71045
#
# Poissons Ratio (x) = 0.37802 0.15333
# Poissons Ratio (y) = 0.29652 0.31783
# Poissons Ratio (z) = 0.15011 0.39666
#
# Static dielectric constant tensor:
#      x y z
#    x 3.525500 0.000000 -0.025010 
#    y 0.000000 3.815150 0.000000 
#    z -0.025010 0.000000 3.655680 
# 
# 
# High freq. dielectric constant tensor:
#      x y z
#    x 1.722370 0.000000 -0.004270 
#    y 0.000000 1.741150 0.000000 
#    z -0.004270 0.000000 1.720400 
# 
# From -- ./inp_files/206755.got.cif
#   From: 2010.06.25/outbox.cif.g09.slc.cpg/sg12_104_cif.got.tgz:206755.got - 2010.06.28 00:19:55.
