data_PCOD8106646
_publ_section_title
;
Structure prediction by ZEFSAII (Michael W. Deem and Ramdas Pophale) SiO2 
 PCOD8106646
Probable space group: C 2/M
;
_chemical_formula_sum "Si O2"
_cell_formula_units_Z 48
_cell_length_a 28.915008
_cell_length_b 14.216088
_cell_length_c 9.128146
_cell_angle_alpha 90.000000
_cell_angle_beta 38.643811
_cell_angle_gamma 90.000000
_cell_volume 2343.162703
_symmetry_space_group_name_H-M "C 2/M"
_symmetry_group_IT_number 12
_symmetry_cell_setting 'monoclinic'
loop_
_space_group_symop_operation_xyz
x,y,z
-x,y,-z
-x,-y,-z
x,-y,z
1/2+x,1/2+y,z
1/2-x,1/2+y,-z
1/2-x,1/2-y,-z
1/2+x,1/2-y,z
loop_
_atom_site_type_symbol
_atom_site_label
_atom_site_fract_x
_atom_site_fract_y
_atom_site_fract_z
Si Si1 0.120244 0.218315 0.927027
Si Si2 0.517444 0.603153 0.786265
Si Si3 0.466381 0.893339 0.936079
Si Si4 0.934081 0.394518 0.574152
Si Si5 0.670282 0.388479 0.515402
Si Si6 0.793840 0.709404 0.027912
O O1 0.162847 0.168850 0.686785
O O2 0.171121 0.212378 0.947555
O O3 0.102837 0.329136 0.942823
O O4 0.039732 0.171092 0.155698
O O5 0.508953 0.500000 0.735528
O O6 0.603001 0.637446 0.569298
O O7 0.500000 0.598216 0.000000
O O8 0.540372 0.892461 0.655806
O O9 0.435710 0.000000 0.029121
O O10 0.500000 0.850047 0.000000
O O11 0.924941 0.500000 0.658736
O O12 0.000000 0.343009 0.500000
O O13 0.857178 0.345441 0.787435
O O14 0.669675 0.500000 0.553108
O O15 0.744791 0.359872 0.248737
O O16 0.750000 0.750000 0.000000
#
# Coordination Sequence:
#
# PCOD8106646 Si02
#       6
#     8   8   8   8   8   8
#     4  11  21  39  66  93 123 167 218 260 309 370
#     4   8  16  34  64  92 114 151 205 262 309 355
#     4  10  21  36  64 100 123 151 209 271 318 367
#     4  10  21  42  65  85 119 169 212 254 315 380
#     4  10  22  43  67  94 128 167 211 262 320 378
#     4  12  27  39  59  92 135 173 208 254 322 381
#
# _framework density 20.485133999999999
#
# number of rings (size 3 to 8) (size 9 to 14) (size 15 to 20)
#    0.000    1.833    1.667    4.000    4.667    0.667 
#    0.000    3.333    0.000    2.000    0.000    0.000 
#    0.000    0.000    0.000    0.000    0.000    0.000 
#
# Total GULP energy -297415.565254 kJ/mol
# GULP energy per Si atom -12392.315219 kJ/mol
# Density = 2.043851 g / cm^3
# Si number density = 20.485134 Si / 1000 Ang^3
#
#
#
# Elastic Constant Matrix: (Units=GPa)
#
#
# Indices 1 2 3 4 5 6 
#
# 1 157.9171 54.3198 47.2565 0.0000 -4.6651 0.0000
# 2 54.3198 97.7691 38.4259 0.0000 -5.3274 0.0000
# 3 47.2565 38.4259 102.2975 0.0000 -10.1005 0.0000
# 4 0.0000 0.0000 0.0000 213.4778 0.0000 210.1009
# 5 -4.6651 -5.3274 -10.1005 0.0000 30.1795 0.0000
# 6 0.0000 0.0000 0.0000 210.1009 0.0000 278.2371
#
#
#
# Elastic Compliance Matrix: (Units=1/GPa)
#
#
# Indices 1 2 3 4 5 6 
#
# 1 0.008332 -0.003660 -0.002493 0.000000 -0.000193 0.000000
# 2 -0.003660 0.013619 -0.003354 0.000000 0.000716 0.000000
# 3 -0.002493 -0.003354 0.012504 0.000000 0.003207 0.000000
# 4 0.000000 0.000000 0.000000 0.018239 0.000000 -0.013773
# 5 -0.000193 0.000716 0.003207 0.000000 0.034305 0.000000
# 6 0.000000 0.000000 0.000000 -0.013773 0.000000 0.013994
#
#
# Mechanical properties :
#
#
# Convention : Reuss Voigt Hill
#
# Bulk Modulus (GPa) = 64.76713 70.88754 67.82734
# Shear Modulus (GPa) = 39.95104 118.91099 79.43101
#
# Velocity S-wave (km/s) = 4.42095 7.62715 6.23371
# Velocity P-wave (km/s) = 7.59901 10.59453 9.21925
#
# Compressibility (1/GPa) = 0.01543993
#
# Stress axis : x y z
#
# Youngs Moduli (GPa) = 120.02419 73.42789 79.97559
#
# Poissons Ratio (x) = 0.26872 0.19939
# Poissons Ratio (y) = 0.43924 0.26827
# Poissons Ratio (z) = 0.29924 0.24631
#
# Static dielectric constant tensor:
#      x y z
#    x 4.131750 0.000000 -0.617680 
#    y 0.000000 3.748620 0.000000 
#    z -0.617680 0.000000 4.435140 
# 
# 
# High freq. dielectric constant tensor:
#      x y z
#    x 1.794270 0.000000 -0.009110 
#    y 0.000000 1.797020 0.000000 
#    z -0.009110 0.000000 1.798520 
# 
# From -- ./inp_files/111498.got.cif
#   From: 2010.06.25/outbox.cif.g09.slc.cpg/sg12_56_cif.got.tgz:111498.got - 2010.06.28 00:19:55.
