data_PCOD8106384
_publ_section_title
;
Structure prediction by ZEFSAII (Michael W. Deem and Ramdas Pophale) SiO2 
 PCOD8106384
Probable space group: C 2/M
;
_chemical_formula_sum "Si O2"
_cell_formula_units_Z 64
_cell_length_a 11.764875
_cell_length_b 19.592387
_cell_length_c 21.346555
_cell_angle_alpha 90.000000
_cell_angle_beta 141.407941
_cell_angle_gamma 90.000000
_cell_volume 3069.218701
_symmetry_space_group_name_H-M "C 2/M"
_symmetry_group_IT_number 12
_symmetry_cell_setting 'monoclinic'
loop_
_space_group_symop_operation_xyz
x,y,z
-x,y,-z
-x,-y,-z
x,-y,z
1/2+x,1/2+y,z
1/2-x,1/2+y,-z
1/2-x,1/2-y,-z
1/2+x,1/2-y,z
loop_
_atom_site_type_symbol
_atom_site_label
_atom_site_fract_x
_atom_site_fract_y
_atom_site_fract_z
Si Si1 0.626592 0.576645 0.703167
Si Si2 0.362595 0.314299 0.801543
Si Si3 0.966808 0.577318 0.138172
Si Si4 0.826797 0.920948 0.888079
Si Si5 0.907239 0.292294 0.033204
Si Si6 0.142885 0.191914 0.813784
Si Si7 0.610297 0.660994 0.484044
Si Si8 0.016985 0.282749 0.355586
O O1 0.588552 0.500000 0.711069
O O2 0.638241 0.626777 0.766936
O O3 0.469872 0.594126 0.584689
O O4 0.820804 0.581338 0.751694
O O5 0.331727 0.383836 0.824834
O O6 0.406868 0.248724 0.866353
O O7 0.516002 0.327213 0.817173
O O8 0.163668 0.304917 0.683715
O O9 0.915612 0.500000 0.093785
O O10 0.856026 0.596851 0.152671
O O11 0.916644 0.630022 0.061569
O O12 0.845193 0.000000 0.881222
O O13 0.000000 0.892829 0.000000
O O14 0.750000 0.250000 0.000000
O O15 0.847922 0.295975 0.932768
O O16 0.057622 0.259035 0.744934
O O17 0.500000 0.675929 0.500000
O O18 0.830017 0.658198 0.590405
O O19 0.596486 0.720879 0.428330
#
# Coordination Sequence:
#
# PCOD8106384 Si02
#       8
#     8   8   8   8   8   8   8   8
#     4  10  23  42  64  87 115 158 208 262 312 373
#     4  11  23  34  61  92 124 166 205 259 298 369
#     4  10  22  41  61  86 126 169 212 255 303 364
#     4  10  22  38  56  82 123 169 207 246 300 357
#     4  10  21  36  57  92 127 166 212 249 293 364
#     4  10  22  39  57  90 127 163 201 247 312 366
#     4  10  21  39  61  84 115 152 194 255 316 379
#     4  10  22  36  58  88 120 153 195 251 316 373
#
# _framework density 20.852212999999999
#
# number of rings (size 3 to 8) (size 9 to 14) (size 15 to 20)
#    0.000    1.875    0.000    3.750    7.000    2.750 
#    0.000    1.875    0.000    0.750    0.000    0.000 
#    0.000    0.000    0.000    0.000    0.000    0.000 
#
# Total GULP energy -396625.360685 kJ/mol
# GULP energy per Si atom -12394.542521 kJ/mol
# Density = 2.080475 g / cm^3
# Si number density = 20.852213 Si / 1000 Ang^3
#
#
#
# Elastic Constant Matrix: (Units=GPa)
#
#
# Indices 1 2 3 4 5 6 
#
# 1 98.9099 26.4948 52.2604 -0.0002 12.3855 0.0000
# 2 26.4948 80.3345 44.9967 0.0000 6.6616 0.0000
# 3 52.2604 44.9967 130.5186 -0.0007 23.1483 -0.0003
# 4 -0.0002 0.0000 -0.0007 18.8355 -0.0002 4.0428
# 5 12.3855 6.6616 23.1483 -0.0002 37.6487 0.0000
# 6 0.0000 0.0000 -0.0003 4.0428 0.0000 22.5620
#
#
#
# Elastic Compliance Matrix: (Units=1/GPa)
#
#
# Indices 1 2 3 4 5 6 
#
# 1 0.013063 -0.001735 -0.004405 0.000000 -0.001282 0.000000
# 2 -0.001735 0.015670 -0.004845 0.000000 0.000777 0.000000
# 3 -0.004405 -0.004845 0.011995 0.000000 -0.005069 0.000000
# 4 0.000000 0.000000 0.000000 0.055215 0.000000 -0.009894
# 5 -0.001282 0.000777 -0.005069 0.000000 0.029962 0.000000
# 6 0.000000 0.000000 0.000000 -0.009894 0.000000 0.046095
#
#
# Mechanical properties :
#
#
# Convention : Reuss Voigt Hill
#
# Bulk Modulus (GPa) = 53.31272 61.91853 57.61563
# Shear Modulus (GPa) = 24.97228 28.20999 26.59114
#
# Velocity S-wave (km/s) = 3.46437 3.68211 3.57489
# Velocity P-wave (km/s) = 6.45174 6.91633 6.68807
#
# Compressibility (1/GPa) = 0.01875725
#
# Stress axis : x y z
#
# Youngs Moduli (GPa) = 76.55295 63.81790 83.36806
#
# Poissons Ratio (x) = 0.11069 0.36724
# Poissons Ratio (y) = 0.13278 0.40396
# Poissons Ratio (z) = 0.33722 0.30923
#
# Static dielectric constant tensor:
#      x y z
#    x 3.566740 0.000000 -0.142060 
#    y 0.000000 3.721740 0.000000 
#    z -0.142060 0.000000 3.608000 
# 
# 
# High freq. dielectric constant tensor:
#      x y z
#    x 1.834480 0.000000 0.020390 
#    y 0.000000 1.803780 0.000000 
#    z 0.020390 0.000000 1.821140 
# 
# From -- ./inp_files/306809.got.cif
#   From: 2010.06.25/outbox.cif.g09.slc.cpg/sg12_154_cif.got.tgz:306809.got - 2010.06.28 00:19:55.
