data_PCOD8106892
_publ_section_title
;
Structure prediction by ZEFSAII (Michael W. Deem and Ramdas Pophale) SiO2 
 PCOD8106892
Probable space group: C 2/M
;
_chemical_formula_sum "Si O2"
_cell_formula_units_Z 48
_cell_length_a 10.148927
_cell_length_b 9.064256
_cell_length_c 26.561455
_cell_angle_alpha 90.000000
_cell_angle_beta 89.959515
_cell_angle_gamma 90.000000
_cell_volume 2443.453307
_symmetry_space_group_name_H-M "C 2/M"
_symmetry_group_IT_number 12
_symmetry_cell_setting 'monoclinic'
loop_
_space_group_symop_operation_xyz
x,y,z
-x,y,-z
-x,-y,-z
x,-y,z
1/2+x,1/2+y,z
1/2-x,1/2+y,-z
1/2-x,1/2-y,-z
1/2+x,1/2-y,z
loop_
_atom_site_type_symbol
_atom_site_label
_atom_site_fract_x
_atom_site_fract_y
_atom_site_fract_z
Si Si1 0.365460 0.670873 0.529706
Si Si2 0.617099 0.170119 0.689693
Si Si3 0.340643 0.827447 0.195382
Si Si4 0.849413 0.671509 0.634197
Si Si5 0.631529 0.826057 0.028036
Si Si6 0.604743 0.174171 0.142187
O O1 0.500000 0.693282 0.500000
O O2 0.328573 0.500000 0.535913
O O3 0.250000 0.750000 0.500000
O O4 0.384749 0.742043 0.583920
O O5 0.626049 0.216529 0.747680
O O6 0.713451 0.270882 0.657167
O O7 0.467025 0.198852 0.673445
O O8 0.657028 0.000000 0.681394
O O9 0.460291 0.775200 0.159891
O O10 0.210117 0.744038 0.179239
O O11 0.315046 0.000000 0.189525
O O12 0.831798 0.500000 0.621194
O O13 0.625880 0.769679 0.085388
O O14 0.651212 0.000000 0.025366
O O15 0.500000 0.775884 0.000000
O O16 0.750000 0.750000 0.000000
O O17 0.619009 0.000000 0.146348
#
# Coordination Sequence:
#
# PCOD8106892 Si02
#       6
#     8   8   8   8   8   8
#     4  11  24  41  62  89 119 152 192 236 283 336
#     4  10  22  39  59  85 116 150 189 233 281 335
#     4  10  21  38  59  83 113 149 188 231 281 336
#     4  11  23  39  61  87 116 152 191 233 282 334
#     4  10  21  37  57  81 111 147 186 231 282 336
#     4  10  21  37  57  83 113 145 186 234 282 335
#
# _framework density 19.644328999999999
#
# number of rings (size 3 to 8) (size 9 to 14) (size 15 to 20)
#    0.000    1.667    0.000    4.000    0.000   10.333 
#    0.000    0.000    0.000    0.000    0.000    0.000 
#    0.000    0.000    0.000    0.000    0.000    0.000 
#
# Total GULP energy -297745.134226 kJ/mol
# GULP energy per Si atom -12406.047259 kJ/mol
# Density = 1.959962 g / cm^3
# Si number density = 19.644329 Si / 1000 Ang^3
#
#
#
# Elastic Constant Matrix: (Units=GPa)
#
#
# Indices 1 2 3 4 5 6 
#
# 1 85.9714 39.5503 17.0828 0.0000 1.0969 0.0000
# 2 39.5503 69.8567 37.3912 0.0000 -2.0998 0.0000
# 3 17.0828 37.3912 108.5642 0.0000 0.5410 0.0000
# 4 0.0000 0.0000 0.0000 31.9002 0.0000 2.1732
# 5 1.0969 -2.0998 0.5410 0.0000 43.8718 0.0000
# 6 0.0000 0.0000 0.0000 2.1732 0.0000 31.6475
#
#
#
# Elastic Compliance Matrix: (Units=1/GPa)
#
#
# Indices 1 2 3 4 5 6 
#
# 1 0.015807 -0.009374 0.000746 0.000000 -0.000853 0.000000
# 2 -0.009374 0.023146 -0.006504 0.000000 0.001422 0.000000
# 3 0.000746 -0.006504 0.011336 0.000000 -0.000470 0.000000
# 4 0.000000 0.000000 0.000000 0.031495 0.000000 -0.002163
# 5 -0.000853 0.001422 -0.000470 0.000000 0.022889 0.000000
# 6 0.000000 0.000000 0.000000 -0.002163 0.000000 0.031747
#
#
# Mechanical properties :
#
#
# Convention : Reuss Voigt Hill
#
# Bulk Modulus (GPa) = 49.93872 50.27122 50.10497
# Shear Modulus (GPa) = 28.84173 32.84177 30.84175
#
# Velocity S-wave (km/s) = 3.83586 4.09322 3.96663
# Velocity P-wave (km/s) = 6.71529 6.92716 6.82205
#
# Compressibility (1/GPa) = 0.02002454
#
# Stress axis : x y z
#
# Youngs Moduli (GPa) = 63.26334 43.20340 88.21253
#
# Poissons Ratio (x) = 0.40499 -0.06577
# Poissons Ratio (y) = 0.59303 0.57374
# Poissons Ratio (z) = -0.04717 0.28100
#
# Static dielectric constant tensor:
#      x y z
#    x 3.582980 0.000000 -0.045140 
#    y 0.000000 3.584660 0.000000 
#    z -0.045140 0.000000 3.938660 
# 
# 
# High freq. dielectric constant tensor:
#      x y z
#    x 1.779370 0.000000 0.000630 
#    y 0.000000 1.762490 0.000000 
#    z 0.000630 0.000000 1.784830 
# 
# From -- ./inp_files/334640.got.cif
#   From: 2010.06.25/outbox.cif.g09.slc.cpg/sg12_168_cif.got.tgz:334640.got - 2010.06.28 00:19:55.
