data_PCOD8106482
_publ_section_title
;
Structure prediction by ZEFSAII (Michael W. Deem and Ramdas Pophale) SiO2 
 PCOD8106482
Probable space group: C 2/M
;
_chemical_formula_sum "Si O2"
_cell_formula_units_Z 40
_cell_length_a 5.186321
_cell_length_b 14.354059
_cell_length_c 26.277570
_cell_angle_alpha 90.000000
_cell_angle_beta 106.546023
_cell_angle_gamma 90.000000
_cell_volume 1875.222478
_symmetry_space_group_name_H-M "C 2/M"
_symmetry_group_IT_number 12
_symmetry_cell_setting 'monoclinic'
loop_
_space_group_symop_operation_xyz
x,y,z
-x,y,-z
-x,-y,-z
x,-y,z
1/2+x,1/2+y,z
1/2-x,1/2+y,-z
1/2-x,1/2-y,-z
1/2+x,1/2-y,z
loop_
_atom_site_type_symbol
_atom_site_label
_atom_site_fract_x
_atom_site_fract_y
_atom_site_fract_z
Si Si1 0.500000 0.687377 0.000000
Si Si2 0.649459 0.391446 0.113901
Si Si3 0.801762 0.000000 0.535888
Si Si4 0.904758 0.187616 0.603610
Si Si5 0.771753 0.392622 0.831545
Si Si6 0.038301 0.193313 0.723735
O O1 0.574758 0.621850 0.051138
O O2 0.250000 0.750000 0.000000
O O3 0.663026 0.500000 0.126993
O O4 0.428978 0.344748 0.138897
O O5 0.936838 0.344823 0.144167
O O6 0.500000 0.000000 0.500000
O O7 0.850845 0.906624 0.570478
O O8 0.000000 0.000000 0.500000
O O9 0.640859 0.252786 0.590310
O O10 0.992070 0.153224 0.664683
O O11 0.800398 0.500000 0.846829
O O12 0.664581 0.383678 0.767912
O O13 0.252822 0.277142 0.731561
#
# Coordination Sequence:
#
# PCOD8106482 Si02
#       6
#     4   8   4   8   8   8
#     4  12  25  38  57  82 106 144 190 238 291 338
#     4  10  22  40  56  79 112 149 188 231 291 353
#     4  12  26  42  68 100 126 174 224 259 320 371
#     4  10  23  43  64  94 133 170 213 265 320 377
#     4  10  21  36  59  85 111 147 190 235 287 349
#     4  10  21  37  59  87 119 157 192 237 305 355
#
# _framework density 21.330804000000001
#
# number of rings (size 3 to 8) (size 9 to 14) (size 15 to 20)
#    0.000    1.600    0.000    3.900    1.400    7.200 
#    0.000    4.000    0.000    0.000    0.000    0.000 
#    0.000    0.000    0.000    0.000    0.000    0.000 
#
# Total GULP energy -247987.864268 kJ/mol
# GULP energy per Si atom -12399.393213 kJ/mol
# Density = 2.128225 g / cm^3
# Si number density = 21.330804 Si / 1000 Ang^3
#
#
#
# Elastic Constant Matrix: (Units=GPa)
#
#
# Indices 1 2 3 4 5 6 
#
# 1 195.5332 40.1759 66.5168 0.0000 5.3813 0.0000
# 2 40.1759 69.6732 52.1253 0.0000 2.7744 0.0000
# 3 66.5168 52.1253 152.8742 0.0000 8.9082 0.0000
# 4 0.0000 0.0000 0.0000 45.0317 0.0000 4.5855
# 5 5.3813 2.7744 8.9082 0.0000 36.6758 0.0000
# 6 0.0000 0.0000 0.0000 4.5855 0.0000 11.5549
#
#
#
# Elastic Compliance Matrix: (Units=1/GPa)
#
#
# Indices 1 2 3 4 5 6 
#
# 1 0.006226 -0.002100 -0.001977 0.000000 -0.000274 0.000000
# 2 -0.002100 0.019977 -0.005911 0.000000 0.000233 0.000000
# 3 -0.001977 -0.005911 0.009509 0.000000 -0.001572 0.000000
# 4 0.000000 0.000000 0.000000 0.023142 0.000000 -0.009184
# 5 -0.000274 0.000233 -0.001572 0.000000 0.027671 0.000000
# 6 0.000000 0.000000 0.000000 -0.009184 0.000000 0.090188
#
#
# Mechanical properties :
#
#
# Convention : Reuss Voigt Hill
#
# Bulk Modulus (GPa) = 63.55308 81.74629 72.64968
# Shear Modulus (GPa) = 24.76075 35.93666 30.34871
#
# Velocity S-wave (km/s) = 3.41074 4.10900 3.77605
# Velocity P-wave (km/s) = 6.73570 7.80501 7.28999
#
# Compressibility (1/GPa) = 0.01573488
#
# Stress axis : x y z
#
# Youngs Moduli (GPa) = 160.62298 50.05781 105.16760
#
# Poissons Ratio (x) = 0.10513 0.20790
# Poissons Ratio (y) = 0.33733 0.62167
# Poissons Ratio (z) = 0.31752 0.29591
#
# Static dielectric constant tensor:
#      x y z
#    x 4.486100 0.000000 0.015430 
#    y 0.000000 3.471710 0.000000 
#    z 0.015430 0.000000 4.004650 
# 
# 
# High freq. dielectric constant tensor:
#      x y z
#    x 1.865010 0.000000 0.002070 
#    y 0.000000 1.819790 0.000000 
#    z 0.002070 0.000000 1.847590 
# 
# From -- ./inp_files/330891.got.cif
#   From: 2010.06.25/outbox.cif.g09.slc.cpg/sg12_166_cif.got.tgz:330891.got - 2010.06.28 00:19:55.
