data_PCOD8106072
_publ_section_title
;
Structure prediction by ZEFSAII (Michael W. Deem and Ramdas Pophale) SiO2 
 PCOD8106072
Probable space group: C 2/M
;
_chemical_formula_sum "Si O2"
_cell_formula_units_Z 48
_cell_length_a 31.044813
_cell_length_b 8.812209
_cell_length_c 15.615314
_cell_angle_alpha 90.000000
_cell_angle_beta 37.263524
_cell_angle_gamma 90.000000
_cell_volume 2586.578681
_symmetry_space_group_name_H-M "C 2/M"
_symmetry_group_IT_number 12
_symmetry_cell_setting 'monoclinic'
loop_
_space_group_symop_operation_xyz
x,y,z
-x,y,-z
-x,-y,-z
x,-y,z
1/2+x,1/2+y,z
1/2-x,1/2+y,-z
1/2-x,1/2-y,-z
1/2+x,1/2-y,z
loop_
_atom_site_type_symbol
_atom_site_label
_atom_site_fract_x
_atom_site_fract_y
_atom_site_fract_z
Si Si1 0.158469 0.175181 0.579266
Si Si2 0.818496 0.178706 0.934287
Si Si3 0.979450 0.327187 0.267063
Si Si4 0.296034 0.324230 0.302922
Si Si5 0.458946 0.175796 0.648993
Si Si6 0.863814 0.323373 0.033825
O O1 0.079250 0.213350 0.675426
O O2 0.213641 0.275724 0.437770
O O3 0.165452 0.211649 0.668561
O O4 0.175160 0.000000 0.534467
O O5 0.887612 0.227728 0.771419
O O6 0.811457 0.000000 0.943137
O O7 0.750000 0.250000 0.000000
O O8 0.822424 0.232076 0.026207
O O9 0.955916 0.500000 0.286284
O O10 0.989038 0.298993 0.352958
O O11 0.052362 0.288410 0.102763
O O12 0.300361 0.500000 0.270944
O O13 0.336366 0.225041 0.169433
O O14 0.500000 0.232592 0.500000
O O15 0.436620 0.000000 0.677145
O O16 0.849396 0.500000 0.040353
#
# Coordination Sequence:
#
# PCOD8106072 Si02
#       6
#     8   8   8   8   8   8
#     4  10  21  36  55  79 109 144 182 225 269 321
#     4  11  22  37  57  81 112 146 182 224 268 318
#     4   9  19  35  55  79 108 142 179 223 273 323
#     4  10  21  37  56  79 108 143 182 224 273 323
#     4   9  19  37  58  80 109 144 182 224 271 322
#     4  10  21  38  58  81 109 141 180 224 272 324
#
# _framework density 18.557333
#
# number of rings (size 3 to 8) (size 9 to 14) (size 15 to 20)
#    0.000    2.167    0.000    4.000    0.000    7.667 
#    0.000    8.333    0.000    0.000    0.000    0.000 
#    0.000    0.000    0.000    0.000    0.000    0.000 
#
# Total GULP energy -297712.704568 kJ/mol
# GULP energy per Si atom -12404.696024 kJ/mol
# Density = 1.851510 g / cm^3
# Si number density = 18.557333 Si / 1000 Ang^3
#
#
#
# Elastic Constant Matrix: (Units=GPa)
#
#
# Indices 1 2 3 4 5 6 
#
# 1 97.7309 47.2033 64.5140 0.0000 -11.9919 0.0000
# 2 47.2033 91.2127 44.0349 -0.0002 -5.5382 0.0001
# 3 64.5140 44.0349 112.1829 0.0003 12.2286 -0.0001
# 4 0.0000 -0.0002 0.0003 35.4891 0.0001 -1.6267
# 5 -11.9919 -5.5382 12.2286 0.0001 29.9560 0.0000
# 6 0.0000 0.0001 -0.0001 -1.6267 0.0000 33.0463
#
#
#
# Elastic Compliance Matrix: (Units=1/GPa)
#
#
# Indices 1 2 3 4 5 6 
#
# 1 0.022333 -0.004775 -0.012399 0.000000 0.013119 0.000000
# 2 -0.004775 0.015267 -0.003502 0.000000 0.002341 0.000000
# 3 -0.012399 -0.003502 0.018870 0.000000 -0.013314 0.000000
# 4 0.000000 0.000000 0.000000 0.028241 0.000000 0.001390
# 5 0.013119 0.002341 -0.013314 0.000000 0.044502 0.000000
# 6 0.000000 0.000000 0.000000 0.001390 0.000000 0.030329
#
#
# Mechanical properties :
#
#
# Convention : Reuss Voigt Hill
#
# Bulk Modulus (GPa) = 66.14325 68.07012 67.10668
# Shear Modulus (GPa) = 24.27957 29.38989 26.83473
#
# Velocity S-wave (km/s) = 3.62104 3.98393 3.80681
# Velocity P-wave (km/s) = 7.29401 7.61071 7.45404
#
# Compressibility (1/GPa) = 0.01511870
#
# Stress axis : x y z
#
# Youngs Moduli (GPa) = 44.77670 65.49960 52.99329
#
# Poissons Ratio (x) = 0.31277 0.65706
# Poissons Ratio (y) = 0.21381 0.18558
# Poissons Ratio (z) = 0.55518 0.22937
#
# Static dielectric constant tensor:
#      x y z
#    x 3.418830 0.000000 0.105530 
#    y 0.000000 3.424290 0.000000 
#    z 0.105530 0.000000 3.472900 
# 
# 
# High freq. dielectric constant tensor:
#      x y z
#    x 1.719440 0.000000 0.001500 
#    y 0.000000 1.727990 0.000000 
#    z 0.001500 0.000000 1.723360 
# 
# From -- ./inp_files/244650.got.cif
#   From: 2010.06.25/outbox.cif.g09.slc.cpg/sg12_123_cif.got.tgz:244650.got - 2010.06.28 00:19:55.
