data_PCOD8106929
_publ_section_title
;
Structure prediction by ZEFSAII (Michael W. Deem and Ramdas Pophale) SiO2 
 PCOD8106929
Probable space group: C 2/M
;
_chemical_formula_sum "Si O2"
_cell_formula_units_Z 64
_cell_length_a 23.799608
_cell_length_b 8.823939
_cell_length_c 21.596427
_cell_angle_alpha 90.000000
_cell_angle_beta 46.765513
_cell_angle_gamma 90.000000
_cell_volume 3304.284394
_symmetry_space_group_name_H-M "C 2/M"
_symmetry_group_IT_number 12
_symmetry_cell_setting 'monoclinic'
loop_
_space_group_symop_operation_xyz
x,y,z
-x,y,-z
-x,-y,-z
x,-y,z
1/2+x,1/2+y,z
1/2-x,1/2+y,-z
1/2-x,1/2-y,-z
1/2+x,1/2-y,z
loop_
_atom_site_type_symbol
_atom_site_label
_atom_site_fract_x
_atom_site_fract_y
_atom_site_fract_z
Si Si1 0.538386 0.178599 0.268992
Si Si2 0.948210 0.178736 0.097280
Si Si3 0.314631 0.673729 0.793051
Si Si4 0.710275 0.321503 0.971068
Si Si5 0.246580 0.678859 0.597936
Si Si6 0.552877 0.178751 0.114787
Si Si7 0.707862 0.174255 0.763170
Si Si8 0.134088 0.678550 0.574834
O O1 0.597974 0.267942 0.267465
O O2 0.551101 0.224622 0.188037
O O3 0.453933 0.232153 0.353706
O O4 0.549992 0.000000 0.269116
O O5 0.860145 0.229743 0.153223
O O6 0.976700 0.260557 0.138433
O O7 0.952929 0.000000 0.102679
O O8 0.000000 0.231323 0.000000
O O9 0.309378 0.500000 0.820046
O O10 0.260007 0.780743 0.874250
O O11 0.286053 0.688893 0.744072
O O12 0.706449 0.500000 0.982117
O O13 0.750000 0.250000 0.000000
O O14 0.624929 0.256744 0.026804
O O15 0.255669 0.500000 0.592368
O O16 0.226388 0.740602 0.681283
O O17 0.178847 0.732502 0.602823
O O18 0.327974 0.747543 0.514422
O O19 0.558469 0.000000 0.102488
O O20 0.680548 0.000000 0.779833
O O21 0.139681 0.500000 0.564069
#
# Coordination Sequence:
#
# PCOD8106929 Si02
#       8
#     8   8   8   8   8   8   8   8
#     4  10  21  37  57  82 114 149 186 233 287 339
#     4  11  24  39  56  83 116 150 188 236 287 336
#     4  11  23  38  58  83 112 151 196 240 284 338
#     4  12  23  37  56  81 113 150 192 237 283 335
#     4   9  18  36  60  85 112 144 182 231 284 341
#     4  11  22  37  59  84 112 150 190 235 288 339
#     4  10  22  40  60  82 112 153 196 233 283 346
#     4   9  18  34  58  87 114 142 180 230 287 343
#
# _framework density 19.368791000000002
#
# number of rings (size 3 to 8) (size 9 to 14) (size 15 to 20)
#    0.000    1.625    1.250    3.750    0.000    7.500 
#    0.000    3.125    0.000    3.750    0.000    0.000 
#    0.000    0.000    0.000    0.000    0.000    0.000 
#
# Total GULP energy -396953.947772 kJ/mol
# GULP energy per Si atom -12404.810868 kJ/mol
# Density = 1.932471 g / cm^3
# Si number density = 19.368791 Si / 1000 Ang^3
#
#
#
# Elastic Constant Matrix: (Units=GPa)
#
#
# Indices 1 2 3 4 5 6 
#
# 1 117.1544 40.9730 56.8082 0.0019 -10.5353 -0.0032
# 2 40.9730 71.7674 37.5046 0.0034 -3.0921 -0.0093
# 3 56.8082 37.5046 131.6686 -0.0008 -10.0262 -0.0005
# 4 0.0019 0.0034 -0.0008 30.9723 -0.0005 -5.1687
# 5 -10.5353 -3.0921 -10.0262 -0.0005 34.9352 0.0018
# 6 -0.0032 -0.0093 -0.0005 -5.1687 0.0018 32.7645
#
#
#
# Elastic Compliance Matrix: (Units=1/GPa)
#
#
# Indices 1 2 3 4 5 6 
#
# 1 0.012272 -0.004972 -0.003711 0.000000 0.002196 0.000000
# 2 -0.004972 0.018386 -0.003151 -0.000001 -0.000776 0.000005
# 3 -0.003711 -0.003151 0.010210 0.000001 0.001532 -0.000001
# 4 0.000000 -0.000001 0.000001 0.033160 0.000000 0.005231
# 5 0.002196 -0.000776 0.001532 0.000000 0.029658 -0.000002
# 6 0.000000 0.000005 -0.000001 0.005231 -0.000002 0.031346
#
#
# Mechanical properties :
#
#
# Convention : Reuss Voigt Hill
#
# Bulk Modulus (GPa) = 58.14211 65.68467 61.91339
# Shear Modulus (GPa) = 30.40765 32.08804 31.24785
#
# Velocity S-wave (km/s) = 3.96653 4.07466 4.02096
# Velocity P-wave (km/s) = 7.14573 7.49155 7.32068
#
# Compressibility (1/GPa) = 0.01719924
#
# Stress axis : x y z
#
# Youngs Moduli (GPa) = 81.48882 54.39008 97.94156
#
# Poissons Ratio (x) = 0.27043 0.36347
# Poissons Ratio (y) = 0.40517 0.30861
# Poissons Ratio (z) = 0.30242 0.17138
#
# Static dielectric constant tensor:
#      x y z
#    x 3.734730 0.000000 0.037700 
#    y 0.000000 3.525830 0.000000 
#    z 0.037700 0.000000 3.687430 
# 
# 
# High freq. dielectric constant tensor:
#      x y z
#    x 1.758340 0.000000 -0.004860 
#    y 0.000000 1.753090 0.000000 
#    z -0.004860 0.000000 1.747510 
# 
# From -- ./inp_files/324096.got.cif
#   From: 2010.06.25/outbox.cif.g09.slc.cpg/sg12_163_cif.got.tgz:324096.got - 2010.06.28 00:19:55.
