data_PCOD8106287
_publ_section_title
;
Structure prediction by ZEFSAII (Michael W. Deem and Ramdas Pophale) SiO2 
 PCOD8106287
Probable space group: C 2/M
;
_chemical_formula_sum "Si O2"
_cell_formula_units_Z 56
_cell_length_a 11.356212
_cell_length_b 32.147307
_cell_length_c 14.306974
_cell_angle_alpha 90.000000
_cell_angle_beta 146.073621
_cell_angle_gamma 90.000000
_cell_volume 2915.137577
_symmetry_space_group_name_H-M "C 2/M"
_symmetry_group_IT_number 12
_symmetry_cell_setting 'monoclinic'
loop_
_space_group_symop_operation_xyz
x,y,z
-x,y,-z
-x,-y,-z
x,-y,z
1/2+x,1/2+y,z
1/2-x,1/2+y,-z
1/2-x,1/2-y,-z
1/2+x,1/2-y,z
loop_
_atom_site_type_symbol
_atom_site_label
_atom_site_fract_x
_atom_site_fract_y
_atom_site_fract_z
Si Si1 0.500000 0.091560 0.500000
Si Si2 0.072835 0.049101 0.152478
Si Si3 0.260198 0.773714 0.373542
Si Si4 0.603981 0.391218 0.824864
Si Si5 0.931458 0.180198 0.053680
Si Si6 0.454424 0.810234 0.777437
Si Si7 0.500000 0.148991 0.000000
Si Si8 0.775889 0.354690 0.500483
O O1 0.308408 0.063693 0.334891
O O2 0.556160 0.122294 0.453302
O O3 0.911880 0.065766 0.127669
O O4 0.064544 0.000000 0.153559
O O5 0.000000 0.063409 0.000000
O O6 0.500000 0.772762 0.500000
O O7 0.226831 0.807733 0.432400
O O8 0.101206 0.783495 0.183560
O O9 0.187666 0.727590 0.354746
O O10 0.532119 0.357001 0.851868
O O11 0.431176 0.384371 0.629035
O O12 0.830658 0.383044 0.930375
O O13 0.696807 0.198800 0.909407
O O14 0.000000 0.161454 0.000000
O O15 0.375432 0.851006 0.669181
O O16 0.420981 0.820449 0.865344
#
# Coordination Sequence:
#
# PCOD8106287 Si02
#       8
#     4   8   8   8   8   8   4   8
#     4  10  21  38  60  94 128 148 190 238 300 370
#     4  10  21  37  66  99 125 152 184 236 305 361
#     4  11  22  36  53  78 115 150 201 253 300 343
#     4   9  21  38  58  83 119 146 196 237 278 364
#     4  10  21  36  57  79 107 149 194 246 305 345
#     4  11  24  37  57  77 114 155 204 253 294 340
#     4  10  24  40  55  82 112 164 202 238 293 340
#     4  10  21  37  57  85 108 159 198 242 300 346
#
# _framework density 19.210072
#
# number of rings (size 3 to 8) (size 9 to 14) (size 15 to 20)
#    0.000    1.857    0.714    2.357   11.000    0.000 
#    2.571    0.357    0.000    0.000    0.000    2.000 
#    0.000    0.000    0.000    0.000    0.000    0.000 
#
# Total GULP energy -346988.574461 kJ/mol
# GULP energy per Si atom -12392.449088 kJ/mol
# Density = 1.916635 g / cm^3
# Si number density = 19.210072 Si / 1000 Ang^3
#
#
#
# Elastic Constant Matrix: (Units=GPa)
#
#
# Indices 1 2 3 4 5 6 
#
# 1 100.2766 37.9154 48.3363 0.0000 -1.8432 0.0000
# 2 37.9154 84.0516 38.0770 0.0000 -2.9615 0.0000
# 3 48.3363 38.0770 109.8856 0.0000 2.1925 0.0000
# 4 0.0000 0.0000 0.0000 19.7835 0.0000 3.9335
# 5 -1.8432 -2.9615 2.1925 0.0000 28.9764 0.0000
# 6 0.0000 0.0000 0.0000 3.9335 0.0000 18.5498
#
#
#
# Elastic Compliance Matrix: (Units=1/GPa)
#
#
# Indices 1 2 3 4 5 6 
#
# 1 0.013776 -0.004072 -0.004665 0.000000 0.000813 0.000000
# 2 -0.004072 0.015413 -0.003581 0.000000 0.001587 0.000000
# 3 -0.004665 -0.003581 0.012425 0.000000 -0.001603 0.000000
# 4 0.000000 0.000000 0.000000 0.052772 0.000000 -0.011190
# 5 0.000813 0.001587 -0.001603 0.000000 0.034846 0.000000
# 6 0.000000 0.000000 0.000000 -0.011190 0.000000 0.056282
#
#
# Mechanical properties :
#
#
# Convention : Reuss Voigt Hill
#
# Bulk Modulus (GPa) = 58.90216 60.31901 59.61058
# Shear Modulus (GPa) = 23.16865 24.78761 23.97813
#
# Velocity S-wave (km/s) = 3.47662 3.59603 3.53683
# Velocity P-wave (km/s) = 6.84430 6.97924 6.91210
#
# Compressibility (1/GPa) = 0.01697731
#
# Stress axis : x y z
#
# Youngs Moduli (GPa) = 72.59183 64.88172 80.48187
#
# Poissons Ratio (x) = 0.26422 0.37543
# Poissons Ratio (y) = 0.29562 0.28821
# Poissons Ratio (z) = 0.33862 0.23235
#
# Static dielectric constant tensor:
#      x y z
#    x 3.419900 0.000000 -0.053430 
#    y 0.000000 3.355710 0.000000 
#    z -0.053430 0.000000 3.868830 
# 
# 
# High freq. dielectric constant tensor:
#      x y z
#    x 1.735210 0.000000 0.000930 
#    y 0.000000 1.721180 0.000000 
#    z 0.000930 0.000000 1.769580 
# 
# From -- ./inp_files/209191.got.cif
#   From: 2010.06.25/outbox.cif.g09.slc.cpg/sg12_105_cif.got.tgz:209191.got - 2010.06.28 00:19:55.
