data_PCOD8106428
_publ_section_title
;
Structure prediction by ZEFSAII (Michael W. Deem and Ramdas Pophale) SiO2 
 PCOD8106428
Probable space group: C 2/M
;
_chemical_formula_sum "Si O2"
_cell_formula_units_Z 56
_cell_length_a 23.601298
_cell_length_b 9.063684
_cell_length_c 15.346744
_cell_angle_alpha 90.000000
_cell_angle_beta 61.532489
_cell_angle_gamma 90.000000
_cell_volume 2885.951426
_symmetry_space_group_name_H-M "C 2/M"
_symmetry_group_IT_number 12
_symmetry_cell_setting 'monoclinic'
loop_
_space_group_symop_operation_xyz
x,y,z
-x,y,-z
-x,-y,-z
x,-y,z
1/2+x,1/2+y,z
1/2-x,1/2+y,-z
1/2-x,1/2-y,-z
1/2+x,1/2-y,z
loop_
_atom_site_type_symbol
_atom_site_label
_atom_site_fract_x
_atom_site_fract_y
_atom_site_fract_z
Si Si1 0.446754 0.174277 0.472942
Si Si2 0.661639 0.671371 0.008972
Si Si3 0.573103 0.175793 0.706422
Si Si4 0.318163 0.167553 0.658607
Si Si5 0.015937 0.172456 0.087761
Si Si6 0.290853 0.670079 0.396751
Si Si7 0.777484 0.171570 0.852701
O O1 0.500000 0.244064 0.500000
O O2 0.456594 0.225969 0.365531
O O3 0.375387 0.225092 0.554108
O O4 0.452626 0.000000 0.472118
O O5 0.669696 0.500000 0.982610
O O6 0.588861 0.723270 0.049922
O O7 0.682200 0.712633 0.091338
O O8 0.706881 0.755377 0.907183
O O9 0.527854 0.231718 0.816542
O O10 0.642684 0.247306 0.668496
O O11 0.580471 0.000000 0.705756
O O12 0.249479 0.179946 0.662463
O O13 0.319112 0.268062 0.742793
O O14 0.332218 0.000000 0.677029
O O15 0.005355 0.000000 0.116414
O O16 0.000000 0.209303 0.000000
O O17 0.302948 0.500000 0.414356
O O18 0.250000 0.750000 0.500000
O O19 0.767101 0.000000 0.848680
#
# Coordination Sequence:
#
# PCOD8106428 Si02
#       7
#     8   8   8   8   8   8   8
#     4   9  19  37  59  86 120 157 195 233 282 350
#     4   9  20  40  60  81 116 155 195 240 294 356
#     4  11  23  40  62  90 120 153 197 247 294 346
#     4  10  21  37  59  85 116 154 194 231 287 356
#     4  10  23  42  62  84 115 158 201 240 292 356
#     4  11  22  39  61  85 117 154 194 238 287 344
#     4  10  21  36  58  88 117 147 192 247 295 341
#
# _framework density 19.404346
#
# number of rings (size 3 to 8) (size 9 to 14) (size 15 to 20)
#    0.000    2.000    1.429    1.286    4.000    2.571 
#    0.000    0.000    0.000    2.143    0.000    0.000 
#    0.000    0.000    0.000    0.000    0.000    0.000 
#
# Total GULP energy -347253.235872 kJ/mol
# GULP energy per Si atom -12401.901281 kJ/mol
# Density = 1.936018 g / cm^3
# Si number density = 19.404346 Si / 1000 Ang^3
#
#
#
# Elastic Constant Matrix: (Units=GPa)
#
#
# Indices 1 2 3 4 5 6 
#
# 1 132.3290 44.7212 58.8230 0.0000 -12.6734 0.0000
# 2 44.7212 69.3252 51.9185 0.0000 -1.8177 -0.0001
# 3 58.8230 51.9185 135.1124 0.0000 -2.4504 0.0000
# 4 0.0000 0.0000 0.0000 39.6406 0.0000 -2.3113
# 5 -12.6734 -1.8177 -2.4504 0.0000 26.3959 0.0000
# 6 0.0000 -0.0001 0.0000 -2.3113 0.0000 25.9958
#
#
#
# Elastic Compliance Matrix: (Units=1/GPa)
#
#
# Indices 1 2 3 4 5 6 
#
# 1 0.010865 -0.004785 -0.002808 0.000000 0.004627 0.000000
# 2 -0.004785 0.022373 -0.006538 0.000000 -0.001364 0.000000
# 3 -0.002808 -0.006538 0.011122 0.000000 -0.000766 0.000000
# 4 0.000000 0.000000 0.000000 0.025358 0.000000 0.002255
# 5 0.004627 -0.001364 -0.000766 0.000000 0.039941 0.000000
# 6 0.000000 0.000000 0.000000 0.002255 0.000000 0.038668
#
#
# Mechanical properties :
#
#
# Convention : Reuss Voigt Hill
#
# Bulk Modulus (GPa) = 62.12098 71.96578 67.04338
# Shear Modulus (GPa) = 27.47925 30.49338 28.98632
#
# Velocity S-wave (km/s) = 3.76725 3.96848 3.86917
# Velocity P-wave (km/s) = 7.14187 7.62669 7.38826
#
# Compressibility (1/GPa) = 0.01609762
#
# Stress axis : x y z
#
# Youngs Moduli (GPa) = 92.03667 44.69770 89.91042
#
# Poissons Ratio (x) = 0.21388 0.25244
# Poissons Ratio (y) = 0.44040 0.58787
# Poissons Ratio (z) = 0.25841 0.29225
#
# Static dielectric constant tensor:
#      x y z
#    x 4.355200 0.000000 -0.384070 
#    y 0.000000 3.457420 0.000000 
#    z -0.384070 0.000000 3.836040 
# 
# 
# High freq. dielectric constant tensor:
#      x y z
#    x 1.763840 0.000000 0.000040 
#    y 0.000000 1.742250 0.000000 
#    z 0.000040 0.000000 1.762820 
# 
# From -- ./inp_files/238286.got.cif
#   From: 2010.06.25/outbox.cif.g09.slc.cpg/sg12_120_cif.got.tgz:238286.got - 2010.06.28 00:19:55.
