data_PCOD8106673
_publ_section_title
;
Structure prediction by ZEFSAII (Michael W. Deem and Ramdas Pophale) SiO2 
 PCOD8106673
Probable space group: C 2/M
;
_chemical_formula_sum "Si O2"
_cell_formula_units_Z 40
_cell_length_a 29.263329
_cell_length_b 18.117802
_cell_length_c 12.561969
_cell_angle_alpha 90.000000
_cell_angle_beta 20.027635
_cell_angle_gamma 90.000000
_cell_volume 2280.939273
_symmetry_space_group_name_H-M "C 2/M"
_symmetry_group_IT_number 12
_symmetry_cell_setting 'monoclinic'
loop_
_space_group_symop_operation_xyz
x,y,z
-x,y,-z
-x,-y,-z
x,-y,z
1/2+x,1/2+y,z
1/2-x,1/2+y,-z
1/2-x,1/2-y,-z
1/2+x,1/2-y,z
loop_
_atom_site_type_symbol
_atom_site_label
_atom_site_fract_x
_atom_site_fract_y
_atom_site_fract_z
Si Si1 0.601714 0.916440 0.498343
Si Si2 0.847249 0.317126 0.810544
Si Si3 0.353973 0.587874 0.343706
Si Si4 0.797364 0.584035 0.118553
Si Si5 0.137912 0.412005 0.653319
O O1 0.659850 0.867829 0.277208
O O2 0.659770 0.886809 0.483345
O O3 0.648032 0.000000 0.374821
O O4 0.442236 0.912572 0.854806
O O5 0.000000 0.291893 0.500000
O O6 0.750000 0.250000 0.000000
O O7 0.786757 0.363050 0.040633
O O8 0.352627 0.500000 0.340991
O O9 0.307102 0.612447 0.563941
O O10 0.257238 0.620001 0.464086
O O11 0.500000 0.620288 0.000000
O O12 0.765720 0.500000 0.151892
O O13 0.132474 0.500000 0.669821
O O14 0.000000 0.379025 0.000000
#
# Coordination Sequence:
#
# PCOD8106673 Si02
#       5
#     8   8   8   8   8
#     4   9  16  29  54  81  98 123 169 212 242 283
#     4  10  21  37  54  71  98 134 169 207 251 296
#     4   9  16  26  43  73 107 131 152 190 250 302
#     4   9  16  30  54  78  99 127 168 209 241 287
#     4   9  14  24  45  73 102 125 153 200 247 288
#
# _framework density 17.536635
#
# number of rings (size 3 to 8) (size 9 to 14) (size 15 to 20)
#    0.000    2.800    2.000    0.600    0.000    2.400 
#    3.600    0.000    0.000    3.600    0.000    0.000 
#    0.000    0.000    0.000    0.000    0.000    0.000 
#
# Total GULP energy -247933.477132 kJ/mol
# GULP energy per Si atom -12396.673857 kJ/mol
# Density = 1.749672 g / cm^3
# Si number density = 17.536635 Si / 1000 Ang^3
#
#
#
# Elastic Constant Matrix: (Units=GPa)
#
#
# Indices 1 2 3 4 5 6 
#
# 1 154.2942 53.8211 88.6142 0.0000 13.9309 0.0000
# 2 53.8211 61.6497 46.5944 0.0000 7.7317 0.0000
# 3 88.6142 46.5944 134.6837 0.0000 14.7920 -0.0002
# 4 0.0000 0.0000 0.0000 9.9881 -0.0001 -11.4438
# 5 13.9309 7.7317 14.7920 -0.0001 28.8322 0.0001
# 6 0.0000 0.0000 -0.0002 -11.4438 0.0001 8.4006
#
#
#
# Elastic Compliance Matrix: (Units=1/GPa)
#
#
# Indices 1 2 3 4 5 6 
#
# 1 0.011919 -0.005991 -0.005630 0.000000 -0.001264 0.000000
# 2 -0.005991 0.025097 -0.004577 0.000000 -0.001487 0.000000
# 3 -0.005630 -0.004577 0.013012 0.000000 -0.002728 0.000000
# 4 0.000000 0.000000 0.000000 -0.178529 0.000000 -0.243203
# 5 -0.001264 -0.001487 -0.002728 0.000000 0.037092 0.000000
# 6 0.000000 0.000000 0.000000 -0.243203 0.000000 -0.212265
#
#
# Mechanical properties :
#
#
# Convention : Reuss Voigt Hill
#
# Bulk Modulus (GPa) = 56.72010 80.96522 68.84266
# Shear Modulus (GPa) = -18.83952 20.21737 0.68892
#
# Velocity S-wave (km/s) = -3.28120 3.39907 0.62746
# Velocity P-wave (km/s) = 4.24958 7.85330 6.31400
#
# Compressibility (1/GPa) = 0.01763043
#
# Stress axis : x y z
#
# Youngs Moduli (GPa) = 83.90132 39.84521 76.85010
#
# Poissons Ratio (x) = 0.23873 0.43269
# Poissons Ratio (y) = 0.50269 0.35175
# Poissons Ratio (z) = 0.47239 0.18238
#
# Static dielectric constant tensor:
#      x y z
#    x 3.430010 0.000000 0.052180 
#    y 0.000000 2.841470 0.000000 
#    z 0.052180 0.000000 3.304190 
# 
# 
# High freq. dielectric constant tensor:
#      x y z
#    x 1.688990 0.000000 0.014990 
#    y 0.000000 1.627200 0.000000 
#    z 0.014990 0.000000 1.673110 
# 
# From -- ./inp_files/120066.got.cif
#   From: 2010.06.25/outbox.cif.g09.slc.cpg/sg12_61_cif.got.tgz:120066.got - 2010.06.28 00:19:55.
