data_PCOD8106622
_publ_section_title
;
Structure prediction by ZEFSAII (Michael W. Deem and Ramdas Pophale) SiO2 
 PCOD8106622
Probable space group: C 2/M
;
_chemical_formula_sum "Si O2"
_cell_formula_units_Z 48
_cell_length_a 28.156837
_cell_length_b 13.851883
_cell_length_c 9.479275
_cell_angle_alpha 90.000000
_cell_angle_beta 141.545508
_cell_angle_gamma 90.000000
_cell_volume 2299.235003
_symmetry_space_group_name_H-M "C 2/M"
_symmetry_group_IT_number 12
_symmetry_cell_setting 'monoclinic'
loop_
_space_group_symop_operation_xyz
x,y,z
-x,y,-z
-x,-y,-z
x,-y,z
1/2+x,1/2+y,z
1/2-x,1/2+y,-z
1/2-x,1/2-y,-z
1/2+x,1/2-y,z
loop_
_atom_site_type_symbol
_atom_site_label
_atom_site_fract_x
_atom_site_fract_y
_atom_site_fract_z
Si Si1 0.736566 0.888424 0.552081
Si Si2 0.835878 0.253408 0.393296
Si Si3 0.090839 0.292400 0.718594
Si Si4 0.112566 0.892758 0.932618
Si Si5 0.964826 0.892691 0.770470
Si Si6 0.210588 0.387125 0.168367
O O1 0.680409 0.831613 0.524415
O O2 0.723986 0.854302 0.361642
O O3 0.714485 0.000000 0.513370
O O4 0.824396 0.869151 0.801099
O O5 0.865664 0.312827 0.326993
O O6 0.902102 0.185145 0.598447
O O7 0.763699 0.182829 0.195989
O O8 0.114489 0.182202 0.809351
O O9 0.000000 0.308904 0.500000
O O10 0.123949 0.365002 0.915605
O O11 0.028896 0.885505 0.801452
O O12 0.127514 0.000000 0.905385
O O13 0.928315 0.000000 0.688438
O O14 0.000000 0.866078 0.000000
O O15 0.229832 0.500000 0.191839
#
# Coordination Sequence:
#
# PCOD8106622 Si02
#       6
#     8   8   8   8   8   8
#     4  10  23  43  69  96 122 161 212 265 319 367
#     4  12  23  39  67  95 129 164 209 260 313 376
#     4  12  26  43  61  93 130 173 213 247 316 375
#     4  10  21  40  64  91 130 164 202 261 318 376
#     4  10  21  36  61  97 129 164 207 259 321 375
#     4  11  25  44  66  94 126 164 213 264 312 372
#
# _framework density 20.876508000000001
#
# number of rings (size 3 to 8) (size 9 to 14) (size 15 to 20)
#    0.000    1.167    3.333    2.500    2.333    5.333 
#    0.000    0.000    0.000    2.500    0.000    0.000 
#    0.000    0.000    0.000    0.000    0.000    0.000 
#
# Total GULP energy -297608.939631 kJ/mol
# GULP energy per Si atom -12400.372485 kJ/mol
# Density = 2.082899 g / cm^3
# Si number density = 20.876508 Si / 1000 Ang^3
#
#
#
# Elastic Constant Matrix: (Units=GPa)
#
#
# Indices 1 2 3 4 5 6 
#
# 1 83.2272 30.7018 31.1963 0.0000 12.0973 0.0000
# 2 30.7018 61.6476 21.7593 0.0000 13.5461 0.0000
# 3 31.1963 21.7593 140.9950 0.0000 10.7932 0.0000
# 4 0.0000 0.0000 0.0000 40.9546 0.0000 -36.3174
# 5 12.0973 13.5461 10.7932 0.0000 24.2009 0.0000
# 6 0.0000 0.0000 0.0000 -36.3174 0.0000 515.9214
#
#
#
# Elastic Compliance Matrix: (Units=1/GPa)
#
#
# Indices 1 2 3 4 5 6 
#
# 1 0.015652 -0.006276 -0.002241 0.000000 -0.003311 0.000000
# 2 -0.006276 0.021655 -0.001310 0.000000 -0.008399 0.000000
# 3 -0.002241 -0.001310 0.007919 0.000000 -0.001678 0.000000
# 4 0.000000 0.000000 0.000000 0.026043 0.000000 0.001833
# 5 -0.003311 -0.008399 -0.001678 0.000000 0.048426 0.000000
# 6 0.000000 0.000000 0.000000 0.001833 0.000000 0.002067
#
#
# Mechanical properties :
#
#
# Convention : Reuss Voigt Hill
#
# Bulk Modulus (GPa) = 39.10735 50.35386 44.73061
# Shear Modulus (GPa) = 33.34640 129.69618 81.52129
#
# Velocity S-wave (km/s) = 4.00098 7.89052 6.25572
# Velocity P-wave (km/s) = 6.33381 10.35306 8.58205
#
# Compressibility (1/GPa) = 0.02557064
#
# Stress axis : x y z
#
# Youngs Moduli (GPa) = 63.88987 46.17842 126.27911
#
# Poissons Ratio (x) = 0.28983 0.28299
# Poissons Ratio (y) = 0.40100 0.16546
# Poissons Ratio (z) = 0.14318 0.06051
#
# Static dielectric constant tensor:
#      x y z
#    x 3.803600 0.000000 0.111040 
#    y 0.000000 3.888910 0.000000 
#    z 0.111040 0.000000 3.905640 
# 
# 
# High freq. dielectric constant tensor:
#      x y z
#    x 1.809810 0.000000 -0.000420 
#    y 0.000000 1.819430 0.000000 
#    z -0.000420 0.000000 1.827100 
# 
# From -- ./inp_files/105032.got.cif
#   From: 2010.06.25/outbox.cif.g09.slc.cpg/sg12_53_cif.got.tgz:105032.got - 2010.06.28 00:19:55.
