data_PCOD8106438
_publ_section_title
;
Structure prediction by ZEFSAII (Michael W. Deem and Ramdas Pophale) SiO2 
 PCOD8106438
Probable space group: C 2/M
;
_chemical_formula_sum "Si O2"
_cell_formula_units_Z 52
_cell_length_a 11.988301
_cell_length_b 23.113513
_cell_length_c 12.348851
_cell_angle_alpha 90.000000
_cell_angle_beta 132.674429
_cell_angle_gamma 90.000000
_cell_volume 2515.740239
_symmetry_space_group_name_H-M "C 2/M"
_symmetry_group_IT_number 12
_symmetry_cell_setting 'monoclinic'
loop_
_space_group_symop_operation_xyz
x,y,z
-x,y,-z
-x,-y,-z
x,-y,z
1/2+x,1/2+y,z
1/2-x,1/2+y,-z
1/2-x,1/2-y,-z
1/2+x,1/2-y,z
loop_
_atom_site_type_symbol
_atom_site_label
_atom_site_fract_x
_atom_site_fract_y
_atom_site_fract_z
Si Si1 0.307938 0.110490 0.063903
Si Si2 0.844379 0.610898 0.683218
Si Si3 0.844454 0.629727 0.446936
Si Si4 0.825724 0.813832 0.848693
Si Si5 0.668092 0.500000 0.067951
Si Si6 0.646415 0.500000 0.519951
Si Si7 0.734514 0.000000 0.625163
Si Si8 0.678312 0.817861 0.131377
O O1 0.483828 0.092459 0.172491
O O2 0.290998 0.151663 0.154750
O O3 0.203744 0.054549 0.015137
O O4 0.248719 0.145956 0.919899
O O5 0.833543 0.647600 0.565198
O O6 0.743711 0.554583 0.617366
O O7 0.771987 0.652292 0.725390
O O8 0.701429 0.658837 0.289271
O O9 0.854139 0.559491 0.454909
O O10 0.000000 0.654448 0.500000
O O11 0.768736 0.748301 0.825392
O O12 0.000000 0.823135 0.000000
O O13 0.751833 0.500000 0.236913
O O14 0.500000 0.500000 0.000000
O O15 0.500000 0.500000 0.500000
O O16 0.624595 0.500000 0.371917
O O17 0.500000 0.818164 0.000000
#
# Coordination Sequence:
#
# PCOD8106438 Si02
#       8
#     8   8   8   8   4   4   4   8
#     4  11  21  39  64  90 127 165 209 255 315 375
#     4  10  21  41  64  91 119 164 219 251 306 381
#     4  11  20  37  65  90 124 159 211 264 309 373
#     4  11  22  39  62  92 129 166 207 264 322 356
#     4  12  23  35  59 100 127 153 205 262 313 368
#     4  10  23  41  63  86 128 166 197 256 332 381
#     4  10  21  36  58  88 125 159 201 250 323 370
#     4   9  22  40  61  88 125 172 211 254 308 375
#
# _framework density 20.669861000000001
#
# number of rings (size 3 to 8) (size 9 to 14) (size 15 to 20)
#    0.000    1.538    3.077    1.615    0.000    3.692 
#    2.769    3.077    0.000    0.000    0.000    0.000 
#    0.000    0.000    0.000    0.000    0.000    0.000 
#
# Total GULP energy -322156.366415 kJ/mol
# GULP energy per Si atom -12390.629478 kJ/mol
# Density = 2.062282 g / cm^3
# Si number density = 20.669861 Si / 1000 Ang^3
#
#
#
# Elastic Constant Matrix: (Units=GPa)
#
#
# Indices 1 2 3 4 5 6 
#
# 1 93.2850 45.3016 25.2906 0.0000 -7.3343 0.0000
# 2 45.3016 146.8087 40.5309 0.0000 -12.0238 0.0000
# 3 25.2906 40.5309 91.8108 0.0000 -16.8829 0.0000
# 4 0.0000 0.0000 0.0000 22.5751 0.0000 3.0445
# 5 -7.3343 -12.0238 -16.8829 0.0000 40.3971 0.0000
# 6 0.0000 0.0000 0.0000 3.0445 0.0000 11.0492
#
#
#
# Elastic Compliance Matrix: (Units=1/GPa)
#
#
# Indices 1 2 3 4 5 6 
#
# 1 0.012950 -0.003411 -0.001967 0.000000 0.000514 0.000000
# 2 -0.003411 0.008689 -0.002746 0.000000 0.000820 0.000000
# 3 -0.001967 -0.002746 0.013465 0.000000 0.004453 0.000000
# 4 0.000000 0.000000 0.000000 0.046006 0.000000 -0.012677
# 5 0.000514 0.000820 0.004453 0.000000 0.026952 0.000000
# 6 0.000000 0.000000 0.000000 -0.012677 0.000000 0.093998
#
#
# Mechanical properties :
#
#
# Convention : Reuss Voigt Hill
#
# Bulk Modulus (GPa) = 53.03124 61.57230 57.30177
# Shear Modulus (GPa) = 22.26252 29.52305 25.89278
#
# Velocity S-wave (km/s) = 3.28541 3.78340 3.54317
# Velocity P-wave (km/s) = 6.33276 6.99562 6.67243
#
# Compressibility (1/GPa) = 0.01885681
#
# Stress axis : x y z
#
# Youngs Moduli (GPa) = 77.22051 115.08465 74.26803
#
# Poissons Ratio (x) = 0.39254 0.14608
# Poissons Ratio (y) = 0.26339 0.20392
# Poissons Ratio (z) = 0.15189 0.31599
#
# Static dielectric constant tensor:
#      x y z
#    x 3.863650 0.000000 -0.385220 
#    y 0.000000 4.068910 0.000000 
#    z -0.385220 0.000000 3.664660 
# 
# 
# High freq. dielectric constant tensor:
#      x y z
#    x 1.807400 0.000000 -0.022580 
#    y 0.000000 1.810260 0.000000 
#    z -0.022580 0.000000 1.799600 
# 
# From -- ./inp_files/136066.got.cif
#   From: 2010.06.25/outbox.cif.g09.slc.cpg/sg12_69_cif.got.tgz:136066.got - 2010.06.28 00:19:55.
