data_PCOD8106931
_publ_section_title
;
Structure prediction by ZEFSAII (Michael W. Deem and Ramdas Pophale) SiO2 
 PCOD8106931
Probable space group: C 2/M
;
_chemical_formula_sum "Si O2"
_cell_formula_units_Z 56
_cell_length_a 28.177136
_cell_length_b 8.837371
_cell_length_c 14.160902
_cell_angle_alpha 90.000000
_cell_angle_beta 60.581825
_cell_angle_gamma 90.000000
_cell_volume 3071.552547
_symmetry_space_group_name_H-M "C 2/M"
_symmetry_group_IT_number 12
_symmetry_cell_setting 'monoclinic'
loop_
_space_group_symop_operation_xyz
x,y,z
-x,y,-z
-x,-y,-z
x,-y,z
1/2+x,1/2+y,z
1/2-x,1/2+y,-z
1/2-x,1/2-y,-z
1/2+x,1/2-y,z
loop_
_atom_site_type_symbol
_atom_site_label
_atom_site_fract_x
_atom_site_fract_y
_atom_site_fract_z
Si Si1 0.778706 0.173583 0.723707
Si Si2 0.391902 0.826687 0.950017
Si Si3 0.489151 0.172740 0.116689
Si Si4 0.668582 0.670207 0.836349
Si Si5 0.799858 0.677803 0.508774
Si Si6 0.386376 0.670097 0.304948
Si Si7 0.804924 0.823894 0.906091
O O1 0.717797 0.218680 0.811377
O O2 0.799721 0.278792 0.618976
O O3 0.812931 0.199131 0.785865
O O4 0.780441 0.000000 0.688295
O O5 0.456781 0.815780 0.871279
O O6 0.358765 0.749700 0.897965
O O7 0.373017 0.000000 0.977963
O O8 0.382150 0.737853 0.057318
O O9 0.444289 0.268261 0.215481
O O10 0.468582 0.000000 0.128422
O O11 0.500000 0.235498 0.000000
O O12 0.681863 0.500000 0.857800
O O13 0.656507 0.670967 0.738026
O O14 0.793748 0.500000 0.504520
O O15 0.750000 0.750000 0.500000
O O16 0.858877 0.729142 0.412947
O O17 0.394819 0.500000 0.334646
O O18 0.802389 0.000000 0.934583
O O19 0.750000 0.750000 0.000000
#
# Coordination Sequence:
#
# PCOD8106931 Si02
#       7
#     8   8   8   8   8   8   8
#     4  11  23  38  57  82 115 153 191 234 286 339
#     4  11  22  36  56  82 116 155 193 235 283 337
#     4  10  21  37  57  82 115 153 191 232 284 339
#     4  11  21  32  53  83 117 153 190 232 279 336
#     4  12  24  38  59  84 115 152 190 234 284 340
#     4  11  23  37  56  84 117 152 191 233 282 339
#     4  11  23  37  57  83 115 152 190 235 286 342
#
# _framework density 18.231821
#
# number of rings (size 3 to 8) (size 9 to 14) (size 15 to 20)
#    0.000    1.000    4.286    3.429    0.000    4.286 
#    0.000    0.000    0.000    0.857    0.000    6.000 
#    0.000    0.000    0.000    0.000    0.000    0.000 
#
# Total GULP energy -347238.525089 kJ/mol
# GULP energy per Si atom -12401.375896 kJ/mol
# Density = 1.819032 g / cm^3
# Si number density = 18.231821 Si / 1000 Ang^3
#
#
#
# Elastic Constant Matrix: (Units=GPa)
#
#
# Indices 1 2 3 4 5 6 
#
# 1 87.0561 46.1840 33.5472 0.0000 -0.5404 0.0000
# 2 46.1840 134.4361 57.1921 0.0000 -1.2882 0.0000
# 3 33.5472 57.1921 99.7582 0.0000 -3.2724 0.0000
# 4 0.0000 0.0000 0.0000 33.5466 0.0000 -1.2036
# 5 -0.5404 -1.2882 -3.2724 0.0000 26.4923 0.0000
# 6 0.0000 0.0000 0.0000 -1.2036 0.0000 29.2164
#
#
#
# Elastic Compliance Matrix: (Units=1/GPa)
#
#
# Indices 1 2 3 4 5 6 
#
# 1 0.014572 -0.003863 -0.002693 0.000000 -0.000223 0.000000
# 2 -0.003863 0.010863 -0.004934 0.000000 -0.000160 0.000000
# 3 -0.002693 -0.004934 0.013805 0.000000 0.001410 0.000000
# 4 0.000000 0.000000 0.000000 0.029853 0.000000 0.001230
# 5 -0.000223 -0.000160 0.001410 0.000000 0.037909 0.000000
# 6 0.000000 0.000000 0.000000 0.001230 0.000000 0.034278
#
#
# Mechanical properties :
#
#
# Convention : Reuss Voigt Hill
#
# Bulk Modulus (GPa) = 61.49950 66.12191 63.81071
# Shear Modulus (GPa) = 29.46708 30.13954 29.80331
#
# Velocity S-wave (km/s) = 4.02462 4.07028 4.04751
# Velocity P-wave (km/s) = 7.44324 7.64432 7.54445
#
# Compressibility (1/GPa) = 0.01626029
#
# Stress axis : x y z
#
# Youngs Moduli (GPa) = 68.62260 92.05592 72.43724
#
# Poissons Ratio (x) = 0.35557 0.19510
# Poissons Ratio (y) = 0.26505 0.35742
# Poissons Ratio (z) = 0.18483 0.45422
#
# Static dielectric constant tensor:
#      x y z
#    x 3.285290 0.000000 0.093920 
#    y 0.000000 3.541360 0.000000 
#    z 0.093920 0.000000 3.318260 
# 
# 
# High freq. dielectric constant tensor:
#      x y z
#    x 1.691840 0.000000 0.001110 
#    y 0.000000 1.724230 0.000000 
#    z 0.001110 0.000000 1.696220 
# 
# From -- ./inp_files/243656.got.cif
#   From: 2010.06.25/outbox.cif.g09.slc.cpg/sg12_122_cif.got.tgz:243656.got - 2010.06.28 00:19:55.
