data_PCOD8106890
_publ_section_title
;
Structure prediction by ZEFSAII (Michael W. Deem and Ramdas Pophale) SiO2 
 PCOD8106890
Probable space group: C 2/M
;
_chemical_formula_sum "Si O2"
_cell_formula_units_Z 40
_cell_length_a 10.195367
_cell_length_b 9.175348
_cell_length_c 22.223256
_cell_angle_alpha 90.000000
_cell_angle_beta 83.409928
_cell_angle_gamma 90.000000
_cell_volume 2065.161630
_symmetry_space_group_name_H-M "C 2/M"
_symmetry_group_IT_number 12
_symmetry_cell_setting 'monoclinic'
loop_
_space_group_symop_operation_xyz
x,y,z
-x,y,-z
-x,-y,-z
x,-y,z
1/2+x,1/2+y,z
1/2-x,1/2+y,-z
1/2-x,1/2-y,-z
1/2+x,1/2-y,z
loop_
_atom_site_type_symbol
_atom_site_label
_atom_site_fract_x
_atom_site_fract_y
_atom_site_fract_z
Si Si1 0.149330 0.172061 0.329123
Si Si2 0.776227 0.828415 0.936250
Si Si3 0.562988 0.332863 0.871903
Si Si4 0.859278 0.171502 0.532912
Si Si5 0.101267 0.832102 0.731629
O O1 0.152399 0.224370 0.397822
O O2 0.267550 0.241222 0.285748
O O3 0.011986 0.224910 0.307379
O O4 0.162771 0.000000 0.322582
O O5 0.675843 0.771127 0.891426
O O6 0.924083 0.790051 0.908568
O O7 0.755614 0.000000 0.945018
O O8 0.750000 0.750000 0.000000
O O9 0.599558 0.500000 0.884988
O O10 0.550244 0.307422 0.801640
O O11 0.750000 0.250000 0.500000
O O12 0.000000 0.219900 0.500000
O O13 0.838360 0.000000 0.528114
O O14 0.134228 0.000000 0.717055
#
# Coordination Sequence:
#
# PCOD8106890 Si02
#       5
#     8   8   8   8   8
#     4  10  21  37  57  83 113 145 185 231 277 328
#     4  11  23  39  60  85 114 148 186 229 276 327
#     4  10  22  39  58  83 114 147 185 228 274 328
#     4  10  21  37  57  81 111 147 186 229 277 330
#     4  10  21  38  59  82 111 147 185 227 276 329
#
# _framework density 19.368943000000002
#
# number of rings (size 3 to 8) (size 9 to 14) (size 15 to 20)
#    0.000    1.800    0.000    3.600    0.000   10.000 
#    0.000    0.000    0.000    0.000    0.000    0.000 
#    0.000    0.000    0.000    0.000    0.000    0.000 
#
# Total GULP energy -248115.489101 kJ/mol
# GULP energy per Si atom -12405.774455 kJ/mol
# Density = 1.932486 g / cm^3
# Si number density = 19.368943 Si / 1000 Ang^3
#
#
#
# Elastic Constant Matrix: (Units=GPa)
#
#
# Indices 1 2 3 4 5 6 
#
# 1 109.5876 42.6376 24.7733 0.0000 3.7478 0.0000
# 2 42.6376 51.3793 26.2851 0.0000 -0.0360 0.0000
# 3 24.7733 26.2851 87.6774 0.0000 -1.5026 0.0000
# 4 0.0000 0.0000 0.0000 32.0360 0.0000 4.4353
# 5 3.7478 -0.0360 -1.5026 0.0000 44.3929 0.0000
# 6 0.0000 0.0000 0.0000 4.4353 0.0000 36.1498
#
#
#
# Elastic Compliance Matrix: (Units=1/GPa)
#
#
# Indices 1 2 3 4 5 6 
#
# 1 0.013559 -0.010964 -0.000564 0.000000 -0.001173 0.000000
# 2 -0.010964 0.031857 -0.006440 0.000000 0.000733 0.000000
# 3 -0.000564 -0.006440 0.013504 0.000000 0.000500 0.000000
# 4 0.000000 0.000000 0.000000 0.031754 0.000000 -0.003896
# 5 -0.001173 0.000733 0.000500 0.000000 0.022643 0.000000
# 6 0.000000 0.000000 0.000000 -0.003896 0.000000 0.028141
#
#
# Mechanical properties :
#
#
# Convention : Reuss Voigt Hill
#
# Bulk Modulus (GPa) = 43.51002 48.44848 45.97925
# Shear Modulus (GPa) = 27.01912 32.84562 29.93237
#
# Velocity S-wave (km/s) = 3.73898 4.12246 3.93540
# Velocity P-wave (km/s) = 6.41503 6.90850 6.66633
#
# Compressibility (1/GPa) = 0.02298321
#
# Stress axis : x y z
#
# Youngs Moduli (GPa) = 73.75444 31.39054 74.05161
#
# Poissons Ratio (x) = 0.34416 0.04178
# Poissons Ratio (y) = 0.80863 0.47690
# Poissons Ratio (z) = 0.04161 0.20216
#
# Static dielectric constant tensor:
#      x y z
#    x 3.616230 0.000000 0.063030 
#    y 0.000000 3.607410 0.000000 
#    z 0.063030 0.000000 3.694080 
# 
# 
# High freq. dielectric constant tensor:
#      x y z
#    x 1.767170 0.000000 0.001250 
#    y 0.000000 1.747350 0.000000 
#    z 0.001250 0.000000 1.773710 
# 
# From -- ./inp_files/254725.got.cif
#   From: 2010.06.25/outbox.cif.g09.slc.cpg/sg12_128_cif.got.tgz:254725.got - 2010.06.28 00:19:55.
