data_PCOD8106267
_publ_section_title
;
Structure prediction by ZEFSAII (Michael W. Deem and Ramdas Pophale) SiO2 
 PCOD8106267
Probable space group: C 2/M
;
_chemical_formula_sum "Si O2"
_cell_formula_units_Z 64
_cell_length_a 15.382838
_cell_length_b 9.056780
_cell_length_c 23.955896
_cell_angle_alpha 90.000000
_cell_angle_beta 89.179411
_cell_angle_gamma 90.000000
_cell_volume 3337.168697
_symmetry_space_group_name_H-M "C 2/M"
_symmetry_group_IT_number 12
_symmetry_cell_setting 'monoclinic'
loop_
_space_group_symop_operation_xyz
x,y,z
-x,y,-z
-x,-y,-z
x,-y,z
1/2+x,1/2+y,z
1/2-x,1/2+y,-z
1/2-x,1/2-y,-z
1/2+x,1/2-y,z
loop_
_atom_site_type_symbol
_atom_site_label
_atom_site_fract_x
_atom_site_fract_y
_atom_site_fract_z
Si Si1 0.404933 0.825784 0.134984
Si Si2 0.585193 0.326088 0.135774
Si Si3 0.340918 0.172603 0.635672
Si Si4 0.147444 0.828465 0.631775
Si Si5 0.999313 0.675663 0.436737
Si Si6 0.753092 0.173584 0.940856
Si Si7 0.899094 0.334926 0.260375
Si Si8 0.601697 0.833441 0.248375
O O1 0.494597 0.746285 0.117655
O O2 0.329418 0.772007 0.094408
O O3 0.375279 0.783092 0.197929
O O4 0.422690 0.000000 0.131683
O O5 0.572252 0.500000 0.139725
O O6 0.657588 0.281308 0.090019
O O7 0.618635 0.269655 0.195260
O O8 0.246127 0.203102 0.610776
O O9 0.414331 0.240079 0.594190
O O10 0.347192 0.235516 0.698934
O O11 0.359898 0.000000 0.641235
O O12 0.085994 0.734679 0.592783
O O13 0.141904 0.780122 0.696258
O O14 0.123294 0.000000 0.627562
O O15 0.995880 0.500000 0.434851
O O16 0.000000 0.734017 0.500000
O O17 0.747656 0.000000 0.949542
O O18 0.750000 0.250000 0.000000
O O19 0.862990 0.500000 0.272378
O O20 0.001880 0.334194 0.267303
O O21 0.631974 0.000000 0.233099
#
# Coordination Sequence:
#
# PCOD8106267 Si02
#       8
#     8   8   8   8   8   8   8   8
#     4   9  20  39  59  80 111 153 189 224 278 341
#     4  10  21  36  56  86 117 142 183 241 286 322
#     4   9  19  36  55  81 114 148 183 225 279 336
#     4  11  22  34  54  85 118 145 177 232 290 329
#     4  10  21  41  64  79 104 153 200 230 268 334
#     4  10  23  41  59  82 114 152 192 235 280 332
#     4   9  17  33  58  81 110 149 189 225 267 335
#     4   9  17  34  58  79 111 153 186 221 276 342
#
# _framework density 19.177932999999999
#
# number of rings (size 3 to 8) (size 9 to 14) (size 15 to 20)
#    0.000    2.375    1.250    1.500    1.750    4.750 
#    0.000    4.375    0.000    0.000    0.000    0.000 
#    0.000    0.000    0.000    0.000    0.000    0.000 
#
# Total GULP energy -396792.324480 kJ/mol
# GULP energy per Si atom -12399.760140 kJ/mol
# Density = 1.913428 g / cm^3
# Si number density = 19.177933 Si / 1000 Ang^3
#
#
#
# Elastic Constant Matrix: (Units=GPa)
#
#
# Indices 1 2 3 4 5 6 
#
# 1 114.3688 34.9007 78.7927 0.0000 6.6861 0.0000
# 2 34.9007 41.1663 36.0459 0.0000 -4.0634 0.0000
# 3 78.7927 36.0459 140.8180 0.0000 4.5891 0.0000
# 4 0.0000 0.0000 0.0000 26.9288 0.0000 2.1027
# 5 6.6861 -4.0634 4.5891 0.0000 22.1265 0.0000
# 6 0.0000 0.0000 0.0000 2.1027 0.0000 27.2783
#
#
#
# Elastic Compliance Matrix: (Units=1/GPa)
#
#
# Indices 1 2 3 4 5 6 
#
# 1 0.016269 -0.008330 -0.006807 0.000000 -0.005034 0.000000
# 2 -0.008330 0.036847 -0.005108 0.000000 0.010343 0.000000
# 3 -0.006807 -0.005108 0.012264 0.000000 -0.001425 0.000000
# 4 0.000000 0.000000 0.000000 0.037360 0.000000 -0.002880
# 5 -0.005034 0.010343 -0.001425 0.000000 0.048911 0.000000
# 6 0.000000 0.000000 0.000000 -0.002880 0.000000 0.036881
#
#
# Mechanical properties :
#
#
# Convention : Reuss Voigt Hill
#
# Bulk Modulus (GPa) = 40.17535 66.20354 53.18945
# Shear Modulus (GPa) = 21.06857 25.04097 23.05477
#
# Velocity S-wave (km/s) = 3.31808 3.61739 3.47097
# Velocity P-wave (km/s) = 5.97275 7.21408 6.62257
#
# Compressibility (1/GPa) = 0.02489088
#
# Stress axis : x y z
#
# Youngs Moduli (GPa) = 61.46479 27.13889 81.53792
#
# Poissons Ratio (x) = 0.22606 0.55504
# Poissons Ratio (y) = 0.51198 0.41653
# Poissons Ratio (z) = 0.41840 0.13864
#
# Static dielectric constant tensor:
#      x y z
#    x 3.553810 0.000000 0.016640 
#    y 0.000000 3.298570 0.000000 
#    z 0.016640 0.000000 3.601000 
# 
# 
# High freq. dielectric constant tensor:
#      x y z
#    x 1.751490 0.000000 0.003980 
#    y 0.000000 1.726520 0.000000 
#    z 0.003980 0.000000 1.746040 
# 
# From -- ./inp_files/338853.got.cif
#   From: 2010.06.25/outbox.cif.g09.slc.cpg/sg12_170_cif.got.tgz:338853.got - 2010.06.28 00:19:55.
