data_PCOD8106239
_publ_section_title
;
Structure prediction by ZEFSAII (Michael W. Deem and Ramdas Pophale) SiO2 
 PCOD8106239
Probable space group: C 2/M
;
_chemical_formula_sum "Si O2"
_cell_formula_units_Z 64
_cell_length_a 18.705827
_cell_length_b 8.711101
_cell_length_c 32.039966
_cell_angle_alpha 90.000000
_cell_angle_beta 39.202385
_cell_angle_gamma 90.000000
_cell_volume 3299.904625
_symmetry_space_group_name_H-M "C 2/M"
_symmetry_group_IT_number 12
_symmetry_cell_setting 'monoclinic'
loop_
_space_group_symop_operation_xyz
x,y,z
-x,y,-z
-x,-y,-z
x,-y,z
1/2+x,1/2+y,z
1/2-x,1/2+y,-z
1/2-x,1/2-y,-z
1/2+x,1/2-y,z
loop_
_atom_site_type_symbol
_atom_site_label
_atom_site_fract_x
_atom_site_fract_y
_atom_site_fract_z
Si Si1 0.647979 0.320874 0.780062
Si Si2 0.249043 0.181988 0.871062
Si Si3 0.118373 0.826415 0.323728
Si Si4 0.656359 0.818306 0.689340
Si Si5 0.556697 0.822269 0.903090
Si Si6 0.910251 0.821091 0.572241
Si Si7 0.707068 0.178036 0.976255
Si Si8 0.961154 0.824390 0.729182
O O1 0.623470 0.500000 0.789582
O O2 0.779509 0.290741 0.729455
O O3 0.609127 0.245160 0.754393
O O4 0.574148 0.247774 0.849765
O O5 0.131285 0.239809 0.904655
O O6 0.268525 0.242458 0.909234
O O7 0.352211 0.238537 0.796133
O O8 0.248145 0.000000 0.871964
O O9 0.052343 0.788355 0.396722
O O10 0.034527 0.812842 0.322938
O O11 0.168951 0.000000 0.304344
O O12 0.783331 0.755687 0.623309
O O13 0.576897 0.756250 0.689196
O O14 0.652735 0.000000 0.692347
O O15 0.591719 0.000000 0.887212
O O16 0.425515 0.797811 0.972146
O O17 0.000000 0.740993 0.500000
O O18 0.907163 0.000000 0.563387
O O19 0.739627 0.000000 0.962399
O O20 0.750000 0.250000 0.000000
O O21 0.957523 0.000000 0.746040
#
# Coordination Sequence:
#
# PCOD8106239 Si02
#       8
#     8   8   8   8   8   8   8   8
#     4  11  21  34  57  86 114 149 193 241 290 346
#     4  12  25  41  63  89 117 153 198 245 298 357
#     4   9  18  34  57  84 116 153 192 239 288 341
#     4  10  21  36  56  83 119 155 194 243 294 345
#     4  11  23  41  63  86 116 153 195 240 294 354
#     4   8  15  32  59  87 114 153 201 241 285 346
#     4  11  26  45  64  86 118 156 197 247 300 356
#     4  11  22  37  58  84 119 156 195 244 296 351
#
# _framework density 19.394499
#
# number of rings (size 3 to 8) (size 9 to 14) (size 15 to 20)
#    0.000    1.625    1.250    4.875    1.750    4.000 
#    0.000    0.625    0.000    9.375    0.000    0.000 
#    0.000    0.000    0.000    0.000    0.000    0.000 
#
# Total GULP energy -396821.033432 kJ/mol
# GULP energy per Si atom -12400.657295 kJ/mol
# Density = 1.935036 g / cm^3
# Si number density = 19.394499 Si / 1000 Ang^3
#
#
#
# Elastic Constant Matrix: (Units=GPa)
#
#
# Indices 1 2 3 4 5 6 
#
# 1 131.3537 54.1853 45.3088 -0.0084 8.8612 -0.0192
# 2 54.1853 128.1891 41.6217 -0.0255 4.3866 -0.0102
# 3 45.3088 41.6217 100.6553 -0.0026 18.9821 -0.0024
# 4 -0.0084 -0.0255 -0.0026 13.8328 -0.0015 -0.3990
# 5 8.8612 4.3866 18.9821 -0.0015 24.5498 -0.0058
# 6 -0.0192 -0.0102 -0.0024 -0.3990 -0.0058 35.1691
#
#
#
# Elastic Compliance Matrix: (Units=1/GPa)
#
#
# Indices 1 2 3 4 5 6 
#
# 1 0.010046 -0.003231 -0.003057 0.000000 -0.000685 0.000004
# 2 -0.003231 0.010096 -0.003044 0.000016 0.001716 0.000001
# 3 -0.003057 -0.003044 0.014352 -0.000006 -0.009450 -0.000003
# 4 0.000000 0.000016 -0.000006 0.072316 0.000006 0.000820
# 5 -0.000685 0.001716 -0.009450 0.000006 0.047981 0.000008
# 6 0.000004 0.000001 -0.000003 0.000820 0.000008 0.028443
#
#
# Mechanical properties :
#
#
# Convention : Reuss Voigt Hill
#
# Bulk Modulus (GPa) = 63.16897 71.38108 67.27503
# Shear Modulus (GPa) = 24.13413 29.31582 26.72497
#
# Velocity S-wave (km/s) = 3.53140 3.89209 3.71612
# Velocity P-wave (km/s) = 7.01919 7.55530 7.29217
#
# Compressibility (1/GPa) = 0.01583056
#
# Stress axis : x y z
#
# Youngs Moduli (GPa) = 99.53772 99.04682 69.67687
#
# Poissons Ratio (x) = 0.31997 0.21302
# Poissons Ratio (y) = 0.32156 0.21212
# Poissons Ratio (z) = 0.30431 0.30153
#
# Static dielectric constant tensor:
#      x y z
#    x 3.624840 -0.000010 0.130040 
#    y -0.000010 3.538780 0.000000 
#    z 0.130040 0.000000 3.629460 
# 
# 
# High freq. dielectric constant tensor:
#      x y z
#    x 1.761410 0.000000 0.013910 
#    y 0.000000 1.753390 0.000000 
#    z 0.013910 0.000000 1.745810 
# 
# From -- ./inp_files/377985.got.cif
#   From: 2010.06.25/outbox.cif.g09.slc.cpg/sg12_189_cif.got.tgz:377985.got - 2010.06.28 00:19:55.
