data_PCOD8106085
_publ_section_title
;
Structure prediction by ZEFSAII (Michael W. Deem and Ramdas Pophale) SiO2 
 PCOD8106085
Probable space group: C 2/M
;
_chemical_formula_sum "Si O2"
_cell_formula_units_Z 56
_cell_length_a 10.090956
_cell_length_b 9.265133
_cell_length_c 33.368300
_cell_angle_alpha 90.000000
_cell_angle_beta 111.963278
_cell_angle_gamma 90.000000
_cell_volume 2893.318663
_symmetry_space_group_name_H-M "C 2/M"
_symmetry_group_IT_number 12
_symmetry_cell_setting 'monoclinic'
loop_
_space_group_symop_operation_xyz
x,y,z
-x,y,-z
-x,-y,-z
x,-y,z
1/2+x,1/2+y,z
1/2-x,1/2+y,-z
1/2-x,1/2-y,-z
1/2+x,1/2-y,z
loop_
_atom_site_type_symbol
_atom_site_label
_atom_site_fract_x
_atom_site_fract_y
_atom_site_fract_z
Si Si1 0.799414 0.832129 0.309868
Si Si2 0.686782 0.830341 0.833015
Si Si3 0.395247 0.331502 0.022879
Si Si4 0.488494 0.667917 0.121803
Si Si5 0.473851 0.830673 0.264377
Si Si6 0.352328 0.666778 0.407197
Si Si7 0.315095 0.331111 0.544986
O O1 0.639610 0.790012 0.278694
O O2 0.911460 0.745258 0.296238
O O3 0.824408 0.788155 0.358472
O O4 0.829797 0.000000 0.306581
O O5 0.623957 0.755409 0.864916
O O6 0.606072 0.774235 0.784317
O O7 0.852027 0.787436 0.847387
O O8 0.666985 0.000000 0.836757
O O9 0.363638 0.500000 0.015966
O O10 0.466306 0.290552 0.073112
O O11 0.500000 0.278275 0.000000
O O12 0.250000 0.250000 0.000000
O O13 0.461115 0.500000 0.126372
O O14 0.451813 0.000000 0.267910
O O15 0.311197 0.500000 0.410062
O O16 0.516117 0.695204 0.436745
O O17 0.251049 0.767405 0.422087
O O18 0.278235 0.500000 0.538313
O O19 0.250000 0.250000 0.500000
#
# Coordination Sequence:
#
# PCOD8106085 Si02
#       7
#     8   8   8   8   8   8   8
#     4  10  21  37  57  82 112 145 181 223 270 319
#     4  10  21  37  56  80 111 144 179 222 269 317
#     4  10  21  37  56  79 108 141 178 222 270 320
#     4  10  21  36  55  80 108 141 181 221 266 321
#     4  10  21  36  56  83 111 142 182 223 266 319
#     4  10  22  39  57  81 113 145 181 225 270 321
#     4  11  23  38  58  83 110 144 184 225 273 325
#
# _framework density 19.354935999999999
#
# number of rings (size 3 to 8) (size 9 to 14) (size 15 to 20)
#    0.000    1.857    0.000    3.429    0.000    7.143 
#    0.000    0.000    0.000    0.000    0.000    0.000 
#    0.000    0.000    0.000    0.000    0.000    0.000 
#
# Total GULP energy -347365.015430 kJ/mol
# GULP energy per Si atom -12405.893408 kJ/mol
# Density = 1.931088 g / cm^3
# Si number density = 19.354936 Si / 1000 Ang^3
#
#
#
# Elastic Constant Matrix: (Units=GPa)
#
#
# Indices 1 2 3 4 5 6 
#
# 1 60.9992 29.3262 7.2361 0.0000 -12.6976 0.0000
# 2 29.3262 49.3174 22.7119 0.0000 -8.9214 0.0000
# 3 7.2361 22.7119 89.1106 0.0000 1.5922 0.0000
# 4 0.0000 0.0000 0.0000 33.3015 0.0000 -7.0120
# 5 -12.6976 -8.9214 1.5922 0.0000 38.9747 0.0000
# 6 0.0000 0.0000 0.0000 -7.0120 0.0000 36.1534
#
#
#
# Elastic Compliance Matrix: (Units=1/GPa)
#
#
# Indices 1 2 3 4 5 6 
#
# 1 0.023947 -0.014156 0.001583 0.000000 0.004497 0.000000
# 2 -0.014156 0.032584 -0.007211 0.000000 0.003141 0.000000
# 3 0.001583 -0.007211 0.012961 0.000000 -0.001665 0.000000
# 4 0.000000 0.000000 0.000000 0.031307 0.000000 0.006072
# 5 0.004497 0.003141 -0.001665 0.000000 0.027910 0.000000
# 6 0.000000 0.000000 0.000000 0.006072 0.000000 0.028838
#
#
# Mechanical properties :
#
#
# Convention : Reuss Voigt Hill
#
# Bulk Modulus (GPa) = 33.41782 35.33062 34.37422
# Shear Modulus (GPa) = 24.14414 31.02948 27.58681
#
# Velocity S-wave (km/s) = 3.53574 4.00832 3.77943
# Velocity P-wave (km/s) = 5.82854 6.30205 6.06992
#
# Compressibility (1/GPa) = 0.02992416
#
# Stress axis : x y z
#
# Youngs Moduli (GPa) = 41.75806 30.69030 77.15349
#
# Poissons Ratio (x) = 0.43444 -0.12213
# Poissons Ratio (y) = 0.59111 0.55638
# Poissons Ratio (z) = -0.06610 0.22132
#
# Static dielectric constant tensor:
#      x y z
#    x 3.585030 0.000000 0.085090 
#    y 0.000000 3.439050 0.000000 
#    z 0.085090 0.000000 3.732110 
# 
# 
# High freq. dielectric constant tensor:
#      x y z
#    x 1.764190 0.000000 0.003100 
#    y 0.000000 1.746750 0.000000 
#    z 0.003100 0.000000 1.773040 
# 
# From -- ./inp_files/373630.got.cif
#   From: 2010.06.25/outbox.cif.g09.slc.cpg/sg12_187_cif.got.tgz:373630.got - 2010.06.28 00:19:55.
