data_PCOD8106491
_publ_section_title
;
Structure prediction by ZEFSAII (Michael W. Deem and Ramdas Pophale) SiO2 
 PCOD8106491
Probable space group: C 2/M
;
_chemical_formula_sum "Si O2"
_cell_formula_units_Z 48
_cell_length_a 23.287821
_cell_length_b 26.065624
_cell_length_c 10.875472
_cell_angle_alpha 90.000000
_cell_angle_beta 158.539641
_cell_angle_gamma 90.000000
_cell_volume 2415.221446
_symmetry_space_group_name_H-M "C 2/M"
_symmetry_group_IT_number 12
_symmetry_cell_setting 'monoclinic'
loop_
_space_group_symop_operation_xyz
x,y,z
-x,y,-z
-x,-y,-z
x,-y,z
1/2+x,1/2+y,z
1/2-x,1/2+y,-z
1/2-x,1/2-y,-z
1/2+x,1/2-y,z
loop_
_atom_site_type_symbol
_atom_site_label
_atom_site_fract_x
_atom_site_fract_y
_atom_site_fract_z
Si Si1 0.103829 0.387334 0.096319
Si Si2 0.411530 0.720490 0.194827
Si Si3 0.647731 0.938847 0.570716
Si Si4 0.840963 0.940789 0.728500
Si Si5 0.322222 0.859167 0.170546
Si Si6 0.777627 0.181632 0.267337
O O1 0.204974 0.432563 0.358221
O O2 0.217427 0.342424 0.274337
O O3 0.000000 0.363194 0.000000
O O4 0.009035 0.412463 0.795066
O O5 0.500000 0.729550 0.500000
O O6 0.541940 0.699850 0.357908
O O7 0.265302 0.681576 0.915487
O O8 0.340075 0.773025 0.004156
O O9 0.789042 0.922557 0.760905
O O10 0.681909 0.915099 0.772980
O O11 0.626044 0.000000 0.538940
O O12 0.875465 0.000000 0.807619
O O13 0.000000 0.912324 0.000000
O O14 0.500000 0.841158 0.500000
O O15 0.230070 0.861255 0.856975
#
# Coordination Sequence:
#
# PCOD8106491 Si02
#       6
#     8   8   8   8   8   8
#     4  10  21  37  59  83 116 150 194 230 284 335
#     4  10  22  36  61  83 113 150 196 231 281 339
#     4  10  21  36  59  86 118 151 190 234 279 341
#     4   9  19  37  60  82 110 151 194 232 278 338
#     4  11  20  36  59  86 115 148 191 232 286 336
#     4  11  21  38  59  86 113 152 187 242 280 341
#
# _framework density 19.873954000000001
#
# number of rings (size 3 to 8) (size 9 to 14) (size 15 to 20)
#    0.000    1.833    1.667    4.000    2.333    2.333 
#    0.000    0.833    0.000    4.500    0.000    0.000 
#    0.000    0.000    0.000    0.000    0.000    0.000 
#
# Total GULP energy -297479.648449 kJ/mol
# GULP energy per Si atom -12394.985352 kJ/mol
# Density = 1.982872 g / cm^3
# Si number density = 19.873954 Si / 1000 Ang^3
#
#
#
# Elastic Constant Matrix: (Units=GPa)
#
#
# Indices 1 2 3 4 5 6 
#
# 1 93.5004 43.8900 44.2012 0.0000 21.3735 0.0000
# 2 43.8900 73.5521 27.4374 0.0000 9.5011 0.0000
# 3 44.2012 27.4374 88.4393 0.0000 34.5324 0.0000
# 4 0.0000 0.0000 0.0000 18.2660 0.0000 5.6924
# 5 21.3735 9.5011 34.5324 0.0000 34.7762 0.0000
# 6 0.0000 0.0000 0.0000 5.6924 0.0000 27.2826
#
#
#
# Elastic Compliance Matrix: (Units=1/GPa)
#
#
# Indices 1 2 3 4 5 6 
#
# 1 0.017737 -0.008302 -0.004766 0.000000 -0.003900 0.000000
# 2 -0.008302 0.019278 -0.002886 0.000000 0.002702 0.000000
# 3 -0.004766 -0.002886 0.021450 0.000000 -0.017581 0.000000
# 4 0.000000 0.000000 0.000000 0.058554 0.000000 -0.012217
# 5 -0.003900 0.002702 -0.017581 0.000000 0.047872 0.000000
# 6 0.000000 0.000000 0.000000 -0.012217 0.000000 0.039202
#
#
# Mechanical properties :
#
#
# Convention : Reuss Voigt Hill
#
# Bulk Modulus (GPa) = 37.65802 54.06099 45.85951
# Shear Modulus (GPa) = 20.42034 25.39584 22.90809
#
# Velocity S-wave (km/s) = 3.20893 3.57857 3.39878
# Velocity P-wave (km/s) = 5.72007 6.65852 6.20706
#
# Compressibility (1/GPa) = 0.02655477
#
# Stress axis : x y z
#
# Youngs Moduli (GPa) = 56.37917 51.87373 46.62074
#
# Poissons Ratio (x) = 0.43067 0.22221
# Poissons Ratio (y) = 0.46807 0.13456
# Poissons Ratio (z) = 0.26872 0.14972
#
# Static dielectric constant tensor:
#      x y z
#    x 3.799460 0.000000 0.459680 
#    y 0.000000 3.373320 0.000000 
#    z 0.459680 0.000000 3.852250 
# 
# 
# High freq. dielectric constant tensor:
#      x y z
#    x 1.769980 0.000000 0.028020 
#    y 0.000000 1.754330 0.000000 
#    z 0.028020 0.000000 1.775950 
# 
# From -- ./inp_files/123034.got.cif
#   From: 2010.06.25/outbox.cif.g09.slc.cpg/sg12_62_cif.got.tgz:123034.got - 2010.06.28 00:19:55.
