data_PCOD8106088
_publ_section_title
;
Structure prediction by ZEFSAII (Michael W. Deem and Ramdas Pophale) SiO2 
 PCOD8106088
Probable space group: C 2/M
;
_chemical_formula_sum "Si O2"
_cell_formula_units_Z 64
_cell_length_a 31.637836
_cell_length_b 8.646130
_cell_length_c 25.575910
_cell_angle_alpha 90.000000
_cell_angle_beta 150.432909
_cell_angle_gamma 90.000000
_cell_volume 3452.200946
_symmetry_space_group_name_H-M "C 2/M"
_symmetry_group_IT_number 12
_symmetry_cell_setting 'monoclinic'
loop_
_space_group_symop_operation_xyz
x,y,z
-x,y,-z
-x,-y,-z
x,-y,z
1/2+x,1/2+y,z
1/2-x,1/2+y,-z
1/2-x,1/2-y,-z
1/2+x,1/2-y,z
loop_
_atom_site_type_symbol
_atom_site_label
_atom_site_fract_x
_atom_site_fract_y
_atom_site_fract_z
Si Si1 0.138981 0.179866 0.918713
Si Si2 0.447664 0.816952 0.895605
Si Si3 0.508079 0.182536 0.171273
Si Si4 0.894227 0.681116 0.428747
Si Si5 0.742238 0.817476 0.329568
Si Si6 0.329085 0.179928 0.154253
Si Si7 0.071800 0.818410 0.643462
Si Si8 0.801780 0.318926 0.602850
O O1 0.124295 0.275274 0.849683
O O2 0.065184 0.221034 0.879690
O O3 0.136471 0.000000 0.901671
O O4 0.229121 0.224049 0.042378
O O5 0.489258 0.761054 0.886011
O O6 0.348266 0.770648 0.793864
O O7 0.454343 0.000000 0.903701
O O8 0.500000 0.741852 0.000000
O O9 0.598724 0.227987 0.294839
O O10 0.489790 0.000000 0.156274
O O11 0.898503 0.500000 0.422105
O O12 0.815032 0.719336 0.380313
O O13 0.882348 0.768539 0.360945
O O14 0.980784 0.733124 0.551076
O O15 0.739226 0.763749 0.386654
O O16 0.760409 0.000000 0.343533
O O17 0.367841 0.276924 0.243310
O O18 0.343665 0.000000 0.181122
O O19 0.054986 0.000000 0.624437
O O20 0.794076 0.500000 0.592249
O O21 0.750000 0.250000 0.500000
#
# Coordination Sequence:
#
# PCOD8106088 Si02
#       8
#     8   8   8   8   8   8   8   8
#     4  10  21  36  55  80 109 142 179 219 265 317
#     4   8  15  30  53  78 102 133 175 218 261 312
#     4   9  18  33  52  76 106 137 172 218 268 312
#     4  11  22  37  56  80 111 143 176 218 269 318
#     4   9  18  34  53  76 106 137 174 220 263 308
#     4  10  21  38  57  79 109 141 177 221 267 316
#     4  11  22  38  59  81 106 139 180 221 265 317
#     4   9  19  34  52  74 103 138 176 219 262 308
#
# _framework density 18.538899000000001
#
# number of rings (size 3 to 8) (size 9 to 14) (size 15 to 20)
#    0.000    2.375    0.000    5.250    0.000    4.500 
#    0.000    5.625    0.000    0.750    0.000    0.000 
#    0.000    0.000    0.000    0.000    0.000    0.000 
#
# Total GULP energy -396818.880651 kJ/mol
# GULP energy per Si atom -12400.590020 kJ/mol
# Density = 1.849670 g / cm^3
# Si number density = 18.538899 Si / 1000 Ang^3
#
#
#
# Elastic Constant Matrix: (Units=GPa)
#
#
# Indices 1 2 3 4 5 6 
#
# 1 107.0086 23.1272 64.6491 0.0000 12.5743 0.0000
# 2 23.1272 48.9515 24.3757 0.0000 0.6073 0.0000
# 3 64.6491 24.3757 120.8795 0.0000 -15.6053 0.0000
# 4 0.0000 0.0000 0.0000 28.8564 0.0000 -0.0448
# 5 12.5743 0.6073 -15.6053 0.0000 32.1289 0.0000
# 6 0.0000 0.0000 0.0000 -0.0448 0.0000 31.2184
#
#
#
# Elastic Compliance Matrix: (Units=1/GPa)
#
#
# Indices 1 2 3 4 5 6 
#
# 1 0.017663 -0.003034 -0.010370 0.000000 -0.011893 0.000000
# 2 -0.003034 0.023474 -0.003217 0.000000 -0.000819 0.000000
# 3 -0.010370 -0.003217 0.016003 0.000000 0.011892 0.000000
# 4 0.000000 0.000000 0.000000 0.034654 0.000000 0.000050
# 5 -0.011893 -0.000819 0.011892 0.000000 0.041571 0.000000
# 6 0.000000 0.000000 0.000000 0.000050 0.000000 0.032032
#
#
# Mechanical properties :
#
#
# Convention : Reuss Voigt Hill
#
# Bulk Modulus (GPa) = 41.84373 55.68260 48.76317
# Shear Modulus (GPa) = 24.20078 29.41992 26.81035
#
# Velocity S-wave (km/s) = 3.61696 3.98795 3.80698
# Velocity P-wave (km/s) = 6.32953 7.16280 6.75902
#
# Compressibility (1/GPa) = 0.02389845
#
# Stress axis : x y z
#
# Youngs Moduli (GPa) = 56.61438 42.60112 62.48851
#
# Poissons Ratio (x) = 0.12923 0.64803
# Poissons Ratio (y) = 0.17174 0.20101
# Poissons Ratio (z) = 0.58711 0.13704
#
# Static dielectric constant tensor:
#      x y z
#    x 3.407690 0.000000 -0.031000 
#    y 0.000000 3.250460 0.000000 
#    z -0.031000 0.000000 3.461260 
# 
# 
# High freq. dielectric constant tensor:
#      x y z
#    x 1.723450 0.000000 -0.001250 
#    y 0.000000 1.710720 0.000000 
#    z -0.001250 0.000000 1.723000 
# 
# From -- ./inp_files/353557.got.cif
#   From: 2010.06.25/outbox.cif.g09.slc.cpg/sg12_177_cif.got.tgz:353557.got - 2010.06.28 00:19:55.
