data_PCOD8106359
_publ_section_title
;
Structure prediction by ZEFSAII (Michael W. Deem and Ramdas Pophale) SiO2 
 PCOD8106359
Probable space group: C 2/M
;
_chemical_formula_sum "Si O2"
_cell_formula_units_Z 40
_cell_length_a 5.193075
_cell_length_b 19.213190
_cell_length_c 17.262374
_cell_angle_alpha 90.000000
_cell_angle_beta 84.578499
_cell_angle_gamma 90.000000
_cell_volume 1714.657777
_symmetry_space_group_name_H-M "C 2/M"
_symmetry_group_IT_number 12
_symmetry_cell_setting 'monoclinic'
loop_
_space_group_symop_operation_xyz
x,y,z
-x,y,-z
-x,-y,-z
x,-y,z
1/2+x,1/2+y,z
1/2-x,1/2+y,-z
1/2-x,1/2-y,-z
1/2+x,1/2-y,z
loop_
_atom_site_type_symbol
_atom_site_label
_atom_site_fract_x
_atom_site_fract_y
_atom_site_fract_z
Si Si1 0.091092 0.420893 0.376650
Si Si2 0.574928 0.341776 0.416375
Si Si3 0.165462 0.079475 0.788689
Si Si4 0.263411 0.081689 0.959189
Si Si5 0.102176 0.210502 0.252323
O O1 0.026428 0.500000 0.398701
O O2 0.363738 0.402195 0.408147
O O3 0.115103 0.409221 0.282899
O O4 0.859611 0.374355 0.415017
O O5 0.500000 0.304491 0.500000
O O6 0.565516 0.286387 0.346844
O O7 0.293689 0.097286 0.867328
O O8 0.925225 0.131405 0.778256
O O9 0.056996 0.000000 0.789957
O O10 0.259724 0.000000 0.976017
O O11 0.500000 0.116028 0.000000
O O12 0.000000 0.115194 0.000000
O O13 0.878913 0.258583 0.220690
#
# Coordination Sequence:
#
# PCOD8106359 Si02
#       5
#     8   8   8   8   8
#     4  10  21  36  57  87 121 158 198 244 301 356
#     4  11  23  38  57  84 117 155 202 251 298 354
#     4   9  20  40  65  91 121 158 203 248 291 354
#     4   9  18  32  55  89 122 151 189 241 295 343
#     4  11  24  42  62  87 120 159 200 246 303 357
#
# _framework density 23.328272999999999
#
# number of rings (size 3 to 8) (size 9 to 14) (size 15 to 20)
#    0.000    2.000    0.000    3.600    0.000    8.800 
#    0.000   13.000    0.000    3.600    0.000    0.000 
#    0.000    0.000    0.000    0.000    0.000    0.000 
#
# Total GULP energy -247982.959733 kJ/mol
# GULP energy per Si atom -12399.147987 kJ/mol
# Density = 2.327518 g / cm^3
# Si number density = 23.328273 Si / 1000 Ang^3
#
#
#
# Elastic Constant Matrix: (Units=GPa)
#
#
# Indices 1 2 3 4 5 6 
#
# 1 114.2802 8.6216 4.2340 0.0000 12.8683 0.0000
# 2 8.6216 54.2460 -10.3765 0.0000 7.2721 0.0000
# 3 4.2340 -10.3765 97.2883 0.0000 3.6853 0.0000
# 4 0.0000 0.0000 0.0000 20.5566 0.0000 5.4952
# 5 12.8683 7.2721 3.6853 0.0000 29.8180 0.0000
# 6 0.0000 0.0000 0.0000 5.4952 0.0000 19.6945
#
#
#
# Elastic Compliance Matrix: (Units=1/GPa)
#
#
# Indices 1 2 3 4 5 6 
#
# 1 0.009259 -0.001048 -0.000375 0.000000 -0.003694 0.000000
# 2 -0.001048 0.019665 0.002318 0.000000 -0.004630 0.000000
# 3 -0.000375 0.002318 0.010607 0.000000 -0.001715 0.000000
# 4 0.000000 0.000000 0.000000 0.052567 0.000000 -0.014667
# 5 -0.003694 -0.004630 -0.001715 0.000000 0.036472 0.000000
# 6 0.000000 0.000000 0.000000 -0.014667 0.000000 0.054868
#
#
# Mechanical properties :
#
#
# Convention : Reuss Voigt Hill
#
# Bulk Modulus (GPa) = 24.19960 30.08583 27.14271
# Shear Modulus (GPa) = 25.58559 31.56952 28.57755
#
# Velocity S-wave (km/s) = 3.31533 3.68268 3.50382
# Velocity P-wave (km/s) = 5.00513 5.56844 5.29428
#
# Compressibility (1/GPa) = 0.04132300
#
# Stress axis : x y z
#
# Youngs Moduli (GPa) = 107.99901 50.85090 94.27496
#
# Poissons Ratio (x) = 0.05330 0.03534
# Poissons Ratio (y) = 0.11319 -0.21857
# Poissons Ratio (z) = 0.04048 -0.11790
#
# Static dielectric constant tensor:
#      x y z
#    x 4.153840 0.000000 0.125550 
#    y 0.000000 3.901280 0.000000 
#    z 0.125550 0.000000 4.347160 
# 
# 
# High freq. dielectric constant tensor:
#      x y z
#    x 1.922210 0.000000 0.009310 
#    y 0.000000 1.891630 0.000000 
#    z 0.009310 0.000000 1.919010 
# 
# From -- ./inp_files/252600.got.cif
#   From: 2010.06.25/outbox.cif.g09.slc.cpg/sg12_127_cif.got.tgz:252600.got - 2010.06.28 00:19:55.
