data_PCOD8106181
_publ_section_title
;
Structure prediction by ZEFSAII (Michael W. Deem and Ramdas Pophale) SiO2 
 PCOD8106181
Probable space group: C 2/M
;
_chemical_formula_sum "Si O2"
_cell_formula_units_Z 56
_cell_length_a 14.725602
_cell_length_b 9.105796
_cell_length_c 24.371061
_cell_angle_alpha 90.000000
_cell_angle_beta 115.729836
_cell_angle_gamma 90.000000
_cell_volume 2943.868548
_symmetry_space_group_name_H-M "C 2/M"
_symmetry_group_IT_number 12
_symmetry_cell_setting 'monoclinic'
loop_
_space_group_symop_operation_xyz
x,y,z
-x,y,-z
-x,-y,-z
x,-y,z
1/2+x,1/2+y,z
1/2-x,1/2+y,-z
1/2-x,1/2-y,-z
1/2+x,1/2-y,z
loop_
_atom_site_type_symbol
_atom_site_label
_atom_site_fract_x
_atom_site_fract_y
_atom_site_fract_z
Si Si1 0.390875 0.172507 0.493651
Si Si2 0.230696 0.828952 0.938075
Si Si3 0.904949 0.164919 0.937009
Si Si4 0.631276 0.828792 0.819562
Si Si5 0.691567 0.172708 0.410272
Si Si6 0.832165 0.835637 0.805565
Si Si7 0.584433 0.173100 0.273359
O O1 0.500000 0.228367 0.500000
O O2 0.375762 0.211771 0.553941
O O3 0.300773 0.250944 0.437367
O O4 0.381116 0.000000 0.480395
O O5 0.331000 0.798422 0.930128
O O6 0.138928 0.758781 0.879314
O O7 0.210043 0.000000 0.941882
O O8 0.250000 0.750000 0.000000
O O9 0.921305 0.176121 0.875431
O O10 0.860160 0.000000 0.937345
O O11 0.000000 0.190415 0.000000
O O12 0.725261 0.794871 0.804881
O O13 0.530812 0.772915 0.762543
O O14 0.624669 0.000000 0.832522
O O15 0.629579 0.234212 0.342001
O O16 0.711073 0.000000 0.412086
O O17 0.849965 0.726199 0.760655
O O18 0.829000 0.000000 0.780709
O O19 0.589913 0.000000 0.275379
#
# Coordination Sequence:
#
# PCOD8106181 Si02
#       7
#     8   8   8   8   8   8   8
#     4   9  18  34  58  84 111 145 186 227 264 313
#     4  11  22  35  53  77 104 135 176 225 277 334
#     4   9  19  36  55  76 103 133 169 221 283 338
#     4   9  20  39  56  75 105 143 181 224 278 333
#     4   9  19  35  53  81 116 146 179 224 274 320
#     4   9  19  35  54  77 106 139 179 224 273 327
#     4  10  21  36  56  79 110 148 183 221 271 330
#
# _framework density 19.022587999999999
#
# number of rings (size 3 to 8) (size 9 to 14) (size 15 to 20)
#    0.000    2.571    0.000    2.143    2.000    5.143 
#    0.000    2.857    0.000    0.000    0.000    0.000 
#    0.000    0.000    0.000    0.000    0.000    0.000 
#
# Total GULP energy -346998.851638 kJ/mol
# GULP energy per Si atom -12392.816130 kJ/mol
# Density = 1.897929 g / cm^3
# Si number density = 19.022588 Si / 1000 Ang^3
#
#
#
# Elastic Constant Matrix: (Units=GPa)
#
#
# Indices 1 2 3 4 5 6 
#
# 1 106.0761 31.1476 71.5762 0.0000 11.3953 0.0000
# 2 31.1476 50.1736 47.2423 0.0000 7.3798 0.0000
# 3 71.5762 47.2423 181.6016 0.0000 19.3850 0.0000
# 4 0.0000 0.0000 0.0000 29.4949 0.0000 -1.7538
# 5 11.3953 7.3798 19.3850 0.0000 27.9401 0.0000
# 6 0.0000 0.0000 0.0000 -1.7538 0.0000 28.8546
#
#
#
# Elastic Compliance Matrix: (Units=1/GPa)
#
#
# Indices 1 2 3 4 5 6 
#
# 1 0.013628 -0.004409 -0.004056 0.000000 -0.001580 0.000000
# 2 -0.004409 0.027971 -0.005337 0.000000 -0.001887 0.000000
# 3 -0.004056 -0.005337 0.008820 0.000000 -0.003055 0.000000
# 4 0.000000 0.000000 0.000000 0.034027 0.000000 0.002068
# 5 -0.001580 -0.001887 -0.003055 0.000000 0.039053 0.000000
# 6 0.000000 0.000000 0.000000 0.002068 0.000000 0.034782
#
#
# Mechanical properties :
#
#
# Convention : Reuss Voigt Hill
#
# Bulk Modulus (GPa) = 43.83174 70.86483 57.34828
# Shear Modulus (GPa) = 25.84105 29.78362 27.81233
#
# Velocity S-wave (km/s) = 3.68970 3.96118 3.82785
# Velocity P-wave (km/s) = 6.42214 7.63251 7.05333
#
# Compressibility (1/GPa) = 0.02281452
#
# Stress axis : x y z
#
# Youngs Moduli (GPa) = 73.37688 35.75140 113.38297
#
# Poissons Ratio (x) = 0.15763 0.45986
# Poissons Ratio (y) = 0.32353 0.60515
# Poissons Ratio (z) = 0.29760 0.19081
#
# Static dielectric constant tensor:
#      x y z
#    x 3.368390 0.000000 0.111080 
#    y 0.000000 6.949570 0.000000 
#    z 0.111080 0.000000 3.874660 
# 
# 
# High freq. dielectric constant tensor:
#      x y z
#    x 1.729190 0.000000 0.004980 
#    y 0.000000 1.727010 0.000000 
#    z 0.004980 0.000000 1.747640 
# 
# From -- ./inp_files/338204.got.cif
#   From: 2010.06.25/outbox.cif.g09.slc.cpg/sg12_170_cif.got.tgz:338204.got - 2010.06.28 00:19:55.
