data_PCOD8106771
_publ_section_title
;
Structure prediction by ZEFSAII (Michael W. Deem and Ramdas Pophale) SiO2 
 PCOD8106771
Probable space group: C 2/M
;
_chemical_formula_sum "Si O2"
_cell_formula_units_Z 48
_cell_length_a 8.132088
_cell_length_b 32.406445
_cell_length_c 12.426361
_cell_angle_alpha 90.000000
_cell_angle_beta 45.359442
_cell_angle_gamma 90.000000
_cell_volume 2330.075167
_symmetry_space_group_name_H-M "C 2/M"
_symmetry_group_IT_number 12
_symmetry_cell_setting 'monoclinic'
loop_
_space_group_symop_operation_xyz
x,y,z
-x,y,-z
-x,-y,-z
x,-y,z
1/2+x,1/2+y,z
1/2-x,1/2+y,-z
1/2-x,1/2-y,-z
1/2+x,1/2-y,z
loop_
_atom_site_type_symbol
_atom_site_label
_atom_site_fract_x
_atom_site_fract_y
_atom_site_fract_z
Si Si1 0.384676 0.153826 0.667189
Si Si2 0.052486 0.262745 0.671416
Si Si3 0.068634 0.381741 0.793584
Si Si4 0.697710 0.801319 0.825462
Si Si5 0.561980 0.602033 0.089639
Si Si6 0.243942 0.454557 0.830512
O O1 0.500000 0.144706 0.500000
O O2 0.384734 0.202672 0.694147
O O3 0.544589 0.129019 0.679308
O O4 0.121490 0.137223 0.792066
O O5 0.250000 0.250000 0.500000
O O6 0.156454 0.280942 0.729998
O O7 0.927274 0.220293 0.763447
O O8 0.228490 0.349950 0.788038
O O9 0.196643 0.425814 0.747593
O O10 0.816973 0.377954 0.966343
O O11 0.500000 0.790706 0.000000
O O12 0.566830 0.565115 0.174937
O O13 0.500000 0.583581 0.000000
O O14 0.332445 0.500000 0.753804
O O15 0.000000 0.459053 0.000000
#
# Coordination Sequence:
#
# PCOD8106771 Si02
#       6
#     8   8   8   8   8   8
#     4  10  21  37  56  76 106 148 186 220 267 325
#     4  11  24  39  54  79 112 146 186 231 273 322
#     4   9  20  36  56  82 109 139 178 228 275 322
#     4  11  22  36  56  80 108 143 184 227 274 324
#     4   9  18  34  55  81 110 141 180 223 268 322
#     4   9  17  32  57  86 111 136 173 223 274 323
#
# _framework density 20.600193000000001
#
# number of rings (size 3 to 8) (size 9 to 14) (size 15 to 20)
#    0.000    2.167    0.000    3.500    0.000    9.000 
#    0.000    5.000    0.000    3.000    0.000    0.000 
#    0.000    0.000    0.000    0.000    0.000    0.000 
#
# Total GULP energy -297482.252885 kJ/mol
# GULP energy per Si atom -12395.093870 kJ/mol
# Density = 2.055331 g / cm^3
# Si number density = 20.600193 Si / 1000 Ang^3
#
#
#
# Elastic Constant Matrix: (Units=GPa)
#
#
# Indices 1 2 3 4 5 6 
#
# 1 44.3283 36.1214 -2.4988 0.0000 3.9249 0.0000
# 2 36.1214 145.8478 20.9838 0.0000 -3.7385 0.0000
# 3 -2.4988 20.9838 57.1560 0.0000 13.9051 0.0000
# 4 0.0000 0.0000 0.0000 15.3500 0.0000 1.4251
# 5 3.9249 -3.7385 13.9051 0.0000 32.4736 0.0000
# 6 0.0000 0.0000 0.0000 1.4251 0.0000 31.0814
#
#
#
# Elastic Compliance Matrix: (Units=1/GPa)
#
#
# Indices 1 2 3 4 5 6 
#
# 1 0.030659 -0.008695 0.006338 0.000000 -0.007420 0.000000
# 2 -0.008695 0.009849 -0.005054 0.000000 0.004349 0.000000
# 3 0.006338 -0.005054 0.022277 0.000000 -0.010887 0.000000
# 4 0.000000 0.000000 0.000000 0.065425 0.000000 -0.003000
# 5 -0.007420 0.004349 -0.010887 0.000000 0.036853 0.000000
# 6 0.000000 0.000000 0.000000 -0.003000 0.000000 0.032311
#
#
# Mechanical properties :
#
#
# Convention : Reuss Voigt Hill
#
# Bulk Modulus (GPa) = 20.84983 39.61611 30.23297
# Shear Modulus (GPa) = 21.91223 28.62939 25.27081
#
# Velocity S-wave (km/s) = 3.26496 3.73200 3.50627
# Velocity P-wave (km/s) = 4.93523 6.15167 5.57672
#
# Compressibility (1/GPa) = 0.04796201
#
# Stress axis : x y z
#
# Youngs Moduli (GPa) = 32.61735 101.53800 44.88915
#
# Poissons Ratio (x) = 0.88288 -0.28450
# Poissons Ratio (y) = 0.28361 0.22686
# Poissons Ratio (z) = -0.20673 0.51316
#
# Static dielectric constant tensor:
#      x y z
#    x 3.952750 0.000000 0.077820 
#    y 0.000000 4.255320 0.000000 
#    z 0.077820 0.000000 3.501460 
# 
# 
# High freq. dielectric constant tensor:
#      x y z
#    x 1.821250 0.000000 0.011380 
#    y 0.000000 1.799820 0.000000 
#    z 0.011380 0.000000 1.776420 
# 
# From -- ./inp_files/200770.got.cif
#   From: 2010.06.25/outbox.cif.g09.slc.cpg/sg12_101_cif.got.tgz:200770.got - 2010.06.28 00:19:55.
