data_PCOD8106715
_publ_section_title
;
Structure prediction by ZEFSAII (Michael W. Deem and Ramdas Pophale) SiO2 
 PCOD8106715
Probable space group: C 2/M
;
_chemical_formula_sum "Si O2"
_cell_formula_units_Z 64
_cell_length_a 31.647625
_cell_length_b 8.902608
_cell_length_c 25.394726
_cell_angle_alpha 90.000000
_cell_angle_beta 150.524336
_cell_angle_gamma 90.000000
_cell_volume 3520.582531
_symmetry_space_group_name_H-M "C 2/M"
_symmetry_group_IT_number 12
_symmetry_cell_setting 'monoclinic'
loop_
_space_group_symop_operation_xyz
x,y,z
-x,y,-z
-x,-y,-z
x,-y,z
1/2+x,1/2+y,z
1/2-x,1/2+y,-z
1/2-x,1/2-y,-z
1/2+x,1/2-y,z
loop_
_atom_site_type_symbol
_atom_site_label
_atom_site_fract_x
_atom_site_fract_y
_atom_site_fract_z
Si Si1 0.420536 0.322075 0.445795
Si Si2 0.053658 0.174210 0.212006
Si Si3 0.234236 0.677346 0.223263
Si Si4 0.609197 0.671782 0.468628
Si Si5 0.306640 0.172479 0.705778
Si Si6 0.636284 0.328436 0.023795
Si Si7 0.508796 0.823558 0.269043
Si Si8 0.669559 0.676550 0.940849
O O1 0.500000 0.249716 0.500000
O O2 0.420124 0.500000 0.438591
O O3 0.331150 0.256424 0.325533
O O4 0.429371 0.281062 0.516724
O O5 0.131430 0.219708 0.259273
O O6 0.057131 0.269828 0.269009
O O7 0.060822 0.000000 0.235462
O O8 0.965017 0.204980 0.085210
O O9 0.240753 0.500000 0.231300
O O10 0.189966 0.728174 0.229902
O O11 0.179700 0.726086 0.114352
O O12 0.584540 0.500000 0.428212
O O13 0.711495 0.690358 0.579563
O O14 0.569462 0.784483 0.383564
O O15 0.337416 0.000000 0.734223
O O16 0.655722 0.500000 0.059151
O O17 0.674944 0.287397 0.008749
O O18 0.417365 0.743500 0.177583
O O19 0.493439 0.000000 0.249537
O O20 0.668945 0.500000 0.929533
O O21 0.750000 0.750000 0.000000
#
# Coordination Sequence:
#
# PCOD8106715 Si02
#       8
#     8   8   8   8   8   8   8   8
#     4   8  15  30  52  77 103 133 171 211 251 300
#     4  10  21  37  55  75 101 136 178 219 263 315
#     4   9  18  32  52  78 105 135 173 213 255 310
#     4   9  18  34  54  76 106 139 172 215 262 310
#     4   9  19  35  53  76 106 138 174 217 263 312
#     4   9  20  36  52  74 105 136 168 213 263 309
#     4  11  22  36  55  79 107 138 174 216 263 314
#     4  10  21  38  57  79 108 141 178 218 261 309
#
# _framework density 18.178809999999999
#
# number of rings (size 3 to 8) (size 9 to 14) (size 15 to 20)
#    0.000    2.625    0.000    4.125    0.000    6.000 
#    0.000    5.625    0.000    0.750    0.000    0.000 
#    0.000    0.000    0.000    0.000    0.000    0.000 
#
# Total GULP energy -396802.771276 kJ/mol
# GULP energy per Si atom -12400.086602 kJ/mol
# Density = 1.813743 g / cm^3
# Si number density = 18.178810 Si / 1000 Ang^3
#
#
#
# Elastic Constant Matrix: (Units=GPa)
#
#
# Indices 1 2 3 4 5 6 
#
# 1 126.0384 43.4975 64.9785 0.0000 16.0563 0.0000
# 2 43.4975 71.6823 37.8649 0.0000 2.0182 0.0000
# 3 64.9785 37.8649 90.7789 0.0000 -5.9647 0.0000
# 4 0.0000 0.0000 0.0000 32.1581 0.0000 -1.9520
# 5 16.0563 2.0182 -5.9647 0.0000 26.8826 0.0000
# 6 0.0000 0.0000 0.0000 -1.9520 0.0000 29.9592
#
#
#
# Elastic Compliance Matrix: (Units=1/GPa)
#
#
# Indices 1 2 3 4 5 6 
#
# 1 0.016421 -0.003854 -0.010932 0.000000 -0.011944 0.000000
# 2 -0.003854 0.019046 -0.005204 0.000000 -0.000283 0.000000
# 3 -0.010932 -0.005204 0.021783 0.000000 0.011753 0.000000
# 4 0.000000 0.000000 0.000000 0.031220 0.000000 0.002034
# 5 -0.011944 -0.000283 0.011753 0.000000 0.046962 0.000000
# 6 0.000000 0.000000 0.000000 0.002034 0.000000 0.033511
#
#
# Mechanical properties :
#
#
# Convention : Reuss Voigt Hill
#
# Bulk Modulus (GPa) = 57.89927 64.57572 61.23749
# Shear Modulus (GPa) = 23.29040 27.27723 25.28382
#
# Velocity S-wave (km/s) = 3.58325 3.87783 3.73344
# Velocity P-wave (km/s) = 7.00275 7.45987 7.23492
#
# Compressibility (1/GPa) = 0.01727138
#
# Stress axis : x y z
#
# Youngs Moduli (GPa) = 60.89585 52.50416 45.90636
#
# Poissons Ratio (x) = 0.20235 0.50183
# Poissons Ratio (y) = 0.23469 0.23891
# Poissons Ratio (z) = 0.66569 0.27325
#
# Static dielectric constant tensor:
#      x y z
#    x 3.528030 0.000000 0.136460 
#    y 0.000000 3.171030 0.000000 
#    z 0.136460 0.000000 3.379530 
# 
# 
# High freq. dielectric constant tensor:
#      x y z
#    x 1.710030 0.000000 0.001900 
#    y 0.000000 1.691260 0.000000 
#    z 0.001900 0.000000 1.705590 
# 
# From -- ./inp_files/353591.got.cif
#   From: 2010.06.25/outbox.cif.g09.slc.cpg/sg12_177_cif.got.tgz:353591.got - 2010.06.28 00:19:55.
