data_PCOD8106158
_publ_section_title
;
Structure prediction by ZEFSAII (Michael W. Deem and Ramdas Pophale) SiO2 
 PCOD8106158
Probable space group: C 2/M
;
_chemical_formula_sum "Si O2"
_cell_formula_units_Z 44
_cell_length_a 9.294239
_cell_length_b 9.726608
_cell_length_c 27.142260
_cell_angle_alpha 90.000000
_cell_angle_beta 59.183971
_cell_angle_gamma 90.000000
_cell_volume 2107.277323
_symmetry_space_group_name_H-M "C 2/M"
_symmetry_group_IT_number 12
_symmetry_cell_setting 'monoclinic'
loop_
_space_group_symop_operation_xyz
x,y,z
-x,y,-z
-x,-y,-z
x,-y,z
1/2+x,1/2+y,z
1/2-x,1/2+y,-z
1/2-x,1/2-y,-z
1/2+x,1/2-y,z
loop_
_atom_site_type_symbol
_atom_site_label
_atom_site_fract_x
_atom_site_fract_y
_atom_site_fract_z
Si Si1 0.135253 0.650262 0.576300
Si Si2 0.500000 0.749191 0.500000
Si Si3 0.996361 0.842054 0.683461
Si Si4 0.543982 0.345712 0.123699
Si Si5 0.350847 0.344548 0.060472
Si Si6 0.812334 0.843774 0.251623
O O1 0.089602 0.500000 0.606550
O O2 0.336597 0.656037 0.537988
O O3 0.044903 0.657103 0.539138
O O4 0.066149 0.772247 0.622083
O O5 0.138165 0.834264 0.700018
O O6 0.835764 0.762530 0.732254
O O7 0.949156 0.000000 0.679706
O O8 0.617029 0.500000 0.114361
O O9 0.396452 0.337238 0.109796
O O10 0.689215 0.246876 0.079918
O O11 0.467499 0.300452 0.189640
O O12 0.307468 0.500000 0.051919
O O13 0.500000 0.287629 0.000000
O O14 0.756495 0.000000 0.248352
#
# Coordination Sequence:
#
# PCOD8106158 Si02
#       6
#     8   4   8   8   8   8
#     4  11  23  41  63  87 117 152 188 231 281 332
#     4  10  24  40  62  90 116 148 192 232 274 334
#     4  11  24  39  59  87 116 148 190 234 280 337
#     4  10  21  37  58  83 112 149 192 235 283 339
#     4  10  21  36  55  83 116 149 189 236 285 339
#     4  10  22  40  59  83 115 150 190 236 284 336
#
# _framework density 20.880023999999999
#
# number of rings (size 3 to 8) (size 9 to 14) (size 15 to 20)
#    0.000    1.636    0.000    3.818    0.000   10.545 
#    0.000    0.000    0.000    0.000    0.000    0.000 
#    0.000    0.000    0.000    0.000    0.000    0.000 
#
# Total GULP energy -272856.515401 kJ/mol
# GULP energy per Si atom -12402.568882 kJ/mol
# Density = 2.083250 g / cm^3
# Si number density = 20.880024 Si / 1000 Ang^3
#
#
#
# Elastic Constant Matrix: (Units=GPa)
#
#
# Indices 1 2 3 4 5 6 
#
# 1 75.5676 32.1751 16.4039 0.0000 -4.2847 0.0000
# 2 32.1751 122.7629 40.1953 0.0000 -14.2657 0.0000
# 3 16.4039 40.1953 97.6577 0.0000 -1.6389 0.0000
# 4 0.0000 0.0000 0.0000 35.2085 0.0000 -6.8007
# 5 -4.2847 -14.2657 -1.6389 0.0000 32.2275 0.0000
# 6 0.0000 0.0000 0.0000 -6.8007 0.0000 22.9949
#
#
#
# Elastic Compliance Matrix: (Units=1/GPa)
#
#
# Indices 1 2 3 4 5 6 
#
# 1 0.014991 -0.003540 -0.001055 0.000000 0.000372 0.000000
# 2 -0.003540 0.010788 -0.003777 0.000000 0.004113 0.000000
# 3 -0.001055 -0.003777 0.011951 0.000000 -0.001204 0.000000
# 4 0.000000 0.000000 0.000000 0.030123 0.000000 0.008909
# 5 0.000372 0.004113 -0.001204 0.000000 0.032838 0.000000
# 6 0.000000 0.000000 0.000000 0.008909 0.000000 0.046123
#
#
# Mechanical properties :
#
#
# Convention : Reuss Voigt Hill
#
# Bulk Modulus (GPa) = 47.64891 52.61521 50.13206
# Shear Modulus (GPa) = 29.31647 31.90045 30.60846
#
# Velocity S-wave (km/s) = 3.75112 3.91295 3.83289
# Velocity P-wave (km/s) = 6.45222 6.75784 6.60680
#
# Compressibility (1/GPa) = 0.02098684
#
# Stress axis : x y z
#
# Youngs Moduli (GPa) = 66.70832 92.69427 83.67346
#
# Poissons Ratio (x) = 0.32817 0.08824
# Poissons Ratio (y) = 0.23617 0.31600
# Poissons Ratio (z) = 0.07035 0.35007
#
# Static dielectric constant tensor:
#      x y z
#    x 3.661420 0.000000 0.075970 
#    y 0.000000 3.748270 0.000000 
#    z 0.075970 0.000000 3.781910 
# 
# 
# High freq. dielectric constant tensor:
#      x y z
#    x 1.813760 0.000000 0.004680 
#    y 0.000000 1.817980 0.000000 
#    z 0.004680 0.000000 1.827510 
# 
# From -- ./inp_files/371821.got.cif
#   From: 2010.06.25/outbox.cif.g09.slc.cpg/sg12_186_cif.got.tgz:371821.got - 2010.06.28 00:19:55.
