data_PCOD8106523
_publ_section_title
;
Structure prediction by ZEFSAII (Michael W. Deem and Ramdas Pophale) SiO2 
 PCOD8106523
Probable space group: C 2/M
;
_chemical_formula_sum "Si O2"
_cell_formula_units_Z 48
_cell_length_a 12.381407
_cell_length_b 19.576227
_cell_length_c 11.359838
_cell_angle_alpha 90.000000
_cell_angle_beta 63.561702
_cell_angle_gamma 90.000000
_cell_volume 2465.444228
_symmetry_space_group_name_H-M "C 2/M"
_symmetry_group_IT_number 12
_symmetry_cell_setting 'monoclinic'
loop_
_space_group_symop_operation_xyz
x,y,z
-x,y,-z
-x,-y,-z
x,-y,z
1/2+x,1/2+y,z
1/2-x,1/2+y,-z
1/2-x,1/2-y,-z
1/2+x,1/2-y,z
loop_
_atom_site_type_symbol
_atom_site_label
_atom_site_fract_x
_atom_site_fract_y
_atom_site_fract_z
Si Si1 0.686504 0.000000 0.859165
Si Si2 0.887873 0.076211 0.302724
Si Si3 0.363790 0.295081 0.464619
Si Si4 0.110839 0.240969 0.284439
Si Si5 0.207765 0.610670 0.188174
Si Si6 0.044190 0.500000 0.169675
Si Si7 0.342716 0.384734 0.877794
O O1 0.600733 0.000000 0.783793
O O2 0.770813 0.933027 0.821201
O O3 0.605530 0.000000 0.013867
O O4 0.850903 0.127464 0.424978
O O5 0.787103 0.076976 0.250656
O O6 0.017487 0.094473 0.184618
O O7 0.891386 0.000000 0.354463
O O8 0.250000 0.250000 0.500000
O O9 0.381349 0.298146 0.595305
O O10 0.466480 0.255551 0.338187
O O11 0.170895 0.314507 0.249709
O O12 0.173053 0.193262 0.156784
O O13 0.086386 0.566851 0.222638
O O14 0.289482 0.611389 0.033228
#
# Coordination Sequence:
#
# PCOD8106523 Si02
#       7
#     4   8   8   8   8   4   8
#     4   9  18  37  53  77 127 157 190 232 284 361
#     4  11  21  37  64  93 120 153 199 250 304 358
#     4  10  21  41  61  81 117 161 201 248 298 340
#     4  10  22  38  60  86 115 158 204 246 294 352
#     4  11  20  36  61  89 125 153 194 245 306 362
#     4   9  20  33  55  83 114 167 190 225 294 353
#     4  10  21  36  59  91 121 156 193 245 301 363
#
# _framework density 19.469107999999999
#
# number of rings (size 3 to 8) (size 9 to 14) (size 15 to 20)
#    0.000    1.833    3.333    1.000    0.000    2.000 
#    1.500    1.667    1.833    2.000    0.000    0.000 
#    0.000    0.000    0.000    0.000    0.000    0.000 
#
# Total GULP energy -297497.232981 kJ/mol
# GULP energy per Si atom -12395.718041 kJ/mol
# Density = 1.942480 g / cm^3
# Si number density = 19.469108 Si / 1000 Ang^3
#
#
#
# Elastic Constant Matrix: (Units=GPa)
#
#
# Indices 1 2 3 4 5 6 
#
# 1 116.8065 43.8383 26.6778 0.0000 3.5464 0.0000
# 2 43.8383 145.0788 52.3423 0.0000 -0.7457 0.0000
# 3 26.6778 52.3423 59.4415 0.0000 4.3444 0.0000
# 4 0.0000 0.0000 0.0000 26.6922 0.0000 -1.4901
# 5 3.5464 -0.7457 4.3444 0.0000 21.6626 0.0000
# 6 0.0000 0.0000 0.0000 -1.4901 0.0000 30.5150
#
#
#
# Elastic Compliance Matrix: (Units=1/GPa)
#
#
# Indices 1 2 3 4 5 6 
#
# 1 0.009965 -0.002104 -0.002533 0.000000 -0.001196 0.000000
# 2 -0.002104 0.010647 -0.008610 0.000000 0.002438 0.000000
# 3 -0.002533 -0.008610 0.025913 0.000000 -0.005078 0.000000
# 4 0.000000 0.000000 0.000000 0.037566 0.000000 0.001834
# 5 -0.001196 0.002438 -0.005078 0.000000 0.047461 0.000000
# 6 0.000000 0.000000 0.000000 0.001834 0.000000 0.032860
#
#
# Mechanical properties :
#
#
# Convention : Reuss Voigt Hill
#
# Bulk Modulus (GPa) = 49.91729 63.00484 56.46106
# Shear Modulus (GPa) = 25.30588 29.00519 27.15553
#
# Velocity S-wave (km/s) = 3.60918 3.86399 3.73876
# Velocity P-wave (km/s) = 6.56225 7.23456 6.90659
#
# Compressibility (1/GPa) = 0.02003314
#
# Stress axis : x y z
#
# Youngs Moduli (GPa) = 100.34680 93.92125 38.59130
#
# Poissons Ratio (x) = 0.19757 0.09774
# Poissons Ratio (y) = 0.21109 0.33226
# Poissons Ratio (z) = 0.25416 0.80863
#
# Static dielectric constant tensor:
#      x y z
#    x 3.507220 0.000000 -0.210480 
#    y 0.000000 3.509950 0.000000 
#    z -0.210480 0.000000 3.248730 
# 
# 
# High freq. dielectric constant tensor:
#      x y z
#    x 1.770450 0.000000 0.000320 
#    y 0.000000 1.765150 0.000000 
#    z 0.000320 0.000000 1.739410 
# 
# From -- ./inp_files/131697.got.cif
#   From: 2010.06.25/outbox.cif.g09.slc.cpg/sg12_66_cif.got.tgz:131697.got - 2010.06.28 00:19:55.
