data_PCOD8106804
_publ_section_title
;
Structure prediction by ZEFSAII (Michael W. Deem and Ramdas Pophale) SiO2 
 PCOD8106804
Probable space group: C 2/M
;
_chemical_formula_sum "Si O2"
_cell_formula_units_Z 48
_cell_length_a 19.252338
_cell_length_b 8.536183
_cell_length_c 21.970419
_cell_angle_alpha 90.000000
_cell_angle_beta 44.534195
_cell_angle_gamma 90.000000
_cell_volume 2532.275391
_symmetry_space_group_name_H-M "C 2/M"
_symmetry_group_IT_number 12
_symmetry_cell_setting 'monoclinic'
loop_
_space_group_symop_operation_xyz
x,y,z
-x,y,-z
-x,-y,-z
x,-y,z
1/2+x,1/2+y,z
1/2-x,1/2+y,-z
1/2-x,1/2-y,-z
1/2+x,1/2-y,z
loop_
_atom_site_type_symbol
_atom_site_label
_atom_site_fract_x
_atom_site_fract_y
_atom_site_fract_z
Si Si1 0.073660 0.184366 0.404411
Si Si2 0.980729 0.819766 0.205121
Si Si3 0.078856 0.819240 0.266587
Si Si4 0.788134 0.182066 0.135297
Si Si5 0.842819 0.682895 0.978307
Si Si6 0.703257 0.183920 0.741031
O O1 0.036217 0.227729 0.359685
O O2 0.185904 0.245623 0.342927
O O3 0.000000 0.263274 0.500000
O O4 0.073938 0.000000 0.414096
O O5 0.994998 0.790759 0.268444
O O6 0.055935 0.712536 0.120680
O O7 0.868860 0.773425 0.259878
O O8 0.001148 0.000000 0.175681
O O9 0.173649 0.715017 0.190770
O O10 0.114616 0.000000 0.245715
O O11 0.823604 0.276482 0.172508
O O12 0.804841 0.000000 0.137198
O O13 0.853682 0.235947 0.037214
O O14 0.825701 0.500000 0.998089
O O15 0.750000 0.750000 0.000000
O O16 0.692460 0.000000 0.737376
#
# Coordination Sequence:
#
# PCOD8106804 Si02
#       6
#     8   8   8   8   8   8
#     4   8  15  32  59  85 106 138 184 227 273 334
#     4  11  22  36  54  79 113 149 186 230 278 324
#     4   9  18  33  55  80 109 145 184 227 274 326
#     4  11  21  35  56  80 108 146 189 231 274 324
#     4  12  23  36  55  81 111 146 190 231 270 318
#     4  10  21  37  56  80 112 146 183 230 282 331
#
# _framework density 18.955283000000001
#
# number of rings (size 3 to 8) (size 9 to 14) (size 15 to 20)
#    0.000    1.833    1.667    5.000    0.000    1.333 
#    0.000    4.167    0.000   12.500    0.000    0.000 
#    0.000    0.000    0.000    0.000    0.000    0.000 
#
# Total GULP energy -297634.740295 kJ/mol
# GULP energy per Si atom -12401.447512 kJ/mol
# Density = 1.891214 g / cm^3
# Si number density = 18.955283 Si / 1000 Ang^3
#
#
#
# Elastic Constant Matrix: (Units=GPa)
#
#
# Indices 1 2 3 4 5 6 
#
# 1 131.8841 16.2493 53.2935 0.0000 6.3615 0.0000
# 2 16.2493 56.4138 12.1887 0.0002 3.0843 0.0001
# 3 53.2935 12.1887 125.6631 0.0000 12.6637 -0.0001
# 4 0.0000 0.0002 0.0000 15.7016 0.0000 -1.0781
# 5 6.3615 3.0843 12.6637 0.0000 21.8962 0.0001
# 6 0.0000 0.0001 -0.0001 -1.0781 0.0001 30.6964
#
#
#
# Elastic Compliance Matrix: (Units=1/GPa)
#
#
# Indices 1 2 3 4 5 6 
#
# 1 0.009342 -0.001865 -0.003753 0.000000 -0.000281 0.000000
# 2 -0.001865 0.018533 -0.000848 0.000000 -0.001579 0.000000
# 3 -0.003753 -0.000848 0.010098 0.000000 -0.004631 0.000000
# 4 0.000000 0.000000 0.000000 0.063842 0.000000 0.002242
# 5 -0.000281 -0.001579 -0.004631 0.000000 0.048652 0.000000
# 6 0.000000 0.000000 0.000000 0.002242 0.000000 0.032656
#
#
# Mechanical properties :
#
#
# Convention : Reuss Voigt Hill
#
# Bulk Modulus (GPa) = 39.93173 53.04709 46.48941
# Shear Modulus (GPa) = 24.46169 29.14079 26.80124
#
# Velocity S-wave (km/s) = 3.59624 3.92515 3.76429
# Velocity P-wave (km/s) = 6.19322 6.97055 6.59335
#
# Compressibility (1/GPa) = 0.02504274
#
# Stress axis : x y z
#
# Youngs Moduli (GPa) = 107.04101 53.95859 99.02729
#
# Poissons Ratio (x) = 0.10062 0.37163
# Poissons Ratio (y) = 0.19960 0.08394
# Poissons Ratio (z) = 0.40171 0.04574
#
# Static dielectric constant tensor:
#      x y z
#    x 3.496330 0.000000 0.151030 
#    y 0.000000 3.357820 0.000000 
#    z 0.151030 0.000000 3.633080 
# 
# 
# High freq. dielectric constant tensor:
#      x y z
#    x 1.736150 0.000000 0.015010 
#    y 0.000000 1.729410 0.000000 
#    z 0.015010 0.000000 1.721500 
# 
# From -- ./inp_files/313611.got.cif
#   From: 2010.06.25/outbox.cif.g09.slc.cpg/sg12_157_cif.got.tgz:313611.got - 2010.06.28 00:19:55.
