data_PCOD8106007
_publ_section_title
;
Structure prediction by ZEFSAII (Michael W. Deem and Ramdas Pophale) SiO2 
 PCOD8106007
Probable space group: C 2/M
;
_chemical_formula_sum "Si O2"
_cell_formula_units_Z 40
_cell_length_a 10.069079
_cell_length_b 9.206327
_cell_length_c 22.287895
_cell_angle_alpha 90.000000
_cell_angle_beta 83.547348
_cell_angle_gamma 90.000000
_cell_volume 2052.982367
_symmetry_space_group_name_H-M "C 2/M"
_symmetry_group_IT_number 12
_symmetry_cell_setting 'monoclinic'
loop_
_space_group_symop_operation_xyz
x,y,z
-x,y,-z
-x,-y,-z
x,-y,z
1/2+x,1/2+y,z
1/2-x,1/2+y,-z
1/2-x,1/2-y,-z
1/2+x,1/2-y,z
loop_
_atom_site_type_symbol
_atom_site_label
_atom_site_fract_x
_atom_site_fract_y
_atom_site_fract_z
Si Si1 0.982251 0.168245 0.628226
Si Si2 0.366687 0.169815 0.169523
Si Si3 0.082212 0.830481 0.234575
Si Si4 0.731053 0.169189 0.438828
Si Si5 0.857268 0.330566 0.033867
O O1 0.952834 0.222183 0.696863
O O2 0.897493 0.265049 0.587163
O O3 0.138603 0.193169 0.608568
O O4 0.941858 0.000000 0.621251
O O5 0.235878 0.208779 0.214512
O O6 0.492882 0.248936 0.191047
O O7 0.347799 0.225120 0.102631
O O8 0.398155 0.000000 0.168822
O O9 0.054093 0.000000 0.228188
O O10 0.750000 0.250000 0.500000
O O11 0.705010 0.000000 0.452509
O O12 0.826311 0.500000 0.031757
O O13 0.750000 0.250000 0.000000
O O14 0.000000 0.290547 0.000000
#
# Coordination Sequence:
#
# PCOD8106007 Si02
#       5
#     8   8   8   8   8
#     4  10  22  39  57  81 112 142 178 224 268 317
#     4  10  21  36  55  81 110 141 181 225 268 319
#     4  10  21  37  57  81 109 142 180 222 269 320
#     4  11  23  38  58  83 110 143 181 220 267 320
#     4  10  21  36  54  79 110 143 181 224 269 319
#
# _framework density 19.483848999999999
#
# number of rings (size 3 to 8) (size 9 to 14) (size 15 to 20)
#    0.000    1.800    0.000    3.600    0.000    6.800 
#    0.000    0.000    0.000    0.000    0.000    0.000 
#    0.000    0.000    0.000    0.000    0.000    0.000 
#
# Total GULP energy -248121.246072 kJ/mol
# GULP energy per Si atom -12406.062304 kJ/mol
# Density = 1.943950 g / cm^3
# Si number density = 19.483849 Si / 1000 Ang^3
#
#
#
# Elastic Constant Matrix: (Units=GPa)
#
#
# Indices 1 2 3 4 5 6 
#
# 1 55.3264 34.2137 9.3452 0.0000 15.2535 0.0000
# 2 34.2137 58.2995 26.1649 0.0000 11.3320 0.0000
# 3 9.3452 26.1649 99.0763 0.0000 1.3100 0.0000
# 4 0.0000 0.0000 0.0000 31.3003 0.0000 11.2925
# 5 15.2535 11.3320 1.3100 0.0000 41.9980 0.0000
# 6 0.0000 0.0000 0.0000 11.2925 0.0000 35.2216
#
#
#
# Elastic Compliance Matrix: (Units=1/GPa)
#
#
# Indices 1 2 3 4 5 6 
#
# 1 0.030232 -0.017315 0.001805 0.000000 -0.006364 0.000000
# 2 -0.017315 0.030529 -0.006406 0.000000 -0.001749 0.000000
# 3 0.001805 -0.006406 0.011605 0.000000 0.000711 0.000000
# 4 0.000000 0.000000 0.000000 0.036127 0.000000 -0.011583
# 5 -0.006364 -0.001749 0.000711 0.000000 0.026572 0.000000
# 6 0.000000 0.000000 0.000000 -0.011583 0.000000 0.032105
#
#
# Mechanical properties :
#
#
# Convention : Reuss Voigt Hill
#
# Bulk Modulus (GPa) = 35.04489 39.12775 37.08632
# Shear Modulus (GPa) = 22.67424 31.23588 26.95506
#
# Velocity S-wave (km/s) = 3.41507 4.00830 3.72352
# Velocity P-wave (km/s) = 5.79448 6.44575 6.12877
#
# Compressibility (1/GPa) = 0.02853483
#
# Stress axis : x y z
#
# Youngs Moduli (GPa) = 33.07767 32.75535 86.16728
#
# Poissons Ratio (x) = 0.56716 -0.15556
# Poissons Ratio (y) = 0.57274 0.55200
# Poissons Ratio (z) = -0.05971 0.20983
#
# Static dielectric constant tensor:
#      x y z
#    x 3.555250 0.000000 -0.117350 
#    y 0.000000 3.500780 0.000000 
#    z -0.117350 0.000000 3.871040 
# 
# 
# High freq. dielectric constant tensor:
#      x y z
#    x 1.770130 0.000000 -0.005690 
#    y 0.000000 1.753320 0.000000 
#    z -0.005690 0.000000 1.777180 
# 
# From -- ./inp_files/261036.got.cif
#   From: 2010.06.25/outbox.cif.g09.slc.cpg/sg12_131_cif.got.tgz:261036.got - 2010.06.28 00:19:55.
