data_PCOD8106539
_publ_section_title
;
Structure prediction by ZEFSAII (Michael W. Deem and Ramdas Pophale) SiO2 
 PCOD8106539
Probable space group: C 2/M
;
_chemical_formula_sum "Si O2"
_cell_formula_units_Z 56
_cell_length_a 26.311017
_cell_length_b 17.858968
_cell_length_c 9.534384
_cell_angle_alpha 90.000000
_cell_angle_beta 138.328419
_cell_angle_gamma 90.000000
_cell_volume 2978.631633
_symmetry_space_group_name_H-M "C 2/M"
_symmetry_group_IT_number 12
_symmetry_cell_setting 'monoclinic'
loop_
_space_group_symop_operation_xyz
x,y,z
-x,y,-z
-x,-y,-z
x,-y,z
1/2+x,1/2+y,z
1/2-x,1/2+y,-z
1/2-x,1/2-y,-z
1/2+x,1/2-y,z
loop_
_atom_site_type_symbol
_atom_site_label
_atom_site_fract_x
_atom_site_fract_y
_atom_site_fract_z
Si Si1 0.948495 0.142157 0.776434
Si Si2 0.948410 0.277208 0.101318
Si Si3 0.465849 0.085430 0.583718
Si Si4 0.573871 0.416830 0.565155
Si Si5 0.179972 0.677250 0.696882
Si Si6 0.663218 0.750266 0.368000
Si Si7 0.341032 0.704752 0.106902
O O1 0.941522 0.086988 0.632133
O O2 0.866515 0.164143 0.676446
O O3 0.985030 0.222730 0.813495
O O4 0.000000 0.100661 0.000000
O O5 0.908232 0.231689 0.143959
O O6 0.985582 0.356363 0.222073
O O7 0.886980 0.294296 0.852064
O O8 0.500000 0.091367 0.500000
O O9 0.374762 0.105168 0.393372
O O10 0.474360 0.000000 0.658248
O O11 0.500000 0.394056 0.500000
O O12 0.600875 0.500000 0.658482
O O13 0.638790 0.360228 0.742635
O O14 0.151140 0.713454 0.494613
O O15 0.176082 0.725182 0.830520
O O16 0.271885 0.667706 0.873260
O O17 0.750000 0.750000 0.500000
#
# Coordination Sequence:
#
# PCOD8106539 Si02
#       7
#     8   8   8   8   8   8   8
#     4  10  21  36  60  84 112 155 191 240 290 344
#     4  11  20  36  62  89 115 148 198 251 291 347
#     4  11  23  39  61  89 123 159 199 247 300 360
#     4  11  22  36  58  88 119 149 188 238 297 357
#     4  11  22  37  61  88 113 153 200 242 297 346
#     4  11  21  35  58  90 116 147 200 249 290 339
#     4  11  21  36  62  88 114 150 194 253 295 343
#
# _framework density 18.800578999999999
#
# number of rings (size 3 to 8) (size 9 to 14) (size 15 to 20)
#    0.000    1.143    7.143    0.000    0.000    0.857 
#    0.000    1.429    0.000    0.857    0.000    0.000 
#    0.000    0.000    0.000    0.000    0.000    0.000 
#
# Total GULP energy -346941.507274 kJ/mol
# GULP energy per Si atom -12390.768117 kJ/mol
# Density = 1.875779 g / cm^3
# Si number density = 18.800579 Si / 1000 Ang^3
#
#
#
# Elastic Constant Matrix: (Units=GPa)
#
#
# Indices 1 2 3 4 5 6 
#
# 1 67.2454 3.3081 16.0175 0.0000 5.8808 0.0000
# 2 3.3081 54.8094 29.9373 0.0000 12.0552 0.0000
# 3 16.0175 29.9373 106.5455 0.0000 -3.5675 0.0000
# 4 0.0000 0.0000 0.0000 9.8510 0.0000 -0.2597
# 5 5.8808 12.0552 -3.5675 0.0000 36.4893 0.0000
# 6 0.0000 0.0000 0.0000 -0.2597 0.0000 1.9910
#
#
#
# Elastic Compliance Matrix: (Units=1/GPa)
#
#
# Indices 1 2 3 4 5 6 
#
# 1 0.015770 0.001322 -0.002851 0.000000 -0.003257 0.000000
# 2 0.001322 0.024086 -0.007264 0.000000 -0.008881 0.000000
# 3 -0.002851 -0.007264 0.011990 0.000000 0.004032 0.000000
# 4 0.000000 0.000000 0.000000 0.101862 0.000000 0.013286
# 5 -0.003257 -0.008881 0.004032 0.000000 0.031258 0.000000
# 6 0.000000 0.000000 0.000000 0.013286 0.000000 0.504002
#
#
# Mechanical properties :
#
#
# Convention : Reuss Voigt Hill
#
# Bulk Modulus (GPa) = 29.18860 36.34735 32.76797
# Shear Modulus (GPa) = 6.96403 21.62209 14.29306
#
# Velocity S-wave (km/s) = 1.92671 3.39496 2.76025
# Velocity P-wave (km/s) = 4.52865 5.89429 5.25601
#
# Compressibility (1/GPa) = 0.03425995
#
# Stress axis : x y z
#
# Youngs Moduli (GPa) = 63.41211 41.51778 83.40087
#
# Poissons Ratio (x) = -0.05488 0.23780
# Poissons Ratio (y) = -0.08383 0.60581
# Poissons Ratio (z) = 0.18080 0.30158
#
# Static dielectric constant tensor:
#      x y z
#    x 3.559980 0.000000 0.169200 
#    y 0.000000 3.165080 0.000000 
#    z 0.169200 0.000000 3.682570 
# 
# 
# High freq. dielectric constant tensor:
#      x y z
#    x 1.744700 0.000000 -0.003320 
#    y 0.000000 1.692320 0.000000 
#    z -0.003320 0.000000 1.744670 
# 
# From -- ./inp_files/106029.got.cif
#   From: 2010.06.25/outbox.cif.g09.slc.cpg/sg12_54_cif.got.tgz:106029.got - 2010.06.28 00:19:55.
