data_PCOD8106727
_publ_section_title
;
Structure prediction by ZEFSAII (Michael W. Deem and Ramdas Pophale) SiO2 
 PCOD8106727
Probable space group: C 2/M
;
_chemical_formula_sum "Si O2"
_cell_formula_units_Z 56
_cell_length_a 12.472796
_cell_length_b 13.860566
_cell_length_c 24.351159
_cell_angle_alpha 90.000000
_cell_angle_beta 39.597888
_cell_angle_gamma 90.000000
_cell_volume 2683.326213
_symmetry_space_group_name_H-M "C 2/M"
_symmetry_group_IT_number 12
_symmetry_cell_setting 'monoclinic'
loop_
_space_group_symop_operation_xyz
x,y,z
-x,y,-z
-x,-y,-z
x,-y,z
1/2+x,1/2+y,z
1/2-x,1/2+y,-z
1/2-x,1/2-y,-z
1/2+x,1/2-y,z
loop_
_atom_site_type_symbol
_atom_site_label
_atom_site_fract_x
_atom_site_fract_y
_atom_site_fract_z
Si Si1 0.303479 0.609097 0.989699
Si Si2 0.734513 0.238670 0.727045
Si Si3 0.067945 0.610832 0.178267
Si Si4 0.752066 0.889393 0.887511
Si Si5 0.521424 0.392237 0.302269
Si Si6 0.623481 0.287567 0.885417
Si Si7 0.666188 0.889022 0.401782
O O1 0.366769 0.500000 0.959625
O O2 0.285033 0.651712 0.935636
O O3 0.444325 0.664199 0.970403
O O4 0.126398 0.616901 0.091354
O O5 0.605696 0.168946 0.744937
O O6 0.889140 0.178608 0.691000
O O7 0.633158 0.289640 0.815764
O O8 0.816561 0.319196 0.656638
O O9 0.037580 0.500000 0.207528
O O10 0.214545 0.654677 0.157581
O O11 0.920805 0.878126 0.784269
O O12 0.613599 0.821618 0.913031
O O13 0.685946 0.000000 0.914623
O O14 0.567955 0.500000 0.303130
O O15 0.322093 0.374514 0.381910
O O16 0.500000 0.859453 0.500000
O O17 0.658188 0.000000 0.384266
#
# Coordination Sequence:
#
# PCOD8106727 Si02
#       7
#     8   8   8   8   8   8   8
#     4  10  21  37  55  76 110 155 199 245 290 328
#     4  11  22  38  61  84 112 150 186 229 283 340
#     4  11  24  39  55  81 115 152 196 241 285 333
#     4   9  19  36  56  80 113 153 198 242 282 330
#     4   9  18  36  60  85 115 151 189 230 281 335
#     4  11  21  34  57  84 112 150 196 242 288 336
#     4  10  22  41  65  92 118 143 178 225 276 339
#
# _framework density 20.869620000000001
#
# number of rings (size 3 to 8) (size 9 to 14) (size 15 to 20)
#    0.000    1.857    0.000    4.714    0.000    8.000 
#    0.000    2.143    0.000   15.429    0.000    0.000 
#    0.000    0.000    0.000    0.000    0.000    0.000 
#
# Total GULP energy -347249.001782 kJ/mol
# GULP energy per Si atom -12401.750064 kJ/mol
# Density = 2.082212 g / cm^3
# Si number density = 20.869620 Si / 1000 Ang^3
#
#
#
# Elastic Constant Matrix: (Units=GPa)
#
#
# Indices 1 2 3 4 5 6 
#
# 1 74.7162 39.1514 24.3067 -0.0001 -1.1292 0.0000
# 2 39.1514 101.8505 33.4749 0.0001 5.6474 0.0000
# 3 24.3067 33.4749 68.5262 0.0005 -11.1385 0.0000
# 4 -0.0001 0.0001 0.0005 29.6468 0.0000 1.9195
# 5 -1.1292 5.6474 -11.1385 0.0000 25.5317 0.0000
# 6 0.0000 0.0000 0.0000 1.9195 0.0000 37.5499
#
#
#
# Elastic Compliance Matrix: (Units=1/GPa)
#
#
# Indices 1 2 3 4 5 6 
#
# 1 0.017431 -0.005634 -0.003340 0.000000 0.000560 0.000000
# 2 -0.005634 0.014272 -0.005949 0.000000 -0.006001 0.000000
# 3 -0.003340 -0.005949 0.020314 0.000000 0.010030 0.000000
# 4 0.000000 0.000000 0.000000 0.033842 0.000000 -0.001730
# 5 0.000560 -0.006001 0.010030 0.000000 0.044895 0.000000
# 6 0.000000 0.000000 0.000000 -0.001730 0.000000 0.026720
#
#
# Mechanical properties :
#
#
# Convention : Reuss Voigt Hill
#
# Bulk Modulus (GPa) = 45.10204 48.77320 46.93762
# Shear Modulus (GPa) = 25.67922 28.42301 27.05111
#
# Velocity S-wave (km/s) = 3.51160 3.69444 3.60418
# Velocity P-wave (km/s) = 6.17252 6.45133 6.31347
#
# Compressibility (1/GPa) = 0.02217194
#
# Stress axis : x y z
#
# Youngs Moduli (GPa) = 57.36871 70.06745 49.22720
#
# Poissons Ratio (x) = 0.39476 0.16440
# Poissons Ratio (y) = 0.32321 0.29285
# Poissons Ratio (z) = 0.19160 0.41682
#
# Static dielectric constant tensor:
#      x y z
#    x 3.617310 0.000000 -0.060730 
#    y 0.000000 3.994190 0.000000 
#    z -0.060730 0.000000 3.584050 
# 
# 
# High freq. dielectric constant tensor:
#      x y z
#    x 1.815690 0.000000 -0.015410 
#    y 0.000000 1.834140 0.000000 
#    z -0.015410 0.000000 1.787780 
# 
# From -- ./inp_files/358179.got.cif
#   From: 2010.06.25/outbox.cif.g09.slc.cpg/sg12_180_cif.got.tgz:358179.got - 2010.06.28 00:19:55.
