data_PCOD8106894
_publ_section_title
;
Structure prediction by ZEFSAII (Michael W. Deem and Ramdas Pophale) SiO2 
 PCOD8106894
Probable space group: C 2/M
;
_chemical_formula_sum "Si O2"
_cell_formula_units_Z 56
_cell_length_a 8.757601
_cell_length_b 18.943120
_cell_length_c 19.676751
_cell_angle_alpha 90.000000
_cell_angle_beta 63.571935
_cell_angle_gamma 90.000000
_cell_volume 2923.160535
_symmetry_space_group_name_H-M "C 2/M"
_symmetry_group_IT_number 12
_symmetry_cell_setting 'monoclinic'
loop_
_space_group_symop_operation_xyz
x,y,z
-x,y,-z
-x,-y,-z
x,-y,z
1/2+x,1/2+y,z
1/2-x,1/2+y,-z
1/2-x,1/2-y,-z
1/2+x,1/2-y,z
loop_
_atom_site_type_symbol
_atom_site_label
_atom_site_fract_x
_atom_site_fract_y
_atom_site_fract_z
Si Si1 0.453294 0.418116 0.867795
Si Si2 0.688883 0.081884 0.132205
Si Si3 0.766466 0.823621 0.412617
Si Si4 0.908300 0.676379 0.412617
Si Si5 0.819874 0.672470 1.000000
Si Si6 0.037769 0.082864 0.289084
Si Si7 0.384063 0.917137 0.289084
O O1 0.396538 0.500000 0.882488
O O2 0.622224 0.405016 0.877776
O O3 0.486648 0.394264 0.784058
O O4 0.304880 0.370023 0.926204
O O5 0.657286 0.129978 0.073797
O O6 0.554764 0.105734 0.215943
O O7 0.661516 0.000000 0.117510
O O8 0.864424 0.750000 0.385576
O O9 0.719754 0.838833 0.500000
O O10 0.601555 0.821245 0.398445
O O11 0.889085 0.885287 0.364080
O O12 0.882754 0.614713 0.364080
O O13 0.750000 0.750000 0.000000
O O14 0.000000 0.679866 0.000000
O O15 0.221462 0.109619 0.278538
O O16 0.020310 0.000000 0.300643
O O17 0.378399 0.000000 0.300645
#
# Coordination Sequence:
#
# PCOD8106894 Si02
#       7
#     8   8   8   8   8   8   8
#     4  10  21  39  62  86 114 148 186 228 277 333
#     4  10  21  39  62  86 114 148 186 228 277 333
#     4  10  21  37  57  81 111 148 189 232 280 335
#     4  10  21  37  57  81 111 148 189 232 280 335
#     4  12  25  40  59  85 117 149 187 232 277 328
#     4  10  21  37  58  85 115 147 186 231 278 329
#     4  10  21  37  58  85 115 147 186 231 278 329
#
# _framework density 19.157346
#
# number of rings (size 3 to 8) (size 9 to 14) (size 15 to 20)
#    0.000    1.714    0.000    4.286    0.000    8.571 
#    0.000    8.571    0.000    0.000    0.000    0.000 
#    0.000    0.000    0.000    0.000    0.000    0.000 
#
# Total GULP energy -347343.774958 kJ/mol
# GULP energy per Si atom -12405.134820 kJ/mol
# Density = 1.911374 g / cm^3
# Si number density = 19.157346 Si / 1000 Ang^3
#
#
#
# Elastic Constant Matrix: (Units=GPa)
#
#
# Indices 1 2 3 4 5 6 
#
# 1 130.0516 57.5003 57.0655 0.0000 -0.5941 0.0000
# 2 57.5003 71.2343 64.1808 0.0000 -0.5452 0.0000
# 3 57.0655 64.1808 112.9217 0.0000 1.9948 0.0000
# 4 0.0000 0.0000 0.0000 -2.6162 0.0000 3.1479
# 5 -0.5941 -0.5452 1.9948 0.0000 39.9159 0.0000
# 6 0.0000 0.0000 0.0000 3.1479 0.0000 35.8949
#
#
#
# Elastic Compliance Matrix: (Units=1/GPa)
#
#
# Indices 1 2 3 4 5 6 
#
# 1 0.012029 -0.008670 -0.001153 0.000000 0.000118 0.000000
# 2 -0.008670 0.035079 -0.015576 0.000000 0.001128 0.000000
# 3 -0.001153 -0.015576 0.018312 0.000000 -0.001145 0.000000
# 4 0.000000 0.000000 0.000000 -0.345746 0.000000 0.030321
# 5 0.000118 0.001128 -0.001145 0.000000 0.025127 0.000000
# 6 0.000000 0.000000 0.000000 0.030321 0.000000 0.025200
#
#
# Mechanical properties :
#
#
# Convention : Reuss Voigt Hill
#
# Bulk Modulus (GPa) = 68.39518 74.63342 71.51430
# Shear Modulus (GPa) = -28.68188 23.66965 -2.50612
#
# Velocity S-wave (km/s) = -3.87353 3.51884 -1.14500
# Velocity P-wave (km/s) = 3.97161 7.45334 5.97185
#
# Compressibility (1/GPa) = 0.01462091
#
# Stress axis : x y z
#
# Youngs Moduli (GPa) = 83.13167 28.50704 54.60919
#
# Poissons Ratio (x) = 0.24715 0.06299
# Poissons Ratio (y) = 0.72073 0.85061
# Poissons Ratio (z) = 0.09589 0.44404
#
# Static dielectric constant tensor:
#      x y z
#    x 3.728080 0.000000 0.010680 
#    y 0.000000 3.478800 0.000000 
#    z 0.010680 0.000000 3.597490 
# 
# 
# High freq. dielectric constant tensor:
#      x y z
#    x 1.764980 0.000000 0.000800 
#    y 0.000000 1.741600 0.000000 
#    z 0.000800 0.000000 1.755210 
# 
# From -- ./inp_files/257039.got.cif
#   From: 2010.06.25/outbox.cif.g09.slc.cpg/sg12_129_cif.got.tgz:257039.got - 2010.06.28 00:19:55.
