data_PCOD8106541
_publ_section_title
;
Structure prediction by ZEFSAII (Michael W. Deem and Ramdas Pophale) SiO2 
 PCOD8106541
Probable space group: C 2/M
;
_chemical_formula_sum "Si O2"
_cell_formula_units_Z 48
_cell_length_a 29.105611
_cell_length_b 15.527328
_cell_length_c 11.387121
_cell_angle_alpha 90.000000
_cell_angle_beta 28.502722
_cell_angle_gamma 90.000000
_cell_volume 2455.773354
_symmetry_space_group_name_H-M "C 2/M"
_symmetry_group_IT_number 12
_symmetry_cell_setting 'monoclinic'
loop_
_space_group_symop_operation_xyz
x,y,z
-x,y,-z
-x,-y,-z
x,-y,z
1/2+x,1/2+y,z
1/2-x,1/2+y,-z
1/2-x,1/2-y,-z
1/2+x,1/2-y,z
loop_
_atom_site_type_symbol
_atom_site_label
_atom_site_fract_x
_atom_site_fract_y
_atom_site_fract_z
Si Si1 0.879578 0.673202 0.194009
Si Si2 0.795365 0.703135 0.740460
Si Si3 0.433849 0.500000 0.263409
Si Si4 0.181053 0.828690 0.527415
Si Si5 0.111830 0.176217 0.284291
Si Si6 0.935203 0.000000 0.526426
Si Si7 0.059354 0.403341 0.709558
O O1 0.878907 0.772221 0.242428
O O2 0.781056 0.642946 0.358516
O O3 0.896594 0.605225 0.259651
O O4 0.967810 0.662090 0.903644
O O5 0.794832 0.769721 0.636388
O O6 0.849584 0.743257 0.729746
O O7 0.858349 0.619577 0.568583
O O8 0.684790 0.672781 0.009523
O O9 0.372186 0.413794 0.393841
O O10 0.482835 0.500000 0.286013
O O11 0.500000 0.500000 0.000000
O O12 0.126144 0.087730 0.326048
O O13 0.000000 0.189817 0.500000
O O14 0.000000 0.000000 0.500000
O O15 0.024851 0.500000 0.763101
#
# Coordination Sequence:
#
# PCOD8106541 Si02
#       7
#     8   8   4   8   8   4   8
#     4   9  20  38  59  83 124 165 200 251 322 376
#     4  10  22  39  62  88 116 158 210 259 309 376
#     4  12  26  40  66  96 134 164 214 268 323 379
#     4  10  22  39  58  90 124 166 208 258 317 383
#     4  10  22  41  64  86 119 160 208 257 315 371
#     4  10  22  46  64  91 126 169 213 262 315 379
#     4  10  21  36  60  85 119 155 206 256 307 375
#
# _framework density 19.545777000000001
#
# number of rings (size 3 to 8) (size 9 to 14) (size 15 to 20)
#    0.000    2.000    1.667    1.000   10.500    0.000 
#   15.000    0.000    0.000    0.500    0.000    0.000 
#    0.000    0.000    0.000    0.000    0.000    0.000 
#
# Total GULP energy -297352.299748 kJ/mol
# GULP energy per Si atom -12389.679156 kJ/mol
# Density = 1.950129 g / cm^3
# Si number density = 19.545777 Si / 1000 Ang^3
#
#
#
# Elastic Constant Matrix: (Units=GPa)
#
#
# Indices 1 2 3 4 5 6 
#
# 1 83.3637 32.2814 47.8063 0.0000 -4.5227 0.0000
# 2 32.2814 94.2687 54.3700 0.0000 -2.5858 0.0000
# 3 47.8063 54.3700 169.8561 0.0000 -2.5525 0.0000
# 4 0.0000 0.0000 0.0000 21.7285 0.0000 5.1869
# 5 -4.5227 -2.5858 -2.5525 0.0000 31.0306 0.0000
# 6 0.0000 0.0000 0.0000 5.1869 0.0000 10.4389
#
#
#
# Elastic Compliance Matrix: (Units=1/GPa)
#
#
# Indices 1 2 3 4 5 6 
#
# 1 0.015202 -0.003319 -0.003191 0.000000 0.001677 0.000000
# 2 -0.003319 0.013752 -0.003462 0.000000 0.000377 0.000000
# 3 -0.003191 -0.003462 0.007892 0.000000 -0.000104 0.000000
# 4 0.000000 0.000000 0.000000 0.052216 0.000000 -0.025945
# 5 0.001677 0.000377 -0.000104 0.000000 0.032493 0.000000
# 6 0.000000 0.000000 0.000000 -0.025945 0.000000 0.108687
#
#
# Mechanical properties :
#
#
# Convention : Reuss Voigt Hill
#
# Bulk Modulus (GPa) = 59.16751 68.48932 63.82841
# Shear Modulus (GPa) = 19.54495 26.84166 23.19331
#
# Velocity S-wave (km/s) = 3.16564 3.70979 3.44846
# Velocity P-wave (km/s) = 6.61050 7.31208 6.97012
#
# Compressibility (1/GPa) = 0.01690117
#
# Stress axis : x y z
#
# Youngs Moduli (GPa) = 65.78155 72.71835 126.71079
#
# Poissons Ratio (x) = 0.24138 0.40432
# Poissons Ratio (y) = 0.21835 0.43866
# Poissons Ratio (z) = 0.20990 0.25175
#
# Static dielectric constant tensor:
#      x y z
#    x 3.534100 0.000000 0.120950 
#    y 0.000000 3.670430 0.000000 
#    z 0.120950 0.000000 3.855190 
# 
# 
# High freq. dielectric constant tensor:
#      x y z
#    x 1.749180 0.000000 0.002520 
#    y 0.000000 1.764160 0.000000 
#    z 0.002520 0.000000 1.763740 
# 
# From -- ./inp_files/189384.got.cif
#   From: 2010.06.25/outbox.cif.g09.slc.cpg/sg12_95_cif.got.tgz:189384.got - 2010.06.28 00:19:55.
