data_PCOD8106120
_publ_section_title
;
Structure prediction by ZEFSAII (Michael W. Deem and Ramdas Pophale) SiO2 
 PCOD8106120
Probable space group: C 2/M
;
_chemical_formula_sum "Si O2"
_cell_formula_units_Z 48
_cell_length_a 24.297384
_cell_length_b 8.574795
_cell_length_c 12.154370
_cell_angle_alpha 90.000000
_cell_angle_beta 103.607774
_cell_angle_gamma 90.000000
_cell_volume 2461.219208
_symmetry_space_group_name_H-M "C 2/M"
_symmetry_group_IT_number 12
_symmetry_cell_setting 'monoclinic'
loop_
_space_group_symop_operation_xyz
x,y,z
-x,y,-z
-x,-y,-z
x,-y,z
1/2+x,1/2+y,z
1/2-x,1/2+y,-z
1/2-x,1/2-y,-z
1/2+x,1/2-y,z
loop_
_atom_site_type_symbol
_atom_site_label
_atom_site_fract_x
_atom_site_fract_y
_atom_site_fract_z
Si Si1 0.709172 0.683925 0.072642
Si Si2 0.535539 0.183682 0.409799
Si Si3 0.662615 0.816127 0.471332
Si Si4 0.761696 0.183136 0.670283
Si Si5 0.414037 0.816781 0.967856
Si Si6 0.006304 0.817349 0.166537
O O1 0.701913 0.500000 0.056262
O O2 0.737569 0.729646 0.202060
O O3 0.648657 0.763762 0.031796
O O4 0.750000 0.750000 0.000000
O O5 0.500000 0.228171 0.500000
O O6 0.599215 0.245148 0.460817
O O7 0.508805 0.274847 0.295308
O O8 0.533700 0.000000 0.383888
O O9 0.703676 0.752405 0.587784
O O10 0.684191 0.759421 0.362991
O O11 0.662676 0.000000 0.472631
O O12 0.766853 0.000000 0.655740
O O13 0.435516 0.731164 0.867231
O O14 0.415575 0.000000 0.947129
O O15 0.454063 0.775183 0.089044
O O16 0.996052 0.000000 0.146261
#
# Coordination Sequence:
#
# PCOD8106120 Si02
#       6
#     8   8   8   8   8   8
#     4  11  23  38  56  83 118 153 189 231 282 338
#     4  10  21  36  55  81 114 151 189 228 276 337
#     4   9  18  34  56  80 105 138 182 227 271 323
#     4   9  19  35  55  79 107 141 181 226 273 322
#     4  11  22  39  62  85 111 147 192 238 288 344
#     4  11  22  38  60  86 115 146 188 240 290 342
#
# _framework density 19.50253
#
# number of rings (size 3 to 8) (size 9 to 14) (size 15 to 20)
#    0.000    1.833    0.000    5.500    0.000    6.333 
#    0.000    3.333    0.000    0.000    0.000    0.000 
#    0.000    0.000    0.000    0.000    0.000    0.000 
#
# Total GULP energy -297682.293218 kJ/mol
# GULP energy per Si atom -12403.428884 kJ/mol
# Density = 1.945814 g / cm^3
# Si number density = 19.502530 Si / 1000 Ang^3
#
#
#
# Elastic Constant Matrix: (Units=GPa)
#
#
# Indices 1 2 3 4 5 6 
#
# 1 -26.1955 7.0462 35.1916 0.0000 10.1675 0.0000
# 2 7.0462 53.6699 23.8053 0.0000 0.2636 0.0000
# 3 35.1916 23.8053 120.7478 0.0000 -7.1477 0.0000
# 4 0.0000 0.0000 0.0000 29.6222 0.0000 -1.8386
# 5 10.1675 0.2636 -7.1477 0.0000 21.4084 0.0000
# 6 0.0000 0.0000 0.0000 -1.8386 0.0000 30.3698
#
#
#
# Elastic Compliance Matrix: (Units=1/GPa)
#
#
# Indices 1 2 3 4 5 6 
#
# 1 -0.022926 -0.000408 0.007556 0.000000 0.013416 0.000000
# 2 -0.000408 0.020466 -0.003999 0.000000 -0.001393 0.000000
# 3 0.007556 -0.003999 0.006793 0.000000 -0.001272 0.000000
# 4 0.000000 0.000000 0.000000 0.033886 0.000000 0.002051
# 5 0.013416 -0.001393 -0.001272 0.000000 0.039932 0.000000
# 6 0.000000 0.000000 0.000000 0.002051 0.000000 0.033052
#
#
# Mechanical properties :
#
#
# Convention : Reuss Voigt Hill
#
# Bulk Modulus (GPa) = 94.04586 31.14540 62.59563
# Shear Modulus (GPa) = 46.10563 21.75869 33.93216
#
# Velocity S-wave (km/s) = 4.86746 3.34381 4.17572
# Velocity P-wave (km/s) = 8.93961 5.55992 7.44410
#
# Compressibility (1/GPa) = 0.01063311
#
# Stress axis : x y z
#
# Youngs Moduli (GPa) = -43.61906 48.86068 147.21990
#
# Poissons Ratio (x) = 0.01991 -1.11242
# Poissons Ratio (y) = -0.01778 0.58868
# Poissons Ratio (z) = 0.32959 0.19538
#
# Static dielectric constant tensor:
#      x y z
#    x 3.905400 0.000000 0.163510 
#    y 0.000000 3.529630 0.000000 
#    z 0.163510 0.000000 3.664830 
# 
# 
# High freq. dielectric constant tensor:
#      x y z
#    x 1.762940 0.000000 0.008050 
#    y 0.000000 1.759140 0.000000 
#    z 0.008050 0.000000 1.765300 
# 
# From -- ./inp_files/172381.got.cif
#   From: 2010.06.25/outbox.cif.g09.slc.cpg/sg12_87_cif.got.tgz:172381.got - 2010.06.28 00:19:55.
