data_PCOD8106348
_publ_section_title
;
Structure prediction by ZEFSAII (Michael W. Deem and Ramdas Pophale) SiO2 
 PCOD8106348
Probable space group: C 2/M
;
_chemical_formula_sum "Si O2"
_cell_formula_units_Z 44
_cell_length_a 10.798327
_cell_length_b 26.721479
_cell_length_c 14.129825
_cell_angle_alpha 90.000000
_cell_angle_beta 147.847522
_cell_angle_gamma 90.000000
_cell_volume 2169.739546
_symmetry_space_group_name_H-M "C 2/M"
_symmetry_group_IT_number 12
_symmetry_cell_setting 'monoclinic'
loop_
_space_group_symop_operation_xyz
x,y,z
-x,y,-z
-x,-y,-z
x,-y,z
1/2+x,1/2+y,z
1/2-x,1/2+y,-z
1/2-x,1/2-y,-z
1/2+x,1/2-y,z
loop_
_atom_site_type_symbol
_atom_site_label
_atom_site_fract_x
_atom_site_fract_y
_atom_site_fract_z
Si Si1 0.235374 0.698334 0.313984
Si Si2 0.843572 0.891536 0.071380
Si Si3 0.022586 0.632385 0.704083
Si Si4 0.000000 0.639836 0.000000
Si Si5 0.126200 0.194505 0.178837
Si Si6 0.219743 0.555792 0.574367
O O1 0.500000 0.683646 0.500000
O O2 0.203969 0.757957 0.289857
O O3 0.084924 0.676547 0.302479
O O4 0.160076 0.674865 0.166821
O O5 0.666305 0.895262 0.044535
O O6 0.950741 0.835628 0.133492
O O7 0.046232 0.932135 0.215609
O O8 0.704057 0.901145 0.882983
O O9 0.153793 0.658782 0.701416
O O10 0.819465 0.595723 0.535213
O O11 0.000000 0.210672 0.000000
O O12 0.246029 0.500000 0.548768
O O13 0.000000 0.558230 0.500000
#
# Coordination Sequence:
#
# PCOD8106348 Si02
#       6
#     8   8   8   4   8   8
#     4  11  23  35  58  88 125 173 204 241 292 358
#     4  10  22  40  62  86 125 163 199 254 298 360
#     4  10  23  40  59  90 129 159 201 252 301 356
#     4  10  22  40  59  84 126 166 211 236 292 360
#     4  10  21  36  57  86 127 163 204 247 291 352
#     4  11  23  41  67  94 118 151 202 262 319 362
#
# _framework density 20.278931
#
# number of rings (size 3 to 8) (size 9 to 14) (size 15 to 20)
#    0.000    1.636    2.727    1.091    5.091    3.636 
#    0.000    2.273    0.000   10.364    0.000    0.000 
#    0.000    0.000    0.000    0.000    0.000    0.000 
#
# Total GULP energy -272856.128844 kJ/mol
# GULP energy per Si atom -12402.551311 kJ/mol
# Density = 2.023277 g / cm^3
# Si number density = 20.278931 Si / 1000 Ang^3
#
#
#
# Elastic Constant Matrix: (Units=GPa)
#
#
# Indices 1 2 3 4 5 6 
#
# 1 92.2927 30.5153 27.1765 0.0000 6.8759 0.0000
# 2 30.5153 102.3636 47.4836 0.0000 -5.6577 0.0000
# 3 27.1765 47.4836 118.9538 0.0000 9.4195 0.0000
# 4 0.0000 0.0000 0.0000 21.0403 0.0000 -6.9487
# 5 6.8759 -5.6577 9.4195 0.0000 28.6619 0.0000
# 6 0.0000 0.0000 0.0000 -6.9487 0.0000 9.7864
#
#
#
# Elastic Compliance Matrix: (Units=1/GPa)
#
#
# Indices 1 2 3 4 5 6 
#
# 1 0.012555 -0.003327 -0.001283 0.000000 -0.003247 0.000000
# 2 -0.003327 0.013345 -0.004968 0.000000 0.005065 0.000000
# 3 -0.001283 -0.004968 0.011023 0.000000 -0.004296 0.000000
# 4 0.000000 0.000000 0.000000 0.062087 0.000000 0.044084
# 5 -0.003247 0.005065 -0.004296 0.000000 0.038080 0.000000
# 6 0.000000 0.000000 0.000000 0.044084 0.000000 0.133484
#
#
# Mechanical properties :
#
#
# Convention : Reuss Voigt Hill
#
# Bulk Modulus (GPa) = 56.28473 58.21786 57.25129
# Shear Modulus (GPa) = 16.91171 25.79337 21.35254
#
# Velocity S-wave (km/s) = 2.89096 3.57028 3.24843
# Velocity P-wave (km/s) = 6.24172 6.76511 6.50868
#
# Compressibility (1/GPa) = 0.01776681
#
# Stress axis : x y z
#
# Youngs Moduli (GPa) = 79.65065 74.93201 90.71839
#
# Poissons Ratio (x) = 0.24929 0.11641
# Poissons Ratio (y) = 0.26499 0.45071
# Poissons Ratio (z) = 0.10221 0.37228
#
# Static dielectric constant tensor:
#      x y z
#    x 3.550630 0.000000 0.081590 
#    y 0.000000 3.479110 0.000000 
#    z 0.081590 0.000000 4.024360 
# 
# 
# High freq. dielectric constant tensor:
#      x y z
#    x 1.785400 0.000000 0.005300 
#    y 0.000000 1.765210 0.000000 
#    z 0.005300 0.000000 1.808660 
# 
# From -- ./inp_files/137071.got.cif
#   From: 2010.06.25/outbox.cif.g09.slc.cpg/sg12_69_cif.got.tgz:137071.got - 2010.06.28 00:19:55.
