data_PCOD8106343
_publ_section_title
;
Structure prediction by ZEFSAII (Michael W. Deem and Ramdas Pophale) SiO2 
 PCOD8106343
Probable space group: C 2/M
;
_chemical_formula_sum "Si O2"
_cell_formula_units_Z 56
_cell_length_a 8.837371
_cell_length_b 21.748440
_cell_length_c 16.968885
_cell_angle_alpha 90.000000
_cell_angle_beta 61.944296
_cell_angle_gamma 90.000000
_cell_volume 2878.158223
_symmetry_space_group_name_H-M "C 2/M"
_symmetry_group_IT_number 12
_symmetry_cell_setting 'monoclinic'
loop_
_space_group_symop_operation_xyz
x,y,z
-x,y,-z
-x,-y,-z
x,-y,z
1/2+x,1/2+y,z
1/2-x,1/2+y,-z
1/2-x,1/2-y,-z
1/2+x,1/2-y,z
loop_
_atom_site_type_symbol
_atom_site_label
_atom_site_fract_x
_atom_site_fract_y
_atom_site_fract_z
Si Si1 0.932224 0.769643 0.431278
Si Si2 0.499261 0.072390 0.194598
Si Si3 0.496925 0.138648 0.642739
Si Si4 0.675324 0.567773 0.494734
Si Si5 0.824437 0.071586 0.835607
Si Si6 0.132768 0.884333 0.662561
Si Si7 0.180488 0.072915 0.986954
O O1 0.750000 0.750000 0.500000
O O2 0.924154 0.822993 0.369143
O O3 0.000000 0.791115 0.500000
O O4 0.023202 0.711806 0.365764
O O5 0.478534 0.117421 0.273576
O O6 0.336399 0.085377 0.180005
O O7 0.667305 0.095005 0.107054
O O8 0.509443 0.000000 0.216189
O O9 0.664095 0.113507 0.555596
O O10 0.319832 0.112019 0.654803
O O11 0.500000 0.593911 0.500000
O O12 0.718723 0.500000 0.449636
O O13 0.636127 0.561543 0.597217
O O14 0.993761 0.105345 0.763992
O O15 0.866642 0.000000 0.828559
O O16 0.784555 0.096758 0.933002
O O17 0.176842 0.000000 0.987475
O O18 0.000000 0.099794 0.000000
#
# Coordination Sequence:
#
# PCOD8106343 Si02
#       7
#     8   8   8   8   8   8   8
#     4  12  24  43  62  82 109 150 199 245 291 341
#     4  10  21  36  57  86 120 155 191 232 283 343
#     4  12  24  38  57  84 111 147 193 239 286 339
#     4  11  23  37  54  78 112 150 184 229 288 343
#     4  10  21  36  57  87 120 155 191 229 284 344
#     4  12  24  37  58  83 112 148 191 240 285 340
#     4   9  17  33  57  84 117 153 189 233 280 336
#
# _framework density 19.456886999999998
#
# number of rings (size 3 to 8) (size 9 to 14) (size 15 to 20)
#    0.000    1.143    2.857    3.857    2.000    8.000 
#    0.000    0.000    0.000    0.857    0.000    0.000 
#    0.000    0.000    0.000    0.000    0.000    0.000 
#
# Total GULP energy -347000.889307 kJ/mol
# GULP energy per Si atom -12392.888904 kJ/mol
# Density = 1.941260 g / cm^3
# Si number density = 19.456887 Si / 1000 Ang^3
#
#
#
# Elastic Constant Matrix: (Units=GPa)
#
#
# Indices 1 2 3 4 5 6 
#
# 1 112.0721 21.2826 18.4954 0.0000 -2.2008 0.0000
# 2 21.2826 66.6224 19.8576 0.0000 4.7155 0.0000
# 3 18.4954 19.8576 100.0834 0.0000 4.5880 0.0000
# 4 0.0000 0.0000 0.0000 16.6738 0.0000 5.0795
# 5 -2.2008 4.7155 4.5880 0.0000 43.8238 0.0000
# 6 0.0000 0.0000 0.0000 5.0795 0.0000 20.7014
#
#
#
# Elastic Compliance Matrix: (Units=1/GPa)
#
#
# Indices 1 2 3 4 5 6 
#
# 1 0.009679 -0.002775 -0.001280 0.000000 0.000919 0.000000
# 2 -0.002775 0.016834 -0.002751 0.000000 -0.001663 0.000000
# 3 -0.001280 -0.002751 0.010815 0.000000 -0.000901 0.000000
# 4 0.000000 0.000000 0.000000 0.064820 0.000000 -0.015905
# 5 0.000919 -0.001663 -0.000901 0.000000 0.023138 0.000000
# 6 0.000000 0.000000 0.000000 -0.015905 0.000000 0.052208
#
#
# Mechanical properties :
#
#
# Convention : Reuss Voigt Hill
#
# Bulk Modulus (GPa) = 42.16635 44.22768 43.19702
# Shear Modulus (GPa) = 25.12396 30.84928 27.98662
#
# Velocity S-wave (km/s) = 3.59731 3.98618 3.79673
# Velocity P-wave (km/s) = 6.24283 6.63073 6.43970
#
# Compressibility (1/GPa) = 0.02371559
#
# Stress axis : x y z
#
# Youngs Moduli (GPa) = 103.31426 59.40269 92.46127
#
# Poissons Ratio (x) = 0.16487 0.11836
# Poissons Ratio (y) = 0.28675 0.25436
# Poissons Ratio (z) = 0.13226 0.16341
#
# Static dielectric constant tensor:
#      x y z
#    x 3.761540 0.000000 0.004750 
#    y 0.000000 3.993140 0.000000 
#    z 0.004750 0.000000 3.685180 
# 
# 
# High freq. dielectric constant tensor:
#      x y z
#    x 1.782160 0.000000 0.000520 
#    y 0.000000 1.727510 0.000000 
#    z 0.000520 0.000000 1.760120 
# 
# From -- ./inp_files/258877.got.cif
#   From: 2010.06.25/outbox.cif.g09.slc.cpg/sg12_130_cif.got.tgz:258877.got - 2010.06.28 00:19:55.
