data_PCOD8106594
_publ_section_title
;
Structure prediction by ZEFSAII (Michael W. Deem and Ramdas Pophale) SiO2 
 PCOD8106594
Probable space group: C 2/M
;
_chemical_formula_sum "Si O2"
_cell_formula_units_Z 44
_cell_length_a 14.392622
_cell_length_b 16.869411
_cell_length_c 8.998221
_cell_angle_alpha 90.000000
_cell_angle_beta 66.546577
_cell_angle_gamma 90.000000
_cell_volume 2004.230280
_symmetry_space_group_name_H-M "C 2/M"
_symmetry_group_IT_number 12
_symmetry_cell_setting 'monoclinic'
loop_
_space_group_symop_operation_xyz
x,y,z
-x,y,-z
-x,-y,-z
x,-y,z
1/2+x,1/2+y,z
1/2-x,1/2+y,-z
1/2-x,1/2-y,-z
1/2+x,1/2-y,z
loop_
_atom_site_type_symbol
_atom_site_label
_atom_site_fract_x
_atom_site_fract_y
_atom_site_fract_z
Si Si1 0.451837 0.500000 0.843921
Si Si2 0.421817 0.633969 0.317488
Si Si3 0.764094 0.500000 0.893401
Si Si4 0.000000 0.635670 0.000000
Si Si5 0.267868 0.334246 0.178159
Si Si6 0.858791 0.500000 0.152540
Si Si7 0.099920 0.761085 0.152825
Si Si8 0.858216 0.000000 0.579865
O O1 0.522357 0.575496 0.834586
O O2 0.424096 0.500000 0.686293
O O3 0.355557 0.500000 0.006623
O O4 0.329097 0.677303 0.292396
O O5 0.506439 0.700326 0.302987
O O6 0.383603 0.582240 0.480572
O O7 0.786077 0.420584 0.786345
O O8 0.829979 0.500000 0.998413
O O9 0.076182 0.579363 0.857619
O O10 0.936519 0.689150 0.927352
O O11 0.178693 0.269198 0.227542
O O12 0.341493 0.325188 0.987565
O O13 0.761477 0.500000 0.318362
#
# Coordination Sequence:
#
# PCOD8106594 Si02
#       8
#     4   8   4   4   8   4   8   4
#     4  10  21  36  61  85 121 166 213 252 299 369
#     4  11  20  38  61  87 127 167 198 256 315 374
#     4  11  18  32  55  90 117 157 202 260 306 349
#     4  11  20  42  66  89 122 164 204 263 314 368
#     4  11  22  33  58  95 128 157 200 267 313 369
#     4  10  23  40  66  87 119 168 215 247 300 373
#     4  11  22  36  59  95 131 155 203 262 326 370
#     4  10  24  42  65  89 124 171 215 253 293 385
#
# _framework density 21.953567
#
# number of rings (size 3 to 8) (size 9 to 14) (size 15 to 20)
#    0.000    1.273    5.455    2.182    0.000    0.727 
#    0.000    0.909    4.000    1.091    0.000    0.000 
#    0.000    0.000    0.000    0.000    0.000    0.000 
#
# Total GULP energy -272724.224022 kJ/mol
# GULP energy per Si atom -12396.555637 kJ/mol
# Density = 2.190360 g / cm^3
# Si number density = 21.953567 Si / 1000 Ang^3
#
#
#
# Elastic Constant Matrix: (Units=GPa)
#
#
# Indices 1 2 3 4 5 6 
#
# 1 135.0116 51.2763 37.9446 0.0000 3.1680 0.0000
# 2 51.2763 121.5199 24.3171 0.0000 -7.8581 0.0000
# 3 37.9446 24.3171 57.9464 0.0000 -1.0371 0.0000
# 4 0.0000 0.0000 0.0000 18.6314 0.0000 3.9710
# 5 3.1680 -7.8581 -1.0371 0.0000 27.7776 0.0000
# 6 0.0000 0.0000 0.0000 3.9710 0.0000 36.2528
#
#
#
# Elastic Compliance Matrix: (Units=1/GPa)
#
#
# Indices 1 2 3 4 5 6 
#
# 1 0.010254 -0.003412 -0.005324 0.000000 -0.002333 0.000000
# 2 -0.003412 0.010282 -0.002023 0.000000 0.003222 0.000000
# 3 -0.005324 -0.002023 0.021608 0.000000 0.000842 0.000000
# 4 0.000000 0.000000 0.000000 0.054956 0.000000 -0.006020
# 5 -0.002333 0.003222 0.000842 0.000000 0.037209 0.000000
# 6 0.000000 0.000000 0.000000 -0.006020 0.000000 0.028243
#
#
# Mechanical properties :
#
#
# Convention : Reuss Voigt Hill
#
# Bulk Modulus (GPa) = 48.48464 60.17263 54.32864
# Shear Modulus (GPa) = 26.18547 29.92837 28.05692
#
# Velocity S-wave (km/s) = 3.45739 3.69624 3.57881
# Velocity P-wave (km/s) = 6.17018 6.75905 6.47132
#
# Compressibility (1/GPa) = 0.02062509
#
# Stress axis : x y z
#
# Youngs Moduli (GPa) = 97.52487 97.25700 46.27974
#
# Poissons Ratio (x) = 0.33185 0.24641
# Poissons Ratio (y) = 0.33277 0.09362
# Poissons Ratio (z) = 0.51925 0.19673
#
# Static dielectric constant tensor:
#      x y z
#    x 4.219970 0.000000 0.004200 
#    y 0.000000 4.178610 0.000000 
#    z 0.004200 0.000000 3.309810 
# 
# 
# High freq. dielectric constant tensor:
#      x y z
#    x 1.885200 0.000000 0.008980 
#    y 0.000000 1.878000 0.000000 
#    z 0.008980 0.000000 1.802980 
# 
# From -- ./inp_files/61127.got.cif
#   From: 2010.06.25/outbox.cif.g09.slc.cpg/sg12_31_cif.got.tgz:61127.got - 2010.06.28 00:19:55.
