data_PCOD8106655
_publ_section_title
;
Structure prediction by ZEFSAII (Michael W. Deem and Ramdas Pophale) SiO2 
 PCOD8106655
Probable space group: C 2/M
;
_chemical_formula_sum "Si O2"
_cell_formula_units_Z 52
_cell_length_a 21.257662
_cell_length_b 17.994725
_cell_length_c 14.857634
_cell_angle_alpha 90.000000
_cell_angle_beta 26.945517
_cell_angle_gamma 90.000000
_cell_volume 2575.405811
_symmetry_space_group_name_H-M "C 2/M"
_symmetry_group_IT_number 12
_symmetry_cell_setting 'monoclinic'
loop_
_space_group_symop_operation_xyz
x,y,z
-x,y,-z
-x,-y,-z
x,-y,z
1/2+x,1/2+y,z
1/2-x,1/2+y,-z
1/2-x,1/2-y,-z
1/2+x,1/2-y,z
loop_
_atom_site_type_symbol
_atom_site_label
_atom_site_fract_x
_atom_site_fract_y
_atom_site_fract_z
Si Si1 0.669962 0.083004 0.033212
Si Si2 0.945049 0.413849 0.471027
Si Si3 0.500000 0.685171 0.500000
Si Si4 0.013666 0.916465 0.322901
Si Si5 0.743801 0.207901 0.369438
Si Si6 0.704635 0.220925 0.873598
Si Si7 0.550085 0.305641 0.737804
O O1 0.563880 0.103532 0.247120
O O2 0.642298 0.000000 0.031292
O O3 0.820851 0.088546 0.885221
O O4 0.656012 0.138552 0.966119
O O5 0.898043 0.500000 0.527505
O O6 0.813699 0.362269 0.613674
O O7 0.000000 0.393316 0.500000
O O8 0.552871 0.632928 0.513284
O O9 0.366396 0.734868 0.697492
O O10 0.956404 0.885272 0.301960
O O11 0.959068 0.000000 0.403709
O O12 0.804698 0.269136 0.222362
O O13 0.623123 0.243407 0.583583
O O14 0.870273 0.181740 0.270484
O O15 0.608222 0.280821 0.045124
#
# Coordination Sequence:
#
# PCOD8106655 Si02
#       7
#     8   8   4   8   8   8   8
#     4   9  20  38  63  92 122 155 198 257 317 366
#     4  10  22  40  64  91 121 159 205 259 309 360
#     4  10  21  36  64  98 117 156 200 256 317 362
#     4  10  21  38  60  89 124 157 198 250 310 368
#     4  11  24  41  61  88 121 163 213 251 302 370
#     4  11  22  40  62  90 125 159 203 257 308 362
#     4  11  24  41  60  86 124 169 205 250 305 368
#
# _framework density 20.190992999999999
#
# number of rings (size 3 to 8) (size 9 to 14) (size 15 to 20)
#    0.000    1.692    3.077    0.692    3.231    3.692 
#    0.000    0.000    0.000    3.692    0.000    0.000 
#    0.000    0.000    0.000    0.000    0.000    0.000 
#
# Total GULP energy -322363.201299 kJ/mol
# GULP energy per Si atom -12398.584665 kJ/mol
# Density = 2.014504 g / cm^3
# Si number density = 20.190993 Si / 1000 Ang^3
#
#
#
# Elastic Constant Matrix: (Units=GPa)
#
#
# Indices 1 2 3 4 5 6 
#
# 1 142.6475 77.3501 39.3960 0.0000 11.9636 0.0000
# 2 77.3501 87.5942 34.0396 -0.0002 -3.9152 0.0001
# 3 39.3960 34.0396 101.0457 -0.0004 5.8824 0.0001
# 4 0.0000 -0.0002 -0.0004 18.7803 0.0001 2.5176
# 5 11.9636 -3.9152 5.8824 0.0001 28.0796 -0.0001
# 6 0.0000 0.0001 0.0001 2.5176 -0.0001 33.0720
#
#
#
# Elastic Compliance Matrix: (Units=1/GPa)
#
#
# Indices 1 2 3 4 5 6 
#
# 1 0.015267 -0.013485 -0.000933 0.000000 -0.008190 0.000000
# 2 -0.013485 0.025267 -0.003841 0.000000 0.010073 0.000000
# 3 -0.000933 -0.003841 0.011705 0.000000 -0.002590 0.000000
# 4 0.000000 0.000000 0.000000 0.053796 0.000000 -0.004095
# 5 -0.008190 0.010073 -0.002590 0.000000 0.041049 0.000000
# 6 0.000000 0.000000 0.000000 -0.004095 0.000000 0.030549
#
#
# Mechanical properties :
#
#
# Convention : Reuss Voigt Hill
#
# Bulk Modulus (GPa) = 63.60597 70.31767 66.96182
# Shear Modulus (GPa) = 22.79039 28.01983 25.40511
#
# Velocity S-wave (km/s) = 3.36332 3.72928 3.55102
# Velocity P-wave (km/s) = 6.83031 7.31062 7.07454
#
# Compressibility (1/GPa) = 0.01572179
#
# Stress axis : x y z
#
# Youngs Moduli (GPa) = 65.50088 39.57736 85.43523
#
# Poissons Ratio (x) = 0.53370 0.07970
# Poissons Ratio (y) = 0.88328 0.32812
# Poissons Ratio (z) = 0.06110 0.15200
#
# Static dielectric constant tensor:
#      x y z
#    x 3.596030 0.000000 0.141950 
#    y 0.000000 3.700930 0.000000 
#    z 0.141950 0.000000 3.771290 
# 
# 
# High freq. dielectric constant tensor:
#      x y z
#    x 1.773750 0.000000 0.013650 
#    y 0.000000 1.783470 0.000000 
#    z 0.013650 0.000000 1.797780 
# 
# From -- ./inp_files/234433.got.cif
#   From: 2010.06.25/outbox.cif.g09.slc.cpg/sg12_118_cif.got.tgz:234433.got - 2010.06.28 00:19:55.
