data_PCOD8106274
_publ_section_title
;
Structure prediction by ZEFSAII (Michael W. Deem and Ramdas Pophale) SiO2 
 PCOD8106274
Probable space group: C 2/M
;
_chemical_formula_sum "Si O2"
_cell_formula_units_Z 56
_cell_length_a 17.229890
_cell_length_b 16.525223
_cell_length_c 10.142139
_cell_angle_alpha 90.000000
_cell_angle_beta 64.980757
_cell_angle_gamma 90.000000
_cell_volume 2616.779075
_symmetry_space_group_name_H-M "C 2/M"
_symmetry_group_IT_number 12
_symmetry_cell_setting 'monoclinic'
loop_
_space_group_symop_operation_xyz
x,y,z
-x,y,-z
-x,-y,-z
x,-y,z
1/2+x,1/2+y,z
1/2-x,1/2+y,-z
1/2-x,1/2-y,-z
1/2+x,1/2-y,z
loop_
_atom_site_type_symbol
_atom_site_label
_atom_site_fract_x
_atom_site_fract_y
_atom_site_fract_z
Si Si1 0.153854 0.902676 0.160308
Si Si2 0.241431 0.665512 0.677656
Si Si3 0.204061 0.847920 0.648261
Si Si4 0.721570 0.909274 0.153060
Si Si5 0.039927 0.591625 0.341876
Si Si6 0.452401 0.857577 0.158748
Si Si7 0.488825 0.327181 0.157301
O O1 0.186897 0.868246 0.275383
O O2 0.060561 0.865665 0.199619
O O3 0.147808 0.000000 0.167875
O O4 0.217288 0.868253 0.000294
O O5 0.243286 0.762307 0.667404
O O6 0.259411 0.627933 0.520631
O O7 0.148411 0.639340 0.796833
O O8 0.234288 0.911586 0.735481
O O9 0.101750 0.851302 0.715242
O O10 0.628531 0.865290 0.231012
O O11 0.707227 0.000000 0.113086
O O12 0.063392 0.500000 0.365877
O O13 0.000000 0.635733 0.500000
O O14 0.970271 0.591055 0.276425
O O15 0.493770 0.769602 0.153156
O O16 0.500000 0.898072 0.000000
O O17 0.500000 0.360692 0.000000
#
# Coordination Sequence:
#
# PCOD8106274 Si02
#       7
#     8   8   8   8   8   8   8
#     4  11  24  40  62  92 124 160 204 254 305 358
#     4  10  23  39  58  90 120 155 201 247 304 357
#     4  10  21  40  61  84 121 159 199 247 299 359
#     4  10  21  36  59  89 115 156 204 243 299 359
#     4  10  21  36  56  87 121 154 196 246 302 360
#     4  10  21  38  59  86 117 158 199 242 300 357
#     4  10  21  40  60  89 118 156 207 247 300 356
#
# _framework density 21.400355000000001
#
# number of rings (size 3 to 8) (size 9 to 14) (size 15 to 20)
#    0.000    1.857    1.429    1.714    2.000    3.429 
#    0.000    0.714    0.000    0.000    0.000    0.000 
#    0.000    0.000    0.000    0.000    0.000    0.000 
#
# Total GULP energy -347177.331257 kJ/mol
# GULP energy per Si atom -12399.190402 kJ/mol
# Density = 2.135165 g / cm^3
# Si number density = 21.400355 Si / 1000 Ang^3
#
#
#
# Elastic Constant Matrix: (Units=GPa)
#
#
# Indices 1 2 3 4 5 6 
#
# 1 128.6134 32.6283 33.4479 0.0000 11.7217 0.0000
# 2 32.6283 36.3220 14.6909 0.0000 -2.0332 0.0000
# 3 33.4479 14.6909 118.9478 0.0000 7.8601 0.0000
# 4 0.0000 0.0000 0.0000 18.6440 0.0000 7.2221
# 5 11.7217 -2.0332 7.8601 0.0000 40.0678 0.0000
# 6 0.0000 0.0000 0.0000 7.2221 0.0000 23.8362
#
#
#
# Elastic Compliance Matrix: (Units=1/GPa)
#
#
# Indices 1 2 3 4 5 6 
#
# 1 0.010868 -0.009264 -0.001693 0.000000 -0.003317 0.000000
# 2 -0.009264 0.037069 -0.002307 0.000000 0.005044 0.000000
# 3 -0.001693 -0.002307 0.009263 0.000000 -0.001439 0.000000
# 4 0.000000 0.000000 0.000000 0.060769 0.000000 -0.018412
# 5 -0.003317 0.005044 -0.001439 0.000000 0.026466 0.000000
# 6 0.000000 0.000000 0.000000 -0.018412 0.000000 0.047532
#
#
# Mechanical properties :
#
#
# Convention : Reuss Voigt Hill
#
# Bulk Modulus (GPa) = 32.60154 49.49082 41.04618
# Shear Modulus (GPa) = 21.86107 30.05066 25.95587
#
# Velocity S-wave (km/s) = 3.19960 3.75135 3.48641
# Velocity P-wave (km/s) = 5.37747 6.47610 5.95218
#
# Compressibility (1/GPa) = 0.03067340
#
# Stress axis : x y z
#
# Youngs Moduli (GPa) = 92.01340 26.97701 107.95647
#
# Poissons Ratio (x) = 0.24991 0.18274
# Poissons Ratio (y) = 0.85240 0.24900
# Poissons Ratio (z) = 0.15575 0.06222
#
# Static dielectric constant tensor:
#      x y z
#    x 3.769040 0.000000 -0.207060 
#    y 0.000000 3.508200 0.000000 
#    z -0.207060 0.000000 4.100380 
# 
# 
# High freq. dielectric constant tensor:
#      x y z
#    x 1.845700 0.000000 -0.006900 
#    y 0.000000 1.806530 0.000000 
#    z -0.006900 0.000000 1.852740 
# 
# From -- ./inp_files/77341.got.cif
#   From: 2010.06.25/outbox.cif.g09.slc.cpg/sg12_39_cif.got.tgz:77341.got - 2010.06.28 00:19:55.
