data_PCOD8106633
_publ_section_title
;
Structure prediction by ZEFSAII (Michael W. Deem and Ramdas Pophale) SiO2 
 PCOD8106633
Probable space group: C 2/M
;
_chemical_formula_sum "Si O2"
_cell_formula_units_Z 48
_cell_length_a 21.165533
_cell_length_b 7.692696
_cell_length_c 32.212906
_cell_angle_alpha 90.000000
_cell_angle_beta 152.612870
_cell_angle_gamma 90.000000
_cell_volume 2412.658456
_symmetry_space_group_name_H-M "C 2/M"
_symmetry_group_IT_number 12
_symmetry_cell_setting 'monoclinic'
loop_
_space_group_symop_operation_xyz
x,y,z
-x,y,-z
-x,-y,-z
x,-y,z
1/2+x,1/2+y,z
1/2-x,1/2+y,-z
1/2-x,1/2-y,-z
1/2+x,1/2-y,z
loop_
_atom_site_type_symbol
_atom_site_label
_atom_site_fract_x
_atom_site_fract_y
_atom_site_fract_z
Si Si1 0.631551 0.704140 0.962995
Si Si2 0.667244 0.802572 0.229814
Si Si3 0.284750 0.000000 0.349665
Si Si4 0.365783 0.302126 0.943012
Si Si5 0.321501 0.298715 0.237638
Si Si6 0.888689 0.798266 0.558329
Si Si7 0.587996 0.000000 0.492607
O O1 0.602972 0.500000 0.945473
O O2 0.495790 0.804312 0.869761
O O3 0.750000 0.750000 0.000000
O O4 0.668374 0.773667 0.031072
O O5 0.707976 0.675041 0.290829
O O6 0.739193 0.729651 0.229895
O O7 0.717198 0.000000 0.268623
O O8 0.438743 0.000000 0.424223
O O9 0.289769 0.000000 0.402438
O O10 0.405808 0.500000 0.973941
O O11 0.232986 0.290761 0.835971
O O12 0.500000 0.210210 0.000000
O O13 0.291408 0.500000 0.214894
O O14 0.482889 0.257178 0.336459
O O15 0.750000 0.750000 0.500000
O O16 0.897174 0.678490 0.523407
O O17 0.891512 0.000000 0.546262
#
# Coordination Sequence:
#
# PCOD8106633 Si02
#       7
#     8   8   4   8   8   8   4
#     4  11  23  41  61  89 131 175 211 260 322 380
#     4  11  22  40  66  92 125 169 216 264 317 380
#     4  11  24  42  68  96 127 165 214 267 321 397
#     4  10  21  36  62  93 123 160 212 263 309 371
#     4  10  22  37  61  94 123 159 212 264 313 374
#     4  11  23  42  66  95 130 169 213 266 327 386
#     4  11  24  42  68  97 126 167 211 263 335 389
#
# _framework density 19.895066
#
# number of rings (size 3 to 8) (size 9 to 14) (size 15 to 20)
#    0.000    1.333    5.000    0.500    2.333    2.333 
#    3.000    1.667    0.000    0.000    0.000    0.000 
#    0.000    0.000    0.000    0.000    0.000    0.000 
#
# Total GULP energy -297589.690937 kJ/mol
# GULP energy per Si atom -12399.570456 kJ/mol
# Density = 1.984978 g / cm^3
# Si number density = 19.895066 Si / 1000 Ang^3
#
#
#
# Elastic Constant Matrix: (Units=GPa)
#
#
# Indices 1 2 3 4 5 6 
#
# 1 114.6761 33.5347 70.7797 0.0022 -8.2941 -0.0015
# 2 33.5347 99.7811 39.7550 0.0059 -18.1375 -0.0049
# 3 70.7797 39.7550 149.1418 0.0022 -9.4376 -0.0010
# 4 0.0022 0.0059 0.0022 21.8078 -0.0010 4.9770
# 5 -8.2941 -18.1375 -9.4376 -0.0010 44.6762 0.0004
# 6 -0.0015 -0.0049 -0.0010 4.9770 0.0004 22.3150
#
#
#
# Elastic Compliance Matrix: (Units=1/GPa)
#
#
# Indices 1 2 3 4 5 6 
#
# 1 0.012717 -0.002024 -0.005471 0.000000 0.000383 0.000000
# 2 -0.002024 0.012277 -0.002048 -0.000003 0.004176 0.000003
# 3 -0.005471 -0.002048 0.009862 0.000000 0.000236 0.000000
# 4 0.000000 -0.000003 0.000000 0.048314 0.000000 -0.010776
# 5 0.000383 0.004176 0.000236 0.000000 0.024200 0.000001
# 6 0.000000 0.000003 0.000000 -0.010776 0.000001 0.047216
#
#
# Mechanical properties :
#
#
# Convention : Reuss Voigt Hill
#
# Bulk Modulus (GPa) = 63.41220 72.41530 67.91375
# Shear Modulus (GPa) = 27.94390 32.39510 30.16950
#
# Velocity S-wave (km/s) = 3.75182 4.03960 3.89836
# Velocity P-wave (km/s) = 7.12114 7.63121 7.38059
#
# Compressibility (1/GPa) = 0.01576984
#
# Stress axis : x y z
#
# Youngs Moduli (GPa) = 78.63556 81.45200 101.39558
#
# Poissons Ratio (x) = 0.16489 0.55477
# Poissons Ratio (y) = 0.15919 0.20762
# Poissons Ratio (z) = 0.43024 0.16678
#
# Static dielectric constant tensor:
#      x y z
#    x -0.020870 0.000120 0.703010 
#    y 0.000120 3.672250 -0.000030 
#    z 0.703010 -0.000030 3.531940 
# 
# 
# High freq. dielectric constant tensor:
#      x y z
#    x 1.763750 0.000000 0.000470 
#    y 0.000000 1.781960 0.000000 
#    z 0.000470 0.000000 1.780380 
# 
# From -- ./inp_files/378583.got.cif
#   From: 2010.06.25/outbox.cif.g09.slc.cpg/sg12_190_cif.got.tgz:378583.got - 2010.06.28 00:19:55.
