data_PCOD8106608
_publ_section_title
;
Structure prediction by ZEFSAII (Michael W. Deem and Ramdas Pophale) SiO2 
 PCOD8106608
Probable space group: C 2/M
;
_chemical_formula_sum "Si O2"
_cell_formula_units_Z 48
_cell_length_a 23.608094
_cell_length_b 21.763949
_cell_length_c 4.972510
_cell_angle_alpha 90.000000
_cell_angle_beta 60.001087
_cell_angle_gamma 90.000000
_cell_volume 2212.634496
_symmetry_space_group_name_H-M "C 2/M"
_symmetry_group_IT_number 12
_symmetry_cell_setting 'monoclinic'
loop_
_space_group_symop_operation_xyz
x,y,z
-x,y,-z
-x,-y,-z
x,-y,z
1/2+x,1/2+y,z
1/2-x,1/2+y,-z
1/2-x,1/2-y,-z
1/2+x,1/2-y,z
loop_
_atom_site_type_symbol
_atom_site_label
_atom_site_fract_x
_atom_site_fract_y
_atom_site_fract_z
Si Si1 0.650051 0.000000 0.883547
Si Si2 0.455472 0.431661 0.348463
Si Si3 0.925927 0.248493 0.080868
Si Si4 0.125614 0.181928 0.304636
Si Si5 0.351209 0.868132 0.220816
Si Si6 0.233273 0.500000 0.186446
Si Si7 0.739214 0.131152 0.064362
O O1 0.613762 0.935563 0.896074
O O2 0.715863 0.000000 0.543722
O O3 0.667127 0.000000 0.158986
O O4 0.500000 0.436114 0.500000
O O5 0.427565 0.500000 0.344780
O O6 0.396609 0.384723 0.537045
O O7 0.500000 0.406216 0.000000
O O8 0.879633 0.229219 0.436974
O O9 0.906888 0.317509 0.039241
O O10 0.917470 0.203754 0.845709
O O11 0.000000 0.245606 0.000000
O O12 0.201763 0.179276 0.038042
O O13 0.319659 0.859040 0.587891
O O14 0.291379 0.860688 0.156499
O O15 0.271354 0.562811 0.025532
#
# Coordination Sequence:
#
# PCOD8106608 Si02
#       7
#     4   8   8   8   8   4   8
#     4   8  16  34  59  84 112 148 179 236 292 346
#     4  10  21  38  58  81 114 158 206 251 285 327
#     4  12  26  42  60  83 117 162 203 247 294 355
#     4  12  24  38  61  88 119 159 198 247 294 354
#     4  10  21  40  61  88 121 151 195 239 305 363
#     4   8  16  32  54  84 120 146 184 222 294 354
#     4  10  21  36  61  91 119 156 186 249 298 360
#
# _framework density 21.693595999999999
#
# number of rings (size 3 to 8) (size 9 to 14) (size 15 to 20)
#    0.000    1.667    0.000    5.000    1.167    4.000 
#    0.000    0.417    0.000    0.000    0.000    9.333 
#    0.000    0.000    0.000    0.000    0.000    0.000 
#
# Total GULP energy -297525.489224 kJ/mol
# GULP energy per Si atom -12396.895384 kJ/mol
# Density = 2.164422 g / cm^3
# Si number density = 21.693596 Si / 1000 Ang^3
#
#
#
# Elastic Constant Matrix: (Units=GPa)
#
#
# Indices 1 2 3 4 5 6 
#
# 1 63.8064 43.2205 20.7930 0.0000 16.3348 0.0000
# 2 43.2205 130.3683 27.3141 0.0000 -7.4704 0.0000
# 3 20.7930 27.3141 71.4443 0.0000 21.8263 0.0000
# 4 0.0000 0.0000 0.0000 26.5460 0.0000 2.0218
# 5 16.3348 -7.4704 21.8263 0.0000 27.7727 0.0000
# 6 0.0000 0.0000 0.0000 2.0218 0.0000 29.6396
#
#
#
# Elastic Compliance Matrix: (Units=1/GPa)
#
#
# Indices 1 2 3 4 5 6 
#
# 1 0.027684 -0.010951 0.002637 0.000000 -0.021301 0.000000
# 2 -0.010951 0.013585 -0.006699 0.000000 0.015360 0.000000
# 3 0.002637 -0.006699 0.022127 0.000000 -0.020743 0.000000
# 4 0.000000 0.000000 0.000000 0.037867 0.000000 -0.002583
# 5 -0.021301 0.015360 -0.020743 0.000000 0.068968 0.000000
# 6 0.000000 0.000000 0.000000 -0.002583 0.000000 0.033915
#
#
# Mechanical properties :
#
#
# Convention : Reuss Voigt Hill
#
# Bulk Modulus (GPa) = 29.96667 49.80825 39.88746
# Shear Modulus (GPa) = 20.38359 28.41108 24.39733
#
# Velocity S-wave (km/s) = 3.06864 3.62284 3.35719
# Velocity P-wave (km/s) = 5.13799 6.36472 5.78397
#
# Compressibility (1/GPa) = 0.03337040
#
# Stress axis : x y z
#
# Youngs Moduli (GPa) = 36.12187 73.61167 45.19287
#
# Poissons Ratio (x) = 0.80613 -0.11917
# Poissons Ratio (y) = 0.39557 0.30274
# Poissons Ratio (z) = -0.09525 0.49311
#
# Static dielectric constant tensor:
#      x y z
#    x 3.503440 0.000000 0.385410 
#    y 0.000000 4.484780 0.000000 
#    z 0.385410 0.000000 3.736330 
# 
# 
# High freq. dielectric constant tensor:
#      x y z
#    x 1.823190 0.000000 0.037950 
#    y 0.000000 1.874660 0.000000 
#    z 0.037950 0.000000 1.842990 
# 
# From -- ./inp_files/25555.got.cif
#   From: 2010.06.25/outbox.cif.g09.slc.cpg/sg12_13_cif.got.tgz:25555.got - 2010.06.28 00:19:55.
