data_PCOD8106703
_publ_section_title
;
Structure prediction by ZEFSAII (Michael W. Deem and Ramdas Pophale) SiO2 
 PCOD8106703
Probable space group: C 2/M
;
_chemical_formula_sum "Si O2"
_cell_formula_units_Z 56
_cell_length_a 28.134966
_cell_length_b 8.854862
_cell_length_c 19.522378
_cell_angle_alpha 90.000000
_cell_angle_beta 141.841218
_cell_angle_gamma 90.000000
_cell_volume 3004.961888
_symmetry_space_group_name_H-M "C 2/M"
_symmetry_group_IT_number 12
_symmetry_cell_setting 'monoclinic'
loop_
_space_group_symop_operation_xyz
x,y,z
-x,y,-z
-x,-y,-z
x,-y,z
1/2+x,1/2+y,z
1/2-x,1/2+y,-z
1/2-x,1/2-y,-z
1/2+x,1/2-y,z
loop_
_atom_site_type_symbol
_atom_site_label
_atom_site_fract_x
_atom_site_fract_y
_atom_site_fract_z
Si Si1 0.009332 0.823944 0.667053
Si Si2 0.697673 0.675484 0.237361
Si Si3 0.365114 0.175751 0.283979
Si Si4 0.705762 0.178196 0.101684
Si Si5 0.460989 0.322411 0.887602
Si Si6 0.061295 0.178182 0.876762
Si Si7 0.868558 0.326449 0.446719
O O1 0.920933 0.781614 0.552123
O O2 0.062039 0.728999 0.676010
O O3 0.027527 0.777725 0.765104
O O4 0.022768 0.000000 0.669046
O O5 0.694315 0.500000 0.211276
O O6 0.684327 0.770096 0.153687
O O7 0.630207 0.716249 0.214789
O O8 0.779793 0.711144 0.364979
O O9 0.289289 0.263167 0.173265
O O10 0.382510 0.209908 0.382891
O O11 0.350444 0.000000 0.255260
O O12 0.705638 0.000000 0.097468
O O13 0.643516 0.242701 0.978152
O O14 0.474250 0.500000 0.902489
O O15 0.501306 0.256436 0.865371
O O16 0.500000 0.252660 0.000000
O O17 0.072837 0.000000 0.897348
O O18 0.888590 0.500000 0.485671
#
# Coordination Sequence:
#
# PCOD8106703 Si02
#       7
#     8   8   8   8   8   8   8
#     4  11  23  36  53  78 110 144 178 224 273 314
#     4   9  17  33  57  83 107 139 182 224 263 309
#     4  10  21  38  60  80 103 140 184 223 262 318
#     4  11  21  33  53  83 113 139 172 221 276 320
#     4   9  15  29  59  84 101 137 186 223 253 308
#     4  10  21  37  54  77 110 146 183 218 262 323
#     4   9  19  35  56  79 105 139 181 223 263 315
#
# _framework density 18.635843000000001
#
# number of rings (size 3 to 8) (size 9 to 14) (size 15 to 20)
#    0.000    2.143    1.429    3.429    0.000    6.286 
#    0.000    2.143    0.000    0.000    0.000    0.000 
#    0.000    0.000    0.000    0.000    0.000    0.000 
#
# Total GULP energy -347233.774921 kJ/mol
# GULP energy per Si atom -12401.206247 kJ/mol
# Density = 1.859343 g / cm^3
# Si number density = 18.635843 Si / 1000 Ang^3
#
#
#
# Elastic Constant Matrix: (Units=GPa)
#
#
# Indices 1 2 3 4 5 6 
#
# 1 49.3511 13.3515 47.7436 0.0000 17.3006 0.0000
# 2 13.3515 62.2487 48.9559 0.0000 0.0137 0.0000
# 3 47.7436 48.9559 139.9572 0.0000 12.5698 0.0000
# 4 0.0000 0.0000 0.0000 29.3018 0.0000 1.3301
# 5 17.3006 0.0137 12.5698 0.0000 24.7078 0.0000
# 6 0.0000 0.0000 0.0000 1.3301 0.0000 14.8345
#
#
#
# Elastic Compliance Matrix: (Units=1/GPa)
#
#
# Indices 1 2 3 4 5 6 
#
# 1 0.038665 0.000811 -0.011571 0.000000 -0.021187 0.000000
# 2 0.000811 0.022586 -0.008514 0.000000 0.003751 0.000000
# 3 -0.011571 -0.008514 0.013981 0.000000 0.000994 0.000000
# 4 0.000000 0.000000 0.000000 0.034267 0.000000 -0.003072
# 5 -0.021187 0.003751 0.000994 0.000000 0.054801 0.000000
# 6 0.000000 0.000000 0.000000 -0.003072 0.000000 0.067686
#
#
# Mechanical properties :
#
#
# Convention : Reuss Voigt Hill
#
# Bulk Modulus (GPa) = 27.25908 52.40656 39.83282
# Shear Modulus (GPa) = 17.68284 23.20255 20.44270
#
# Velocity S-wave (km/s) = 3.08370 3.53235 3.31563
# Velocity P-wave (km/s) = 5.22857 6.69471 6.00654
#
# Compressibility (1/GPa) = 0.03668503
#
# Stress axis : x y z
#
# Youngs Moduli (GPa) = 25.86333 44.27612 71.52574
#
# Poissons Ratio (x) = -0.03593 0.82760
# Poissons Ratio (y) = -0.02099 0.60896
# Poissons Ratio (z) = 0.29926 0.37696
#
# Static dielectric constant tensor:
#      x y z
#    x 3.515260 0.000000 0.177140 
#    y 0.000000 3.222630 0.000000 
#    z 0.177140 0.000000 3.436020 
# 
# 
# High freq. dielectric constant tensor:
#      x y z
#    x 1.719450 0.000000 0.020350 
#    y 0.000000 1.706890 0.000000 
#    z 0.020350 0.000000 1.721910 
# 
# From -- ./inp_files/292452.got.cif
#   From: 2010.06.25/outbox.cif.g09.slc.cpg/sg12_147_cif.got.tgz:292452.got - 2010.06.28 00:19:55.
