data_PCOD8106642
_publ_section_title
;
Structure prediction by ZEFSAII (Michael W. Deem and Ramdas Pophale) SiO2 
 PCOD8106642
Probable space group: C 2/M
;
_chemical_formula_sum "Si O2"
_cell_formula_units_Z 56
_cell_length_a 11.815596
_cell_length_b 32.305486
_cell_length_c 14.602301
_cell_angle_alpha 90.000000
_cell_angle_beta 29.278018
_cell_angle_gamma 90.000000
_cell_volume 2725.866314
_symmetry_space_group_name_H-M "C 2/M"
_symmetry_group_IT_number 12
_symmetry_cell_setting 'monoclinic'
loop_
_space_group_symop_operation_xyz
x,y,z
-x,y,-z
-x,-y,-z
x,-y,z
1/2+x,1/2+y,z
1/2-x,1/2+y,-z
1/2-x,1/2-y,-z
1/2+x,1/2-y,z
loop_
_atom_site_type_symbol
_atom_site_label
_atom_site_fract_x
_atom_site_fract_y
_atom_site_fract_z
Si Si1 0.096700 0.596884 0.655430
Si Si2 0.435874 0.047375 0.942826
Si Si3 0.788127 0.733288 0.589797
Si Si4 0.783077 0.607032 0.709762
Si Si5 0.909972 0.688734 0.319671
Si Si6 0.392226 0.453094 0.309458
Si Si7 0.949347 0.817226 0.937447
O O1 0.201180 0.643312 0.593176
O O2 0.294190 0.571192 0.465599
O O3 0.055543 0.576841 0.783650
O O4 0.862905 0.598354 0.758060
O O5 0.521052 0.000000 0.868661
O O6 0.500000 0.062594 0.000000
O O7 0.164995 0.050798 0.119238
O O8 0.876720 0.719627 0.428225
O O9 0.726941 0.781973 0.655335
O O10 0.557741 0.708126 0.777928
O O11 0.000000 0.718695 0.500000
O O12 0.706902 0.564292 0.716148
O O13 0.565990 0.637488 0.859962
O O14 0.000000 0.626516 0.500000
O O15 0.178135 0.680315 0.107545
O O16 0.307415 0.500000 0.376409
O O17 0.000000 0.795454 0.000000
#
# Coordination Sequence:
#
# PCOD8106642 Si02
#       7
#     8   8   8   8   8   8   8
#     4  11  21  39  61  91 120 156 196 246 300 356
#     4  10  23  42  61  83 116 162 209 246 285 345
#     4  11  22  41  58  85 122 153 193 247 291 353
#     4  10  21  36  63  94 125 153 192 245 307 366
#     4  11  24  38  62  88 115 157 197 240 300 349
#     4  10  22  38  61  92 123 154 193 245 303 357
#     4  12  20  36  64  86 115 156 197 233 290 362
#
# _framework density 20.543928000000001
#
# number of rings (size 3 to 8) (size 9 to 14) (size 15 to 20)
#    0.000    1.286    2.857    3.857    0.000    3.714 
#    2.571    4.286    0.000    0.000    0.000    0.000 
#    0.000    0.000    0.000    0.000    0.000    0.000 
#
# Total GULP energy -347036.546739 kJ/mol
# GULP energy per Si atom -12394.162384 kJ/mol
# Density = 2.049717 g / cm^3
# Si number density = 20.543928 Si / 1000 Ang^3
#
#
#
# Elastic Constant Matrix: (Units=GPa)
#
#
# Indices 1 2 3 4 5 6 
#
# 1 55.8646 18.7671 4.9916 0.0000 18.4867 0.0000
# 2 18.7671 135.9876 35.2197 0.0000 10.3401 0.0000
# 3 4.9916 35.2197 80.8743 0.0001 4.9504 -0.0001
# 4 0.0000 0.0000 0.0001 34.7235 0.0000 -4.9900
# 5 18.4867 10.3401 4.9504 0.0000 23.2984 0.0000
# 6 0.0000 0.0000 -0.0001 -4.9900 0.0000 25.5295
#
#
#
# Elastic Compliance Matrix: (Units=1/GPa)
#
#
# Indices 1 2 3 4 5 6 
#
# 1 0.024807 -0.002133 0.000552 0.000000 -0.018854 0.000000
# 2 -0.002133 0.008677 -0.003561 0.000000 -0.001402 0.000000
# 3 0.000552 -0.003561 0.013994 0.000000 -0.001831 0.000000
# 4 0.000000 0.000000 0.000000 0.029631 0.000000 0.005792
# 5 -0.018854 -0.001402 -0.001831 0.000000 0.058893 0.000000
# 6 0.000000 0.000000 0.000000 0.005792 0.000000 0.040303
#
#
# Mechanical properties :
#
#
# Convention : Reuss Voigt Hill
#
# Bulk Modulus (GPa) = 26.88672 43.40926 35.14799
# Shear Modulus (GPa) = 25.12734 30.96013 28.04374
#
# Velocity S-wave (km/s) = 3.50108 3.88625 3.69868
# Velocity P-wave (km/s) = 5.42764 6.42753 5.94863
#
# Compressibility (1/GPa) = 0.03719308
#
# Stress axis : x y z
#
# Youngs Moduli (GPa) = 40.31141 115.24900 71.46060
#
# Poissons Ratio (x) = 0.24580 -0.03943
# Poissons Ratio (y) = 0.08598 0.25449
# Poissons Ratio (z) = -0.02224 0.41043
#
# Static dielectric constant tensor:
#      x y z
#    x 4.188980 0.000000 -0.019250 
#    y 0.000000 3.915290 0.000000 
#    z -0.019250 0.000000 3.829950 
# 
# 
# High freq. dielectric constant tensor:
#      x y z
#    x 1.785570 0.000000 0.003610 
#    y 0.000000 1.808440 0.000000 
#    z 0.003610 0.000000 1.812590 
# 
# From -- ./inp_files/210006.got.cif
#   From: 2010.06.25/outbox.cif.g09.slc.cpg/sg12_106_cif.got.tgz:210006.got - 2010.06.28 00:19:55.
