data_PCOD8106791
_publ_section_title
;
Structure prediction by ZEFSAII (Michael W. Deem and Ramdas Pophale) SiO2 
 PCOD8106791
Probable space group: C 2/M
;
_chemical_formula_sum "Si O2"
_cell_formula_units_Z 60
_cell_length_a 13.362273
_cell_length_b 10.853205
_cell_length_c 21.031926
_cell_angle_alpha 90.000000
_cell_angle_beta 97.856838
_cell_angle_gamma 90.000000
_cell_volume 3021.490915
_symmetry_space_group_name_H-M "C 2/M"
_symmetry_group_IT_number 12
_symmetry_cell_setting 'monoclinic'
loop_
_space_group_symop_operation_xyz
x,y,z
-x,y,-z
-x,-y,-z
x,-y,z
1/2+x,1/2+y,z
1/2-x,1/2+y,-z
1/2-x,1/2-y,-z
1/2+x,1/2-y,z
loop_
_atom_site_type_symbol
_atom_site_label
_atom_site_fract_x
_atom_site_fract_y
_atom_site_fract_z
Si Si1 0.944387 0.709829 0.742621
Si Si2 0.051248 0.639532 0.629219
Si Si3 0.343366 0.861339 0.855705
Si Si4 0.696351 0.631393 0.468987
Si Si5 0.466884 0.359267 0.925581
Si Si6 0.889058 0.139198 0.176019
Si Si7 0.500000 0.711801 0.500000
Si Si8 0.727931 0.638358 0.328229
O O1 0.969666 0.640158 0.679321
O O2 0.909695 0.622183 0.797161
O O3 0.846330 0.795665 0.726873
O O4 0.046290 0.782106 0.768752
O O5 0.072294 0.500000 0.610401
O O6 0.009021 0.705521 0.563582
O O7 0.159561 0.698289 0.659417
O O8 0.387434 0.749285 0.901972
O O9 0.227844 0.820964 0.832995
O O10 0.346498 0.000000 0.887888
O O11 0.754211 0.500000 0.486282
O O12 0.750000 0.750000 0.500000
O O13 0.592724 0.620954 0.498061
O O14 0.676476 0.646368 0.392803
O O15 0.422458 0.500000 0.913251
O O16 0.566297 0.344368 0.890908
O O17 0.500000 0.336906 0.000000
O O18 0.898746 0.000000 0.200754
O O19 0.737231 0.500000 0.303484
#
# Coordination Sequence:
#
# PCOD8106791 Si02
#       8
#     8   8   8   8   8   8   4   8
#     4  11  20  37  57  80 110 149 197 238 288 339
#     4  11  23  36  55  81 111 146 189 238 296 354
#     4  10  21  37  57  85 122 154 190 240 287 335
#     4  11  23  41  61  85 112 143 184 233 290 357
#     4   9  19  37  61  89 121 158 199 234 271 331
#     4   9  19  36  58  84 116 155 193 233 287 338
#     4  12  22  40  58  80 111 146 185 238 297 356
#     4  10  21  37  56  79 108 142 186 235 286 347
#
# _framework density 19.857745999999999
#
# number of rings (size 3 to 8) (size 9 to 14) (size 15 to 20)
#    0.000    1.733    2.667    2.000    0.000    1.867 
#    0.000    3.333    0.000    0.000    0.000    0.000 
#    0.000    0.000    0.000    0.000    0.000    0.000 
#
# Total GULP energy -371734.458295 kJ/mol
# GULP energy per Si atom -12391.148610 kJ/mol
# Density = 1.981255 g / cm^3
# Si number density = 19.857746 Si / 1000 Ang^3
#
#
#
# Elastic Constant Matrix: (Units=GPa)
#
#
# Indices 1 2 3 4 5 6 
#
# 1 106.2272 41.2117 20.5289 0.0000 6.1278 0.0000
# 2 41.2117 115.6239 32.5740 0.0000 19.7847 0.0000
# 3 20.5289 32.5740 81.1859 0.0000 3.1104 0.0000
# 4 0.0000 0.0000 0.0000 0.6841 0.0000 12.3572
# 5 6.1278 19.7847 3.1104 0.0000 28.1309 0.0000
# 6 0.0000 0.0000 0.0000 12.3572 0.0000 23.0914
#
#
#
# Elastic Compliance Matrix: (Units=1/GPa)
#
#
# Indices 1 2 3 4 5 6 
#
# 1 0.011060 -0.003606 -0.001360 0.000000 0.000278 0.000000
# 2 -0.003606 0.012252 -0.003720 0.000000 -0.007420 0.000000
# 3 -0.001360 -0.003720 0.014102 0.000000 0.001353 0.000000
# 4 0.000000 0.000000 0.000000 -0.168669 0.000000 0.090262
# 5 0.000278 -0.007420 0.001353 0.000000 0.040556 0.000000
# 6 0.000000 0.000000 0.000000 0.090262 0.000000 -0.004997
#
#
# Mechanical properties :
#
#
# Convention : Reuss Voigt Hill
#
# Bulk Modulus (GPa) = 49.89749 54.62956 52.26353
# Shear Modulus (GPa) = -69.78964 24.29611 -22.74676
#
# Velocity S-wave (km/s) = -5.93474 3.50166 -3.38817
# Velocity P-wave (km/s) = 4.66684 6.62714 3.32713
#
# Compressibility (1/GPa) = 0.02004109
#
# Stress axis : x y z
#
# Youngs Moduli (GPa) = 90.41801 81.62187 70.91242
#
# Poissons Ratio (x) = 0.29435 0.09646
# Poissons Ratio (y) = 0.32607 0.26376
# Poissons Ratio (z) = 0.12299 0.30359
#
# Static dielectric constant tensor:
#      x y z
#    x 3.560040 0.000000 -0.074850 
#    y 0.000000 3.592330 0.000000 
#    z -0.074850 0.000000 3.455300 
# 
# 
# High freq. dielectric constant tensor:
#      x y z
#    x 1.779710 0.000000 -0.013390 
#    y 0.000000 1.775000 0.000000 
#    z -0.013390 0.000000 1.763330 
# 
# From -- ./inp_files/304737.got.cif
#   From: 2010.06.25/outbox.cif.g09.slc.cpg/sg12_153_cif.got.tgz:304737.got - 2010.06.28 00:19:55.
