data_PCOD8106719
_publ_section_title
;
Structure prediction by ZEFSAII (Michael W. Deem and Ramdas Pophale) SiO2 
 PCOD8106719
Probable space group: C 2/M
;
_chemical_formula_sum "Si O2"
_cell_formula_units_Z 56
_cell_length_a 10.375430
_cell_length_b 18.037506
_cell_length_c 22.884113
_cell_angle_alpha 90.000000
_cell_angle_beta 47.149533
_cell_angle_gamma 90.000000
_cell_volume 3139.773577
_symmetry_space_group_name_H-M "C 2/M"
_symmetry_group_IT_number 12
_symmetry_cell_setting 'monoclinic'
loop_
_space_group_symop_operation_xyz
x,y,z
-x,y,-z
-x,-y,-z
x,-y,z
1/2+x,1/2+y,z
1/2-x,1/2+y,-z
1/2-x,1/2-y,-z
1/2+x,1/2-y,z
loop_
_atom_site_type_symbol
_atom_site_label
_atom_site_fract_x
_atom_site_fract_y
_atom_site_fract_z
Si Si1 0.761237 0.411731 0.820129
Si Si2 0.877132 0.916010 0.348364
Si Si3 0.778377 0.088269 0.820130
Si Si4 0.150392 0.316703 0.500000
Si Si5 0.399218 0.088477 0.900522
Si Si6 0.577774 0.916010 0.348365
Si Si7 0.128782 0.911500 0.080811
O O1 0.752452 0.500000 0.823082
O O2 0.843224 0.380478 0.854594
O O3 0.884344 0.385721 0.728492
O O4 0.564239 0.380156 0.874509
O O5 0.798169 0.865160 0.422940
O O6 0.761292 0.913599 0.325805
O O7 0.069819 0.885721 0.271507
O O8 0.885858 0.000000 0.369863
O O9 0.592994 0.119523 0.854596
O O10 0.812235 0.119844 0.874510
O O11 0.778301 0.000000 0.823084
O O12 0.250000 0.250000 0.500000
O O13 0.000000 0.290937 0.500000
O O14 0.066991 0.365160 0.577059
O O15 0.399253 0.000000 0.900499
O O16 0.264082 0.118747 0.990610
O O17 0.504551 0.000000 0.369864
O O18 0.128589 0.000000 0.080940
#
# Coordination Sequence:
#
# PCOD8106719 Si02
#       7
#     8   8   8   8   8   8   8
#     4   9  15  24  38  60  91 124 159 194 230 279
#     4   9  16  30  53  75  95 126 167 202 235 282
#     4   9  15  24  38  60  91 124 159 194 230 279
#     4  10  21  37  55  75  99 124 158 202 246 294
#     4   9  16  22  32  57  93 130 156 185 237 283
#     4   9  16  30  53  75  95 126 167 202 235 282
#     4   9  14  22  36  55  87 128 162 191 227 277
#
# _framework density 17.83568
#
# number of rings (size 3 to 8) (size 9 to 14) (size 15 to 20)
#    0.000    2.857    1.429    1.286    0.000    5.143 
#    2.571    0.000    0.000    0.857    0.000    0.000 
#    0.000    6.857    0.000    0.000    0.000    0.000 
#
# Total GULP energy -347121.475318 kJ/mol
# GULP energy per Si atom -12397.195547 kJ/mol
# Density = 1.779509 g / cm^3
# Si number density = 17.835680 Si / 1000 Ang^3
#
#
#
# Elastic Constant Matrix: (Units=GPa)
#
#
# Indices 1 2 3 4 5 6 
#
# 1 143.9258 32.6997 97.3862 0.0004 -0.0684 -0.0004
# 2 32.6997 40.4133 43.9236 -0.0005 -1.0350 -0.0002
# 3 97.3862 43.9236 187.6827 -0.0031 -3.9658 -0.0006
# 4 0.0004 -0.0005 -0.0031 -1.9190 -0.0032 1.5869
# 5 -0.0684 -1.0350 -3.9658 -0.0032 24.0162 0.0011
# 6 -0.0004 -0.0002 -0.0006 1.5869 0.0011 15.2438
#
#
#
# Elastic Compliance Matrix: (Units=1/GPa)
#
#
# Indices 1 2 3 4 5 6 
#
# 1 0.011116 -0.003658 -0.004931 0.000012 -0.000940 -0.000001
# 2 -0.003658 0.034390 -0.006140 -0.000001 0.000458 0.000000
# 3 -0.004931 -0.006140 0.009351 -0.000015 0.001265 0.000002
# 4 0.000012 -0.000001 -0.000015 -0.479791 -0.000068 0.049947
# 5 -0.000940 0.000458 0.001265 -0.000068 0.041865 0.000004
# 6 -0.000001 0.000000 0.000002 0.049947 0.000004 0.060401
#
#
# Mechanical properties :
#
#
# Convention : Reuss Voigt Hill
#
# Bulk Modulus (GPa) = 39.37633 80.00454 59.69044
# Shear Modulus (GPa) = -17.55966 20.66901 1.55468
#
# Velocity S-wave (km/s) = -3.14112 3.40789 0.93464
# Velocity P-wave (km/s) = 2.99495 7.77424 5.89103
#
# Compressibility (1/GPa) = 0.02539597
#
# Stress axis : x y z
#
# Youngs Moduli (GPa) = 89.96416 29.07840 106.94280
#
# Poissons Ratio (x) = 0.10638 0.52738
# Poissons Ratio (y) = 0.32911 0.65667
# Poissons Ratio (z) = 0.44365 0.17855
#
# Static dielectric constant tensor:
#      x y z
#    x 3.410150 0.000000 -0.009070 
#    y 0.000000 2.681200 0.000000 
#    z -0.009070 0.000000 3.508340 
# 
# 
# High freq. dielectric constant tensor:
#      x y z
#    x 1.687690 0.000000 -0.002120 
#    y 0.000000 1.617730 0.000000 
#    z -0.002120 0.000000 1.710650 
# 
# From -- ./inp_files/300696.got.cif
#   From: 2010.06.25/outbox.cif.g09.slc.cpg/sg12_151_cif.got.tgz:300696.got - 2010.06.28 00:19:55.
