data_PCOD8106206
_publ_section_title
;
Structure prediction by ZEFSAII (Michael W. Deem and Ramdas Pophale) SiO2 
 PCOD8106206
Probable space group: C 2/M
;
_chemical_formula_sum "Si O2"
_cell_formula_units_Z 64
_cell_length_a 19.039810
_cell_length_b 8.942479
_cell_length_c 31.064258
_cell_angle_alpha 90.000000
_cell_angle_beta 140.015764
_cell_angle_gamma 90.000000
_cell_volume 3398.651071
_symmetry_space_group_name_H-M "C 2/M"
_symmetry_group_IT_number 12
_symmetry_cell_setting 'monoclinic'
loop_
_space_group_symop_operation_xyz
x,y,z
-x,y,-z
-x,-y,-z
x,-y,z
1/2+x,1/2+y,z
1/2-x,1/2+y,-z
1/2-x,1/2-y,-z
1/2+x,1/2-y,z
loop_
_atom_site_type_symbol
_atom_site_label
_atom_site_fract_x
_atom_site_fract_y
_atom_site_fract_z
Si Si1 0.594750 0.823328 0.313429
Si Si2 0.700333 0.827979 0.205113
Si Si3 0.492595 0.828776 0.947085
Si Si4 0.550338 0.324738 0.682173
Si Si5 0.984437 0.671823 0.422521
Si Si6 0.134698 0.173900 0.947568
Si Si7 0.677538 0.171744 0.578113
Si Si8 0.054045 0.176405 0.204427
O O1 0.521065 0.766670 0.317795
O O2 0.719816 0.778570 0.380232
O O3 0.550447 0.753071 0.248768
O O4 0.585896 0.000000 0.306389
O O5 0.628782 0.800230 0.128569
O O6 0.823213 0.780490 0.251338
O O7 0.657279 0.730458 0.224837
O O8 0.695070 0.000000 0.217452
O O9 0.577942 0.719729 0.965035
O O10 0.528065 0.000000 0.955809
O O11 0.500000 0.785597 0.000000
O O12 0.530143 0.500000 0.679733
O O13 0.514964 0.281699 0.617506
O O14 0.975566 0.500000 0.403137
O O15 0.882921 0.712361 0.405733
O O16 0.097086 0.698066 0.500516
O O17 0.058322 0.223378 0.871865
O O18 0.154523 0.000000 0.956392
O O19 0.250000 0.250000 0.000000
O O20 0.717078 0.000000 0.598084
O O21 0.064713 0.000000 0.215381
#
# Coordination Sequence:
#
# PCOD8106206 Si02
#       8
#     8   8   8   8   8   8   8   8
#     4  12  25  38  55  81 112 146 184 226 273 324
#     4   9  19  36  57  81 108 141 184 227 269 323
#     4   9  18  34  56  81 110 144 181 224 273 323
#     4  11  23  37  54  79 113 149 183 225 276 326
#     4   9  19  37  61  86 110 141 182 224 269 324
#     4  10  21  36  56  82 111 145 183 224 271 323
#     4   9  19  38  62  85 111 143 179 222 271 324
#     4  10  21  38  59  81 108 144 184 225 272 325
#
# _framework density 18.831
#
# number of rings (size 3 to 8) (size 9 to 14) (size 15 to 20)
#    0.000    2.125    0.000    3.750    0.000    7.250 
#    0.000    3.750    0.000    0.000    0.000    0.000 
#    0.000    0.000    0.000    0.000    0.000    0.000 
#
# Total GULP energy -396892.975245 kJ/mol
# GULP energy per Si atom -12402.905476 kJ/mol
# Density = 1.878814 g / cm^3
# Si number density = 18.831000 Si / 1000 Ang^3
#
#
#
# Elastic Constant Matrix: (Units=GPa)
#
#
# Indices 1 2 3 4 5 6 
#
# 1 118.9377 51.1895 72.8908 0.0000 2.9315 -0.0001
# 2 51.1895 74.2986 44.1697 0.0001 5.6689 -0.0003
# 3 72.8908 44.1697 107.5207 0.0000 2.0072 0.0000
# 4 0.0000 0.0001 0.0000 30.8243 0.0000 -5.5304
# 5 2.9315 5.6689 2.0072 0.0000 35.8573 0.0000
# 6 -0.0001 -0.0003 0.0000 -5.5304 0.0000 21.2142
#
#
#
# Elastic Compliance Matrix: (Units=1/GPa)
#
#
# Indices 1 2 3 4 5 6 
#
# 1 0.016265 -0.006164 -0.008496 0.000000 0.000120 0.000000
# 2 -0.006164 0.020355 -0.004137 0.000000 -0.002482 0.000000
# 3 -0.008496 -0.004137 0.016752 0.000000 0.000411 0.000000
# 4 0.000000 0.000000 0.000000 0.034034 0.000000 0.008872
# 5 0.000120 -0.002482 0.000411 0.000000 0.028248 0.000000
# 6 0.000000 0.000000 0.000000 0.008872 0.000000 0.049451
#
#
# Mechanical properties :
#
#
# Convention : Reuss Voigt Hill
#
# Bulk Modulus (GPa) = 63.38165 70.80635 67.09400
# Shear Modulus (GPa) = 24.04340 26.41296 25.22818
#
# Velocity S-wave (km/s) = 3.57711 3.74924 3.66418
# Velocity P-wave (km/s) = 7.12686 7.51165 7.32179
#
# Compressibility (1/GPa) = 0.01577744
#
# Stress axis : x y z
#
# Youngs Moduli (GPa) = 61.48293 49.12878 59.69453
#
# Poissons Ratio (x) = 0.30284 0.50718
# Poissons Ratio (y) = 0.37899 0.24693
# Poissons Ratio (z) = 0.52237 0.20322
#
# Static dielectric constant tensor:
#      x y z
#    x 3.413170 0.000000 0.031910 
#    y 0.000000 3.315070 0.000000 
#    z 0.031910 0.000000 3.600420 
# 
# 
# High freq. dielectric constant tensor:
#      x y z
#    x 1.727970 0.000000 0.000430 
#    y 0.000000 1.734040 0.000000 
#    z 0.000430 0.000000 1.744300 
# 
# From -- ./inp_files/377990.got.cif
#   From: 2010.06.25/outbox.cif.g09.slc.cpg/sg12_189_cif.got.tgz:377990.got - 2010.06.28 00:19:55.
