data_PCOD8106688
_publ_section_title
;
Structure prediction by ZEFSAII (Michael W. Deem and Ramdas Pophale) SiO2 
 PCOD8106688
Probable space group: C 2/M
;
_chemical_formula_sum "Si O2"
_cell_formula_units_Z 40
_cell_length_a 22.734430
_cell_length_b 8.735397
_cell_length_c 18.532347
_cell_angle_alpha 90.000000
_cell_angle_beta 36.152092
_cell_angle_gamma 90.000000
_cell_volume 2171.191612
_symmetry_space_group_name_H-M "C 2/M"
_symmetry_group_IT_number 12
_symmetry_cell_setting 'monoclinic'
loop_
_space_group_symop_operation_xyz
x,y,z
-x,y,-z
-x,-y,-z
x,-y,z
1/2+x,1/2+y,z
1/2-x,1/2+y,-z
1/2-x,1/2-y,-z
1/2+x,1/2-y,z
loop_
_atom_site_type_symbol
_atom_site_label
_atom_site_fract_x
_atom_site_fract_y
_atom_site_fract_z
Si Si1 0.653624 0.322944 0.311686
Si Si2 0.141160 0.179699 0.890940
Si Si3 0.039633 0.681500 0.856104
Si Si4 0.641608 0.821041 0.608819
Si Si5 0.549255 0.676912 0.562872
O O1 0.685107 0.500000 0.278320
O O2 0.746452 0.218327 0.196953
O O3 0.565815 0.290688 0.341810
O O4 0.617816 0.278012 0.427191
O O5 0.117343 0.267116 0.840321
O O6 0.127497 0.000000 0.892941
O O7 0.066767 0.237057 0.027074
O O8 0.025282 0.500000 0.874112
O O9 0.081738 0.737980 0.737910
O O10 0.750000 0.750000 0.500000
O O11 0.578562 0.780390 0.600919
O O12 0.656407 0.000000 0.598991
O O13 0.565697 0.500000 0.566435
#
# Coordination Sequence:
#
# PCOD8106688 Si02
#       5
#     8   8   8   8   8
#     4   9  18  35  56  78 105 140 175 208 255 314
#     4  11  21  33  54  82 105 132 173 221 262 299
#     4  10  21  37  54  74 104 142 176 209 255 314
#     4  11  23  36  54  79 107 138 172 211 260 310
#     4   9  19  35  56  79 105 138 176 213 253 305
#
# _framework density 18.423062999999999
#
# number of rings (size 3 to 8) (size 9 to 14) (size 15 to 20)
#    0.000    2.000    0.000    6.600    0.000    9.600 
#    0.000    3.000    0.000    0.000    0.000    0.000 
#    0.000    0.000    0.000    0.000    0.000    0.000 
#
# Total GULP energy -248062.749978 kJ/mol
# GULP energy per Si atom -12403.137499 kJ/mol
# Density = 1.838113 g / cm^3
# Si number density = 18.423063 Si / 1000 Ang^3
#
#
#
# Elastic Constant Matrix: (Units=GPa)
#
#
# Indices 1 2 3 4 5 6 
#
# 1 92.2278 22.7239 65.8304 -0.0003 2.4465 0.0002
# 2 22.7239 51.2569 42.5392 -0.0007 -2.3315 0.0006
# 3 65.8304 42.5392 131.1925 -0.0003 -5.7234 0.0004
# 4 -0.0003 -0.0007 -0.0003 28.6061 0.0001 -1.3029
# 5 2.4465 -2.3315 -5.7234 0.0001 34.9650 -0.0001
# 6 0.0002 0.0006 0.0004 -1.3029 -0.0001 33.0260
#
#
#
# Elastic Compliance Matrix: (Units=1/GPa)
#
#
# Indices 1 2 3 4 5 6 
#
# 1 0.017146 -0.000664 -0.008503 0.000000 -0.002636 0.000000
# 2 -0.000664 0.026723 -0.008311 0.000001 0.000468 0.000000
# 3 -0.008503 -0.008311 0.014691 0.000000 0.002445 0.000000
# 4 0.000000 0.000001 0.000000 0.035021 0.000000 0.001382
# 5 -0.002636 0.000468 0.002445 0.000000 0.029216 0.000000
# 6 0.000000 0.000000 0.000000 0.001382 0.000000 0.030334
#
#
# Mechanical properties :
#
#
# Convention : Reuss Voigt Hill
#
# Bulk Modulus (GPa) = 42.36876 59.65155 51.01016
# Shear Modulus (GPa) = 25.51624 28.89167 27.20396
#
# Velocity S-wave (km/s) = 3.72562 3.96439 3.84686
# Velocity P-wave (km/s) = 6.44628 7.30782 6.89053
#
# Compressibility (1/GPa) = 0.02360229
#
# Stress axis : x y z
#
# Youngs Moduli (GPa) = 58.32416 37.42094 68.07061
#
# Poissons Ratio (x) = 0.02486 0.57880
# Poissons Ratio (y) = 0.03874 0.56575
# Poissons Ratio (z) = 0.49593 0.31101
#
# Static dielectric constant tensor:
#      x y z
#    x 3.335200 0.000000 0.006650 
#    y 0.000000 3.343700 0.000000 
#    z 0.006650 0.000000 3.535410 
# 
# 
# High freq. dielectric constant tensor:
#      x y z
#    x 1.706930 0.000000 -0.009730 
#    y 0.000000 1.717310 0.000000 
#    z -0.009730 0.000000 1.720230 
# 
# From -- ./inp_files/229481.got.cif
#   From: 2010.06.25/outbox.cif.g09.slc.cpg/sg12_115_cif.got.tgz:229481.got - 2010.06.28 00:19:55.
