data_PCOD8106618
_publ_section_title
;
Structure prediction by ZEFSAII (Michael W. Deem and Ramdas Pophale) SiO2 
 PCOD8106618
Probable space group: C 2/M
;
_chemical_formula_sum "Si O2"
_cell_formula_units_Z 64
_cell_length_a 13.590801
_cell_length_b 18.738687
_cell_length_c 12.414948
_cell_angle_alpha 90.000000
_cell_angle_beta 97.507107
_cell_angle_gamma 90.000000
_cell_volume 3134.661039
_symmetry_space_group_name_H-M "C 2/M"
_symmetry_group_IT_number 12
_symmetry_cell_setting 'monoclinic'
loop_
_space_group_symop_operation_xyz
x,y,z
-x,y,-z
-x,-y,-z
x,-y,z
1/2+x,1/2+y,z
1/2-x,1/2+y,-z
1/2-x,1/2-y,-z
1/2+x,1/2-y,z
loop_
_atom_site_type_symbol
_atom_site_label
_atom_site_fract_x
_atom_site_fract_y
_atom_site_fract_z
Si Si1 0.699730 0.421632 0.237975
Si Si2 0.829681 0.685709 0.396719
Si Si3 0.088371 0.749946 0.933648
Si Si4 0.247641 0.139708 0.026505
Si Si5 0.810532 0.312517 0.631678
Si Si6 0.764320 0.078977 0.203576
Si Si7 0.013463 0.920642 0.701588
Si Si8 0.493081 0.266585 0.310618
O O1 0.732054 0.500000 0.282657
O O2 0.764083 0.365570 0.314150
O O3 0.721659 0.417024 0.114507
O O4 0.581386 0.411958 0.234218
O O5 0.836976 0.653705 0.518529
O O6 0.787437 0.765640 0.394467
O O7 0.939122 0.701948 0.366152
O O8 0.154845 0.680931 0.919840
O O9 0.052155 0.779277 0.813953
O O10 0.153734 0.808768 0.002705
O O11 0.000000 0.728111 0.000000
O O12 0.273916 0.102221 0.918344
O O13 0.787760 0.373977 0.712927
O O14 0.894991 0.259744 0.687322
O O15 0.883711 0.080883 0.218897
O O16 0.725238 0.000000 0.221600
O O17 0.010904 0.846048 0.631203
O O18 0.006589 0.000000 0.640685
#
# Coordination Sequence:
#
# PCOD8106618 Si02
#       8
#     8   8   8   8   8   8   8   8
#     4  11  23  41  63  92 132 170 207 255 314 380
#     4  11  23  41  63  94 120 165 213 264 311 367
#     4  11  22  33  61  94 129 162 204 260 304 365
#     4  11  22  37  60  96 125 166 209 247 313 376
#     4  11  24  40  67  90 122 162 214 266 314 366
#     4  11  23  42  63  92 130 165 205 256 317 376
#     4  10  21  36  61  94 131 167 200 249 313 381
#     4  12  20  41  65  91 127 161 214 260 309 370
#
# _framework density 20.416881
#
# number of rings (size 3 to 8) (size 9 to 14) (size 15 to 20)
#    0.000    1.000    5.000    2.250    1.750    0.500 
#    0.000    3.125    0.000    6.750    0.000    0.000 
#    0.000    0.000    0.000    0.000    0.000    0.000 
#
# Total GULP energy -396571.469007 kJ/mol
# GULP energy per Si atom -12392.858406 kJ/mol
# Density = 2.037041 g / cm^3
# Si number density = 20.416881 Si / 1000 Ang^3
#
#
#
# Elastic Constant Matrix: (Units=GPa)
#
#
# Indices 1 2 3 4 5 6 
#
# 1 77.9147 38.2757 22.9773 0.0000 -0.7491 0.0000
# 2 38.2757 124.8250 43.5368 0.0000 -0.6576 0.0000
# 3 22.9773 43.5368 109.8497 0.0000 -9.1414 0.0000
# 4 0.0000 0.0000 0.0000 10.4269 0.0000 -6.2559
# 5 -0.7491 -0.6576 -9.1414 0.0000 21.0140 0.0000
# 6 0.0000 0.0000 0.0000 -6.2559 0.0000 29.7072
#
#
#
# Elastic Compliance Matrix: (Units=1/GPa)
#
#
# Indices 1 2 3 4 5 6 
#
# 1 0.015339 -0.004152 -0.001586 0.000000 -0.000273 0.000000
# 2 -0.004152 0.010458 -0.003384 0.000000 -0.001293 0.000000
# 3 -0.001586 -0.003384 0.011167 0.000000 0.004695 0.000000
# 4 0.000000 0.000000 0.000000 0.109775 0.000000 0.023117
# 5 -0.000273 -0.001293 0.004695 0.000000 0.049580 0.000000
# 6 0.000000 0.000000 0.000000 0.023117 0.000000 0.038530
#
#
# Mechanical properties :
#
#
# Convention : Reuss Voigt Hill
#
# Bulk Modulus (GPa) = 53.41619 58.01879 55.71749
# Shear Modulus (GPa) = 19.28033 26.08294 22.68163
#
# Velocity S-wave (km/s) = 3.07633 3.57812 3.33667
# Velocity P-wave (km/s) = 6.23201 6.74902 6.49566
#
# Compressibility (1/GPa) = 0.01872091
#
# Stress axis : x y z
#
# Youngs Moduli (GPa) = 65.19259 95.62286 89.55052
#
# Poissons Ratio (x) = 0.39702 0.14200
# Poissons Ratio (y) = 0.27067 0.30303
# Poissons Ratio (z) = 0.10338 0.32357
#
# Static dielectric constant tensor:
#      x y z
#    x 3.722760 0.000000 -0.053170 
#    y 0.000000 3.884210 0.000000 
#    z -0.053170 0.000000 3.558730 
# 
# 
# High freq. dielectric constant tensor:
#      x y z
#    x 1.802730 0.000000 -0.004150 
#    y 0.000000 1.797900 0.000000 
#    z -0.004150 0.000000 1.784020 
# 
# From -- ./inp_files/146133.got.cif
#   From: 2010.06.25/outbox.cif.g09.slc.cpg/sg12_74_cif.got.tgz:146133.got - 2010.06.28 00:19:55.
