data_PCOD8106930
_publ_section_title
;
Structure prediction by ZEFSAII (Michael W. Deem and Ramdas Pophale) SiO2 
 PCOD8106930
Probable space group: C 2/M
;
_chemical_formula_sum "Si O2"
_cell_formula_units_Z 56
_cell_length_a 17.529578
_cell_length_b 14.634013
_cell_length_c 11.351024
_cell_angle_alpha 90.000000
_cell_angle_beta 92.466300
_cell_angle_gamma 90.000000
_cell_volume 2909.159067
_symmetry_space_group_name_H-M "C 2/M"
_symmetry_group_IT_number 12
_symmetry_cell_setting 'monoclinic'
loop_
_space_group_symop_operation_xyz
x,y,z
-x,y,-z
-x,-y,-z
x,-y,z
1/2+x,1/2+y,z
1/2-x,1/2+y,-z
1/2-x,1/2-y,-z
1/2+x,1/2-y,z
loop_
_atom_site_type_symbol
_atom_site_label
_atom_site_fract_x
_atom_site_fract_y
_atom_site_fract_z
Si Si1 0.272307 0.105422 0.164619
Si Si2 0.143668 0.898366 0.322576
Si Si3 0.374315 0.103280 0.705327
Si Si4 0.851030 0.776819 0.261714
Si Si5 0.769672 0.897291 0.441799
Si Si6 0.015563 0.246795 0.362816
Si Si7 0.253530 0.106494 0.894530
O O1 0.184377 0.121195 0.200328
O O2 0.328104 0.171168 0.241477
O O3 0.296949 0.000000 0.188044
O O4 0.276240 0.132216 0.028168
O O5 0.213010 0.886281 0.419913
O O6 0.074614 0.833988 0.348201
O O7 0.109404 0.000000 0.325088
O O8 0.320738 0.115837 0.586316
O O9 0.449934 0.162318 0.693188
O O10 0.324686 0.134170 0.815705
O O11 0.402627 0.000000 0.723303
O O12 0.815851 0.819000 0.377711
O O13 0.941747 0.780170 0.282492
O O14 0.821596 0.836911 0.149050
O O15 0.792777 0.000000 0.398383
O O16 0.000000 0.261588 0.500000
O O17 0.233786 0.000000 0.880442
#
# Coordination Sequence:
#
# PCOD8106930 Si02
#       7
#     8   8   8   8   8   8   8
#     4  10  22  39  62  87 110 145 193 242 281 324
#     4  10  21  37  57  82 115 149 189 235 281 332
#     4   9  20  38  60  81 109 149 193 237 278 328
#     4  11  21  35  58  84 117 150 187 230 281 338
#     4   9  18  35  60  83 104 146 197 240 278 323
#     4  12  25  36  51  85 125 157 181 221 285 348
#     4   9  19  41  67  86 105 140 196 246 283 324
#
# _framework density 19.249548000000001
#
# number of rings (size 3 to 8) (size 9 to 14) (size 15 to 20)
#    0.000    2.000    1.429    3.429    2.000    3.429 
#    0.000    2.857    0.000    5.143    0.000    0.000 
#    0.000    0.000    0.000    0.000    0.000    0.000 
#
# Total GULP energy -347134.075429 kJ/mol
# GULP energy per Si atom -12397.645551 kJ/mol
# Density = 1.920574 g / cm^3
# Si number density = 19.249548 Si / 1000 Ang^3
#
#
#
# Elastic Constant Matrix: (Units=GPa)
#
#
# Indices 1 2 3 4 5 6 
#
# 1 43.8330 17.3767 18.5636 0.0000 -6.4299 0.0000
# 2 17.3767 85.5911 32.8176 0.0000 -5.3928 0.0000
# 3 18.5636 32.8176 71.0595 0.0000 -14.6124 0.0000
# 4 0.0000 0.0000 0.0000 17.1608 0.0000 -15.2070
# 5 -6.4299 -5.3928 -14.6124 0.0000 18.8232 0.0000
# 6 0.0000 0.0000 0.0000 -15.2070 0.0000 18.2274
#
#
#
# Elastic Compliance Matrix: (Units=1/GPa)
#
#
# Indices 1 2 3 4 5 6 
#
# 1 0.026743 -0.003433 -0.004432 0.000000 0.004711 0.000000
# 2 -0.003433 0.014662 -0.006249 0.000000 -0.001824 0.000000
# 3 -0.004432 -0.006249 0.020750 0.000000 0.012803 0.000000
# 4 0.000000 0.000000 0.000000 0.223523 0.000000 0.186483
# 5 0.004711 -0.001824 0.012803 0.000000 0.064152 0.000000
# 6 0.000000 0.000000 0.000000 0.186483 0.000000 0.210443
#
#
# Mechanical properties :
#
#
# Convention : Reuss Voigt Hill
#
# Bulk Modulus (GPa) = 29.47672 37.55546 33.51609
# Shear Modulus (GPa) = 8.33598 19.62401 13.98000
#
# Velocity S-wave (km/s) = 2.08324 3.19635 2.69783
# Velocity P-wave (km/s) = 4.59703 5.75972 5.21090
#
# Compressibility (1/GPa) = 0.03392508
#
# Stress axis : x y z
#
# Youngs Moduli (GPa) = 37.39308 68.20486 48.19379
#
# Poissons Ratio (x) = 0.23416 0.21360
# Poissons Ratio (y) = 0.12838 0.30118
# Poissons Ratio (z) = 0.16573 0.42624
#
# Static dielectric constant tensor:
#      x y z
#    x 3.263710 0.000000 0.010940 
#    y 0.000000 3.751830 0.000000 
#    z 0.010940 0.000000 3.615810 
# 
# 
# High freq. dielectric constant tensor:
#      x y z
#    x 1.719040 0.000000 -0.001670 
#    y 0.000000 1.770190 0.000000 
#    z -0.001670 0.000000 1.747350 
# 
# From -- ./inp_files/143718.got.cif
#   From: 2010.06.25/outbox.cif.g09.slc.cpg/sg12_72_cif.got.tgz:143718.got - 2010.06.28 00:19:55.
