data_PCOD8106060
_publ_section_title
;
Structure prediction by ZEFSAII (Michael W. Deem and Ramdas Pophale) SiO2 
 PCOD8106060
Probable space group: C 2/M
;
_chemical_formula_sum "Si O2"
_cell_formula_units_Z 64
_cell_length_a 19.473773
_cell_length_b 8.885822
_cell_length_c 21.072157
_cell_angle_alpha 90.000000
_cell_angle_beta 118.244335
_cell_angle_gamma 90.000000
_cell_volume 3212.194391
_symmetry_space_group_name_H-M "C 2/M"
_symmetry_group_IT_number 12
_symmetry_cell_setting 'monoclinic'
loop_
_space_group_symop_operation_xyz
x,y,z
-x,y,-z
-x,-y,-z
x,-y,z
1/2+x,1/2+y,z
1/2-x,1/2+y,-z
1/2-x,1/2-y,-z
1/2+x,1/2-y,z
loop_
_atom_site_type_symbol
_atom_site_label
_atom_site_fract_x
_atom_site_fract_y
_atom_site_fract_z
Si Si1 0.379006 0.176211 0.291560
Si Si2 0.716199 0.674601 0.923499
Si Si3 0.145828 0.666492 0.485863
Si Si4 0.493949 0.332887 0.423024
Si Si5 0.052669 0.175030 0.798259
Si Si6 0.224026 0.321574 0.185481
Si Si7 0.270250 0.167813 0.609709
Si Si8 0.378986 0.322584 0.760825
O O1 0.423439 0.221861 0.374856
O O2 0.435755 0.225097 0.259050
O O3 0.298341 0.266671 0.257985
O O4 0.361599 0.000000 0.280810
O O5 0.730536 0.500000 0.937494
O O6 0.624028 0.711491 0.877387
O O7 0.763240 0.731861 0.881720
O O8 0.750000 0.750000 0.000000
O O9 0.117973 0.500000 0.494824
O O10 0.074390 0.768239 0.431520
O O11 0.190223 0.738661 0.566327
O O12 0.198616 0.652812 0.447434
O O13 0.500000 0.338621 0.500000
O O14 0.481111 0.500000 0.388685
O O15 0.970458 0.217436 0.794182
O O16 0.055656 0.000000 0.779814
O O17 0.216743 0.500000 0.186995
O O18 0.147838 0.244861 0.182961
O O19 0.330337 0.250541 0.682352
O O20 0.253223 0.000000 0.629518
O O21 0.364937 0.500000 0.754021
#
# Coordination Sequence:
#
# PCOD8106060 Si02
#       8
#     8   8   8   8   8   8   8   8
#     4  11  22  37  59  84 111 147 196 246 290 345
#     4   9  19  38  64  91 119 156 193 231 278 336
#     4  10  21  37  55  77 103 137 190 243 287 343
#     4  11  24  38  53  73 104 146 188 235 296 349
#     4   9  20  39  61  87 120 155 192 233 284 342
#     4  10  22  40  60  85 121 157 192 235 290 348
#     4  10  21  36  55  77 107 146 182 230 294 350
#     4  11  22  36  58  86 115 150 194 242 287 337
#
# _framework density 19.924074000000001
#
# number of rings (size 3 to 8) (size 9 to 14) (size 15 to 20)
#    0.000    1.875    0.000    4.500    1.750    8.000 
#    0.000    0.625    0.000    3.750    0.000    0.000 
#    0.000    0.000    0.000    0.000    0.000    0.000 
#
# Total GULP energy -396783.398911 kJ/mol
# GULP energy per Si atom -12399.481216 kJ/mol
# Density = 1.987873 g / cm^3
# Si number density = 19.924074 Si / 1000 Ang^3
#
#
#
# Elastic Constant Matrix: (Units=GPa)
#
#
# Indices 1 2 3 4 5 6 
#
# 1 97.7891 37.1031 27.2929 0.0000 2.0280 0.0000
# 2 37.1031 102.8756 34.6727 0.0000 -1.4956 0.0000
# 3 27.2929 34.6727 97.0161 0.0000 7.7686 0.0000
# 4 0.0000 0.0000 0.0000 34.8598 0.0000 0.8984
# 5 2.0280 -1.4956 7.7686 0.0000 15.0417 0.0000
# 6 0.0000 0.0000 0.0000 0.8984 0.0000 29.5478
#
#
#
# Elastic Compliance Matrix: (Units=1/GPa)
#
#
# Indices 1 2 3 4 5 6 
#
# 1 0.012232 -0.003743 -0.002025 0.000000 -0.000975 0.000000
# 2 -0.003743 0.012354 -0.003652 0.000000 0.003619 0.000000
# 3 -0.002025 -0.003652 0.012716 0.000000 -0.006657 0.000000
# 4 0.000000 0.000000 0.000000 0.028709 0.000000 -0.000873
# 5 -0.000975 0.003619 -0.006657 0.000000 0.070411 0.000000
# 6 0.000000 0.000000 0.000000 -0.000873 0.000000 0.033870
#
#
# Mechanical properties :
#
#
# Convention : Reuss Voigt Hill
#
# Bulk Modulus (GPa) = 54.16926 55.09093 54.63010
# Shear Modulus (GPa) = 25.60353 29.13067 27.36710
#
# Velocity S-wave (km/s) = 3.58866 3.82787 3.71019
# Velocity P-wave (km/s) = 6.66469 6.87366 6.76998
#
# Compressibility (1/GPa) = 0.01846066
#
# Stress axis : x y z
#
# Youngs Moduli (GPa) = 81.75437 80.94589 78.64371
#
# Poissons Ratio (x) = 0.30299 0.15927
# Poissons Ratio (y) = 0.30602 0.28720
# Poissons Ratio (z) = 0.16557 0.29561
#
# Static dielectric constant tensor:
#      x y z
#    x 3.795770 0.000000 0.051570 
#    y 0.000000 3.905020 0.000000 
#    z 0.051570 0.000000 3.583080 
# 
# 
# High freq. dielectric constant tensor:
#      x y z
#    x 1.778980 0.000000 0.000730 
#    y 0.000000 1.787430 0.000000 
#    z 0.000730 0.000000 1.759730 
# 
# From -- ./inp_files/320060.got.cif
#   From: 2010.06.25/outbox.cif.g09.slc.cpg/sg12_161_cif.got.tgz:320060.got - 2010.06.28 00:19:55.
