data_PCOD8106259
_publ_section_title
;
Structure prediction by ZEFSAII (Michael W. Deem and Ramdas Pophale) SiO2 
 PCOD8106259
Probable space group: C 2/M
;
_chemical_formula_sum "Si O2"
_cell_formula_units_Z 48
_cell_length_a 10.135336
_cell_length_b 9.979533
_cell_length_c 24.332742
_cell_angle_alpha 90.000000
_cell_angle_beta 67.407523
_cell_angle_gamma 90.000000
_cell_volume 2272.289988
_symmetry_space_group_name_H-M "C 2/M"
_symmetry_group_IT_number 12
_symmetry_cell_setting 'monoclinic'
loop_
_space_group_symop_operation_xyz
x,y,z
-x,y,-z
-x,-y,-z
x,-y,z
1/2+x,1/2+y,z
1/2-x,1/2+y,-z
1/2-x,1/2-y,-z
1/2+x,1/2-y,z
loop_
_atom_site_type_symbol
_atom_site_label
_atom_site_fract_x
_atom_site_fract_y
_atom_site_fract_z
Si Si1 0.353632 0.846702 0.378667
Si Si2 0.266107 0.153992 0.190317
Si Si3 0.417257 0.853638 0.963359
Si Si4 0.498415 0.846304 0.240090
Si Si5 0.814216 0.858444 0.914288
Si Si6 0.586573 0.153652 0.430589
O O1 0.397748 0.830779 0.308655
O O2 0.486571 0.804788 0.395625
O O3 0.222414 0.749548 0.411477
O O4 0.308052 0.000000 0.399030
O O5 0.404537 0.199854 0.202407
O O6 0.294193 0.169279 0.119589
O O7 0.131853 0.247857 0.225659
O O8 0.228493 0.000000 0.211944
O O9 0.420801 0.767117 0.906345
O O10 0.483915 0.000000 0.938010
O O11 0.500000 0.781635 0.000000
O O12 0.260017 0.874239 0.014408
O O13 0.552186 0.000000 0.225238
O O14 0.895576 0.000000 0.889105
O O15 0.500000 0.173844 0.500000
O O16 0.638812 0.000000 0.415851
#
# Coordination Sequence:
#
# PCOD8106259 Si02
#       6
#     8   8   8   8   8   8
#     4  10  21  37  57  83 114 149 191 233 278 332
#     4  10  22  38  57  82 112 144 185 233 280 330
#     4   9  18  32  53  75  98 133 172 209 266 330
#     4  10  22  39  59  83 112 148 189 234 279 330
#     4   9  19  34  49  73 104 132 169 220 268 323
#     4  10  21  36  56  85 118 151 189 233 279 330
#
# _framework density 21.124065999999999
#
# number of rings (size 3 to 8) (size 9 to 14) (size 15 to 20)
#    0.000    2.333    0.000    1.500    2.333    3.333 
#    0.000    0.000    0.000    0.000    0.000    0.000 
#    0.000    0.000    0.000    0.000    0.000    0.000 
#
# Total GULP energy -297386.436526 kJ/mol
# GULP energy per Si atom -12391.101522 kJ/mol
# Density = 2.107599 g / cm^3
# Si number density = 21.124066 Si / 1000 Ang^3
#
#
#
# Elastic Constant Matrix: (Units=GPa)
#
#
# Indices 1 2 3 4 5 6 
#
# 1 79.7323 42.0070 7.9152 0.0000 12.2150 0.0000
# 2 42.0070 83.2760 21.7392 0.0000 -0.1034 0.0000
# 3 7.9152 21.7392 56.5661 0.0000 13.9643 0.0000
# 4 0.0000 0.0000 0.0000 22.1709 0.0000 -0.1121
# 5 12.2150 -0.1034 13.9643 0.0000 37.3363 0.0000
# 6 0.0000 0.0000 0.0000 -0.1121 0.0000 38.0146
#
#
#
# Elastic Compliance Matrix: (Units=1/GPa)
#
#
# Indices 1 2 3 4 5 6 
#
# 1 0.018786 -0.010307 0.003147 0.000000 -0.007352 0.000000
# 2 -0.010307 0.019161 -0.007456 0.000000 0.006214 0.000000
# 3 0.003147 -0.007456 0.022434 0.000000 -0.009441 0.000000
# 4 0.000000 0.000000 0.000000 0.045105 0.000000 0.000133
# 5 -0.007352 0.006214 -0.009441 0.000000 0.032737 0.000000
# 6 0.000000 0.000000 0.000000 0.000133 0.000000 0.026306
#
#
# Mechanical properties :
#
#
# Convention : Reuss Voigt Hill
#
# Bulk Modulus (GPa) = 32.10197 40.32191 36.21194
# Shear Modulus (GPa) = 24.49252 29.36523 26.92887
#
# Velocity S-wave (km/s) = 3.40878 3.73249 3.57430
# Velocity P-wave (km/s) = 5.54282 6.14043 5.84926
#
# Compressibility (1/GPa) = 0.03115074
#
# Stress axis : x y z
#
# Youngs Moduli (GPa) = 53.23095 52.18802 44.57511
#
# Poissons Ratio (x) = 0.53790 -0.14029
# Poissons Ratio (y) = 0.54865 0.33234
# Poissons Ratio (z) = -0.16754 0.38910
#
# Static dielectric constant tensor:
#      x y z
#    x 3.711260 0.000000 0.287150 
#    y 0.000000 4.348820 0.000000 
#    z 0.287150 0.000000 3.815280 
# 
# 
# High freq. dielectric constant tensor:
#      x y z
#    x 1.824250 0.000000 0.018550 
#    y 0.000000 1.832820 0.000000 
#    z 0.018550 0.000000 1.825190 
# 
# From -- ./inp_files/357334.got.cif
#   From: 2010.06.25/outbox.cif.g09.slc.cpg/sg12_179_cif.got.tgz:357334.got - 2010.06.28 00:19:55.
