data_PCOD8106209
_publ_section_title
;
Structure prediction by ZEFSAII (Michael W. Deem and Ramdas Pophale) SiO2 
 PCOD8106209
Probable space group: C 2/M
;
_chemical_formula_sum "Si O2"
_cell_formula_units_Z 64
_cell_length_a 19.064745
_cell_length_b 8.505191
_cell_length_c 31.061845
_cell_angle_alpha 90.000000
_cell_angle_beta 40.235179
_cell_angle_gamma 90.000000
_cell_volume 3253.309951
_symmetry_space_group_name_H-M "C 2/M"
_symmetry_group_IT_number 12
_symmetry_cell_setting 'monoclinic'
loop_
_space_group_symop_operation_xyz
x,y,z
-x,y,-z
-x,-y,-z
x,-y,z
1/2+x,1/2+y,z
1/2-x,1/2+y,-z
1/2-x,1/2-y,-z
1/2+x,1/2-y,z
loop_
_atom_site_type_symbol
_atom_site_label
_atom_site_fract_x
_atom_site_fract_y
_atom_site_fract_z
Si Si1 0.881170 0.816325 0.556805
Si Si2 0.076564 0.181521 0.071699
Si Si3 0.739851 0.317894 0.068693
Si Si4 0.189700 0.318578 0.183223
Si Si5 0.961098 0.181694 0.295314
Si Si6 0.739404 0.682811 0.551880
Si Si7 0.690035 0.186288 0.704602
Si Si8 0.655809 0.182760 0.818126
O O1 0.826933 0.781207 0.536965
O O2 0.804494 0.751587 0.631276
O O3 0.000000 0.735365 0.500000
O O4 0.895016 0.000000 0.557275
O O5 0.134433 0.227521 0.089624
O O6 0.971057 0.287921 0.114686
O O7 0.041909 0.000000 0.087124
O O8 0.157744 0.215107 0.994228
O O9 0.768491 0.500000 0.048284
O O10 0.716671 0.285891 0.129169
O O11 0.199319 0.500000 0.166024
O O12 0.273240 0.282343 0.182106
O O13 0.068234 0.280778 0.255722
O O14 0.880026 0.213338 0.372965
O O15 0.908862 0.233262 0.274473
O O16 0.993207 0.000000 0.276634
O O17 0.769066 0.500000 0.539692
O O18 0.750000 0.750000 0.500000
O O19 0.686665 0.238476 0.755631
O O20 0.677133 0.000000 0.705094
O O21 0.681794 0.000000 0.812684
#
# Coordination Sequence:
#
# PCOD8106209 Si02
#       8
#     8   8   8   8   8   8   8   8
#     4   9  18  34  56  82 112 146 184 228 279 332
#     4  10  21  38  61  88 115 145 186 231 275 328
#     4  10  21  39  63  88 115 148 185 226 274 329
#     4  12  25  39  57  83 115 149 187 231 279 329
#     4  10  21  38  59  82 110 146 188 231 277 331
#     4  10  21  36  56  82 112 147 186 230 278 330
#     4   9  19  36  58  82 109 145 188 231 275 329
#     4  11  23  38  56  81 115 151 188 230 280 334
#
# _framework density 19.672272
#
# number of rings (size 3 to 8) (size 9 to 14) (size 15 to 20)
#    0.000    1.875    0.000    3.750    0.000    7.750 
#    0.000    5.000    0.000    0.000    0.000    0.000 
#    0.000    0.000    0.000    0.000    0.000    0.000 
#
# Total GULP energy -396915.590282 kJ/mol
# GULP energy per Si atom -12403.612196 kJ/mol
# Density = 1.962750 g / cm^3
# Si number density = 19.672272 Si / 1000 Ang^3
#
#
#
# Elastic Constant Matrix: (Units=GPa)
#
#
# Indices 1 2 3 4 5 6 
#
# 1 105.2299 14.7568 64.8246 0.0047 -5.0701 0.0055
# 2 14.7568 41.7609 15.6063 0.0051 -2.8520 0.0273
# 3 64.8246 15.6063 105.0383 0.0053 -3.6945 0.0069
# 4 0.0047 0.0051 0.0053 27.0521 0.0013 -0.5778
# 5 -5.0701 -2.8520 -3.6945 0.0013 37.0030 0.0005
# 6 0.0055 0.0273 0.0069 -0.5778 0.0005 30.0482
#
#
#
# Elastic Compliance Matrix: (Units=1/GPa)
#
#
# Indices 1 2 3 4 5 6 
#
# 1 0.015531 -0.001957 -0.009257 -0.000001 0.001053 0.000001
# 2 -0.001957 0.025693 -0.002559 -0.000005 0.001457 -0.000023
# 3 -0.009257 -0.002559 0.015617 -0.000001 0.000094 0.000000
# 4 -0.000001 -0.000005 -0.000001 0.036981 -0.000002 0.000711
# 5 0.001053 0.001457 0.000094 -0.000002 0.027291 -0.000002
# 6 0.000001 -0.000023 0.000000 0.000711 -0.000002 0.033294
#
#
# Mechanical properties :
#
#
# Convention : Reuss Voigt Hill
#
# Bulk Modulus (GPa) = 34.13462 49.15609 41.64536
# Shear Modulus (GPa) = 26.08030 29.27675 27.67853
#
# Velocity S-wave (km/s) = 3.64502 3.86194 3.75504
# Velocity P-wave (km/s) = 5.92488 6.70282 6.32582
#
# Compressibility (1/GPa) = 0.02929577
#
# Stress axis : x y z
#
# Youngs Moduli (GPa) = 64.38834 38.92126 64.03356
#
# Poissons Ratio (x) = 0.07616 0.59276
# Poissons Ratio (y) = 0.12599 0.16383
# Poissons Ratio (z) = 0.59605 0.09958
#
# Static dielectric constant tensor:
#      x y z
#    x 3.512970 -0.000030 -0.082200 
#    y -0.000030 3.537050 0.000000 
#    z -0.082200 0.000000 3.764840 
# 
# 
# High freq. dielectric constant tensor:
#      x y z
#    x 1.761160 0.000000 -0.001870 
#    y 0.000000 1.768370 0.000000 
#    z -0.001870 0.000000 1.777490 
# 
# From -- ./inp_files/378022.got.cif
#   From: 2010.06.25/outbox.cif.g09.slc.cpg/sg12_190_cif.got.tgz:378022.got - 2010.06.28 00:19:55.
