data_PCOD8106187
_publ_section_title
;
Structure prediction by ZEFSAII (Michael W. Deem and Ramdas Pophale) SiO2 
 PCOD8106187
Probable space group: C 2/M
;
_chemical_formula_sum "Si O2"
_cell_formula_units_Z 40
_cell_length_a 27.649898
_cell_length_b 8.616638
_cell_length_c 19.454606
_cell_angle_alpha 90.000000
_cell_angle_beta 27.435018
_cell_angle_gamma 90.000000
_cell_volume 2135.560698
_symmetry_space_group_name_H-M "C 2/M"
_symmetry_group_IT_number 12
_symmetry_cell_setting 'monoclinic'
loop_
_space_group_symop_operation_xyz
x,y,z
-x,y,-z
-x,-y,-z
x,-y,z
1/2+x,1/2+y,z
1/2-x,1/2+y,-z
1/2-x,1/2-y,-z
1/2+x,1/2-y,z
loop_
_atom_site_type_symbol
_atom_site_label
_atom_site_fract_x
_atom_site_fract_y
_atom_site_fract_z
Si Si1 0.675863 0.316356 0.713095
Si Si2 0.008027 0.680400 0.821112
Si Si3 0.087727 0.683042 0.443861
Si Si4 0.191019 0.680734 0.839589
Si Si5 0.598085 0.683049 0.576816
O O1 0.674592 0.500000 0.711407
O O2 0.590396 0.250576 0.769785
O O3 0.648093 0.261287 0.824832
O O4 0.789646 0.256564 0.546586
O O5 0.032333 0.500000 0.781521
O O6 0.015011 0.764491 0.738947
O O7 0.890766 0.709805 0.996273
O O8 0.095638 0.500000 0.444104
O O9 0.198739 0.746076 0.276355
O O10 0.056925 0.759245 0.555156
O O11 0.000000 0.731390 0.500000
O O12 0.206678 0.500000 0.803623
O O13 0.609403 0.500000 0.561817
#
# Coordination Sequence:
#
# PCOD8106187 Si02
#       5
#     8   8   8   8   8
#     4  11  21  34  54  79 111 149 185 219 260 315
#     4  11  22  36  53  78 114 147 179 221 267 313
#     4  10  21  39  62  83 105 136 175 221 271 323
#     4  10  21  36  56  81 109 143 181 222 266 315
#     4  11  22  36  56  81 109 142 182 223 265 316
#
# _framework density 18.730443999999999
#
# number of rings (size 3 to 8) (size 9 to 14) (size 15 to 20)
#    0.000    1.400    0.000    9.000    0.000    7.200 
#    0.000    1.000    0.000    0.000    0.000    0.000 
#    0.000    0.000    0.000    0.000    0.000    0.000 
#
# Total GULP energy -248099.374753 kJ/mol
# GULP energy per Si atom -12404.968738 kJ/mol
# Density = 1.868781 g / cm^3
# Si number density = 18.730444 Si / 1000 Ang^3
#
#
#
# Elastic Constant Matrix: (Units=GPa)
#
#
# Indices 1 2 3 4 5 6 
#
# 1 139.7436 82.6699 80.4118 0.0087 -11.1655 -0.0028
# 2 82.6699 189.2275 79.2351 -0.0064 3.1944 -0.0050
# 3 80.4118 79.2351 130.9174 0.0171 12.3298 -0.0080
# 4 0.0087 -0.0064 0.0171 32.8967 0.0118 0.6389
# 5 -11.1655 3.1944 12.3298 0.0118 14.2413 0.0035
# 6 -0.0028 -0.0050 -0.0080 0.6389 0.0035 31.3520
#
#
#
# Elastic Compliance Matrix: (Units=1/GPa)
#
#
# Indices 1 2 3 4 5 6 
#
# 1 0.017257 -0.003441 -0.010740 -0.000008 0.023600 -0.000004
# 2 -0.003441 0.007835 -0.002405 0.000005 -0.002372 0.000001
# 3 -0.010740 -0.002405 0.017892 0.000001 -0.023371 0.000006
# 4 -0.000008 0.000005 0.000001 0.030410 -0.000033 -0.000620
# 5 0.023600 -0.002372 -0.023371 -0.000033 0.109487 -0.000016
# 6 -0.000004 0.000001 0.000006 -0.000620 -0.000016 0.031909
#
#
# Mechanical properties :
#
#
# Convention : Reuss Voigt Hill
#
# Bulk Modulus (GPa) = 101.91148 104.94687 103.42917
# Shear Modulus (GPa) = 19.90194 30.20277 25.05236
#
# Velocity S-wave (km/s) = 3.26321 4.01995 3.66118
# Velocity P-wave (km/s) = 8.29010 8.81467 8.55640
#
# Compressibility (1/GPa) = 0.00981244
#
# Stress axis : x y z
#
# Youngs Moduli (GPa) = 57.94790 127.63311 55.89154
#
# Poissons Ratio (x) = 0.43913 0.60026
# Poissons Ratio (y) = 0.19937 0.13443
# Poissons Ratio (z) = 0.62235 0.30699
#
# Static dielectric constant tensor:
#      x y z
#    x 3.323060 0.000000 0.086850 
#    y 0.000000 3.656630 0.000000 
#    z 0.086850 0.000000 3.559670 
# 
# 
# High freq. dielectric constant tensor:
#      x y z
#    x 1.714250 0.000000 0.009070 
#    y 0.000000 1.751440 0.000000 
#    z 0.009070 0.000000 1.731050 
# 
# From -- ./inp_files/220595.got.cif
#   From: 2010.06.25/outbox.cif.g09.slc.cpg/sg12_111_cif.got.tgz:220595.got - 2010.06.28 00:19:55.
