data_PCOD8106276
_publ_section_title
;
Structure prediction by ZEFSAII (Michael W. Deem and Ramdas Pophale) SiO2 
 PCOD8106276
Probable space group: C 2/M
;
_chemical_formula_sum "Si O2"
_cell_formula_units_Z 56
_cell_length_a 27.586891
_cell_length_b 8.761287
_cell_length_c 11.848686
_cell_angle_alpha 90.000000
_cell_angle_beta 71.384463
_cell_angle_gamma 90.000000
_cell_volume 2713.959950
_symmetry_space_group_name_H-M "C 2/M"
_symmetry_group_IT_number 12
_symmetry_cell_setting 'monoclinic'
loop_
_space_group_symop_operation_xyz
x,y,z
-x,y,-z
-x,-y,-z
x,-y,z
1/2+x,1/2+y,z
1/2-x,1/2+y,-z
1/2-x,1/2-y,-z
1/2+x,1/2-y,z
loop_
_atom_site_type_symbol
_atom_site_label
_atom_site_fract_x
_atom_site_fract_y
_atom_site_fract_z
Si Si1 0.892897 0.827429 0.250644
Si Si2 0.411350 0.323934 0.807248
Si Si3 0.158027 0.169081 0.934584
Si Si4 0.004444 0.680061 0.867746
Si Si5 0.755062 0.823304 0.874758
Si Si6 0.806971 0.679889 0.461159
Si Si7 0.154002 0.677922 0.323350
O O1 0.888736 0.824061 0.117712
O O2 0.945680 0.741017 0.235912
O O3 0.842448 0.747452 0.337084
O O4 0.896086 0.000000 0.294699
O O5 0.427845 0.500000 0.787421
O O6 0.457301 0.228245 0.825125
O O7 0.394894 0.264425 0.695212
O O8 0.361998 0.300316 0.924002
O O9 0.198695 0.296957 0.864724
O O10 0.183413 0.000000 0.911741
O O11 0.007618 0.500000 0.869047
O O12 0.000000 0.743674 0.000000
O O13 0.794151 0.728588 0.773065
O O14 0.770593 0.000000 0.865184
O O15 0.750000 0.750000 0.000000
O O16 0.800323 0.500000 0.450246
O O17 0.750000 0.750000 0.500000
O O18 0.838459 0.719507 0.551379
O O19 0.144916 0.500000 0.311291
#
# Coordination Sequence:
#
# PCOD8106276 Si02
#       7
#     8   8   8   8   8   8   8
#     4  11  23  41  66  93 126 166 212 263 315 374
#     4  11  22  38  62  91 126 163 205 255 312 375
#     4  10  21  36  56  87 124 160 201 253 312 369
#     4  11  23  39  63  95 132 170 211 259 316 379
#     4  12  23  34  54  84 120 159 202 251 307 375
#     4  11  25  45  68  95 128 167 214 265 315 375
#     4  11  24  42  62  87 125 166 208 261 318 374
#
# _framework density 20.634056000000001
#
# number of rings (size 3 to 8) (size 9 to 14) (size 15 to 20)
#    0.000    1.000    2.857    4.286    0.000    8.000 
#    0.000    0.714    0.000    4.286    0.000    0.000 
#    0.000    0.000    0.000    0.000    0.000    0.000 
#
# Total GULP energy -347158.786946 kJ/mol
# GULP energy per Si atom -12398.528105 kJ/mol
# Density = 2.058709 g / cm^3
# Si number density = 20.634056 Si / 1000 Ang^3
#
#
#
# Elastic Constant Matrix: (Units=GPa)
#
#
# Indices 1 2 3 4 5 6 
#
# 1 114.8413 40.4450 31.9056 0.0000 3.5327 0.0000
# 2 40.4450 62.5807 47.2040 0.0000 11.6783 0.0000
# 3 31.9056 47.2040 66.1557 0.0000 1.5367 0.0000
# 4 0.0000 0.0000 0.0000 27.7931 0.0000 -1.2824
# 5 3.5327 11.6783 1.5367 0.0000 32.5892 0.0000
# 6 0.0000 0.0000 0.0000 -1.2824 0.0000 41.2750
#
#
#
# Elastic Compliance Matrix: (Units=1/GPa)
#
#
# Indices 1 2 3 4 5 6 
#
# 1 0.011342 -0.007472 -0.000172 0.000000 0.001456 0.000000
# 2 -0.007472 0.044200 -0.027616 0.000000 -0.013727 0.000000
# 3 -0.000172 -0.027616 0.034711 0.000000 0.008278 0.000000
# 4 0.000000 0.000000 0.000000 0.036032 0.000000 0.001120
# 5 0.001456 -0.013727 0.008278 0.000000 0.035056 0.000000
# 6 0.000000 0.000000 0.000000 0.001120 0.000000 0.024263
#
#
# Mechanical properties :
#
#
# Convention : Reuss Voigt Hill
#
# Bulk Modulus (GPa) = 50.67523 53.63190 52.15357
# Shear Modulus (GPa) = 19.03289 28.59964 23.81626
#
# Velocity S-wave (km/s) = 3.04040 3.72700 3.40107
# Velocity P-wave (km/s) = 6.07764 6.67600 6.38384
#
# Compressibility (1/GPa) = 0.01973351
#
# Stress axis : x y z
#
# Youngs Moduli (GPa) = 88.16552 22.62419 28.80892
#
# Poissons Ratio (x) = 0.16905 0.00497
# Poissons Ratio (y) = 0.65877 0.79558
# Poissons Ratio (z) = 0.01521 0.62479
#
# Static dielectric constant tensor:
#      x y z
#    x 4.034970 0.000000 0.027460 
#    y 0.000000 5.753380 0.000000 
#    z 0.027460 0.000000 3.684910 
# 
# 
# High freq. dielectric constant tensor:
#      x y z
#    x 1.818260 0.000000 0.011180 
#    y 0.000000 1.815800 0.000000 
#    z 0.011180 0.000000 1.789740 
# 
# From -- ./inp_files/180830.got.cif
#   From: 2010.06.25/outbox.cif.g09.slc.cpg/sg12_91_cif.got.tgz:180830.got - 2010.06.28 00:19:55.
