data_PCOD8106859
_publ_section_title
;
Structure prediction by ZEFSAII (Michael W. Deem and Ramdas Pophale) SiO2 
 PCOD8106859
Probable space group: C 2/M
;
_chemical_formula_sum "Si O2"
_cell_formula_units_Z 40
_cell_length_a 21.433723
_cell_length_b 13.933338
_cell_length_c 17.745702
_cell_angle_alpha 90.000000
_cell_angle_beta 19.844899
_cell_angle_gamma 90.000000
_cell_volume 1799.094292
_symmetry_space_group_name_H-M "C 2/M"
_symmetry_group_IT_number 12
_symmetry_cell_setting 'monoclinic'
loop_
_space_group_symop_operation_xyz
x,y,z
-x,y,-z
-x,-y,-z
x,-y,z
1/2+x,1/2+y,z
1/2-x,1/2+y,-z
1/2-x,1/2-y,-z
1/2+x,1/2-y,z
loop_
_atom_site_type_symbol
_atom_site_label
_atom_site_fract_x
_atom_site_fract_y
_atom_site_fract_z
Si Si1 0.197906 0.298725 0.799137
Si Si2 0.212372 0.606579 0.240905
Si Si3 0.296741 0.387233 0.540789
Si Si4 0.394291 0.886169 0.947993
Si Si5 0.685530 0.386875 0.040282
O O1 0.200685 0.182717 0.800167
O O2 0.333052 0.335607 0.580156
O O3 0.236979 0.345885 0.836105
O O4 0.000000 0.336761 0.000000
O O5 0.301076 0.500000 0.150577
O O6 0.000000 0.600302 0.500000
O O7 0.244917 0.647974 0.119967
O O8 0.289444 0.500000 0.564600
O O9 0.470688 0.358732 0.291758
O O10 0.107623 0.353034 0.714967
O O11 0.378863 0.000000 0.966340
O O12 0.313716 0.842216 0.961245
O O13 0.710534 0.500000 0.017307
#
# Coordination Sequence:
#
# PCOD8106859 Si02
#       5
#     8   8   8   8   8
#     4  10  21  37  56  88 117 150 187 225 283 342
#     4  10  23  43  59  76 109 152 199 243 280 325
#     4   9  18  35  60  90 121 146 177 228 285 346
#     4   9  18  34  58  90 123 148 177 225 286 348
#     4   9  19  37  60  84 110 149 194 233 282 334
#
# _framework density 22.233409999999999
#
# number of rings (size 3 to 8) (size 9 to 14) (size 15 to 20)
#    0.000    2.600    0.000    0.600    2.800    3.600 
#    3.600    5.000    0.000    0.000    0.000    0.000 
#    0.000    0.000    0.000    0.000    0.000    0.000 
#
# Total GULP energy -247913.662410 kJ/mol
# GULP energy per Si atom -12395.683120 kJ/mol
# Density = 2.218281 g / cm^3
# Si number density = 22.233410 Si / 1000 Ang^3
#
#
#
# Elastic Constant Matrix: (Units=GPa)
#
#
# Indices 1 2 3 4 5 6 
#
# 1 84.7081 33.7432 44.1328 0.0074 12.1842 0.0166
# 2 33.7432 46.7897 20.8612 -0.0079 5.6208 0.0067
# 3 44.1328 20.8612 101.0259 0.0053 19.7731 0.0096
# 4 0.0074 -0.0079 0.0053 21.5450 0.0019 -3.4403
# 5 12.1842 5.6208 19.7731 0.0019 37.5209 -0.0043
# 6 0.0166 0.0067 0.0096 -3.4403 -0.0043 37.4375
#
#
#
# Elastic Compliance Matrix: (Units=1/GPa)
#
#
# Indices 1 2 3 4 5 6 
#
# 1 0.019631 -0.011326 -0.005934 -0.000010 -0.001551 -0.000006
# 2 -0.011326 0.030112 -0.001235 0.000015 -0.000183 0.000001
# 3 -0.005934 -0.001235 0.013750 -0.000002 -0.005135 -0.000001
# 4 -0.000010 0.000015 -0.000002 0.047106 0.000000 0.004329
# 5 -0.001551 -0.000183 -0.005135 0.000000 0.029889 0.000005
# 6 -0.000006 0.000001 -0.000001 0.004329 0.000005 0.027109
#
#
# Mechanical properties :
#
#
# Convention : Reuss Voigt Hill
#
# Bulk Modulus (GPa) = 37.72695 47.77754 42.75224
# Shear Modulus (GPa) = 23.42793 28.21980 25.82387
#
# Velocity S-wave (km/s) = 3.24964 3.56652 3.41176
# Velocity P-wave (km/s) = 5.57545 6.20450 5.89837
#
# Compressibility (1/GPa) = 0.02650625
#
# Stress axis : x y z
#
# Youngs Moduli (GPa) = 50.93911 33.20903 72.72507
#
# Poissons Ratio (x) = 0.37611 0.43152
# Poissons Ratio (y) = 0.57692 0.08979
# Poissons Ratio (z) = 0.30225 0.04100
#
# Static dielectric constant tensor:
#      x y z
#    x 4.239460 -0.000020 0.133180 
#    y -0.000020 4.009070 0.000020 
#    z 0.133180 0.000020 3.939850 
# 
# 
# High freq. dielectric constant tensor:
#      x y z
#    x 1.868130 0.000000 0.010770 
#    y 0.000000 1.877420 0.000000 
#    z 0.010770 0.000000 1.866890 
# 
# From -- ./inp_files/58930.got.cif
#   From: 2010.06.25/outbox.cif.g09.slc.cpg/sg12_30_cif.got.tgz:58930.got - 2010.06.28 00:19:55.
