data_PCOD8106432
_publ_section_title
;
Structure prediction by ZEFSAII (Michael W. Deem and Ramdas Pophale) SiO2 
 PCOD8106432
Probable space group: C 2/M
;
_chemical_formula_sum "Si O2"
_cell_formula_units_Z 64
_cell_length_a 14.559377
_cell_length_b 9.037221
_cell_length_c 29.475547
_cell_angle_alpha 90.000000
_cell_angle_beta 60.228337
_cell_angle_gamma 90.000000
_cell_volume 3366.393392
_symmetry_space_group_name_H-M "C 2/M"
_symmetry_group_IT_number 12
_symmetry_cell_setting 'monoclinic'
loop_
_space_group_symop_operation_xyz
x,y,z
-x,y,-z
-x,-y,-z
x,-y,z
1/2+x,1/2+y,z
1/2-x,1/2+y,-z
1/2-x,1/2-y,-z
1/2+x,1/2-y,z
loop_
_atom_site_type_symbol
_atom_site_label
_atom_site_fract_x
_atom_site_fract_y
_atom_site_fract_z
Si Si1 0.401483 0.673994 0.993626
Si Si2 0.913108 0.168787 0.814819
Si Si3 0.086163 0.326671 0.442722
Si Si4 0.333433 0.826628 0.922105
Si Si5 0.682479 0.669661 0.256978
Si Si6 0.518511 0.830405 0.358476
Si Si7 0.352678 0.674211 0.268536
Si Si8 0.293093 0.170772 0.375504
O O1 0.411790 0.500000 0.983131
O O2 0.403686 0.750681 0.943988
O O3 0.500000 0.731547 0.000000
O O4 0.290602 0.716616 0.044710
O O5 0.875482 0.275538 0.863523
O O6 0.832596 0.184556 0.793064
O O7 0.027321 0.221909 0.769471
O O8 0.917775 0.000000 0.831464
O O9 0.108013 0.500000 0.442638
O O10 0.194276 0.239977 0.426443
O O11 0.000000 0.271888 0.500000
O O12 0.045442 0.284578 0.402849
O O13 0.349577 0.000000 0.923288
O O14 0.701790 0.500000 0.266147
O O15 0.579102 0.725874 0.308638
O O16 0.784260 0.768333 0.243114
O O17 0.394008 0.806212 0.382682
O O18 0.551274 0.000000 0.340618
O O19 0.340208 0.500000 0.276840
O O20 0.306754 0.747322 0.324642
O O21 0.271638 0.000000 0.370292
#
# Coordination Sequence:
#
# PCOD8106432 Si02
#       8
#     8   8   8   8   8   8   8   8
#     4   9  19  38  62  85 115 156 198 236 288 350
#     4  10  23  40  57  81 120 158 191 233 288 349
#     4  10  22  40  60  83 114 153 193 236 291 351
#     4  10  21  36  58  88 118 151 194 244 289 333
#     4  11  22  37  58  86 114 149 194 237 285 342
#     4  10  21  37  58  83 114 150 187 232 286 343
#     4  11  22  38  58  82 112 152 193 232 289 349
#     4  11  22  36  58  86 113 145 190 239 285 337
#
# _framework density 19.011444999999998
#
# number of rings (size 3 to 8) (size 9 to 14) (size 15 to 20)
#    0.000    1.750    2.500    1.500    0.000    5.000 
#    0.000    3.750    0.000    0.000    0.000    0.000 
#    0.000    0.000    0.000    0.000    0.000    0.000 
#
# Total GULP energy -396946.073522 kJ/mol
# GULP energy per Si atom -12404.564798 kJ/mol
# Density = 1.896817 g / cm^3
# Si number density = 19.011445 Si / 1000 Ang^3
#
#
#
# Elastic Constant Matrix: (Units=GPa)
#
#
# Indices 1 2 3 4 5 6 
#
# 1 95.5505 24.5471 11.4542 0.0000 -0.6762 0.0000
# 2 24.5471 59.6061 27.8448 0.0000 -2.6267 0.0000
# 3 11.4542 27.8448 69.2902 0.0000 3.8764 0.0000
# 4 0.0000 0.0000 0.0000 32.9463 0.0000 -2.4745
# 5 -0.6762 -2.6267 3.8764 0.0000 23.0309 0.0000
# 6 0.0000 0.0000 0.0000 -2.4745 0.0000 31.6098
#
#
#
# Elastic Compliance Matrix: (Units=1/GPa)
#
#
# Indices 1 2 3 4 5 6 
#
# 1 0.011705 -0.004840 0.000022 0.000000 -0.000212 0.000000
# 2 -0.004840 0.022988 -0.008658 0.000000 0.003937 0.000000
# 3 0.000022 -0.008658 0.018134 0.000000 -0.004039 0.000000
# 4 0.000000 0.000000 0.000000 0.030532 0.000000 0.002390
# 5 -0.000212 0.003937 -0.004039 0.000000 0.044543 0.000000
# 6 0.000000 0.000000 0.000000 0.002390 0.000000 0.031823
#
#
# Mechanical properties :
#
#
# Convention : Reuss Voigt Hill
#
# Bulk Modulus (GPa) = 38.64814 39.12657 38.88735
# Shear Modulus (GPa) = 25.60148 28.22411 26.91279
#
# Velocity S-wave (km/s) = 3.67363 3.85721 3.76654
# Velocity P-wave (km/s) = 6.19412 6.36103 6.27813
#
# Compressibility (1/GPa) = 0.02587447
#
# Stress axis : x y z
#
# Youngs Moduli (GPa) = 85.43406 43.50074 55.14585
#
# Poissons Ratio (x) = 0.21054 -0.00121
# Poissons Ratio (y) = 0.41349 0.47746
# Poissons Ratio (z) = -0.00187 0.37664
#
# Static dielectric constant tensor:
#      x y z
#    x 3.732600 0.000000 -0.065300 
#    y 0.000000 3.495540 0.000000 
#    z -0.065300 0.000000 3.382490 
# 
# 
# High freq. dielectric constant tensor:
#      x y z
#    x 1.751490 0.000000 -0.000300 
#    y 0.000000 1.742280 0.000000 
#    z -0.000300 0.000000 1.731200 
# 
# From -- ./inp_files/374995.got.cif
#   From: 2010.06.25/outbox.cif.g09.slc.cpg/sg12_188_cif.got.tgz:374995.got - 2010.06.28 00:19:55.
