data_PCOD8106609
_publ_section_title
;
Structure prediction by ZEFSAII (Michael W. Deem and Ramdas Pophale) SiO2 
 PCOD8106609
Probable space group: C 2/M
;
_chemical_formula_sum "Si O2"
_cell_formula_units_Z 64
_cell_length_a 19.919269
_cell_length_b 19.220571
_cell_length_c 26.160111
_cell_angle_alpha 90.000000
_cell_angle_beta 18.966910
_cell_angle_gamma 90.000000
_cell_volume 3255.307884
_symmetry_space_group_name_H-M "C 2/M"
_symmetry_group_IT_number 12
_symmetry_cell_setting 'monoclinic'
loop_
_space_group_symop_operation_xyz
x,y,z
-x,y,-z
-x,-y,-z
x,-y,z
1/2+x,1/2+y,z
1/2-x,1/2+y,-z
1/2-x,1/2-y,-z
1/2+x,1/2-y,z
loop_
_atom_site_type_symbol
_atom_site_label
_atom_site_fract_x
_atom_site_fract_y
_atom_site_fract_z
Si Si1 0.326502 0.656667 0.733370
Si Si2 0.142936 0.580994 0.773143
Si Si3 0.435441 0.420436 0.353638
Si Si4 0.667110 0.722562 0.914920
Si Si5 0.673896 0.580002 0.080116
Si Si6 0.060384 0.785726 0.108035
Si Si7 0.882766 0.682064 0.391686
Si Si8 0.267561 0.310580 0.608243
O O1 0.168195 0.615921 0.810613
O O2 0.451551 0.599488 0.675361
O O3 0.197922 0.703057 0.865306
O O4 0.496487 0.704272 0.580152
O O5 0.202946 0.500000 0.732556
O O6 0.289871 0.621367 0.627852
O O7 0.914786 0.592766 0.915539
O O8 0.379042 0.500000 0.395734
O O9 0.572756 0.400078 0.206619
O O10 0.218407 0.381068 0.504770
O O11 0.882393 0.682723 0.759737
O O12 0.500000 0.681433 0.000000
O O13 0.574474 0.731565 0.038036
O O14 0.628865 0.500000 0.096358
O O15 0.577695 0.631326 0.106483
O O16 0.838847 0.754966 0.286146
O O17 0.250000 0.750000 0.000000
O O18 0.750000 0.750000 0.500000
O O19 0.880567 0.670614 0.332558
#
# Coordination Sequence:
#
# PCOD8106609 Si02
#       8
#     8   8   8   8   8   8   8   8
#     4  11  24  36  55  88 133 169 201 244 303 374
#     4  11  23  38  56  88 136 174 203 243 301 378
#     4  10  21  36  61  91 119 160 209 252 307 372
#     4  12  25  38  61  95 125 158 209 256 314 364
#     4  10  22  39  63  93 121 160 211 255 311 376
#     4  12  21  39  66  88 118 165 207 265 306 356
#     4  11  20  39  60  85 118 160 204 265 303 352
#     4  11  22  36  59  85 113 169 217 249 295 351
#
# _framework density 19.660198999999999
#
# number of rings (size 3 to 8) (size 9 to 14) (size 15 to 20)
#    0.000    1.000    5.000    3.000    1.750    3.000 
#    0.000    2.500    0.000    1.500    0.000    1.750 
#    0.000    0.000    0.000    0.000    0.000    0.000 
#
# Total GULP energy -396738.260151 kJ/mol
# GULP energy per Si atom -12398.070630 kJ/mol
# Density = 1.961545 g / cm^3
# Si number density = 19.660199 Si / 1000 Ang^3
#
#
#
# Elastic Constant Matrix: (Units=GPa)
#
#
# Indices 1 2 3 4 5 6 
#
# 1 105.9264 49.6833 33.5312 0.0513 8.1417 -0.0115
# 2 49.6833 95.2270 38.2733 0.1247 11.8125 0.0352
# 3 33.5312 38.2733 96.5512 0.0210 7.9377 0.0024
# 4 0.0513 0.1247 0.0210 29.8747 -0.0990 1.1447
# 5 8.1417 11.8125 7.9377 -0.0990 35.6389 0.0105
# 6 -0.0115 0.0352 0.0024 1.1447 0.0105 33.9989
#
#
#
# Elastic Compliance Matrix: (Units=1/GPa)
#
#
# Indices 1 2 3 4 5 6 
#
# 1 0.012874 -0.005793 -0.002130 0.000001 -0.000547 0.000011
# 2 -0.005793 0.015442 -0.003868 -0.000061 -0.002934 -0.000015
# 3 -0.002130 -0.003868 0.012718 0.000007 -0.001064 0.000002
# 4 0.000001 -0.000061 0.000007 0.033517 0.000112 -0.001128
# 5 -0.000547 -0.002934 -0.001064 0.000112 0.029394 -0.000010
# 6 0.000011 -0.000015 0.000002 -0.001128 -0.000010 0.029451
#
#
# Mechanical properties :
#
#
# Convention : Reuss Voigt Hill
#
# Bulk Modulus (GPa) = 57.30047 60.07557 58.68802
# Shear Modulus (GPa) = 30.71355 31.65028 31.18192
#
# Velocity S-wave (km/s) = 3.95678 4.01667 3.98684
# Velocity P-wave (km/s) = 7.07697 7.22044 7.14907
#
# Compressibility (1/GPa) = 0.01745186
#
# Stress axis : x y z
#
# Youngs Moduli (GPa) = 77.67723 64.75687 78.63059
#
# Poissons Ratio (x) = 0.37514 0.16745
# Poissons Ratio (y) = 0.44998 0.30417
# Poissons Ratio (z) = 0.16542 0.25050
#
# Static dielectric constant tensor:
#      x y z
#    x 3.904810 0.002270 0.039800 
#    y 0.002270 3.448770 0.002230 
#    z 0.039800 0.002230 3.794150 
# 
# 
# High freq. dielectric constant tensor:
#      x y z
#    x 1.763330 -0.000010 0.012690 
#    y -0.000010 1.743620 0.000070 
#    z 0.012690 0.000070 1.781320 
# 
# From -- ./inp_files/366788.got.cif
#   From: 2010.06.25/outbox.cif.g09.slc.cpg/sg12_184_cif.got.tgz:366788.got - 2010.06.28 00:19:55.
