data_PCOD8106976
_publ_section_title
;
Structure prediction by ZEFSAII (Michael W. Deem and Ramdas Pophale) SiO2 
 PCOD8106976
Probable space group: C 2/M
;
_chemical_formula_sum "Si O2"
_cell_formula_units_Z 60
_cell_length_a 5.152471
_cell_length_b 25.022452
_cell_length_c 22.208815
_cell_angle_alpha 90.000000
_cell_angle_beta 84.625637
_cell_angle_gamma 90.000000
_cell_volume 2850.738813
_symmetry_space_group_name_H-M "C 2/M"
_symmetry_group_IT_number 12
_symmetry_cell_setting 'monoclinic'
loop_
_space_group_symop_operation_xyz
x,y,z
-x,y,-z
-x,-y,-z
x,-y,z
1/2+x,1/2+y,z
1/2-x,1/2+y,-z
1/2-x,1/2-y,-z
1/2+x,1/2-y,z
loop_
_atom_site_type_symbol
_atom_site_label
_atom_site_fract_x
_atom_site_fract_y
_atom_site_fract_z
Si Si1 0.270791 0.500000 0.458992
Si Si2 0.613011 0.892263 0.431424
Si Si3 0.987807 0.562439 0.932205
Si Si4 0.223513 0.774049 0.568313
Si Si5 0.443344 0.283861 0.068145
Si Si6 0.166982 0.561505 0.666825
Si Si7 0.874368 0.061021 0.256429
Si Si8 0.010393 0.107065 0.872279
O O1 0.500000 0.500000 0.500000
O O2 0.293201 0.445835 0.417869
O O3 0.000000 0.500000 0.500000
O O4 0.500000 0.893461 0.500000
O O5 0.777886 0.837937 0.424287
O O6 0.379601 0.897641 0.388011
O O7 0.040977 0.500000 0.929613
O O8 0.704035 0.574385 0.911417
O O9 0.212400 0.590049 0.888490
O O10 0.000000 0.584657 0.000000
O O11 0.250000 0.750000 0.500000
O O12 0.457212 0.748505 0.602075
O O13 0.649822 0.237779 0.078966
O O14 0.465649 0.330324 0.116209
O O15 0.500000 0.306637 0.000000
O O16 0.190995 0.500000 0.642628
O O17 0.922898 0.567020 0.716954
O O18 0.428775 0.579914 0.695107
O O19 0.915067 0.098297 0.198334
O O20 0.940663 0.000000 0.237168
#
# Coordination Sequence:
#
# PCOD8106976 Si02
#       8
#     4   8   8   8   8   8   8   8
#     4  10  24  34  54  90 120 148 184 228 305 368
#     4  11  22  40  64  90 125 154 195 251 317 393
#     4  11  22  34  54  91 130 157 191 243 301 363
#     4  10  21  37  57  84 115 155 193 227 281 367
#     4  10  21  37  58  88 120 154 200 258 315 361
#     4  10  22  40  58  87 119 154 196 253 306 359
#     4  10  22  40  61  84 119 160 209 246 291 364
#     4  12  22  38  63  85 117 169 211 244 302 362
#
# _framework density 21.047176
#
# number of rings (size 3 to 8) (size 9 to 14) (size 15 to 20)
#    0.000    1.467    2.000    4.000    1.867    6.400 
#    0.000    0.000    0.000    4.800    0.000    0.000 
#    0.000    0.000    0.000    0.000    0.000    0.000 
#
# Total GULP energy -371988.529535 kJ/mol
# GULP energy per Si atom -12399.617651 kJ/mol
# Density = 2.099927 g / cm^3
# Si number density = 21.047176 Si / 1000 Ang^3
#
#
#
# Elastic Constant Matrix: (Units=GPa)
#
#
# Indices 1 2 3 4 5 6 
#
# 1 96.6300 19.3702 -0.2968 0.0000 18.2123 0.0000
# 2 19.3702 127.3908 24.0920 0.0000 12.3855 0.0000
# 3 -0.2968 24.0920 83.0342 0.0000 13.2008 0.0000
# 4 0.0000 0.0000 0.0000 22.8750 0.0000 13.6414
# 5 18.2123 12.3855 13.2008 0.0000 24.6484 0.0000
# 6 0.0000 0.0000 0.0000 13.6414 0.0000 26.0104
#
#
#
# Elastic Compliance Matrix: (Units=1/GPa)
#
#
# Indices 1 2 3 4 5 6 
#
# 1 0.012422 -0.001328 0.001949 0.000000 -0.009554 0.000000
# 2 -0.001328 0.008678 -0.002170 0.000000 -0.002217 0.000000
# 3 0.001949 -0.002170 0.013921 0.000000 -0.007805 0.000000
# 4 0.000000 0.000000 0.000000 0.063611 0.000000 -0.033361
# 5 -0.009554 -0.002217 -0.007805 0.000000 0.052924 0.000000
# 6 0.000000 0.000000 0.000000 -0.033361 0.000000 0.055943
#
#
# Mechanical properties :
#
#
# Convention : Reuss Voigt Hill
#
# Bulk Modulus (GPa) = 31.32757 43.70953 37.51855
# Shear Modulus (GPa) = 22.60011 32.29938 27.44975
#
# Velocity S-wave (km/s) = 3.28042 3.92167 3.61529
# Velocity P-wave (km/s) = 5.40971 6.42795 5.94068
#
# Compressibility (1/GPa) = 0.03192077
#
# Stress axis : x y z
#
# Youngs Moduli (GPa) = 80.50369 115.23675 71.83552
#
# Poissons Ratio (x) = 0.15308 -0.13999
# Poissons Ratio (y) = 0.10694 0.15589
# Poissons Ratio (z) = -0.15689 0.25008
#
# Static dielectric constant tensor:
#      x y z
#    x 4.647310 0.000000 0.199000 
#    y 0.000000 0.990150 0.000000 
#    z 0.199000 0.000000 3.596650 
# 
# 
# High freq. dielectric constant tensor:
#      x y z
#    x 1.846940 0.000000 0.010040 
#    y 0.000000 1.814540 0.000000 
#    z 0.010040 0.000000 1.796960 
# 
# From -- ./inp_files/298092.got.cif
#   From: 2010.06.25/outbox.cif.g09.slc.cpg/sg12_150_cif.got.tgz:298092.got - 2010.06.28 00:19:55.
