data_PCOD8106008
_publ_section_title
;
Structure prediction by ZEFSAII (Michael W. Deem and Ramdas Pophale) SiO2 
 PCOD8106008
Probable space group: C 2/M
;
_chemical_formula_sum "Si O2"
_cell_formula_units_Z 48
_cell_length_a 10.137361
_cell_length_b 9.049748
_cell_length_c 27.116183
_cell_angle_alpha 90.000000
_cell_angle_beta 100.956384
_cell_angle_gamma 90.000000
_cell_volume 2442.309300
_symmetry_space_group_name_H-M "C 2/M"
_symmetry_group_IT_number 12
_symmetry_cell_setting 'monoclinic'
loop_
_space_group_symop_operation_xyz
x,y,z
-x,y,-z
-x,-y,-z
x,-y,z
1/2+x,1/2+y,z
1/2-x,1/2+y,-z
1/2-x,1/2-y,-z
1/2+x,1/2-y,z
loop_
_atom_site_type_symbol
_atom_site_label
_atom_site_fract_x
_atom_site_fract_y
_atom_site_fract_z
Si Si1 0.148895 0.327562 0.029609
Si Si2 0.541038 0.173305 0.304207
Si Si3 0.853763 0.173577 0.471895
Si Si4 0.342775 0.328133 0.865876
Si Si5 0.546724 0.171384 0.809722
Si Si6 0.333360 0.326497 0.358699
O O1 0.182939 0.500000 0.034505
O O2 0.167953 0.258830 0.084299
O O3 0.250000 0.250000 0.000000
O O4 0.000000 0.298238 0.000000
O O5 0.494437 0.227930 0.247233
O O6 0.456305 0.250675 0.340323
O O7 0.695721 0.218661 0.321997
O O8 0.519212 0.000000 0.308666
O O9 0.750000 0.250000 0.500000
O O10 0.829911 0.229912 0.414622
O O11 0.000000 0.221971 0.500000
O O12 0.831739 0.000000 0.474164
O O13 0.367183 0.500000 0.878768
O O14 0.467845 0.267249 0.844022
O O15 0.205478 0.302594 0.826183
O O16 0.508527 0.000000 0.814968
O O17 0.358618 0.500000 0.358543
#
# Coordination Sequence:
#
# PCOD8106008 Si02
#       6
#     8   8   8   8   8   8
#     4  11  24  41  61  86 116 149 186 229 275 324
#     4  10  21  37  57  81 110 145 184 226 274 328
#     4  10  21  36  54  79 110 143 182 228 276 328
#     4  11  23  38  59  86 113 146 187 226 272 329
#     4  10  22  39  57  82 115 146 182 229 275 324
#     4  10  21  36  55  81 110 142 184 229 274 328
#
# _framework density 19.65353
#
# number of rings (size 3 to 8) (size 9 to 14) (size 15 to 20)
#    0.000    1.667    0.000    4.000    0.000    9.000 
#    0.000    0.000    0.000    0.000    0.000    0.000 
#    0.000    0.000    0.000    0.000    0.000    0.000 
#
# Total GULP energy -297744.708135 kJ/mol
# GULP energy per Si atom -12406.029506 kJ/mol
# Density = 1.960880 g / cm^3
# Si number density = 19.653530 Si / 1000 Ang^3
#
#
#
# Elastic Constant Matrix: (Units=GPa)
#
#
# Indices 1 2 3 4 5 6 
#
# 1 76.7868 42.7784 17.6331 0.0000 -12.7928 0.0000
# 2 42.7784 64.0048 32.4002 0.0000 -5.4311 0.0000
# 3 17.6331 32.4002 109.6261 0.0000 -2.6802 0.0000
# 4 0.0000 0.0000 0.0000 29.2434 0.0000 -12.2039
# 5 -12.7928 -5.4311 -2.6802 0.0000 43.6931 0.0000
# 6 0.0000 0.0000 0.0000 -12.2039 0.0000 34.3453
#
#
#
# Elastic Compliance Matrix: (Units=1/GPa)
#
#
# Indices 1 2 3 4 5 6 
#
# 1 0.021701 -0.014586 0.000933 0.000000 0.004598 0.000000
# 2 -0.014586 0.028345 -0.006059 0.000000 -0.001119 0.000000
# 3 0.000933 -0.006059 0.010767 0.000000 0.000180 0.000000
# 4 0.000000 0.000000 0.000000 0.040149 0.000000 0.014266
# 5 0.004598 -0.001119 0.000180 0.000000 0.024105 0.000000
# 6 0.000000 0.000000 0.000000 0.014266 0.000000 0.034185
#
#
# Mechanical properties :
#
#
# Convention : Reuss Voigt Hill
#
# Bulk Modulus (GPa) = 46.75348 48.44901 47.60125
# Shear Modulus (GPa) = 24.29482 31.96343 28.12912
#
# Velocity S-wave (km/s) = 3.51971 4.03717 3.78729
# Velocity P-wave (km/s) = 6.35282 6.81445 6.58768
#
# Compressibility (1/GPa) = 0.02138878
#
# Stress axis : x y z
#
# Youngs Moduli (GPa) = 46.08105 35.28010 92.87732
#
# Poissons Ratio (x) = 0.51460 -0.08664
# Poissons Ratio (y) = 0.67214 0.56270
# Poissons Ratio (z) = -0.04299 0.21375
#
# Static dielectric constant tensor:
#      x y z
#    x 3.822020 0.000000 -0.412280 
#    y 0.000000 3.561210 0.000000 
#    z -0.412280 0.000000 5.336480 
# 
# 
# High freq. dielectric constant tensor:
#      x y z
#    x 1.780560 0.000000 0.003740 
#    y 0.000000 1.763130 0.000000 
#    z 0.003740 0.000000 1.784680 
# 
# From -- ./inp_files/371861.got.cif
#   From: 2010.06.25/outbox.cif.g09.slc.cpg/sg12_186_cif.got.tgz:371861.got - 2010.06.28 00:19:55.
