data_PCOD8106741
_publ_section_title
;
Structure prediction by ZEFSAII (Michael W. Deem and Ramdas Pophale) SiO2 
 PCOD8106741
Probable space group: C 2/M
;
_chemical_formula_sum "Si O2"
_cell_formula_units_Z 48
_cell_length_a 25.017828
_cell_length_b 9.257977
_cell_length_c 11.030448
_cell_angle_alpha 90.000000
_cell_angle_beta 102.453136
_cell_angle_gamma 90.000000
_cell_volume 2494.703655
_symmetry_space_group_name_H-M "C 2/M"
_symmetry_group_IT_number 12
_symmetry_cell_setting 'monoclinic'
loop_
_space_group_symop_operation_xyz
x,y,z
-x,y,-z
-x,-y,-z
x,-y,z
1/2+x,1/2+y,z
1/2-x,1/2+y,-z
1/2-x,1/2-y,-z
1/2+x,1/2-y,z
loop_
_atom_site_type_symbol
_atom_site_label
_atom_site_fract_x
_atom_site_fract_y
_atom_site_fract_z
Si Si1 0.194939 0.161064 0.491607
Si Si2 0.981787 0.332469 0.354668
Si Si3 0.856605 0.335203 0.329760
Si Si4 0.850171 0.839878 0.790104
Si Si5 0.970633 0.827202 0.859410
Si Si6 0.753548 0.329900 0.124778
O O1 0.250000 0.250000 0.500000
O O2 0.152718 0.233277 0.561692
O O3 0.158218 0.154601 0.355929
O O4 0.211541 0.000000 0.541969
O O5 0.999040 0.500000 0.348885
O O6 0.916901 0.311506 0.307621
O O7 0.000000 0.279489 0.500000
O O8 0.006317 0.243500 0.253386
O O9 0.847295 0.500000 0.367050
O O10 0.811997 0.289489 0.208907
O O11 0.908656 0.766314 0.845990
O O12 0.796799 0.763547 0.821621
O O13 0.853337 0.000000 0.847252
O O14 0.972908 0.000000 0.841819
O O15 0.000000 0.781416 0.000000
O O16 0.748090 0.500000 0.105913
O O17 0.750000 0.250000 0.000000
#
# Coordination Sequence:
#
# PCOD8106741 Si02
#       6
#     8   8   8   8   8   8
#     4  11  20  34  57  84 114 146 183 226 280 337
#     4  10  22  40  61  86 118 154 192 238 290 343
#     4  10  21  38  58  82 115 148 182 230 283 333
#     4   9  19  37  57  79 113 147 178 229 284 328
#     4  10  22  39  61  87 114 151 197 241 285 339
#     4  10  21  37  55  78 111 146 183 230 280 330
#
# _framework density 19.240763999999999
#
# number of rings (size 3 to 8) (size 9 to 14) (size 15 to 20)
#    0.000    2.000    1.667    1.500    2.333    2.000 
#    0.000    1.667    0.000    0.000    0.000    0.000 
#    0.000    0.000    0.000    0.000    0.000    0.000 
#
# Total GULP energy -297397.853205 kJ/mol
# GULP energy per Si atom -12391.577217 kJ/mol
# Density = 1.919697 g / cm^3
# Si number density = 19.240764 Si / 1000 Ang^3
#
#
#
# Elastic Constant Matrix: (Units=GPa)
#
#
# Indices 1 2 3 4 5 6 
#
# 1 138.6269 37.8860 75.2100 0.0000 18.0802 0.0000
# 2 37.8860 47.6911 36.9560 0.0000 -6.6541 0.0000
# 3 75.2100 36.9560 133.4169 0.0000 -4.7915 0.0000
# 4 0.0000 0.0000 0.0000 32.9518 0.0000 -8.6393
# 5 18.0802 -6.6541 -4.7915 0.0000 34.8710 0.0000
# 6 0.0000 0.0000 0.0000 -8.6393 0.0000 23.0789
#
#
#
# Elastic Compliance Matrix: (Units=1/GPa)
#
#
# Indices 1 2 3 4 5 6 
#
# 1 0.013774 -0.007611 -0.005995 0.000000 -0.009418 0.000000
# 2 -0.007611 0.031501 -0.004098 0.000000 0.009394 0.000000
# 3 -0.005995 -0.004098 0.012153 0.000000 0.003996 0.000000
# 4 0.000000 0.000000 0.000000 0.033650 0.000000 0.012596
# 5 -0.009418 0.009394 0.003996 0.000000 0.035902 0.000000
# 6 0.000000 0.000000 0.000000 0.012596 0.000000 0.048045
#
#
# Mechanical properties :
#
#
# Convention : Reuss Voigt Hill
#
# Bulk Modulus (GPa) = 45.41110 68.87099 57.14104
# Shear Modulus (GPa) = 22.95972 29.49255 26.22614
#
# Velocity S-wave (km/s) = 3.45814 3.91937 3.69596
# Velocity P-wave (km/s) = 6.29267 7.50693 6.92646
#
# Compressibility (1/GPa) = 0.02202105
#
# Stress axis : x y z
#
# Youngs Moduli (GPa) = 72.59808 31.74552 82.28186
#
# Poissons Ratio (x) = 0.24162 0.49328
# Poissons Ratio (y) = 0.55255 0.33716
# Poissons Ratio (z) = 0.43522 0.13008
#
# Static dielectric constant tensor:
#      x y z
#    x 4.575140 0.000000 0.188900 
#    y 0.000000 44.962890 0.000000 
#    z 0.188900 0.000000 3.574230 
# 
# 
# High freq. dielectric constant tensor:
#      x y z
#    x 1.766240 0.000000 0.007650 
#    y 0.000000 1.726510 0.000000 
#    z 0.007650 0.000000 1.753350 
# 
# From -- ./inp_files/172210.got.cif
#   From: 2010.06.25/outbox.cif.g09.slc.cpg/sg12_87_cif.got.tgz:172210.got - 2010.06.28 00:19:55.
