data_PCOD8106649
_publ_section_title
;
Structure prediction by ZEFSAII (Michael W. Deem and Ramdas Pophale) SiO2 
 PCOD8106649
Probable space group: C 2/M
;
_chemical_formula_sum "Si O2"
_cell_formula_units_Z 48
_cell_length_a 11.755359
_cell_length_b 14.618505
_cell_length_c 15.990940
_cell_angle_alpha 90.000000
_cell_angle_beta 55.007911
_cell_angle_gamma 90.000000
_cell_volume 2251.227327
_symmetry_space_group_name_H-M "C 2/M"
_symmetry_group_IT_number 12
_symmetry_cell_setting 'monoclinic'
loop_
_space_group_symop_operation_xyz
x,y,z
-x,y,-z
-x,-y,-z
x,-y,z
1/2+x,1/2+y,z
1/2-x,1/2+y,-z
1/2-x,1/2-y,-z
1/2+x,1/2-y,z
loop_
_atom_site_type_symbol
_atom_site_label
_atom_site_fract_x
_atom_site_fract_y
_atom_site_fract_z
Si Si1 0.274335 0.139057 0.903327
Si Si2 0.338771 0.394658 0.221693
Si Si3 0.442094 0.899511 0.288320
Si Si4 0.674631 0.398071 0.297772
Si Si5 0.353164 0.651868 0.872343
Si Si6 0.061805 0.709744 0.384469
O O1 0.167084 0.109245 0.876418
O O2 0.422063 0.092167 0.826793
O O3 0.294133 0.247080 0.889765
O O4 0.211663 0.105050 0.017817
O O5 0.331780 0.500000 0.255133
O O6 0.480019 0.348035 0.193426
O O7 0.211346 0.337956 0.314253
O O8 0.317185 0.868713 0.281804
O O9 0.458776 0.828544 0.356993
O O10 0.413817 0.000000 0.338748
O O11 0.625407 0.500000 0.347148
O O12 0.696884 0.401872 0.188533
O O13 0.565077 0.319592 0.369368
O O14 0.000000 0.685953 0.500000
#
# Coordination Sequence:
#
# PCOD8106649 Si02
#       6
#     8   8   8   8   8   8
#     4  10  21  36  64  91 128 171 207 246 302 362
#     4  11  23  41  64  93 128 161 208 265 310 360
#     4  10  22  42  64  92 129 162 203 255 306 368
#     4  11  24  42  63  91 130 166 203 255 315 376
#     4  11  22  38  61  95 129 167 206 248 304 371
#     4  11  24  43  71  90 118 160 215 262 317 372
#
# _framework density 21.321702999999999
#
# number of rings (size 3 to 8) (size 9 to 14) (size 15 to 20)
#    0.000    1.333    3.333    4.000    0.000    6.333 
#    0.000    1.667    0.000    0.000    0.000    0.000 
#    0.000    0.000    0.000    0.000    0.000    0.000 
#
# Total GULP energy -297586.801999 kJ/mol
# GULP energy per Si atom -12399.450083 kJ/mol
# Density = 2.127317 g / cm^3
# Si number density = 21.321703 Si / 1000 Ang^3
#
#
#
# Elastic Constant Matrix: (Units=GPa)
#
#
# Indices 1 2 3 4 5 6 
#
# 1 138.6006 31.7984 53.6505 0.0000 24.1172 0.0000
# 2 31.7984 105.0948 25.9206 0.0000 -0.5220 0.0000
# 3 53.6505 25.9206 134.0637 0.0000 18.5031 0.0000
# 4 0.0000 0.0000 0.0000 7.0692 0.0000 3.2605
# 5 24.1172 -0.5220 18.5031 0.0000 15.8573 0.0000
# 6 0.0000 0.0000 0.0000 3.2605 0.0000 33.7394
#
#
#
# Elastic Compliance Matrix: (Units=1/GPa)
#
#
# Indices 1 2 3 4 5 6 
#
# 1 0.011237 -0.003022 -0.001836 0.000000 -0.015048 0.000000
# 2 -0.003022 0.010932 -0.001893 0.000000 0.007165 0.000000
# 3 -0.001836 -0.001893 0.009754 0.000000 -0.008652 0.000000
# 4 0.000000 0.000000 0.000000 0.148059 0.000000 -0.014308
# 5 -0.015048 0.007165 -0.008652 0.000000 0.096280 0.000000
# 6 0.000000 0.000000 0.000000 -0.014308 0.000000 0.031022
#
#
# Mechanical properties :
#
#
# Convention : Reuss Voigt Hill
#
# Bulk Modulus (GPa) = 54.28509 66.72200 60.50354
# Shear Modulus (GPa) = 15.29395 29.09248 22.19321
#
# Velocity S-wave (km/s) = 2.68114 3.69786 3.22976
# Velocity P-wave (km/s) = 5.92452 7.04224 6.50742
#
# Compressibility (1/GPa) = 0.01842127
#
# Stress axis : x y z
#
# Youngs Moduli (GPa) = 88.98844 91.47342 102.52261
#
# Poissons Ratio (x) = 0.27644 0.18822
# Poissons Ratio (y) = 0.26893 0.19410
# Poissons Ratio (z) = 0.16337 0.17318
#
# Static dielectric constant tensor:
#      x y z
#    x 3.852920 0.000000 0.179100 
#    y 0.000000 3.854010 0.000000 
#    z 0.179100 0.000000 3.812450 
# 
# 
# High freq. dielectric constant tensor:
#      x y z
#    x 1.839450 0.000000 0.014050 
#    y 0.000000 1.855090 0.000000 
#    z 0.014050 0.000000 1.813670 
# 
# From -- ./inp_files/204308.got.cif
#   From: 2010.06.25/outbox.cif.g09.slc.cpg/sg12_103_cif.got.tgz:204308.got - 2010.06.28 00:19:55.
