data_PCOD8106690
_publ_section_title
;
Structure prediction by ZEFSAII (Michael W. Deem and Ramdas Pophale) SiO2 
 PCOD8106690
Probable space group: C 2/M
;
_chemical_formula_sum "Si O2"
_cell_formula_units_Z 48
_cell_length_a 14.883858
_cell_length_b 8.989058
_cell_length_c 20.160334
_cell_angle_alpha 90.000000
_cell_angle_beta 109.475285
_cell_angle_gamma 90.000000
_cell_volume 2542.964333
_symmetry_space_group_name_H-M "C 2/M"
_symmetry_group_IT_number 12
_symmetry_cell_setting 'monoclinic'
loop_
_space_group_symop_operation_xyz
x,y,z
-x,y,-z
-x,-y,-z
x,-y,z
1/2+x,1/2+y,z
1/2-x,1/2+y,-z
1/2-x,1/2-y,-z
1/2+x,1/2-y,z
loop_
_atom_site_type_symbol
_atom_site_label
_atom_site_fract_x
_atom_site_fract_y
_atom_site_fract_z
Si Si1 0.652679 0.171554 0.655777
Si Si2 0.348653 0.676173 0.000624
Si Si3 0.655480 0.827538 0.500821
Si Si4 0.468844 0.324694 0.633607
Si Si5 0.363380 0.676112 0.737585
Si Si6 0.951741 0.823322 0.893828
O O1 0.646530 0.198219 0.576213
O O2 0.577706 0.279071 0.673011
O O3 0.753455 0.222860 0.710040
O O4 0.631639 0.000000 0.667827
O O5 0.333550 0.500000 0.000077
O O6 0.379128 0.729034 0.934059
O O7 0.250000 0.750000 0.000000
O O8 0.438296 0.727058 0.068634
O O9 0.750000 0.750000 0.500000
O O10 0.565663 0.755411 0.441854
O O11 0.660260 0.000000 0.483873
O O12 0.456822 0.500000 0.621877
O O13 0.410677 0.262447 0.682164
O O14 0.374444 0.500000 0.740675
O O15 0.414488 0.744411 0.815125
O O16 0.949608 0.000000 0.892942
#
# Coordination Sequence:
#
# PCOD8106690 Si02
#       6
#     8   8   8   8   8   8
#     4  10  21  37  54  75 102 137 176 216 266 318
#     4   9  17  31  54  82 105 134 176 213 254 304
#     4  11  21  36  57  78 103 136 177 222 269 315
#     4  11  22  36  54  79 104 136 179 220 266 315
#     4   9  18  35  54  73 105 142 175 212 259 315
#     4   8  16  32  53  75 104 143 177 205 249 318
#
# _framework density 18.875608
#
# number of rings (size 3 to 8) (size 9 to 14) (size 15 to 20)
#    0.000    2.333    1.667    2.500    0.000    4.667 
#    0.000    1.667    0.000    4.000    0.000    0.000 
#    0.000    0.000    0.000    0.000    0.000    0.000 
#
# Total GULP energy -297530.104707 kJ/mol
# GULP energy per Si atom -12397.087696 kJ/mol
# Density = 1.883265 g / cm^3
# Si number density = 18.875608 Si / 1000 Ang^3
#
#
#
# Elastic Constant Matrix: (Units=GPa)
#
#
# Indices 1 2 3 4 5 6 
#
# 1 120.0561 26.2432 39.6722 0.0000 21.0164 0.0000
# 2 26.2432 39.8875 25.3164 0.0000 2.6693 0.0000
# 3 39.6722 25.3164 126.5988 0.0000 24.0229 0.0000
# 4 0.0000 0.0000 0.0000 15.6145 0.0000 3.4353
# 5 21.0164 2.6693 24.0229 0.0000 21.0408 0.0000
# 6 0.0000 0.0000 0.0000 3.4353 0.0000 37.5224
#
#
#
# Elastic Compliance Matrix: (Units=1/GPa)
#
#
# Indices 1 2 3 4 5 6 
#
# 1 0.011773 -0.006835 -0.000326 0.000000 -0.010519 0.000000
# 2 -0.006835 0.032913 -0.006310 0.000000 0.009856 0.000000
# 3 -0.000326 -0.006310 0.011552 0.000000 -0.012063 0.000000
# 4 0.000000 0.000000 0.000000 0.065360 0.000000 -0.005984
# 5 -0.010519 0.009856 -0.012063 0.000000 0.070556 0.000000
# 6 0.000000 0.000000 0.000000 -0.005984 0.000000 0.027199
#
#
# Mechanical properties :
#
#
# Convention : Reuss Voigt Hill
#
# Bulk Modulus (GPa) = 34.13497 52.11177 43.12337
# Shear Modulus (GPa) = 19.52678 27.85625 23.69152
#
# Velocity S-wave (km/s) = 3.21985 3.84576 3.54664
# Velocity P-wave (km/s) = 5.65214 6.88387 6.29819
#
# Compressibility (1/GPa) = 0.02929547
#
# Stress axis : x y z
#
# Youngs Moduli (GPa) = 84.94221 30.38354 86.56436
#
# Poissons Ratio (x) = 0.20766 0.02825
# Poissons Ratio (y) = 0.58054 0.54623
# Poissons Ratio (z) = 0.02772 0.19172
#
# Static dielectric constant tensor:
#      x y z
#    x 3.653560 0.000000 0.436620 
#    y 0.000000 3.169240 0.000000 
#    z 0.436620 0.000000 4.881000 
# 
# 
# High freq. dielectric constant tensor:
#      x y z
#    x 1.745970 0.000000 0.006690 
#    y 0.000000 1.698160 0.000000 
#    z 0.006690 0.000000 1.734760 
# 
# From -- ./inp_files/308272.got.cif
#   From: 2010.06.25/outbox.cif.g09.slc.cpg/sg12_155_cif.got.tgz:308272.got - 2010.06.28 00:19:55.
