data_PCOD8106753
_publ_section_title
;
Structure prediction by ZEFSAII (Michael W. Deem and Ramdas Pophale) SiO2 
 PCOD8106753
Probable space group: C 2/M
;
_chemical_formula_sum "Si O2"
_cell_formula_units_Z 56
_cell_length_a 10.147053
_cell_length_b 14.057707
_cell_length_c 22.965059
_cell_angle_alpha 90.000000
_cell_angle_beta 116.415241
_cell_angle_gamma 90.000000
_cell_volume 2933.816128
_symmetry_space_group_name_H-M "C 2/M"
_symmetry_group_IT_number 12
_symmetry_cell_setting 'monoclinic'
loop_
_space_group_symop_operation_xyz
x,y,z
-x,y,-z
-x,-y,-z
x,-y,z
1/2+x,1/2+y,z
1/2-x,1/2+y,-z
1/2-x,1/2-y,-z
1/2+x,1/2-y,z
loop_
_atom_site_type_symbol
_atom_site_label
_atom_site_fract_x
_atom_site_fract_y
_atom_site_fract_z
Si Si1 0.421019 0.257183 0.044525
Si Si2 0.400148 0.111823 0.532260
Si Si3 0.615157 0.887311 0.148909
Si Si4 0.964862 0.264139 0.345508
Si Si5 0.372416 0.251432 0.742237
Si Si6 0.071953 0.110814 0.848453
Si Si7 0.431923 0.389228 0.548604
O O1 0.483705 0.159865 0.085562
O O2 0.447185 0.346676 0.091265
O O3 0.500000 0.280075 0.000000
O O4 0.250000 0.250000 0.000000
O O5 0.500000 0.151915 0.500000
O O6 0.460566 0.151881 0.603975
O O7 0.235650 0.145601 0.486566
O O8 0.408053 0.000000 0.539290
O O9 0.621709 0.839870 0.213948
O O10 0.767445 0.866097 0.145801
O O11 0.585280 0.000000 0.149297
O O12 0.792161 0.280885 0.305764
O O13 0.038055 0.272815 0.297499
O O14 0.989067 0.163464 0.382528
O O15 0.446434 0.344369 0.783904
O O16 0.041768 0.000000 0.845966
O O17 0.500000 0.361618 0.500000
O O18 0.449347 0.500000 0.565443
#
# Coordination Sequence:
#
# PCOD8106753 Si02
#       7
#     8   8   8   8   8   8   8
#     4  11  22  39  65 100 128 153 199 251 291 347
#     4  10  21  37  55  79 113 148 187 243 308 365
#     4  10  22  42  65  87 123 170 202 238 297 354
#     4  12  22  36  60  84 115 153 199 247 307 353
#     4  11  24  39  58  90 119 156 206 256 289 349
#     4  10  22  42  64  87 125 168 199 242 300 349
#     4  10  21  37  57  83 113 149 195 246 302 368
#
# _framework density 19.087766999999999
#
# number of rings (size 3 to 8) (size 9 to 14) (size 15 to 20)
#    0.000    1.429    2.857    2.571    0.000    3.429 
#    0.000    1.429    0.000    0.000    0.000    0.000 
#    0.000    0.000    0.000    0.000    0.000    0.000 
#
# Total GULP energy -347283.309666 kJ/mol
# GULP energy per Si atom -12402.975345 kJ/mol
# Density = 1.904432 g / cm^3
# Si number density = 19.087767 Si / 1000 Ang^3
#
#
#
# Elastic Constant Matrix: (Units=GPa)
#
#
# Indices 1 2 3 4 5 6 
#
# 1 154.5562 43.3667 68.7056 0.0000 -7.1523 0.0000
# 2 43.3667 113.7031 55.5780 0.0000 4.5341 0.0000
# 3 68.7056 55.5780 134.5686 0.0000 0.1788 0.0000
# 4 0.0000 0.0000 0.0000 31.0336 0.0000 36.7616
# 5 -7.1523 4.5341 0.1788 0.0000 52.5563 0.0000
# 6 0.0000 0.0000 0.0000 36.7616 0.0000 128.3578
#
#
#
# Elastic Compliance Matrix: (Units=1/GPa)
#
#
# Indices 1 2 3 4 5 6 
#
# 1 0.008637 -0.001491 -0.003795 0.000000 0.001317 0.000000
# 2 -0.001491 0.011323 -0.003914 0.000000 -0.001167 0.000000
# 3 -0.003795 -0.003914 0.010986 0.000000 -0.000216 0.000000
# 4 0.000000 0.000000 0.000000 0.048768 0.000000 -0.013967
# 5 0.001317 -0.001167 -0.000216 0.000000 0.019308 0.000000
# 6 0.000000 0.000000 0.000000 -0.013967 0.000000 0.011791
#
#
# Mechanical properties :
#
#
# Convention : Reuss Voigt Hill
#
# Bulk Modulus (GPa) = 79.71469 82.01431 80.86450
# Shear Modulus (GPa) = 37.48278 58.06805 47.77541
#
# Velocity S-wave (km/s) = 4.43618 5.52156 5.00836
# Velocity P-wave (km/s) = 8.25181 9.14934 8.71214
#
# Compressibility (1/GPa) = 0.01254474
#
# Stress axis : x y z
#
# Youngs Moduli (GPa) = 115.78456 88.31492 91.02878
#
# Poissons Ratio (x) = 0.13171 0.34549
# Poissons Ratio (y) = 0.17268 0.35624
# Poissons Ratio (z) = 0.43945 0.34562
#
# Static dielectric constant tensor:
#      x y z
#    x 3.744050 0.000000 -0.052910 
#    y 0.000000 3.430820 0.000000 
#    z -0.052910 0.000000 3.649260 
# 
# 
# High freq. dielectric constant tensor:
#      x y z
#    x 1.759270 0.000000 -0.000030 
#    y 0.000000 1.744680 0.000000 
#    z -0.000030 0.000000 1.754150 
# 
# From -- ./inp_files/300145.got.cif
#   From: 2010.06.25/outbox.cif.g09.slc.cpg/sg12_151_cif.got.tgz:300145.got - 2010.06.28 00:19:55.
