data_PCOD8106826
_publ_section_title
;
Structure prediction by ZEFSAII (Michael W. Deem and Ramdas Pophale) SiO2 
 PCOD8106826
Probable space group: C 2/M
;
_chemical_formula_sum "Si O2"
_cell_formula_units_Z 56
_cell_length_a 26.989001
_cell_length_b 16.930432
_cell_length_c 9.731543
_cell_angle_alpha 90.000000
_cell_angle_beta 37.758516
_cell_angle_gamma 90.000000
_cell_volume 2722.861139
_symmetry_space_group_name_H-M "C 2/M"
_symmetry_group_IT_number 12
_symmetry_cell_setting 'monoclinic'
loop_
_space_group_symop_operation_xyz
x,y,z
-x,y,-z
-x,-y,-z
x,-y,z
1/2+x,1/2+y,z
1/2-x,1/2+y,-z
1/2-x,1/2-y,-z
1/2+x,1/2-y,z
loop_
_atom_site_type_symbol
_atom_site_label
_atom_site_fract_x
_atom_site_fract_y
_atom_site_fract_z
Si Si1 0.820040 0.407686 0.789121
Si Si2 0.733018 0.408422 0.518049
Si Si3 0.490811 0.353110 0.673424
Si Si4 0.430745 0.589802 0.242426
Si Si5 0.806035 0.828896 0.121795
Si Si6 0.844494 0.352817 0.042932
Si Si7 0.980712 0.327416 0.388745
O O1 0.814773 0.500000 0.766214
O O2 0.739838 0.363605 0.910456
O O3 0.896890 0.371309 0.536020
O O4 0.825631 0.396484 0.940945
O O5 0.725685 0.500000 0.575613
O O6 0.656236 0.373556 0.601744
O O7 0.741351 0.357488 0.638320
O O8 0.808577 0.398003 0.251819
O O9 0.500000 0.386051 0.500000
O O10 0.547426 0.406118 0.645427
O O11 0.529578 0.266317 0.600369
O O12 0.397877 0.360657 0.923458
O O13 0.425670 0.500000 0.205648
O O14 0.500000 0.633849 0.000000
O O15 0.808013 0.734690 0.108875
O O16 0.940385 0.353704 0.870137
O O17 0.000000 0.352650 0.500000
#
# Coordination Sequence:
#
# PCOD8106826 Si02
#       7
#     8   8   8   8   8   8   8
#     4  11  23  39  64  93 122 158 197 250 310 357
#     4  11  23  39  59  86 122 161 201 246 300 359
#     4  10  21  38  61  86 118 157 198 249 292 353
#     4  10  21  37  56  81 116 161 199 236 296 355
#     4  11  23  40  60  88 125 159 197 248 307 358
#     4  10  22  40  63  89 116 157 209 248 289 359
#     4   8  19  39  60  87 116 152 197 242 300 352
#
# _framework density 20.566602
#
# number of rings (size 3 to 8) (size 9 to 14) (size 15 to 20)
#    0.000    1.857    1.429    2.571    4.000    4.000 
#    0.000    0.714    0.000    1.714    0.000    0.000 
#    0.000    0.000    0.000    0.000    0.000    0.000 
#
# Total GULP energy -347125.759590 kJ/mol
# GULP energy per Si atom -12397.348557 kJ/mol
# Density = 2.051979 g / cm^3
# Si number density = 20.566602 Si / 1000 Ang^3
#
#
#
# Elastic Constant Matrix: (Units=GPa)
#
#
# Indices 1 2 3 4 5 6 
#
# 1 56.8340 13.6651 12.3892 0.0000 4.3929 0.0000
# 2 13.6651 75.5309 20.4177 0.0000 -9.6801 0.0000
# 3 12.3892 20.4177 106.4027 0.0000 6.6621 0.0000
# 4 0.0000 0.0000 0.0000 26.1536 0.0000 4.8655
# 5 4.3929 -9.6801 6.6621 0.0000 30.3345 0.0000
# 6 0.0000 0.0000 0.0000 4.8655 0.0000 22.0878
#
#
#
# Elastic Compliance Matrix: (Units=1/GPa)
#
#
# Indices 1 2 3 4 5 6 
#
# 1 0.019011 -0.003547 -0.001308 0.000000 -0.003598 0.000000
# 2 -0.003547 0.015455 -0.002934 0.000000 0.006090 0.000000
# 3 -0.001308 -0.002934 0.010302 0.000000 -0.003009 0.000000
# 4 0.000000 0.000000 0.000000 0.039870 0.000000 -0.008783
# 5 -0.003598 0.006090 -0.003009 0.000000 0.036091 0.000000
# 6 0.000000 0.000000 0.000000 -0.008783 0.000000 0.047209
#
#
# Mechanical properties :
#
#
# Convention : Reuss Voigt Hill
#
# Bulk Modulus (GPa) = 34.25769 36.85688 35.55728
# Shear Modulus (GPa) = 25.87392 28.53488 27.20440
#
# Velocity S-wave (km/s) = 3.55076 3.72887 3.64090
# Velocity P-wave (km/s) = 5.78823 6.04144 5.91619
#
# Compressibility (1/GPa) = 0.02919052
#
# Stress axis : x y z
#
# Youngs Moduli (GPa) = 52.60086 64.70418 97.06908
#
# Poissons Ratio (x) = 0.22951 0.12693
# Poissons Ratio (y) = 0.18658 0.28480
# Poissons Ratio (z) = 0.06878 0.18984
#
# Static dielectric constant tensor:
#      x y z
#    x 3.661530 0.000000 -0.278080 
#    y 0.000000 3.509360 0.000000 
#    z -0.278080 0.000000 3.968370 
# 
# 
# High freq. dielectric constant tensor:
#      x y z
#    x 1.795260 0.000000 -0.009310 
#    y 0.000000 1.792300 0.000000 
#    z -0.009310 0.000000 1.810610 
# 
# From -- ./inp_files/105949.got.cif
#   From: 2010.06.25/outbox.cif.g09.slc.cpg/sg12_53_cif.got.tgz:105949.got - 2010.06.28 00:19:55.
