data_PCOD8106762
_publ_section_title
;
Structure prediction by ZEFSAII (Michael W. Deem and Ramdas Pophale) SiO2 
 PCOD8106762
Probable space group: C 2/M
;
_chemical_formula_sum "Si O2"
_cell_formula_units_Z 48
_cell_length_a 14.216807
_cell_length_b 22.933371
_cell_length_c 11.993366
_cell_angle_alpha 90.000000
_cell_angle_beta 137.296237
_cell_angle_gamma 90.000000
_cell_volume 2652.002435
_symmetry_space_group_name_H-M "C 2/M"
_symmetry_group_IT_number 12
_symmetry_cell_setting 'monoclinic'
loop_
_space_group_symop_operation_xyz
x,y,z
-x,y,-z
-x,-y,-z
x,-y,z
1/2+x,1/2+y,z
1/2-x,1/2+y,-z
1/2-x,1/2-y,-z
1/2+x,1/2-y,z
loop_
_atom_site_type_symbol
_atom_site_label
_atom_site_fract_x
_atom_site_fract_y
_atom_site_fract_z
Si Si1 0.852823 0.232488 0.991899
Si Si2 0.770133 0.652990 0.498556
Si Si3 0.585569 0.564598 0.242738
Si Si4 0.669395 0.756425 0.271864
Si Si5 0.310210 0.598261 0.906804
Si Si6 0.494720 0.066307 0.364412
O O1 0.009489 0.244867 0.166949
O O2 0.750000 0.250000 0.000000
O O3 0.814995 0.267832 0.846488
O O4 0.837387 0.166037 0.943914
O O5 0.634316 0.611286 0.377711
O O6 0.761898 0.701510 0.393213
O O7 0.775650 0.684912 0.622168
O O8 0.904734 0.612624 0.604925
O O9 0.629301 0.500000 0.319254
O O10 0.669321 0.580096 0.203297
O O11 0.421024 0.565408 0.081044
O O12 0.158897 0.579483 0.815584
O O13 0.500000 0.076242 0.500000
O O14 0.536657 0.000000 0.369720
#
# Coordination Sequence:
#
# PCOD8106762 Si02
#       6
#     8   8   8   8   8   8
#     4  11  20  37  59  84 111 157 193 233 286 339
#     4  11  20  34  53  78 116 150 177 230 290 340
#     4  11  19  32  55  80 111 153 186 229 297 341
#     4  10  21  37  55  81 119 149 190 236 281 342
#     4  11  19  33  49  82 115 146 190 236 282 345
#     4  11  20  30  47  79 116 148 189 238 284 335
#
# _framework density 18.099530999999999
#
# number of rings (size 3 to 8) (size 9 to 14) (size 15 to 20)
#    0.000    1.167    5.000    4.500    0.000    0.000 
#    0.000    2.500    0.000    0.000    0.000   28.000 
#    0.000    0.000    0.000    0.000    0.000    0.000 
#
# Total GULP energy -297593.018186 kJ/mol
# GULP energy per Si atom -12399.709091 kJ/mol
# Density = 1.805834 g / cm^3
# Si number density = 18.099531 Si / 1000 Ang^3
#
#
#
# Elastic Constant Matrix: (Units=GPa)
#
#
# Indices 1 2 3 4 5 6 
#
# 1 77.2730 28.9798 42.1372 0.0000 6.0776 0.0000
# 2 28.9798 134.8291 56.7895 0.0000 -4.4767 0.0000
# 3 42.1372 56.7895 98.9507 0.0000 9.4626 0.0000
# 4 0.0000 0.0000 0.0000 10.2316 0.0000 1.1293
# 5 6.0776 -4.4767 9.4626 0.0000 27.4967 0.0000
# 6 0.0000 0.0000 0.0000 1.1293 0.0000 26.0774
#
#
#
# Elastic Compliance Matrix: (Units=1/GPa)
#
#
# Indices 1 2 3 4 5 6 
#
# 1 0.016990 -0.000959 -0.006526 0.000000 -0.001666 0.000000
# 2 -0.000959 0.010202 -0.005817 0.000000 0.003875 0.000000
# 3 -0.006526 -0.005817 0.016727 0.000000 -0.005261 0.000000
# 4 0.000000 0.000000 0.000000 0.098206 0.000000 -0.004253
# 5 -0.001666 0.003875 -0.005261 0.000000 0.039178 0.000000
# 6 0.000000 0.000000 0.000000 -0.004253 0.000000 0.038531
#
#
# Mechanical properties :
#
#
# Convention : Reuss Voigt Hill
#
# Bulk Modulus (GPa) = 57.75170 62.98507 60.36839
# Shear Modulus (GPa) = 19.82488 24.97090 22.39789
#
# Velocity S-wave (km/s) = 3.31316 3.71839 3.52161
# Velocity P-wave (km/s) = 6.82738 7.30137 7.06835
#
# Compressibility (1/GPa) = 0.01731551
#
# Stress axis : x y z
#
# Youngs Moduli (GPa) = 58.85796 98.02301 59.78480
#
# Poissons Ratio (x) = 0.09396 0.39013
# Poissons Ratio (y) = 0.05642 0.34778
# Poissons Ratio (z) = 0.38409 0.57023
#
# Static dielectric constant tensor:
#      x y z
#    x 2.836730 0.000000 0.271020 
#    y 0.000000 3.503790 0.000000 
#    z 0.271020 0.000000 3.636480 
# 
# 
# High freq. dielectric constant tensor:
#      x y z
#    x 1.649250 0.000000 0.030770 
#    y 0.000000 1.713870 0.000000 
#    z 0.030770 0.000000 1.712460 
# 
# From -- ./inp_files/148032.got.cif
#   From: 2010.06.25/outbox.cif.g09.slc.cpg/sg12_75_cif.got.tgz:148032.got - 2010.06.28 00:19:55.
