data_PCOD8106588
_publ_section_title
;
Structure prediction by ZEFSAII (Michael W. Deem and Ramdas Pophale) SiO2 
 PCOD8106588
Probable space group: C 2/M
;
_chemical_formula_sum "Si O2"
_cell_formula_units_Z 40
_cell_length_a 12.845187
_cell_length_b 21.948816
_cell_length_c 15.807532
_cell_angle_alpha 90.000000
_cell_angle_beta 24.155840
_cell_angle_gamma 90.000000
_cell_volume 1823.779589
_symmetry_space_group_name_H-M "C 2/M"
_symmetry_group_IT_number 12
_symmetry_cell_setting 'monoclinic'
loop_
_space_group_symop_operation_xyz
x,y,z
-x,y,-z
-x,-y,-z
x,-y,z
1/2+x,1/2+y,z
1/2-x,1/2+y,-z
1/2-x,1/2-y,-z
1/2+x,1/2-y,z
loop_
_atom_site_type_symbol
_atom_site_label
_atom_site_fract_x
_atom_site_fract_y
_atom_site_fract_z
Si Si1 0.931637 0.572378 0.845791
Si Si2 0.873652 0.777914 0.326211
Si Si3 0.886085 0.066032 0.194176
Si Si4 0.943587 0.684566 0.943341
Si Si5 0.441534 0.106061 0.426627
O O1 0.952913 0.500000 0.851735
O O2 0.012150 0.614482 0.865592
O O3 0.107988 0.591269 0.635127
O O4 0.650226 0.595456 0.028826
O O5 0.750000 0.750000 0.500000
O O6 0.685046 0.832614 0.442663
O O7 0.884434 0.730547 0.240113
O O8 0.150643 0.802049 0.144147
O O9 0.744847 0.104599 0.224293
O O10 0.701800 0.055377 0.411689
O O11 0.950644 0.000000 0.108111
O O12 0.000000 0.693580 0.000000
#
# Coordination Sequence:
#
# PCOD8106588 Si02
#       5
#     8   8   8   8   8
#     4  11  22  41  66  96 138 179 219 270 325 392
#     4  11  24  47  67  96 129 171 223 279 332 387
#     4  10  21  36  60  99 138 170 209 265 331 399
#     4  11  26  47  67  94 132 175 226 275 327 395
#     4  11  20  37  64  94 132 171 216 267 332 390
#
# _framework density 21.932475
#
# number of rings (size 3 to 8) (size 9 to 14) (size 15 to 20)
#    0.000    1.200    4.000    3.000    0.000    6.000 
#    0.000    0.000    0.000    1.200    0.000    0.000 
#    0.000    0.000    0.000    0.000    0.000    0.000 
#
# Total GULP energy -247797.221744 kJ/mol
# GULP energy per Si atom -12389.861087 kJ/mol
# Density = 2.188256 g / cm^3
# Si number density = 21.932475 Si / 1000 Ang^3
#
#
#
# Elastic Constant Matrix: (Units=GPa)
#
#
# Indices 1 2 3 4 5 6 
#
# 1 118.4508 61.2555 29.8955 -0.0265 32.4114 -0.1247
# 2 61.2555 144.9394 35.3347 -0.0139 5.9821 -0.3732
# 3 29.8955 35.3347 60.1507 -1.0919 20.7958 -0.9766
# 4 -0.0265 -0.0139 -1.0919 28.3454 0.0392 -5.1954
# 5 32.4114 5.9821 20.7958 0.0392 43.0870 0.0928
# 6 -0.1247 -0.3732 -0.9766 -5.1954 0.0928 23.4230
#
#
#
# Elastic Compliance Matrix: (Units=1/GPa)
#
#
# Indices 1 2 3 4 5 6 
#
# 1 0.013953 -0.005387 -0.000480 0.000006 -0.009517 0.000008
# 2 -0.005387 0.010205 -0.005084 -0.000230 0.005090 -0.000149
# 3 -0.000480 -0.005084 0.023432 0.001131 -0.010246 0.001185
# 4 0.000006 -0.000230 0.001131 0.036829 -0.000570 0.008215
# 5 -0.009517 0.005090 -0.010246 -0.000570 0.034608 -0.000660
# 6 0.000008 -0.000149 0.001185 0.008215 -0.000660 0.044565
#
#
# Mechanical properties :
#
#
# Convention : Reuss Voigt Hill
#
# Bulk Modulus (GPa) = 38.92737 64.05692 51.49214
# Shear Modulus (GPa) = 25.76562 32.10808 28.93685
#
# Velocity S-wave (km/s) = 3.43121 3.83031 3.63624
# Velocity P-wave (km/s) = 5.78661 6.98796 6.41547
#
# Compressibility (1/GPa) = 0.02568887
#
# Stress axis : x y z
#
# Youngs Moduli (GPa) = 71.66668 97.98994 42.67700
#
# Poissons Ratio (x) = 0.52791 0.02048
# Poissons Ratio (y) = 0.38609 0.21695
# Poissons Ratio (z) = 0.03439 0.49814
#
# Static dielectric constant tensor:
#      x y z
#    x 3.673910 -0.003930 0.161090 
#    y -0.003930 3.716290 -0.007110 
#    z 0.161090 -0.007110 4.156560 
# 
# 
# High freq. dielectric constant tensor:
#      x y z
#    x 1.836520 -0.000040 0.024320 
#    y -0.000040 1.865860 0.000200 
#    z 0.024320 0.000200 1.878930 
# 
# From -- ./inp_files/208532.got.cif
#   From: 2010.06.25/outbox.cif.g09.slc.cpg/sg12_105_cif.got.tgz:208532.got - 2010.06.28 00:19:55.
