data_PCOD8106559
_publ_section_title
;
Structure prediction by ZEFSAII (Michael W. Deem and Ramdas Pophale) SiO2 
 PCOD8106559
Probable space group: C 2/M
;
_chemical_formula_sum "Si O2"
_cell_formula_units_Z 64
_cell_length_a 30.467019
_cell_length_b 13.052177
_cell_length_c 14.424422
_cell_angle_alpha 90.000000
_cell_angle_beta 145.824517
_cell_angle_gamma 90.000000
_cell_volume 3222.096219
_symmetry_space_group_name_H-M "C 2/M"
_symmetry_group_IT_number 12
_symmetry_cell_setting 'monoclinic'
loop_
_space_group_symop_operation_xyz
x,y,z
-x,y,-z
-x,-y,-z
x,-y,z
1/2+x,1/2+y,z
1/2-x,1/2+y,-z
1/2-x,1/2-y,-z
1/2+x,1/2-y,z
loop_
_atom_site_type_symbol
_atom_site_label
_atom_site_fract_x
_atom_site_fract_y
_atom_site_fract_z
Si Si1 0.965431 0.233946 0.180303
Si Si2 0.311094 0.620931 0.865963
Si Si3 0.729316 0.779231 0.360105
Si Si4 0.065701 0.381104 0.039384
Si Si5 0.126837 0.882541 0.483783
Si Si6 0.068016 0.700094 0.675035
Si Si7 0.639350 0.616989 0.719323
Si Si8 0.266564 0.881059 0.081650
O O1 0.948406 0.292730 0.245573
O O2 0.050610 0.183782 0.328277
O O3 0.901127 0.147127 0.046317
O O4 0.962273 0.323089 0.100280
O O5 0.303525 0.500000 0.834219
O O6 0.280431 0.678506 0.720800
O O7 0.258606 0.660281 0.860949
O O8 0.750000 0.750000 0.500000
O O9 0.649665 0.843615 0.221521
O O10 0.800369 0.848889 0.450210
O O11 0.071817 0.500000 0.025476
O O12 0.000000 0.358290 0.000000
O O13 0.154074 0.868613 0.636937
O O14 0.106411 0.000000 0.425953
O O15 0.068359 0.814417 0.631117
O O16 0.144324 0.635962 0.785868
O O17 0.000000 0.641051 0.500000
O O18 0.620509 0.500000 0.712275
O O19 0.713990 0.664808 0.905699
O O20 0.247443 0.000000 0.048349
#
# Coordination Sequence:
#
# PCOD8106559 Si02
#       8
#     8   8   8   8   8   8   8   8
#     4  11  23  38  63  92 124 160 205 256 304 361
#     4  10  22  40  63  89 121 163 204 247 304 367
#     4  11  24  42  67  94 124 154 201 256 314 369
#     4  10  23  45  68  90 119 161 207 251 306 370
#     4  11  23  39  62  95 128 159 203 255 309 363
#     4  12  23  36  58  86 127 165 202 246 300 349
#     4  10  21  36  60  89 121 162 205 244 294 359
#     4  10  22  39  59  85 122 166 207 244 292 360
#
# _framework density 19.862846000000001
#
# number of rings (size 3 to 8) (size 9 to 14) (size 15 to 20)
#    0.000    1.375    2.500    2.625    3.500    2.500 
#    0.000    0.625    0.000    4.125    0.000    0.000 
#    0.000    0.000    0.000    0.000    0.000    0.000 
#
# Total GULP energy -396819.720063 kJ/mol
# GULP energy per Si atom -12400.616252 kJ/mol
# Density = 1.981764 g / cm^3
# Si number density = 19.862846 Si / 1000 Ang^3
#
#
#
# Elastic Constant Matrix: (Units=GPa)
#
#
# Indices 1 2 3 4 5 6 
#
# 1 147.9221 64.6984 82.5778 0.0000 -1.8284 0.0000
# 2 64.6984 70.3016 45.0803 0.0000 -8.1652 0.0000
# 3 82.5778 45.0803 140.3885 0.0000 -4.5682 0.0000
# 4 0.0000 0.0000 0.0000 23.9679 0.0000 -2.1361
# 5 -1.8284 -8.1652 -4.5682 0.0000 44.0190 0.0000
# 6 0.0000 0.0000 0.0000 -2.1361 0.0000 38.5680
#
#
#
# Elastic Compliance Matrix: (Units=1/GPa)
#
#
# Indices 1 2 3 4 5 6 
#
# 1 0.013784 -0.009636 -0.005070 0.000000 -0.001741 0.000000
# 2 -0.009636 0.024984 -0.002224 0.000000 0.004003 0.000000
# 3 -0.005070 -0.002224 0.010836 0.000000 0.000501 0.000000
# 4 0.000000 0.000000 0.000000 0.041929 0.000000 0.002322
# 5 -0.001741 0.004003 0.000501 0.000000 0.023440 0.000000
# 6 0.000000 0.000000 0.000000 0.002322 0.000000 0.026057
#
#
# Mechanical properties :
#
#
# Convention : Reuss Voigt Hill
#
# Bulk Modulus (GPa) = 63.52250 82.59169 73.05710
# Shear Modulus (GPa) = 27.75634 32.39468 30.07551
#
# Velocity S-wave (km/s) = 3.74224 4.04284 3.89544
# Velocity P-wave (km/s) = 7.12197 7.96643 7.55601
#
# Compressibility (1/GPa) = 0.01574245
#
# Stress axis : x y z
#
# Youngs Moduli (GPa) = 72.54767 40.02564 92.28557
#
# Poissons Ratio (x) = 0.38570 0.46791
# Poissons Ratio (y) = 0.69910 0.20526
# Poissons Ratio (z) = 0.36783 0.08902
#
# Static dielectric constant tensor:
#      x y z
#    x 3.788320 0.000000 -0.117110 
#    y 0.000000 3.611000 0.000000 
#    z -0.117110 0.000000 3.792330 
# 
# 
# High freq. dielectric constant tensor:
#      x y z
#    x 1.780740 0.000000 0.003800 
#    y 0.000000 1.779500 0.000000 
#    z 0.003800 0.000000 1.788840 
# 
# From -- ./inp_files/183827.got.cif
#   From: 2010.06.25/outbox.cif.g09.slc.cpg/sg12_92_cif.got.tgz:183827.got - 2010.06.28 00:19:55.
