data_PCOD8106802
_publ_section_title
;
Structure prediction by ZEFSAII (Michael W. Deem and Ramdas Pophale) SiO2 
 PCOD8106802
Probable space group: C 2/M
;
_chemical_formula_sum "Si O2"
_cell_formula_units_Z 56
_cell_length_a 20.113164
_cell_length_b 9.138380
_cell_length_c 20.723602
_cell_angle_alpha 90.000000
_cell_angle_beta 49.360847
_cell_angle_gamma 90.000000
_cell_volume 2890.395663
_symmetry_space_group_name_H-M "C 2/M"
_symmetry_group_IT_number 12
_symmetry_cell_setting 'monoclinic'
loop_
_space_group_symop_operation_xyz
x,y,z
-x,y,-z
-x,-y,-z
x,-y,z
1/2+x,1/2+y,z
1/2-x,1/2+y,-z
1/2-x,1/2-y,-z
1/2+x,1/2-y,z
loop_
_atom_site_type_symbol
_atom_site_label
_atom_site_fract_x
_atom_site_fract_y
_atom_site_fract_z
Si Si1 0.437376 0.170300 0.410967
Si Si2 0.794454 0.826292 0.911847
Si Si3 0.744357 0.826954 0.805805
Si Si4 0.411048 0.665094 0.626301
Si Si5 0.356846 0.826660 0.249586
Si Si6 0.802420 0.835390 0.567397
Si Si7 0.477421 0.829037 0.779313
O O1 0.504966 0.232194 0.420802
O O2 0.341026 0.240661 0.483544
O O3 0.471631 0.209199 0.318239
O O4 0.427277 0.000000 0.427966
O O5 0.735864 0.781077 0.886143
O O6 0.892955 0.770914 0.840689
O O7 0.795917 0.000000 0.920936
O O8 0.750000 0.750000 0.000000
O O9 0.837348 0.769225 0.720939
O O10 0.666443 0.766599 0.808147
O O11 0.745396 0.000000 0.799090
O O12 0.437586 0.500000 0.629747
O O13 0.376189 0.665776 0.575991
O O14 0.287477 0.766133 0.346744
O O15 0.456294 0.785792 0.204390
O O16 0.343477 0.000000 0.259183
O O17 0.785610 0.000000 0.552979
O O18 0.450855 0.000000 0.799156
#
# Coordination Sequence:
#
# PCOD8106802 Si02
#       7
#     8   8   8   8   8   8   8
#     4  11  21  29  43  73 112 144 174 217 272 321
#     4  11  22  38  62  88 111 134 169 217 269 324
#     4   8  15  31  57  82 101 133 181 225 258 300
#     4   9  16  30  50  72  98 134 185 231 260 299
#     4   8  16  34  57  78 104 141 188 229 256 297
#     4   9  18  31  50  73  99 140 190 231 259 294
#     4  10  21  37  56  80 110 143 177 219 271 320
#
# _framework density 19.374510000000001
#
# number of rings (size 3 to 8) (size 9 to 14) (size 15 to 20)
#    0.000    2.571    1.429    3.000    0.000    3.429 
#    0.000    1.429    0.000    6.857    0.000    0.000 
#    0.000    0.000    0.000    0.000    0.000    0.000 
#
# Total GULP energy -347003.385245 kJ/mol
# GULP energy per Si atom -12392.978044 kJ/mol
# Density = 1.933041 g / cm^3
# Si number density = 19.374510 Si / 1000 Ang^3
#
#
#
# Elastic Constant Matrix: (Units=GPa)
#
#
# Indices 1 2 3 4 5 6 
#
# 1 83.8259 29.3933 34.4416 0.0000 -3.5718 0.0001
# 2 29.3933 64.9178 45.7590 -0.0001 2.5286 0.0002
# 3 34.4416 45.7590 91.1750 0.0000 12.8999 0.0000
# 4 0.0000 -0.0001 0.0000 31.4645 0.0000 -1.2342
# 5 -3.5718 2.5286 12.8999 0.0000 13.6561 0.0000
# 6 0.0001 0.0002 0.0000 -1.2342 0.0000 15.6635
#
#
#
# Elastic Compliance Matrix: (Units=1/GPa)
#
#
# Indices 1 2 3 4 5 6 
#
# 1 0.015958 -0.003649 -0.005636 0.000000 0.010174 0.000000
# 2 -0.003649 0.025443 -0.012223 0.000000 0.005881 0.000000
# 3 -0.005636 -0.012223 0.022070 0.000000 -0.020058 0.000000
# 4 0.000000 0.000000 0.000000 0.031880 0.000000 0.002512
# 5 0.010174 0.005881 -0.020058 0.000000 0.093747 0.000000
# 6 0.000000 0.000000 0.000000 0.002512 0.000000 0.064041
#
#
# Mechanical properties :
#
#
# Convention : Reuss Voigt Hill
#
# Bulk Modulus (GPa) = 48.88976 51.01185 49.95081
# Shear Modulus (GPa) = 16.50312 20.84514 18.67413
#
# Velocity S-wave (km/s) = 2.92172 3.28366 3.10796
# Velocity P-wave (km/s) = 6.05564 6.38460 6.22229
#
# Compressibility (1/GPa) = 0.02045418
#
# Stress axis : x y z
#
# Youngs Moduli (GPa) = 62.66340 39.30378 45.31137
#
# Poissons Ratio (x) = 0.14341 0.25539
# Poissons Ratio (y) = 0.22865 0.55384
# Poissons Ratio (z) = 0.35320 0.48041
#
# Static dielectric constant tensor:
#      x y z
#    x 3.905860 0.000000 0.233030 
#    y 0.000000 3.269570 0.000000 
#    z 0.233030 0.000000 3.658960 
# 
# 
# High freq. dielectric constant tensor:
#      x y z
#    x 1.758570 0.000000 0.006370 
#    y 0.000000 1.717510 0.000000 
#    z 0.006370 0.000000 1.742380 
# 
# From -- ./inp_files/319656.got.cif
#   From: 2010.06.25/outbox.cif.g09.slc.cpg/sg12_160_cif.got.tgz:319656.got - 2010.06.28 00:19:55.
