data_PCOD8106807
_publ_section_title
;
Structure prediction by ZEFSAII (Michael W. Deem and Ramdas Pophale) SiO2 
 PCOD8106807
Probable space group: C 2/M
;
_chemical_formula_sum "Si O2"
_cell_formula_units_Z 56
_cell_length_a 17.892440
_cell_length_b 26.680911
_cell_length_c 9.085128
_cell_angle_alpha 90.000000
_cell_angle_beta 42.799593
_cell_angle_gamma 90.000000
_cell_volume 2946.794749
_symmetry_space_group_name_H-M "C 2/M"
_symmetry_group_IT_number 12
_symmetry_cell_setting 'monoclinic'
loop_
_space_group_symop_operation_xyz
x,y,z
-x,y,-z
-x,-y,-z
x,-y,z
1/2+x,1/2+y,z
1/2-x,1/2+y,-z
1/2-x,1/2-y,-z
1/2+x,1/2-y,z
loop_
_atom_site_type_symbol
_atom_site_label
_atom_site_fract_x
_atom_site_fract_y
_atom_site_fract_z
Si Si1 0.111068 0.350430 0.913909
Si Si2 0.985076 0.194118 0.680541
Si Si3 0.833191 0.556548 0.671595
Si Si4 0.149369 0.287301 0.146220
Si Si5 0.206595 0.194075 0.543774
Si Si6 0.050688 0.556693 0.187146
Si Si7 0.212475 0.847336 0.850134
O O1 0.206715 0.344303 0.655001
O O2 0.145626 0.317501 0.001577
O O3 0.092648 0.407623 0.994673
O O4 0.000000 0.329725 0.000000
O O5 0.958905 0.253122 0.689034
O O6 0.000000 0.168236 0.500000
O O7 0.096006 0.192133 0.611066
O O8 0.888075 0.162809 0.895733
O O9 0.793459 0.500000 0.698052
O O10 0.872780 0.561501 0.781631
O O11 0.730048 0.593452 0.800702
O O12 0.927814 0.571415 0.417284
O O13 0.171733 0.324574 0.252093
O O14 0.250000 0.250000 0.000000
O O15 0.250000 0.250000 0.500000
O O16 0.178141 0.176499 0.747141
O O17 0.053625 0.500000 0.121680
#
# Coordination Sequence:
#
# PCOD8106807 Si02
#       7
#     8   8   8   8   8   8   8
#     4  12  23  37  58  87 121 157 198 242 300 360
#     4  11  23  38  58  83 117 157 199 248 293 349
#     4   9  18  36  63  91 117 151 195 245 303 359
#     4  10  21  37  56  80 113 153 200 242 286 349
#     4  12  24  39  57  86 124 162 201 245 296 348
#     4   9  19  36  59  89 122 152 191 246 303 360
#     4  11  21  39  62  86 115 157 201 243 296 355
#
# _framework density 19.003699000000001
#
# number of rings (size 3 to 8) (size 9 to 14) (size 15 to 20)
#    0.000    1.429    1.429    7.286    0.000    1.429 
#    0.000    0.714    0.000    3.000    0.000    0.000 
#    0.000    0.000    0.000    0.000    0.000    0.000 
#
# Total GULP energy -347110.586880 kJ/mol
# GULP energy per Si atom -12396.806674 kJ/mol
# Density = 1.896045 g / cm^3
# Si number density = 19.003699 Si / 1000 Ang^3
#
#
#
# Elastic Constant Matrix: (Units=GPa)
#
#
# Indices 1 2 3 4 5 6 
#
# 1 124.0409 40.7308 41.3677 0.0000 1.9263 0.0000
# 2 40.7308 118.9919 59.0216 0.0000 -2.2527 0.0000
# 3 41.3677 59.0216 121.5931 0.0000 8.2778 0.0000
# 4 0.0000 0.0000 0.0000 28.5965 0.0000 -0.0646
# 5 1.9263 -2.2527 8.2778 0.0000 32.7197 0.0000
# 6 0.0000 0.0000 0.0000 -0.0646 0.0000 28.4012
#
#
#
# Elastic Compliance Matrix: (Units=1/GPa)
#
#
# Indices 1 2 3 4 5 6 
#
# 1 0.009502 -0.002183 -0.002162 0.000000 -0.000163 0.000000
# 2 -0.002183 0.011723 -0.005099 0.000000 0.002226 0.000000
# 3 -0.002162 -0.005099 0.011651 0.000000 -0.003171 0.000000
# 4 0.000000 0.000000 0.000000 0.034970 0.000000 0.000079
# 5 -0.000163 0.002226 -0.003171 0.000000 0.031528 0.000000
# 6 0.000000 0.000000 0.000000 0.000079 0.000000 0.035210
#
#
# Mechanical properties :
#
#
# Convention : Reuss Voigt Hill
#
# Bulk Modulus (GPa) = 71.49434 71.87402 71.68418
# Shear Modulus (GPa) = 31.61889 32.84386 32.23137
#
# Velocity S-wave (km/s) = 4.08343 4.16178 4.12279
# Velocity P-wave (km/s) = 7.74180 7.81006 7.77601
#
# Compressibility (1/GPa) = 0.01398712
#
# Stress axis : x y z
#
# Youngs Moduli (GPa) = 105.23722 85.30583 85.83284
#
# Poissons Ratio (x) = 0.18625 0.18557
# Poissons Ratio (y) = 0.22977 0.43765
# Poissons Ratio (z) = 0.22752 0.43496
#
# Static dielectric constant tensor:
#      x y z
#    x 3.846480 0.000000 0.003710 
#    y 0.000000 3.622460 0.000000 
#    z 0.003710 0.000000 3.485940 
# 
# 
# High freq. dielectric constant tensor:
#      x y z
#    x 1.745470 0.000000 0.013860 
#    y 0.000000 1.730210 0.000000 
#    z 0.013860 0.000000 1.732790 
# 
# From -- ./inp_files/79998.got.cif
#   From: 2010.06.25/outbox.cif.g09.slc.cpg/sg12_40_cif.got.tgz:79998.got - 2010.06.28 00:19:55.
