data_PCOD8106757
_publ_section_title
;
Structure prediction by ZEFSAII (Michael W. Deem and Ramdas Pophale) SiO2 
 PCOD8106757
Probable space group: C 2/M
;
_chemical_formula_sum "Si O2"
_cell_formula_units_Z 56
_cell_length_a 7.778976
_cell_length_b 18.974536
_cell_length_c 22.279786
_cell_angle_alpha 90.000000
_cell_angle_beta 58.417718
_cell_angle_gamma 90.000000
_cell_volume 2801.480383
_symmetry_space_group_name_H-M "C 2/M"
_symmetry_group_IT_number 12
_symmetry_cell_setting 'monoclinic'
loop_
_space_group_symop_operation_xyz
x,y,z
-x,y,-z
-x,-y,-z
x,-y,z
1/2+x,1/2+y,z
1/2-x,1/2+y,-z
1/2-x,1/2-y,-z
1/2+x,1/2-y,z
loop_
_atom_site_type_symbol
_atom_site_label
_atom_site_fract_x
_atom_site_fract_y
_atom_site_fract_z
Si Si1 0.528327 0.169976 0.351277
Si Si2 0.936262 0.919288 0.075907
Si Si3 0.917848 0.830024 0.351276
Si Si4 0.757489 0.324690 0.199739
Si Si5 0.143297 0.324691 0.199739
Si Si6 0.336018 0.080712 0.075907
Si Si7 0.124700 0.918476 0.416868
O O1 0.681407 0.156903 0.379064
O O2 0.448633 0.250000 0.367580
O O3 0.656632 0.155456 0.267254
O O4 0.341252 0.117033 0.388524
O O5 0.742740 0.881333 0.138040
O O6 0.115167 0.909927 0.089889
O O7 0.873774 0.000000 0.077661
O O8 0.000000 0.886624 0.000000
O O9 0.041611 0.844543 0.267253
O O10 0.993184 0.882968 0.388522
O O11 0.749275 0.249999 0.167152
O O12 0.843143 0.381331 0.138039
O O13 0.906876 0.319616 0.228751
O O14 0.393242 0.000000 0.077663
O O15 0.500000 0.113375 0.000000
O O16 0.000000 0.910613 0.500000
O O17 0.160365 0.000000 0.393093
#
# Coordination Sequence:
#
# PCOD8106757 Si02
#       7
#     8   8   8   8   8   8   8
#     4  11  21  42  69  97 129 169 219 265 316 385
#     4  10  21  37  55  80 115 156 203 252 306 369
#     4  11  21  42  69  97 129 169 219 265 316 385
#     4  11  21  37  61  88 120 156 200 257 311 361
#     4  11  21  37  61  88 120 156 200 257 311 361
#     4  10  21  37  55  80 115 156 203 252 306 369
#     4  11  26  46  66  98 139 170 209 269 324 377
#
# _framework density 19.989429999999999
#
# number of rings (size 3 to 8) (size 9 to 14) (size 15 to 20)
#    0.000    1.286    2.857    5.143    0.000    5.143 
#    0.000    4.286    0.000    0.000    0.000    0.000 
#    0.000    0.000    0.000    0.000    0.000    0.000 
#
# Total GULP energy -347263.941200 kJ/mol
# GULP energy per Si atom -12402.283614 kJ/mol
# Density = 1.994393 g / cm^3
# Si number density = 19.989430 Si / 1000 Ang^3
#
#
#
# Elastic Constant Matrix: (Units=GPa)
#
#
# Indices 1 2 3 4 5 6 
#
# 1 148.7654 54.6452 35.1464 0.0000 -3.1946 0.0000
# 2 54.6452 111.8990 62.0934 0.0000 0.3552 0.0000
# 3 35.1464 62.0934 90.2706 0.0000 0.3912 0.0000
# 4 0.0000 0.0000 0.0000 31.8053 0.0000 0.0654
# 5 -3.1946 0.3552 0.3912 0.0000 23.6352 0.0000
# 6 0.0000 0.0000 0.0000 0.0654 0.0000 30.4322
#
#
#
# Elastic Compliance Matrix: (Units=1/GPa)
#
#
# Indices 1 2 3 4 5 6 
#
# 1 0.008252 -0.003636 -0.000717 0.000000 0.001182 0.000000
# 2 -0.003636 0.016055 -0.009626 0.000000 -0.000573 0.000000
# 3 -0.000717 -0.009626 0.017979 0.000000 -0.000250 0.000000
# 4 0.000000 0.000000 0.000000 0.031441 0.000000 -0.000068
# 5 0.001182 -0.000573 -0.000250 0.000000 0.042482 0.000000
# 6 0.000000 0.000000 0.000000 -0.000068 0.000000 0.032860
#
#
# Mechanical properties :
#
#
# Convention : Reuss Voigt Hill
#
# Bulk Modulus (GPa) = 69.78621 72.74500 71.26561
# Shear Modulus (GPa) = 27.50204 30.44454 28.97329
#
# Velocity S-wave (km/s) = 3.71324 3.90684 3.81127
# Velocity P-wave (km/s) = 7.30558 7.53803 7.42272
#
# Compressibility (1/GPa) = 0.01432948
#
# Stress axis : x y z
#
# Youngs Moduli (GPa) = 121.17820 62.28467 55.61950
#
# Poissons Ratio (x) = 0.22645 0.03989
# Poissons Ratio (y) = 0.44057 0.53538
# Poissons Ratio (z) = 0.08692 0.59954
#
# Static dielectric constant tensor:
#      x y z
#    x 3.742360 0.000000 -0.011630 
#    y 0.000000 3.594330 0.000000 
#    z -0.011630 0.000000 3.499480 
# 
# 
# High freq. dielectric constant tensor:
#      x y z
#    x 1.799210 0.000000 -0.001120 
#    y 0.000000 1.769510 0.000000 
#    z -0.001120 0.000000 1.775830 
# 
# From -- ./inp_files/333313.got.cif
#   From: 2010.06.25/outbox.cif.g09.slc.cpg/sg12_167_cif.got.tgz:333313.got - 2010.06.28 00:19:55.
