data_PCOD8106755
_publ_section_title
;
Structure prediction by ZEFSAII (Michael W. Deem and Ramdas Pophale) SiO2 
 PCOD8106755
Probable space group: C 2/M
;
_chemical_formula_sum "Si O2"
_cell_formula_units_Z 40
_cell_length_a 10.063098
_cell_length_b 14.197557
_cell_length_c 30.900794
_cell_angle_alpha 90.000000
_cell_angle_beta 152.828676
_cell_angle_gamma 90.000000
_cell_volume 2016.048686
_symmetry_space_group_name_H-M "C 2/M"
_symmetry_group_IT_number 12
_symmetry_cell_setting 'monoclinic'
loop_
_space_group_symop_operation_xyz
x,y,z
-x,y,-z
-x,-y,-z
x,-y,z
1/2+x,1/2+y,z
1/2-x,1/2+y,-z
1/2-x,1/2-y,-z
1/2+x,1/2-y,z
loop_
_atom_site_type_symbol
_atom_site_label
_atom_site_fract_x
_atom_site_fract_y
_atom_site_fract_z
Si Si1 0.815203 0.608108 0.576308
Si Si2 0.814032 0.389904 0.989209
Si Si3 0.243889 0.237329 0.720329
Si Si4 0.345019 0.765739 0.846862
Si Si5 0.256665 0.391426 0.544059
O O1 0.500000 0.644065 0.500000
O O2 0.859728 0.500000 0.602271
O O3 0.846601 0.626003 0.534516
O O4 0.066818 0.665081 0.673511
O O5 0.747194 0.500000 0.977156
O O6 0.987846 0.349827 0.080577
O O7 0.512122 0.333861 0.897745
O O8 0.000000 0.372620 0.000000
O O9 0.318200 0.200597 0.789647
O O10 0.531893 0.253011 0.776662
O O11 0.054589 0.161582 0.639757
O O12 0.318654 0.500000 0.571542
O O13 0.000000 0.351998 0.500000
#
# Coordination Sequence:
#
# PCOD8106755 Si02
#       5
#     8   8   8   8   8
#     4  10  21  37  57  83 118 165 209 239 284 351
#     4  10  22  45  68  85 120 163 193 239 312 376
#     4  12  22  36  60  89 124 151 198 255 301 339
#     4  11  24  39  62  97 118 151 202 252 298 368
#     4  10  21  37  55  79 118 163 200 240 293 346
#
# _framework density 19.840789999999998
#
# number of rings (size 3 to 8) (size 9 to 14) (size 15 to 20)
#    0.000    1.400    2.000    3.600    0.000    3.200 
#    0.000    1.000    0.000    0.000    0.000    0.000 
#    0.000    0.000    0.000    0.000    0.000    0.000 
#
# Total GULP energy -248112.053917 kJ/mol
# GULP energy per Si atom -12405.602696 kJ/mol
# Density = 1.979563 g / cm^3
# Si number density = 19.840790 Si / 1000 Ang^3
#
#
#
# Elastic Constant Matrix: (Units=GPa)
#
#
# Indices 1 2 3 4 5 6 
#
# 1 117.8628 9.7624 21.6686 -0.0002 15.1678 0.0011
# 2 9.7624 106.4284 35.3705 0.0013 5.3197 0.0005
# 3 21.6686 35.3705 89.8300 0.0026 13.8823 0.0013
# 4 -0.0002 0.0013 0.0026 18.2931 -0.0001 5.6426
# 5 15.1678 5.3197 13.8823 -0.0001 43.4649 0.0001
# 6 0.0011 0.0005 0.0013 5.6426 0.0001 13.9059
#
#
#
# Elastic Compliance Matrix: (Units=1/GPa)
#
#
# Indices 1 2 3 4 5 6 
#
# 1 0.009154 -0.000126 -0.001754 0.000001 -0.002619 -0.000001
# 2 -0.000126 0.010812 -0.004239 0.000000 0.000074 0.000000
# 3 -0.001754 -0.004239 0.013727 -0.000002 -0.003253 0.000000
# 4 0.000001 0.000000 -0.000002 0.062486 0.000001 -0.025355
# 5 -0.002619 0.000074 -0.003253 0.000001 0.024951 0.000000
# 6 -0.000001 0.000000 0.000000 -0.025355 0.000000 0.082200
#
#
# Mechanical properties :
#
#
# Convention : Reuss Voigt Hill
#
# Bulk Modulus (GPa) = 46.60460 49.74712 48.17586
# Shear Modulus (GPa) = 22.44974 31.62079 27.03526
#
# Velocity S-wave (km/s) = 3.36742 3.99648 3.69536
# Velocity P-wave (km/s) = 6.21769 6.81347 6.52239
#
# Compressibility (1/GPa) = 0.02145711
#
# Stress axis : x y z
#
# Youngs Moduli (GPa) = 109.23764 92.48601 72.84969
#
# Poissons Ratio (x) = 0.01165 0.12777
# Poissons Ratio (y) = 0.01375 0.30877
# Poissons Ratio (z) = 0.19159 0.39200
#
# Static dielectric constant tensor:
#      x y z
#    x 3.748360 0.000000 -0.027570 
#    y 0.000000 3.639100 0.000000 
#    z -0.027570 0.000000 3.679660 
# 
# 
# High freq. dielectric constant tensor:
#      x y z
#    x 1.789120 0.000000 0.001020 
#    y 0.000000 1.776770 0.000000 
#    z 0.001020 0.000000 1.778100 
# 
# From -- ./inp_files/194414.got.cif
#   From: 2010.06.25/outbox.cif.g09.slc.cpg/sg12_98_cif.got.tgz:194414.got - 2010.06.28 00:19:55.
