data_PCOD8106134
_publ_section_title
;
Structure prediction by ZEFSAII (Michael W. Deem and Ramdas Pophale) SiO2 
 PCOD8106134
Probable space group: C 2/M
;
_chemical_formula_sum "Si O2"
_cell_formula_units_Z 56
_cell_length_a 23.852583
_cell_length_b 9.238494
_cell_length_c 13.996521
_cell_angle_alpha 90.000000
_cell_angle_beta 57.584179
_cell_angle_gamma 90.000000
_cell_volume 2603.704675
_symmetry_space_group_name_H-M "C 2/M"
_symmetry_group_IT_number 12
_symmetry_cell_setting 'monoclinic'
loop_
_space_group_symop_operation_xyz
x,y,z
-x,y,-z
-x,-y,-z
x,-y,z
1/2+x,1/2+y,z
1/2-x,1/2+y,-z
1/2-x,1/2-y,-z
1/2+x,1/2-y,z
loop_
_atom_site_type_symbol
_atom_site_label
_atom_site_fract_x
_atom_site_fract_y
_atom_site_fract_z
Si Si1 0.812893 0.655924 0.442899
Si Si2 0.698706 0.830162 0.230214
Si Si3 0.580751 0.162899 0.797926
Si Si4 0.141542 0.163935 0.116980
Si Si5 0.651615 0.669738 0.891088
Si Si6 0.991108 0.833016 0.306241
Si Si7 0.408504 0.170930 0.518423
O O1 0.790771 0.500000 0.502593
O O2 0.750000 0.750000 0.500000
O O3 0.844528 0.647444 0.309870
O O4 0.867127 0.719384 0.463828
O O5 0.693091 0.757051 0.131984
O O6 0.771490 0.793818 0.208419
O O7 0.636763 0.775350 0.352179
O O8 0.692269 0.000000 0.221558
O O9 0.593774 0.247859 0.884713
O O10 0.535427 0.249559 0.763976
O O11 0.551403 0.000000 0.841653
O O12 0.069789 0.176090 0.230005
O O13 0.167784 0.000000 0.093454
O O14 0.140534 0.221235 0.009737
O O15 0.637574 0.500000 0.890733
O O16 0.975063 0.758914 0.426312
O O17 0.966355 0.000000 0.326743
O O18 0.425348 0.000000 0.509020
#
# Coordination Sequence:
#
# PCOD8106134 Si02
#       7
#     8   8   8   8   8   8   8
#     4   9  17  29  47  73 107 141 175 217 268 324
#     4  10  21  37  60  86 112 146 187 229 280 333
#     4  10  21  36  55  82 113 145 182 229 278 329
#     4  10  23  40  58  81 112 148 189 235 277 323
#     4  10  21  39  60  83 112 147 185 229 280 333
#     4  10  21  38  58  82 112 150 189 225 274 333
#     4   9  19  35  53  79 112 143 180 228 275 327
#
# _framework density 21.507815000000001
#
# number of rings (size 3 to 8) (size 9 to 14) (size 15 to 20)
#    0.000    2.286    0.000    3.000    0.000    8.000 
#    0.000    5.714    0.000    0.000    0.000    0.000 
#    0.000    0.000    0.000    0.000    0.000    0.000 
#
# Total GULP energy -346906.641781 kJ/mol
# GULP energy per Si atom -12389.522921 kJ/mol
# Density = 2.145886 g / cm^3
# Si number density = 21.507815 Si / 1000 Ang^3
#
#
#
# Elastic Constant Matrix: (Units=GPa)
#
#
# Indices 1 2 3 4 5 6 
#
# 1 29.4567 16.3850 -5.6399 0.0000 12.6481 0.0000
# 2 16.3850 78.7296 15.1751 0.0000 10.3083 0.0000
# 3 -5.6399 15.1751 77.4175 0.0000 9.6024 0.0000
# 4 0.0000 0.0000 0.0000 31.8848 0.0000 5.9631
# 5 12.6481 10.3083 9.6024 0.0000 36.4438 0.0000
# 6 0.0000 0.0000 0.0000 5.9631 0.0000 26.3898
#
#
#
# Elastic Compliance Matrix: (Units=1/GPa)
#
#
# Indices 1 2 3 4 5 6 
#
# 1 0.047128 -0.009139 0.007167 0.000000 -0.015659 0.000000
# 2 -0.009139 0.015333 -0.003646 0.000000 -0.000205 0.000000
# 3 0.007167 -0.003646 0.014819 0.000000 -0.005361 0.000000
# 4 0.000000 0.000000 0.000000 0.032747 0.000000 -0.007399
# 5 -0.015659 -0.000205 -0.005361 0.000000 0.034345 0.000000
# 6 0.000000 0.000000 0.000000 -0.007399 0.000000 0.039565
#
#
# Mechanical properties :
#
#
# Convention : Reuss Voigt Hill
#
# Bulk Modulus (GPa) = 15.14157 26.38267 20.76212
# Shear Modulus (GPa) = 23.02163 29.58927 26.30545
#
# Velocity S-wave (km/s) = 3.27522 3.71313 3.50103
# Velocity P-wave (km/s) = 4.62148 5.53862 5.10070
#
# Compressibility (1/GPa) = 0.06604336
#
# Stress axis : x y z
#
# Youngs Moduli (GPa) = 21.21895 65.21770 67.48242
#
# Poissons Ratio (x) = 0.59604 -0.48365
# Poissons Ratio (y) = 0.19392 0.24604
# Poissons Ratio (z) = -0.15208 0.23778
#
# Static dielectric constant tensor:
#      x y z
#    x 3.540210 0.000000 -0.051120 
#    y 0.000000 3.758610 0.000000 
#    z -0.051120 0.000000 4.087290 
# 
# 
# High freq. dielectric constant tensor:
#      x y z
#    x 1.838810 0.000000 -0.000770 
#    y 0.000000 1.833220 0.000000 
#    z -0.000770 0.000000 1.851840 
# 
# From -- ./inp_files/238410.got.cif
#   From: 2010.06.25/outbox.cif.g09.slc.cpg/sg12_120_cif.got.tgz:238410.got - 2010.06.28 00:19:55.
