data_PCOD8106535
_publ_section_title
;
Structure prediction by ZEFSAII (Michael W. Deem and Ramdas Pophale) SiO2 
 PCOD8106535
Probable space group: C 2/M
;
_chemical_formula_sum "Si O2"
_cell_formula_units_Z 64
_cell_length_a 9.800253
_cell_length_b 15.243630
_cell_length_c 32.277760
_cell_angle_alpha 90.000000
_cell_angle_beta 138.140367
_cell_angle_gamma 90.000000
_cell_volume 3217.772993
_symmetry_space_group_name_H-M "C 2/M"
_symmetry_group_IT_number 12
_symmetry_cell_setting 'monoclinic'
loop_
_space_group_symop_operation_xyz
x,y,z
-x,y,-z
-x,-y,-z
x,-y,z
1/2+x,1/2+y,z
1/2-x,1/2+y,-z
1/2-x,1/2-y,-z
1/2+x,1/2-y,z
loop_
_atom_site_type_symbol
_atom_site_label
_atom_site_fract_x
_atom_site_fract_y
_atom_site_fract_z
Si Si1 0.820214 0.850475 0.863027
Si Si2 0.546721 0.095557 0.869750
Si Si3 0.695935 0.596677 0.229742
Si Si4 0.464193 0.771752 0.676370
Si Si5 0.508867 0.268540 0.593800
Si Si6 0.346041 0.331286 0.000251
Si Si7 0.639017 0.894260 0.490558
Si Si8 0.148867 0.177502 0.794981
O O1 0.620475 0.847299 0.847391
O O2 0.811889 0.913634 0.821676
O O3 0.817430 0.751103 0.845299
O O4 0.020000 0.880317 0.934225
O O5 0.301674 0.097861 0.819587
O O6 0.610080 0.000000 0.869604
O O7 0.666025 0.111042 0.940067
O O8 0.685784 0.500000 0.247282
O O9 0.506013 0.653748 0.203355
O O10 0.910937 0.638629 0.290896
O O11 0.521599 0.727906 0.646022
O O12 0.519083 0.703778 0.725287
O O13 0.225655 0.795404 0.623522
O O14 0.457481 0.168286 0.567158
O O15 0.357747 0.347665 0.546697
O O16 0.500000 0.297079 0.000000
O O17 0.250000 0.250000 0.000000
O O18 0.500000 0.885792 0.500000
O O19 0.657921 0.000000 0.482940
#
# Coordination Sequence:
#
# PCOD8106535 Si02
#       8
#     8   8   8   8   8   8   8   8
#     4  10  21  38  62  81 115 157 199 245 309 376
#     4  11  23  38  58  87 117 149 197 256 307 361
#     4  11  24  39  59  89 123 156 203 262 309 357
#     4  11  23  41  64  89 124 171 210 243 302 359
#     4  11  22  43  67  96 132 169 206 256 298 355
#     4  10  21  36  60  83 110 152 200 241 303 378
#     4  10  22  41  69 101 133 169 206 249 304 358
#     4  11  22  40  61  84 119 162 203 243 305 369
#
# _framework density 19.889531999999999
#
# number of rings (size 3 to 8) (size 9 to 14) (size 15 to 20)
#    0.000    1.375    3.750    2.250    3.500    3.750 
#    0.000    1.875    0.000    1.875    0.000    0.000 
#    0.000    0.000    0.000    0.000    0.000    0.000 
#
# Total GULP energy -396527.007606 kJ/mol
# GULP energy per Si atom -12391.468988 kJ/mol
# Density = 1.984426 g / cm^3
# Si number density = 19.889532 Si / 1000 Ang^3
#
#
#
# Elastic Constant Matrix: (Units=GPa)
#
#
# Indices 1 2 3 4 5 6 
#
# 1 81.8303 31.3905 41.2192 0.0000 5.6790 0.0000
# 2 31.3905 94.2754 29.2266 0.0000 10.0536 0.0000
# 3 41.2192 29.2266 98.3105 0.0000 3.6322 0.0000
# 4 0.0000 0.0000 0.0000 16.8205 0.0000 1.8842
# 5 5.6790 10.0536 3.6322 0.0000 35.1391 0.0000
# 6 0.0000 0.0000 0.0000 1.8842 0.0000 17.5549
#
#
#
# Elastic Compliance Matrix: (Units=1/GPa)
#
#
# Indices 1 2 3 4 5 6 
#
# 1 0.016630 -0.003608 -0.005861 0.000000 -0.001049 0.000000
# 2 -0.003608 0.012790 -0.002184 0.000000 -0.002850 0.000000
# 3 -0.005861 -0.002184 0.013271 0.000000 0.000200 0.000000
# 4 0.000000 0.000000 0.000000 0.060175 0.000000 -0.006459
# 5 -0.001049 -0.002850 0.000200 0.000000 0.029423 0.000000
# 6 0.000000 0.000000 0.000000 -0.006459 0.000000 0.057657
#
#
# Mechanical properties :
#
#
# Convention : Reuss Voigt Hill
#
# Bulk Modulus (GPa) = 51.58911 53.12097 52.35504
# Shear Modulus (GPa) = 22.75694 25.40821 24.08257
#
# Velocity S-wave (km/s) = 3.38622 3.57804 3.48345
# Velocity P-wave (km/s) = 6.42517 6.62086 6.52375
#
# Compressibility (1/GPa) = 0.01938394
#
# Stress axis : x y z
#
# Youngs Moduli (GPa) = 60.13368 78.18799 75.35174
#
# Poissons Ratio (x) = 0.28212 0.44163
# Poissons Ratio (y) = 0.21698 0.16457
# Poissons Ratio (z) = 0.35244 0.17077
#
# Static dielectric constant tensor:
#      x y z
#    x 3.584080 0.000000 -0.097160 
#    y 0.000000 52.452290 -0.000010 
#    z -0.097160 -0.000010 3.556710 
# 
# 
# High freq. dielectric constant tensor:
#      x y z
#    x 1.787860 0.000000 0.000830 
#    y 0.000000 1.762190 0.000000 
#    z 0.000830 0.000000 1.780450 
# 
# From -- ./inp_files/372590.got.cif
#   From: 2010.06.25/outbox.cif.g09.slc.cpg/sg12_187_cif.got.tgz:372590.got - 2010.06.28 00:19:55.
