data_PCOD8106147
_publ_section_title
;
Structure prediction by ZEFSAII (Michael W. Deem and Ramdas Pophale) SiO2 
 PCOD8106147
Probable space group: C 2/M
;
_chemical_formula_sum "Si O2"
_cell_formula_units_Z 64
_cell_length_a 28.875143
_cell_length_b 13.093878
_cell_length_c 9.807118
_cell_angle_alpha 90.000000
_cell_angle_beta 106.689092
_cell_angle_gamma 90.000000
_cell_volume 3551.760426
_symmetry_space_group_name_H-M "C 2/M"
_symmetry_group_IT_number 12
_symmetry_cell_setting 'monoclinic'
loop_
_space_group_symop_operation_xyz
x,y,z
-x,y,-z
-x,-y,-z
x,-y,z
1/2+x,1/2+y,z
1/2-x,1/2+y,-z
1/2-x,1/2-y,-z
1/2+x,1/2-y,z
loop_
_atom_site_type_symbol
_atom_site_label
_atom_site_fract_x
_atom_site_fract_y
_atom_site_fract_z
Si Si1 0.972714 0.886788 0.837038
Si Si2 0.208962 0.618368 0.553612
Si Si3 0.368758 0.311596 0.166949
Si Si4 0.239499 0.882162 0.870099
Si Si5 0.793797 0.748749 0.691514
Si Si6 0.182143 0.383707 0.841402
Si Si7 0.876248 0.119552 0.879475
Si Si8 0.534735 0.621055 0.651086
O O1 0.919815 0.839874 0.820454
O O2 0.006082 0.829308 0.755912
O O3 0.963973 0.000000 0.770372
O O4 0.000000 0.892633 0.000000
O O5 0.208710 0.500000 0.516516
O O6 0.181770 0.679656 0.408122
O O7 0.263447 0.660831 0.595057
O O8 0.187157 0.638102 0.684665
O O9 0.317322 0.359282 0.166199
O O10 0.360443 0.189840 0.140173
O O11 0.411396 0.329890 0.314319
O O12 0.389146 0.366244 0.049082
O O13 0.261107 0.819374 0.763232
O O14 0.246621 0.000000 0.839956
O O15 0.267428 0.857717 0.037120
O O16 0.832655 0.805240 0.815413
O O17 0.166503 0.500000 0.856419
O O18 0.864294 0.000000 0.843137
O O19 0.500000 0.654370 0.500000
O O20 0.542108 0.500000 0.666050
#
# Coordination Sequence:
#
# PCOD8106147 Si02
#       8
#     8   8   8   8   8   8   8   8
#     4   9  17  33  52  75 105 139 176 217 272 331
#     4  10  21  37  52  70 110 153 184 224 274 321
#     4  12  20  35  57  84 110 151 193 227 279 339
#     4  11  21  34  54  84 117 148 189 235 271 325
#     4  11  21  35  53  80 111 147 188 229 271 331
#     4  10  21  37  57  81 114 151 190 234 277 330
#     4  11  21  33  57  85 111 145 187 229 276 338
#     4  10  21  36  55  82 115 145 180 234 289 338
#
# _framework density 18.019233
#
# number of rings (size 3 to 8) (size 9 to 14) (size 15 to 20)
#    0.000    1.500    3.750    3.000    0.000    2.000 
#    0.000    0.000    0.000    0.375    0.000    3.500 
#    0.000    0.000    0.000    0.000    0.000    0.000 
#
# Total GULP energy -396560.875556 kJ/mol
# GULP energy per Si atom -12392.527361 kJ/mol
# Density = 1.797822 g / cm^3
# Si number density = 18.019233 Si / 1000 Ang^3
#
#
#
# Elastic Constant Matrix: (Units=GPa)
#
#
# Indices 1 2 3 4 5 6 
#
# 1 111.6782 39.5933 41.3104 0.0000 7.5580 0.0000
# 2 39.5933 86.0654 31.8303 0.0000 4.9308 0.0000
# 3 41.3104 31.8303 86.0379 0.0000 2.6589 0.0000
# 4 0.0000 0.0000 0.0000 24.9801 0.0000 1.0218
# 5 7.5580 4.9308 2.6589 0.0000 29.5200 0.0000
# 6 0.0000 0.0000 0.0000 1.0218 0.0000 23.2317
#
#
#
# Elastic Compliance Matrix: (Units=1/GPa)
#
#
# Indices 1 2 3 4 5 6 
#
# 1 0.012043 -0.003832 -0.004301 0.000000 -0.002056 0.000000
# 2 -0.003832 0.014777 -0.003591 0.000000 -0.001164 0.000000
# 3 -0.004301 -0.003591 0.015006 0.000000 0.000349 0.000000
# 4 0.000000 0.000000 0.000000 0.040104 0.000000 -0.001764
# 5 -0.002056 -0.001164 0.000349 0.000000 0.034565 0.000000
# 6 0.000000 0.000000 0.000000 -0.001764 0.000000 0.043122
#
#
# Mechanical properties :
#
#
# Convention : Reuss Voigt Hill
#
# Bulk Modulus (GPa) = 54.41461 56.58330 55.49895
# Shear Modulus (GPa) = 26.42852 26.94951 26.68901
#
# Velocity S-wave (km/s) = 3.83389 3.87149 3.85273
# Velocity P-wave (km/s) = 7.06129 7.17317 7.11745
#
# Compressibility (1/GPa) = 0.01837742
#
# Stress axis : x y z
#
# Youngs Moduli (GPa) = 83.03636 67.67493 66.64136
#
# Poissons Ratio (x) = 0.25931 0.28664
# Poissons Ratio (y) = 0.31817 0.23931
# Poissons Ratio (z) = 0.35716 0.24302
#
# Static dielectric constant tensor:
#      x y z
#    x 3.615190 0.000000 -0.037070 
#    y 0.000000 3.378100 0.000000 
#    z -0.037070 0.000000 3.460340 
# 
# 
# High freq. dielectric constant tensor:
#      x y z
#    x 1.679560 0.000000 -0.004920 
#    y 0.000000 1.682410 0.000000 
#    z -0.004920 0.000000 1.705390 
# 
# From -- ./inp_files/111241.got.cif
#   From: 2010.06.25/outbox.cif.g09.slc.cpg/sg12_56_cif.got.tgz:111241.got - 2010.06.28 00:19:55.
