data_PCOD8106350
_publ_section_title
;
Structure prediction by ZEFSAII (Michael W. Deem and Ramdas Pophale) SiO2 
 PCOD8106350
Probable space group: C 2/M
;
_chemical_formula_sum "Si O2"
_cell_formula_units_Z 48
_cell_length_a 20.790953
_cell_length_b 7.734920
_cell_length_c 33.357660
_cell_angle_alpha 90.000000
_cell_angle_beta 152.643973
_cell_angle_gamma 90.000000
_cell_volume 2465.066207
_symmetry_space_group_name_H-M "C 2/M"
_symmetry_group_IT_number 12
_symmetry_cell_setting 'monoclinic'
loop_
_space_group_symop_operation_xyz
x,y,z
-x,y,-z
-x,-y,-z
x,-y,z
1/2+x,1/2+y,z
1/2-x,1/2+y,-z
1/2-x,1/2-y,-z
1/2+x,1/2-y,z
loop_
_atom_site_type_symbol
_atom_site_label
_atom_site_fract_x
_atom_site_fract_y
_atom_site_fract_z
Si Si1 0.437266 0.297857 0.759267
Si Si2 0.427097 0.195267 0.242768
Si Si3 0.354209 0.802848 0.433553
Si Si4 0.223626 0.500000 0.134554
Si Si5 0.452913 0.000000 0.038416
Si Si6 0.094743 0.798983 0.926991
Si Si7 0.224148 0.299638 0.440252
O O1 0.442560 0.500000 0.751454
O O2 0.546683 0.203410 0.790456
O O3 0.280636 0.221996 0.664384
O O4 0.484621 0.261392 0.830584
O O5 0.307700 0.325705 0.190815
O O6 0.567116 0.256814 0.342866
O O7 0.382904 0.000000 0.230100
O O8 0.500000 0.711625 0.500000
O O9 0.333346 0.790516 0.470172
O O10 0.363620 0.000000 0.425244
O O11 0.091993 0.500000 0.090045
O O12 0.182361 0.500000 0.064968
O O13 0.451104 0.823711 0.062452
O O14 0.088328 0.000000 0.936567
O O15 0.250000 0.750000 0.000000
O O16 0.245491 0.500000 0.445101
O O17 0.250000 0.250000 0.500000
#
# Coordination Sequence:
#
# PCOD8106350 Si02
#       7
#     8   8   8   4   4   8   8
#     4   9  18  34  58  86 117 152 194 243 294 354
#     4  10  21  37  63  89 113 158 202 239 293 356
#     4   9  18  35  57  82 116 156 191 238 301 351
#     4  11  24  44  62  82 124 158 195 242 299 357
#     4  11  26  42  60  92 118 154 200 245 296 359
#     4  11  22  38  61  91 123 151 194 247 296 350
#     4  10  21  36  57  87 115 152 206 247 285 350
#
# _framework density 19.472093000000001
#
# number of rings (size 3 to 8) (size 9 to 14) (size 15 to 20)
#    0.000    2.000    1.667    1.500    3.500    3.000 
#    3.000    1.667    0.000    0.000    0.000    0.000 
#    0.000    0.000    0.000    0.000    0.000    0.000 
#
# Total GULP energy -297572.743611 kJ/mol
# GULP energy per Si atom -12398.864317 kJ/mol
# Density = 1.942777 g / cm^3
# Si number density = 19.472093 Si / 1000 Ang^3
#
#
#
# Elastic Constant Matrix: (Units=GPa)
#
#
# Indices 1 2 3 4 5 6 
#
# 1 93.3968 35.3573 61.5699 -0.0018 -8.9946 0.0061
# 2 35.3573 88.2302 39.6651 -0.0023 -0.8747 0.0069
# 3 61.5699 39.6651 106.6723 -0.0015 -1.4466 0.0018
# 4 -0.0018 -0.0023 -0.0015 25.1569 0.0006 -2.6141
# 5 -8.9946 -0.8747 -1.4466 0.0006 33.3663 -0.0024
# 6 0.0061 0.0069 0.0018 -2.6141 -0.0024 24.1511
#
#
#
# Elastic Compliance Matrix: (Units=1/GPa)
#
#
# Indices 1 2 3 4 5 6 
#
# 1 0.018595 -0.003133 -0.009507 0.000000 0.004519 -0.000003
# 2 -0.003133 0.014138 -0.003457 0.000001 -0.000624 -0.000003
# 3 -0.009507 -0.003457 0.016121 0.000000 -0.001954 0.000002
# 4 0.000000 0.000001 0.000000 0.040203 0.000000 0.004351
# 5 0.004519 -0.000624 -0.001954 0.000000 0.031087 0.000002
# 6 -0.000003 -0.000003 0.000002 0.004351 0.000002 0.041877
#
#
# Mechanical properties :
#
#
# Convention : Reuss Voigt Hill
#
# Bulk Modulus (GPa) = 60.02466 62.38710 61.20588
# Shear Modulus (GPa) = 25.02910 26.64865 25.83888
#
# Velocity S-wave (km/s) = 3.58911 3.70341 3.64671
# Velocity P-wave (km/s) = 6.93315 7.09900 7.01657
#
# Compressibility (1/GPa) = 0.01665982
#
# Stress axis : x y z
#
# Youngs Moduli (GPa) = 53.77672 70.73380 62.03262
#
# Poissons Ratio (x) = 0.22163 0.58972
# Poissons Ratio (y) = 0.16850 0.21444
# Poissons Ratio (z) = 0.51124 0.24452
#
# Static dielectric constant tensor:
#      x y z
#    x 3.363770 0.000000 0.032610 
#    y 0.000000 3.785620 0.000000 
#    z 0.032610 0.000000 3.843200 
# 
# 
# High freq. dielectric constant tensor:
#      x y z
#    x 1.739870 0.000000 -0.002450 
#    y 0.000000 1.762960 0.000000 
#    z -0.002450 0.000000 1.765880 
# 
# From -- ./inp_files/378588.got.cif
#   From: 2010.06.25/outbox.cif.g09.slc.cpg/sg12_190_cif.got.tgz:378588.got - 2010.06.28 00:19:55.
