data_PCOD8106176
_publ_section_title
;
Structure prediction by ZEFSAII (Michael W. Deem and Ramdas Pophale) SiO2 
 PCOD8106176
Probable space group: C 2/M
;
_chemical_formula_sum "Si O2"
_cell_formula_units_Z 64
_cell_length_a 15.514501
_cell_length_b 9.092162
_cell_length_c 30.754313
_cell_angle_alpha 90.000000
_cell_angle_beta 51.526485
_cell_angle_gamma 90.000000
_cell_volume 3396.369931
_symmetry_space_group_name_H-M "C 2/M"
_symmetry_group_IT_number 12
_symmetry_cell_setting 'monoclinic'
loop_
_space_group_symop_operation_xyz
x,y,z
-x,y,-z
-x,-y,-z
x,-y,z
1/2+x,1/2+y,z
1/2-x,1/2+y,-z
1/2-x,1/2-y,-z
1/2+x,1/2-y,z
loop_
_atom_site_type_symbol
_atom_site_label
_atom_site_fract_x
_atom_site_fract_y
_atom_site_fract_z
Si Si1 0.748940 0.165657 0.176816
Si Si2 0.162523 0.824879 0.368299
Si Si3 0.813176 0.326420 0.243028
Si Si4 0.435845 0.172964 0.834627
Si Si5 0.757802 0.827372 0.563932
Si Si6 0.211190 0.828223 0.055444
Si Si7 0.584655 0.672571 0.563826
Si Si8 0.879180 0.835164 0.054973
O O1 0.764044 0.267733 0.213496
O O2 0.642443 0.216280 0.181626
O O3 0.861453 0.173630 0.112577
O O4 0.729659 0.000000 0.199404
O O5 0.239792 0.764538 0.305548
O O6 0.208573 0.764837 0.399566
O O7 0.039157 0.765660 0.399682
O O8 0.161013 0.000000 0.370226
O O9 0.804523 0.500000 0.243087
O O10 0.938689 0.278005 0.213392
O O11 0.399661 0.257492 0.889960
O O12 0.425762 0.000000 0.846918
O O13 0.644877 0.750348 0.585122
O O14 0.855893 0.787570 0.500050
O O15 0.735562 0.000000 0.572276
O O16 0.307624 0.797555 0.059150
O O17 0.192560 0.000000 0.053240
O O18 0.250000 0.750000 0.000000
O O19 0.586847 0.500000 0.572001
O O20 0.841087 0.000000 0.051584
O O21 0.000000 0.804900 0.000000
#
# Coordination Sequence:
#
# PCOD8106176 Si02
#       8
#     8   8   8   8   8   8   8   8
#     4   9  19  36  55  76 106 138 171 212 266 320
#     4   9  18  33  52  76 105 141 181 220 264 317
#     4  10  21  36  56  78 103 139 184 224 261 312
#     4   9  20  39  56  74 103 140 176 216 266 319
#     4   9  17  31  53  78 105 141 182 219 262 318
#     4  11  22  35  54  80 107 135 170 212 262 319
#     4   9  17  31  52  78 108 140 176 221 271 315
#     4   9  19  36  56  79 106 135 166 208 266 323
#
# _framework density 18.843648000000002
#
# number of rings (size 3 to 8) (size 9 to 14) (size 15 to 20)
#    0.000    2.625    0.000    2.250    1.750    5.250 
#    0.000    3.125    0.000    3.000    0.000    0.000 
#    0.000    0.000    0.000    0.000    0.000    0.000 
#
# Total GULP energy -396662.563369 kJ/mol
# GULP energy per Si atom -12395.705105 kJ/mol
# Density = 1.880076 g / cm^3
# Si number density = 18.843648 Si / 1000 Ang^3
#
#
#
# Elastic Constant Matrix: (Units=GPa)
#
#
# Indices 1 2 3 4 5 6 
#
# 1 138.4228 35.9069 92.2580 0.0000 -2.4858 0.0001
# 2 35.9069 46.8832 39.2713 0.0000 -0.0887 0.0002
# 3 92.2580 39.2713 149.4471 0.0000 -4.4631 0.0000
# 4 0.0000 0.0000 0.0000 20.5539 0.0000 4.0923
# 5 -2.4858 -0.0887 -4.4631 0.0000 26.5657 0.0000
# 6 0.0001 0.0002 0.0000 4.0923 0.0000 31.8954
#
#
#
# Elastic Compliance Matrix: (Units=1/GPa)
#
#
# Indices 1 2 3 4 5 6 
#
# 1 0.012862 -0.004104 -0.006861 0.000000 0.000037 0.000000
# 2 -0.004104 0.028692 -0.005040 0.000000 -0.001135 0.000000
# 3 -0.006861 -0.005040 0.012293 0.000000 0.001406 0.000000
# 4 0.000000 0.000000 0.000000 0.049928 0.000000 -0.006406
# 5 0.000037 -0.001135 0.001406 0.000000 0.037879 0.000000
# 6 0.000000 0.000000 0.000000 -0.006406 0.000000 0.032174
#
#
# Mechanical properties :
#
#
# Convention : Reuss Voigt Hill
#
# Bulk Modulus (GPa) = 45.79150 74.40285 60.09717
# Shear Modulus (GPa) = 23.46129 26.95745 25.20937
#
# Velocity S-wave (km/s) = 3.53235 3.78641 3.66159
# Velocity P-wave (km/s) = 6.40236 7.66067 7.05961
#
# Compressibility (1/GPa) = 0.02183811
#
# Stress axis : x y z
#
# Youngs Moduli (GPa) = 77.74842 34.85241 81.34739
#
# Poissons Ratio (x) = 0.14303 0.55809
# Poissons Ratio (y) = 0.31908 0.41000
# Poissons Ratio (z) = 0.53340 0.17566
#
# Static dielectric constant tensor:
#      x y z
#    x 3.631210 0.000000 0.032340 
#    y 0.000000 2.576220 0.000000 
#    z 0.032340 0.000000 3.818550 
# 
# 
# High freq. dielectric constant tensor:
#      x y z
#    x 1.730950 0.000000 -0.002930 
#    y 0.000000 1.707700 0.000000 
#    z -0.002930 0.000000 1.736770 
# 
# From -- ./inp_files/375460.got.cif
#   From: 2010.06.25/outbox.cif.g09.slc.cpg/sg12_188_cif.got.tgz:375460.got - 2010.06.28 00:19:55.
