data_PCOD8106712
_publ_section_title
;
Structure prediction by ZEFSAII (Michael W. Deem and Ramdas Pophale) SiO2 
 PCOD8106712
Probable space group: C 2/M
;
_chemical_formula_sum "Si O2"
_cell_formula_units_Z 56
_cell_length_a 12.672730
_cell_length_b 27.506762
_cell_length_c 13.301139
_cell_angle_alpha 90.000000
_cell_angle_beta 139.106547
_cell_angle_gamma 90.000000
_cell_volume 3035.362762
_symmetry_space_group_name_H-M "C 2/M"
_symmetry_group_IT_number 12
_symmetry_cell_setting 'monoclinic'
loop_
_space_group_symop_operation_xyz
x,y,z
-x,y,-z
-x,-y,-z
x,-y,z
1/2+x,1/2+y,z
1/2-x,1/2+y,-z
1/2-x,1/2-y,-z
1/2+x,1/2-y,z
loop_
_atom_site_type_symbol
_atom_site_label
_atom_site_fract_x
_atom_site_fract_y
_atom_site_fract_z
Si Si1 0.856374 0.332774 0.572867
Si Si2 0.788409 0.157908 0.744526
Si Si3 0.005586 0.843248 0.390188
Si Si4 0.889664 0.500000 0.325078
Si Si5 0.874353 0.402365 0.203212
Si Si6 0.427570 0.602446 0.140513
Si Si7 0.453812 0.500000 0.851120
Si Si8 0.408020 0.241757 0.330449
O O1 0.823240 0.346852 0.433768
O O2 0.688742 0.323734 0.508079
O O3 0.954782 0.376764 0.695438
O O4 0.974481 0.285967 0.663736
O O5 0.722299 0.118633 0.772653
O O6 0.760682 0.212088 0.773456
O O7 0.973692 0.143840 0.852489
O O8 0.954985 0.886396 0.278410
O O9 0.884457 0.797705 0.278210
O O10 0.000000 0.863175 0.500000
O O11 0.000000 0.500000 0.500000
O O12 0.909733 0.457065 0.259554
O O13 0.734458 0.500000 0.282715
O O14 0.760957 0.395807 0.023478
O O15 0.486255 0.547982 0.162651
O O16 0.500000 0.500000 0.000000
O O17 0.500000 0.247592 0.500000
#
# Coordination Sequence:
#
# PCOD8106712 Si02
#       8
#     8   8   8   4   8   8   4   8
#     4   9  18  31  53  78 108 142 186 232 280 327
#     4   9  16  30  52  81 112 142 175 218 279 341
#     4  10  21  37  55  74 101 149 204 238 267 311
#     4  12  22  30  56  89 124 140 169 209 273 347
#     4  11  19  32  50  84 119 145 168 219 284 350
#     4  11  21  34  56  82 116 153 178 220 283 338
#     4  12  20  38  57  89 122 147 167 211 286 358
#     4   8  15  30  54  80 105 137 183 237 281 327
#
# _framework density 18.449195
#
# number of rings (size 3 to 8) (size 9 to 14) (size 15 to 20)
#    0.000    2.000    2.857    3.000    2.000    1.143 
#    0.000    3.929    0.000   10.286    0.000    2.000 
#    0.000    0.000    0.000    0.000    0.000    0.000 
#
# Total GULP energy -346891.754073 kJ/mol
# GULP energy per Si atom -12388.991217 kJ/mol
# Density = 1.840720 g / cm^3
# Si number density = 18.449195 Si / 1000 Ang^3
#
#
#
# Elastic Constant Matrix: (Units=GPa)
#
#
# Indices 1 2 3 4 5 6 
#
# 1 74.6351 36.1339 29.2883 0.0000 -13.2213 0.0000
# 2 36.1339 125.0437 42.7824 0.0000 -7.4860 0.0000
# 3 29.2883 42.7824 91.1338 0.0000 2.5352 0.0000
# 4 0.0000 0.0000 0.0000 21.7296 0.0000 -2.4770
# 5 -13.2213 -7.4860 2.5352 0.0000 23.8618 0.0000
# 6 0.0000 0.0000 0.0000 -2.4770 0.0000 25.8256
#
#
#
# Elastic Compliance Matrix: (Units=1/GPa)
#
#
# Indices 1 2 3 4 5 6 
#
# 1 0.018514 -0.003140 -0.004748 0.000000 0.009777 0.000000
# 2 -0.003140 0.010356 -0.003906 0.000000 0.001924 0.000000
# 3 -0.004748 -0.003906 0.014482 0.000000 -0.005395 0.000000
# 4 0.000000 0.000000 0.000000 0.046529 0.000000 0.004463
# 5 0.009777 0.001924 -0.005395 0.000000 0.048502 0.000000
# 6 0.000000 0.000000 0.000000 0.004463 0.000000 0.039149
#
#
# Mechanical properties :
#
#
# Convention : Reuss Voigt Hill
#
# Bulk Modulus (GPa) = 50.59554 56.35797 53.47676
# Shear Modulus (GPa) = 24.07210 26.45728 25.26469
#
# Velocity S-wave (km/s) = 3.61609 3.79101 3.70458
# Velocity P-wave (km/s) = 6.70213 7.05523 6.88095
#
# Compressibility (1/GPa) = 0.01976459
#
# Stress axis : x y z
#
# Youngs Moduli (GPa) = 54.01320 96.56032 69.04916
#
# Poissons Ratio (x) = 0.30322 0.32783
# Poissons Ratio (y) = 0.16961 0.26971
# Poissons Ratio (z) = 0.25644 0.37717
#
# Static dielectric constant tensor:
#      x y z
#    x 3.187180 0.000000 0.102330 
#    y 0.000000 3.632290 0.000000 
#    z 0.102330 0.000000 3.430860 
# 
# 
# High freq. dielectric constant tensor:
#      x y z
#    x 1.684340 0.000000 0.006010 
#    y 0.000000 1.715810 0.000000 
#    z 0.006010 0.000000 1.703870 
# 
# From -- ./inp_files/209203.got.cif
#   From: 2010.06.25/outbox.cif.g09.slc.cpg/sg12_105_cif.got.tgz:209203.got - 2010.06.28 00:19:55.
