data_PCOD8106782
_publ_section_title
;
Structure prediction by ZEFSAII (Michael W. Deem and Ramdas Pophale) SiO2 
 PCOD8106782
Probable space group: C 2/M
;
_chemical_formula_sum "Si O2"
_cell_formula_units_Z 64
_cell_length_a 20.381374
_cell_length_b 9.028707
_cell_length_c 23.215086
_cell_angle_alpha 90.000000
_cell_angle_beta 123.510968
_cell_angle_gamma 90.000000
_cell_volume 3561.892981
_symmetry_space_group_name_H-M "C 2/M"
_symmetry_group_IT_number 12
_symmetry_cell_setting 'monoclinic'
loop_
_space_group_symop_operation_xyz
x,y,z
-x,y,-z
-x,-y,-z
x,-y,z
1/2+x,1/2+y,z
1/2-x,1/2+y,-z
1/2-x,1/2-y,-z
1/2+x,1/2-y,z
loop_
_atom_site_type_symbol
_atom_site_label
_atom_site_fract_x
_atom_site_fract_y
_atom_site_fract_z
Si Si1 0.665771 0.824880 0.956495
Si Si2 0.272621 0.175826 0.822693
Si Si3 0.086362 0.324174 0.035624
Si Si4 0.365517 0.827411 0.580892
Si Si5 0.371988 0.328140 0.173143
Si Si6 0.971543 0.830058 0.331127
Si Si7 0.682102 0.673780 0.670208
Si Si8 0.732265 0.827050 0.579432
O O1 0.614421 0.767762 0.877600
O O2 0.676019 0.000000 0.958343
O O3 0.750000 0.750000 0.000000
O O4 0.619711 0.773680 0.990772
O O5 0.357863 0.233898 0.885009
O O6 0.207979 0.232908 0.836737
O O7 0.250925 0.228217 0.747611
O O8 0.266973 0.000000 0.820715
O O9 0.082047 0.500000 0.037398
O O10 0.000000 0.253186 0.000000
O O11 0.454859 0.774015 0.621298
O O12 0.326935 0.789868 0.500953
O O13 0.317040 0.746644 0.608182
O O14 0.363746 0.000000 0.593915
O O15 0.364107 0.500000 0.152324
O O16 0.443504 0.303534 0.252032
O O17 0.902330 0.789660 0.342404
O O18 0.996901 0.000000 0.352051
O O19 0.689323 0.500000 0.660539
O O20 0.691751 0.763447 0.616572
O O21 0.746328 0.000000 0.594110
#
# Coordination Sequence:
#
# PCOD8106782 Si02
#       8
#     8   8   8   8   8   8   8   8
#     4  11  20  31  52  78 101 133 178 220 261 310
#     4   8  14  29  51  72 100 137 172 207 253 309
#     4   9  17  30  49  73 101 133 171 215 258 300
#     4  10  21  37  57  79 106 141 179 220 263 314
#     4   9  17  33  54  76 104 137 171 211 263 313
#     4   9  19  35  56  80 109 143 176 217 269 320
#     4   9  18  33  55  80 104 140 184 218 258 318
#     4  10  21  37  56  78 108 143 177 217 267 317
#
# _framework density 17.967974999999999
#
# number of rings (size 3 to 8) (size 9 to 14) (size 15 to 20)
#    0.000    2.625    1.250    2.625    0.000    3.000 
#    2.250    4.375    0.000    1.500    0.000    0.000 
#    0.000    0.000    0.000    0.000    0.000    0.000 
#
# Total GULP energy -396729.452998 kJ/mol
# GULP energy per Si atom -12397.795406 kJ/mol
# Density = 1.792708 g / cm^3
# Si number density = 17.967975 Si / 1000 Ang^3
#
#
#
# Elastic Constant Matrix: (Units=GPa)
#
#
# Indices 1 2 3 4 5 6 
#
# 1 113.6467 46.0984 65.9239 0.0000 4.3001 0.0000
# 2 46.0984 62.9120 47.4368 0.0000 -5.1175 0.0000
# 3 65.9239 47.4368 101.8139 0.0000 -1.7461 0.0000
# 4 0.0000 0.0000 0.0000 30.3874 0.0000 -2.4422
# 5 4.3001 -5.1175 -1.7461 0.0000 31.7951 0.0000
# 6 0.0000 0.0000 0.0000 -2.4422 0.0000 28.1298
#
#
#
# Elastic Compliance Matrix: (Units=1/GPa)
#
#
# Indices 1 2 3 4 5 6 
#
# 1 0.015730 -0.006303 -0.007309 0.000000 -0.003543 0.000000
# 2 -0.006303 0.027384 -0.008596 0.000000 0.004788 0.000000
# 3 -0.007309 -0.008596 0.018570 0.000000 0.000625 0.000000
# 4 0.000000 0.000000 0.000000 0.033140 0.000000 0.002877
# 5 -0.003543 0.004788 0.000625 0.000000 0.032736 0.000000
# 6 0.000000 0.000000 0.000000 0.002877 0.000000 0.035799
#
#
# Mechanical properties :
#
#
# Convention : Reuss Voigt Hill
#
# Bulk Modulus (GPa) = 57.90756 66.36564 62.13660
# Shear Modulus (GPa) = 23.41591 25.99002 24.70296
#
# Velocity S-wave (km/s) = 3.61391 3.80737 3.71190
# Velocity P-wave (km/s) = 7.05067 7.50625 7.28202
#
# Compressibility (1/GPa) = 0.01726890
#
# Stress axis : x y z
#
# Youngs Moduli (GPa) = 63.57388 36.51714 53.85046
#
# Poissons Ratio (x) = 0.23017 0.39359
# Poissons Ratio (y) = 0.40070 0.46288
# Poissons Ratio (z) = 0.46466 0.31389
#
# Static dielectric constant tensor:
#      x y z
#    x 3.394420 0.000000 0.057100 
#    y 0.000000 3.083560 0.000000 
#    z 0.057100 0.000000 3.522680 
# 
# 
# High freq. dielectric constant tensor:
#      x y z
#    x 1.686980 0.000000 0.000270 
#    y 0.000000 1.672470 0.000000 
#    z 0.000270 0.000000 1.704990 
# 
# From -- ./inp_files/320161.got.cif
#   From: 2010.06.25/outbox.cif.g09.slc.cpg/sg12_161_cif.got.tgz:320161.got - 2010.06.28 00:19:55.
