data_PCOD8106867
_publ_section_title
;
Structure prediction by ZEFSAII (Michael W. Deem and Ramdas Pophale) SiO2 
 PCOD8106867
Probable space group: C 2/M
;
_chemical_formula_sum "Si O2"
_cell_formula_units_Z 44
_cell_length_a 9.415719
_cell_length_b 24.655218
_cell_length_c 12.829738
_cell_angle_alpha 90.000000
_cell_angle_beta 52.179588
_cell_angle_gamma 90.000000
_cell_volume 2352.731491
_symmetry_space_group_name_H-M "C 2/M"
_symmetry_group_IT_number 12
_symmetry_cell_setting 'monoclinic'
loop_
_space_group_symop_operation_xyz
x,y,z
-x,y,-z
-x,-y,-z
x,-y,z
1/2+x,1/2+y,z
1/2-x,1/2+y,-z
1/2-x,1/2-y,-z
1/2+x,1/2-y,z
loop_
_atom_site_type_symbol
_atom_site_label
_atom_site_fract_x
_atom_site_fract_y
_atom_site_fract_z
Si Si1 0.504249 0.417513 0.769148
Si Si2 0.436784 0.301842 0.860517
Si Si3 0.716470 0.198850 0.161202
Si Si4 0.844179 0.000000 0.988664
Si Si5 0.405701 0.900046 0.650140
Si Si6 0.021335 0.500000 0.723597
Si Si7 0.599482 0.500000 0.349611
O O1 0.459519 0.354419 0.778328
O O2 0.366974 0.445560 0.911276
O O3 0.708766 0.424772 0.716700
O O4 0.470618 0.445748 0.674601
O O5 0.400498 0.253280 0.796313
O O6 0.616710 0.287157 0.840795
O O7 0.279601 0.315015 0.014909
O O8 0.603273 0.150109 0.264270
O O9 0.000000 0.000000 0.000000
O O10 0.651176 0.000000 0.126052
O O11 0.500000 0.881038 0.500000
O O12 0.525971 0.946951 0.648177
O O13 0.187209 0.500000 0.728864
O O14 0.500000 0.500000 0.500000
#
# Coordination Sequence:
#
# PCOD8106867 Si02
#       7
#     8   8   8   4   8   4   4
#     4  10  21  37  57  79 112 148 180 230 284 327
#     4   9  18  35  57  78 105 138 181 225 286 326
#     4   9  19  34  55  80 105 139 177 229 274 330
#     4  11  19  35  60  88 110 136 186 240 279 321
#     4  11  21  36  56  81 107 147 195 225 264 341
#     4  12  22  34  60  85 109 148 186 230 284 332
#     4  11  24  40  52  79 119 151 181 225 282 338
#
# _framework density 18.701665999999999
#
# number of rings (size 3 to 8) (size 9 to 14) (size 15 to 20)
#    0.000    1.818    1.818    3.000    2.545    2.909 
#    0.000    8.182    0.000    0.000    0.000    0.000 
#    0.000    0.000    0.000    0.000    0.000    0.000 
#
# Total GULP energy -272775.328148 kJ/mol
# GULP energy per Si atom -12398.878552 kJ/mol
# Density = 1.865910 g / cm^3
# Si number density = 18.701666 Si / 1000 Ang^3
#
#
#
# Elastic Constant Matrix: (Units=GPa)
#
#
# Indices 1 2 3 4 5 6 
#
# 1 83.3445 63.7691 23.7556 0.0000 10.5748 0.0000
# 2 63.7691 152.3058 41.9601 0.0000 20.2036 0.0000
# 3 23.7556 41.9601 93.4561 0.0000 12.8952 0.0000
# 4 0.0000 0.0000 0.0000 27.4245 0.0000 9.0954
# 5 10.5748 20.2036 12.8952 0.0000 27.4148 0.0000
# 6 0.0000 0.0000 0.0000 9.0954 0.0000 38.1274
#
#
#
# Elastic Compliance Matrix: (Units=1/GPa)
#
#
# Indices 1 2 3 4 5 6 
#
# 1 0.017833 -0.006970 -0.001244 0.000000 -0.001157 0.000000
# 2 -0.006970 0.010701 -0.002476 0.000000 -0.004033 0.000000
# 3 -0.001244 -0.002476 0.012630 0.000000 -0.003636 0.000000
# 4 0.000000 0.000000 0.000000 0.039597 0.000000 -0.009446
# 5 -0.001157 -0.004033 -0.003636 0.000000 0.041605 0.000000
# 6 0.000000 0.000000 0.000000 -0.009446 0.000000 0.028481
#
#
# Mechanical properties :
#
#
# Convention : Reuss Voigt Hill
#
# Bulk Modulus (GPa) = 50.54827 65.34177 57.94502
# Shear Modulus (GPa) = 27.96063 31.90144 29.93103
#
# Velocity S-wave (km/s) = 3.87083 4.13462 4.00490
# Velocity P-wave (km/s) = 6.86041 7.60318 7.24132
#
# Compressibility (1/GPa) = 0.01978307
#
# Stress axis : x y z
#
# Youngs Moduli (GPa) = 56.07622 93.44562 79.17686
#
# Poissons Ratio (x) = 0.65135 0.09848
# Poissons Ratio (y) = 0.39087 0.19608
# Poissons Ratio (z) = 0.06974 0.23142
#
# Static dielectric constant tensor:
#      x y z
#    x 2.943880 0.000000 -0.114740 
#    y 0.000000 3.506140 0.000000 
#    z -0.114740 0.000000 3.265150 
# 
# 
# High freq. dielectric constant tensor:
#      x y z
#    x 1.718760 0.000000 0.002380 
#    y 0.000000 1.730450 0.000000 
#    z 0.002380 0.000000 1.721160 
# 
# From -- ./inp_files/122378.got.cif
#   From: 2010.06.25/outbox.cif.g09.slc.cpg/sg12_62_cif.got.tgz:122378.got - 2010.06.28 00:19:55.
