data_PCOD8106907
_publ_section_title
;
Structure prediction by ZEFSAII (Michael W. Deem and Ramdas Pophale) SiO2 
 PCOD8106907
Probable space group: C 2/M
;
_chemical_formula_sum "Si O2"
_cell_formula_units_Z 64
_cell_length_a 14.668633
_cell_length_b 8.876376
_cell_length_c 26.107059
_cell_angle_alpha 90.000000
_cell_angle_beta 70.490608
_cell_angle_gamma 90.000000
_cell_volume 3204.089357
_symmetry_space_group_name_H-M "C 2/M"
_symmetry_group_IT_number 12
_symmetry_cell_setting 'monoclinic'
loop_
_space_group_symop_operation_xyz
x,y,z
-x,y,-z
-x,-y,-z
x,-y,z
1/2+x,1/2+y,z
1/2-x,1/2+y,-z
1/2-x,1/2-y,-z
1/2+x,1/2-y,z
loop_
_atom_site_type_symbol
_atom_site_label
_atom_site_fract_x
_atom_site_fract_y
_atom_site_fract_z
Si Si1 0.791117 0.324899 0.921089
Si Si2 0.353489 0.325244 0.394085
Si Si3 0.181974 0.825808 0.373715
Si Si4 0.344535 0.175422 0.797462
Si Si5 0.205568 0.673627 0.751660
Si Si6 0.606003 0.177918 0.995604
Si Si7 0.491230 0.176513 0.442497
Si Si8 0.536314 0.325729 0.730171
O O1 0.767236 0.500000 0.931129
O O2 0.842876 0.288040 0.857966
O O3 0.688360 0.240278 0.942311
O O4 0.865076 0.272430 0.951955
O O5 0.327535 0.500000 0.405034
O O6 0.255183 0.234869 0.402800
O O7 0.398093 0.262611 0.438087
O O8 0.429250 0.296800 0.334118
O O9 0.225396 0.799827 0.309642
O O10 0.084689 0.730595 0.394170
O O11 0.159251 0.000000 0.388644
O O12 0.243348 0.226911 0.791739
O O13 0.426362 0.273677 0.754719
O O14 0.362569 0.000000 0.783528
O O15 0.200993 0.500000 0.768926
O O16 0.098094 0.728448 0.758633
O O17 0.604376 0.000000 0.990054
O O18 0.500000 0.243192 0.000000
O O19 0.500000 0.220448 0.500000
O O20 0.477298 0.000000 0.436673
O O21 0.545993 0.500000 0.742985
#
# Coordination Sequence:
#
# PCOD8106907 Si02
#       8
#     8   8   8   8   8   8   8   8
#     4   9  20  36  52  78 111 140 178 223 268 320
#     4  10  21  38  60  83 109 143 182 225 271 324
#     4  10  21  38  60  83 108 141 181 226 274 325
#     4  11  22  35  53  80 117 153 182 222 272 322
#     4  10  21  37  57  82 110 143 185 227 270 323
#     4   9  18  35  58  79 102 138 182 226 271 318
#     4  11  24  39  56  81 111 143 181 225 274 327
#     4  10  21  37  57  83 112 144 184 224 269 327
#
# _framework density 19.974474000000001
#
# number of rings (size 3 to 8) (size 9 to 14) (size 15 to 20)
#    0.000    2.000    0.000    3.000    0.000    9.750 
#    0.000    1.250    0.000    0.000    0.000    0.000 
#    0.000    0.000    0.000    0.000    0.000    0.000 
#
# Total GULP energy -396953.202208 kJ/mol
# GULP energy per Si atom -12404.787569 kJ/mol
# Density = 1.992901 g / cm^3
# Si number density = 19.974474 Si / 1000 Ang^3
#
#
#
# Elastic Constant Matrix: (Units=GPa)
#
#
# Indices 1 2 3 4 5 6 
#
# 1 94.9731 14.3017 16.8744 0.0000 12.2149 0.0000
# 2 14.3017 50.3644 32.6166 0.0000 4.9799 0.0000
# 3 16.8744 32.6166 33.3309 0.0000 15.4099 0.0000
# 4 0.0000 0.0000 0.0000 29.6670 0.0000 -0.1266
# 5 12.2149 4.9799 15.4099 0.0000 25.5118 0.0000
# 6 0.0000 0.0000 0.0000 -0.1266 0.0000 39.6391
#
#
#
# Elastic Compliance Matrix: (Units=1/GPa)
#
#
# Indices 1 2 3 4 5 6 
#
# 1 0.011714 -0.000194 -0.004392 0.000000 -0.002918 0.000000
# 2 -0.000194 0.077527 -0.095477 0.000000 0.042631 0.000000
# 3 -0.004392 -0.095477 0.161040 0.000000 -0.076534 0.000000
# 4 0.000000 0.000000 0.000000 0.033708 0.000000 0.000108
# 5 -0.002918 0.042631 -0.076534 0.000000 0.078502 0.000000
# 6 0.000000 0.000000 0.000000 0.000108 0.000000 0.025228
#
#
# Mechanical properties :
#
#
# Convention : Reuss Voigt Hill
#
# Bulk Modulus (GPa) = 19.93763 34.02820 26.98292
# Shear Modulus (GPa) = 8.27043 26.62197 17.44620
#
# Velocity S-wave (km/s) = 2.03703 3.65471 2.95858
# Velocity P-wave (km/s) = 3.94156 5.90610 5.02085
#
# Compressibility (1/GPa) = 0.05015640
#
# Stress axis : x y z
#
# Youngs Moduli (GPa) = 85.36733 12.89871 6.20963
#
# Poissons Ratio (x) = 0.00250 0.02727
# Poissons Ratio (y) = 0.01653 0.59288
# Poissons Ratio (z) = 0.37493 1.23153
#
# Static dielectric constant tensor:
#      x y z
#    x 3.796160 0.000000 0.119690 
#    y 0.000000 3.624660 0.000000 
#    z 0.119690 0.000000 3.494860 
# 
# 
# High freq. dielectric constant tensor:
#      x y z
#    x 1.789070 0.000000 0.008730 
#    y 0.000000 1.785020 0.000000 
#    z 0.008730 0.000000 1.765860 
# 
# From -- ./inp_files/359698.got.cif
#   From: 2010.06.25/outbox.cif.g09.slc.cpg/sg12_180_cif.got.tgz:359698.got - 2010.06.28 00:19:55.
