data_PCOD8106527
_publ_section_title
;
Structure prediction by ZEFSAII (Michael W. Deem and Ramdas Pophale) SiO2 
 PCOD8106527
Probable space group: C 2/M
;
_chemical_formula_sum "Si O2"
_cell_formula_units_Z 64
_cell_length_a 15.062343
_cell_length_b 24.130704
_cell_length_c 13.189249
_cell_angle_alpha 90.000000
_cell_angle_beta 40.505591
_cell_angle_gamma 90.000000
_cell_volume 3113.698974
_symmetry_space_group_name_H-M "C 2/M"
_symmetry_group_IT_number 12
_symmetry_cell_setting 'monoclinic'
loop_
_space_group_symop_operation_xyz
x,y,z
-x,y,-z
-x,-y,-z
x,-y,z
1/2+x,1/2+y,z
1/2-x,1/2+y,-z
1/2-x,1/2-y,-z
1/2+x,1/2-y,z
loop_
_atom_site_type_symbol
_atom_site_label
_atom_site_fract_x
_atom_site_fract_y
_atom_site_fract_z
Si Si1 0.760041 0.112284 0.344767
Si Si2 0.872590 0.656084 0.183038
Si Si3 0.848807 0.738518 0.820970
Si Si4 0.645163 0.281255 0.824888
Si Si5 0.266083 0.934737 0.856515
Si Si6 0.404692 0.646344 0.678332
Si Si7 0.981047 0.936382 0.784819
Si Si8 0.518352 0.867899 0.703157
O O1 0.826574 0.173602 0.286408
O O2 0.734956 0.089921 0.254465
O O3 0.614775 0.115597 0.526327
O O4 0.864191 0.072123 0.312164
O O5 0.846991 0.720635 0.231089
O O6 0.745849 0.631360 0.231244
O O7 0.897447 0.623274 0.265847
O O8 0.000000 0.649037 0.000000
O O9 0.761769 0.710767 0.807648
O O10 0.913896 0.796537 0.732019
O O11 0.969883 0.696161 0.742965
O O12 0.750000 0.750000 0.000000
O O13 0.500000 0.293515 0.000000
O O14 0.388023 0.908140 0.816057
O O15 0.289659 0.000000 0.830042
O O16 0.123878 0.919243 0.034876
O O17 0.500000 0.652673 0.500000
O O18 0.454655 0.597314 0.706003
O O19 0.960359 0.000000 0.773687
#
# Coordination Sequence:
#
# PCOD8106527 Si02
#       8
#     8   8   8   8   8   8   8   8
#     4  12  25  38  63  97 137 164 209 273 331 391
#     4  10  22  42  62  89 130 170 212 261 316 385
#     4  11  23  39  65  94 133 178 218 261 316 398
#     4  10  21  36  59  91 128 173 212 255 314 387
#     4  11  24  44  68  93 129 174 222 267 319 395
#     4  11  25  42  66  97 129 167 217 278 326 378
#     4  11  25  46  70  94 123 175 229 270 326 393
#     4  12  25  40  65  98 131 176 209 268 334 386
#
# _framework density 20.554331999999999
#
# number of rings (size 3 to 8) (size 9 to 14) (size 15 to 20)
#    0.000    1.000    1.250    6.375    7.000    3.250 
#    0.000    0.625    0.000    2.250    0.000    0.000 
#    0.000    0.000    0.000    0.000    0.000    0.000 
#
# Total GULP energy -396984.731991 kJ/mol
# GULP energy per Si atom -12405.772875 kJ/mol
# Density = 2.050755 g / cm^3
# Si number density = 20.554332 Si / 1000 Ang^3
#
#
#
# Elastic Constant Matrix: (Units=GPa)
#
#
# Indices 1 2 3 4 5 6 
#
# 1 83.4190 25.9098 23.8477 0.0001 0.6460 -0.0003
# 2 25.9098 81.1755 45.9627 0.0000 8.3269 0.0000
# 3 23.8477 45.9627 114.4595 0.0000 5.6162 -0.0002
# 4 0.0001 0.0000 0.0000 18.5983 -0.0001 1.7037
# 5 0.6460 8.3269 5.6162 -0.0001 37.4193 0.0003
# 6 -0.0003 0.0000 -0.0002 1.7037 0.0003 32.5416
#
#
#
# Elastic Compliance Matrix: (Units=1/GPa)
#
#
# Indices 1 2 3 4 5 6 
#
# 1 0.013500 -0.003591 -0.001409 0.000000 0.000777 0.000000
# 2 -0.003591 0.017156 -0.006001 0.000000 -0.002855 0.000000
# 3 -0.001409 -0.006001 0.011458 0.000000 -0.000360 0.000000
# 4 0.000000 0.000000 0.000000 0.054028 0.000000 -0.002829
# 5 0.000777 -0.002855 -0.000360 0.000000 0.027400 0.000000
# 6 0.000000 0.000000 0.000000 -0.002829 0.000000 0.030878
#
#
# Mechanical properties :
#
#
# Convention : Reuss Voigt Hill
#
# Bulk Modulus (GPa) = 49.72182 52.27714 50.99948
# Shear Modulus (GPa) = 27.30390 29.93410 28.61900
#
# Velocity S-wave (km/s) = 3.64864 3.82034 3.73548
# Velocity P-wave (km/s) = 6.48021 6.70439 6.59325
#
# Compressibility (1/GPa) = 0.02011189
#
# Stress axis : x y z
#
# Youngs Moduli (GPa) = 74.07542 58.28934 87.27803
#
# Poissons Ratio (x) = 0.20931 0.12296
# Poissons Ratio (y) = 0.26600 0.52374
# Poissons Ratio (z) = 0.10436 0.34979
#
# Static dielectric constant tensor:
#      x y z
#    x 3.728830 0.000000 -0.022910 
#    y 0.000000 3.764010 0.000000 
#    z -0.022910 0.000000 3.689300 
# 
# 
# High freq. dielectric constant tensor:
#      x y z
#    x 1.815670 0.000000 -0.005090 
#    y 0.000000 1.797470 0.000000 
#    z -0.005090 0.000000 1.808900 
# 
# From -- ./inp_files/149768.got.cif
#   From: 2010.06.25/outbox.cif.g09.slc.cpg/sg12_75_cif.got.tgz:149768.got - 2010.06.28 00:19:55.
