data_PCOD8106913
_publ_section_title
;
Structure prediction by ZEFSAII (Michael W. Deem and Ramdas Pophale) SiO2 
 PCOD8106913
Probable space group: C 2/M
;
_chemical_formula_sum "Si O2"
_cell_formula_units_Z 56
_cell_length_a 17.827418
_cell_length_b 8.941024
_cell_length_c 28.679127
_cell_angle_alpha 90.000000
_cell_angle_beta 39.015579
_cell_angle_gamma 90.000000
_cell_volume 2877.790825
_symmetry_space_group_name_H-M "C 2/M"
_symmetry_group_IT_number 12
_symmetry_cell_setting 'monoclinic'
loop_
_space_group_symop_operation_xyz
x,y,z
-x,y,-z
-x,-y,-z
x,-y,z
1/2+x,1/2+y,z
1/2-x,1/2+y,-z
1/2-x,1/2-y,-z
1/2+x,1/2-y,z
loop_
_atom_site_type_symbol
_atom_site_label
_atom_site_fract_x
_atom_site_fract_y
_atom_site_fract_z
Si Si1 0.725343 0.172423 0.149445
Si Si2 0.903571 0.172276 0.147545
Si Si3 0.550851 0.322132 0.426717
Si Si4 0.623811 0.676807 0.569618
Si Si5 0.317409 0.177075 0.281246
Si Si6 0.328886 0.324083 0.001014
Si Si7 0.977850 0.176111 0.281779
O O1 0.824218 0.195666 0.140631
O O2 0.782079 0.228577 0.073789
O O3 0.614352 0.275627 0.215313
O O4 0.684168 0.000000 0.166238
O O5 0.853502 0.275907 0.212249
O O6 0.903181 0.000000 0.164308
O O7 0.035327 0.227526 0.070837
O O8 0.500000 0.258974 0.500000
O O9 0.550760 0.500000 0.426893
O O10 0.469030 0.262220 0.424086
O O11 0.684749 0.261715 0.355568
O O12 0.637469 0.500000 0.559079
O O13 0.750000 0.750000 0.500000
O O14 0.577766 0.726846 0.642331
O O15 0.408129 0.245266 0.274096
O O16 0.322908 0.000000 0.282789
O O17 0.317942 0.500000 0.001271
O O18 0.250000 0.250000 0.000000
O O19 0.969538 0.000000 0.278730
#
# Coordination Sequence:
#
# PCOD8106913 Si02
#       7
#     8   8   8   8   8   8   8
#     4  10  21  38  60  84 111 148 192 231 274 336
#     4  10  21  38  59  83 114 148 183 231 286 333
#     4   9  18  34  56  80 107 141 181 225 273 325
#     4  10  21  37  57  82 112 146 184 228 279 334
#     4  11  22  37  59  84 111 147 191 233 277 337
#     4  10  21  37  57  82 112 148 188 230 278 331
#     4  11  23  38  56  82 117 151 186 233 284 330
#
# _framework density 19.459371000000001
#
# number of rings (size 3 to 8) (size 9 to 14) (size 15 to 20)
#    0.000    1.857    0.000    3.857    0.000    9.143 
#    0.000    1.429    0.000    6.429    0.000    0.000 
#    0.000    0.000    0.000    0.000    0.000    0.000 
#
# Total GULP energy -347327.307235 kJ/mol
# GULP energy per Si atom -12404.546687 kJ/mol
# Density = 1.941508 g / cm^3
# Si number density = 19.459371 Si / 1000 Ang^3
#
#
#
# Elastic Constant Matrix: (Units=GPa)
#
#
# Indices 1 2 3 4 5 6 
#
# 1 124.7333 28.3447 59.6602 -0.0002 -0.8975 -0.0025
# 2 28.3447 39.8230 41.6072 -0.0004 0.3576 -0.0036
# 3 59.6602 41.6072 171.7271 0.0000 -1.9015 0.0000
# 4 -0.0002 -0.0004 0.0000 30.3952 0.0001 -4.6469
# 5 -0.8975 0.3576 -1.9015 0.0001 45.7801 -0.0003
# 6 -0.0025 -0.0036 0.0000 -4.6469 -0.0003 23.2034
#
#
#
# Elastic Compliance Matrix: (Units=1/GPa)
#
#
# Indices 1 2 3 4 5 6 
#
# 1 0.010255 -0.004793 -0.002400 0.000000 0.000139 0.000000
# 2 -0.004793 0.035879 -0.007035 0.000001 -0.000666 0.000005
# 3 -0.002400 -0.007035 0.008365 0.000000 0.000355 -0.000001
# 4 0.000000 0.000001 0.000000 0.033939 0.000000 0.006797
# 5 0.000139 -0.000666 0.000355 0.000000 0.021866 0.000000
# 6 0.000000 0.000005 -0.000001 0.006797 0.000000 0.044458
#
#
# Mechanical properties :
#
#
# Convention : Reuss Voigt Hill
#
# Bulk Modulus (GPa) = 38.39771 66.16751 52.28261
# Shear Modulus (GPa) = 26.05509 33.65382 29.85445
#
# Velocity S-wave (km/s) = 3.66313 4.16317 3.92113
# Velocity P-wave (km/s) = 6.13730 7.56214 6.88667
#
# Compressibility (1/GPa) = 0.02604322
#
# Stress axis : x y z
#
# Youngs Moduli (GPa) = 97.51159 27.87137 119.53927
#
# Poissons Ratio (x) = 0.13359 0.28689
# Poissons Ratio (y) = 0.46738 0.84099
# Poissons Ratio (z) = 0.23402 0.19608
#
# Static dielectric constant tensor:
#      x y z
#    x 3.691580 0.000040 0.034820 
#    y 0.000040 3.951470 -0.000030 
#    z 0.034820 -0.000030 3.787850 
# 
# 
# High freq. dielectric constant tensor:
#      x y z
#    x 1.777850 0.000000 0.000270 
#    y 0.000000 1.737670 0.000000 
#    z 0.000270 0.000000 1.777370 
# 
# From -- ./inp_files/275643.got.cif
#   From: 2010.06.25/outbox.cif.g09.slc.cpg/sg12_138_cif.got.tgz:275643.got - 2010.06.28 00:19:55.
