data_PCOD8106624
_publ_section_title
;
Structure prediction by ZEFSAII (Michael W. Deem and Ramdas Pophale) SiO2 
 PCOD8106624
Probable space group: C 2/M
;
_chemical_formula_sum "Si O2"
_cell_formula_units_Z 48
_cell_length_a 24.343463
_cell_length_b 18.931061
_cell_length_c 6.262077
_cell_angle_alpha 90.000000
_cell_angle_beta 59.526587
_cell_angle_gamma 90.000000
_cell_volume 2487.223149
_symmetry_space_group_name_H-M "C 2/M"
_symmetry_group_IT_number 12
_symmetry_cell_setting 'monoclinic'
loop_
_space_group_symop_operation_xyz
x,y,z
-x,y,-z
-x,-y,-z
x,-y,z
1/2+x,1/2+y,z
1/2-x,1/2+y,-z
1/2-x,1/2-y,-z
1/2+x,1/2-y,z
loop_
_atom_site_type_symbol
_atom_site_label
_atom_site_fract_x
_atom_site_fract_y
_atom_site_fract_z
Si Si1 0.233254 0.920245 0.046803
Si Si2 0.842742 0.370046 0.103220
Si Si3 0.437988 0.079270 0.240347
Si Si4 0.256014 0.671633 0.354185
Si Si5 0.674342 0.707080 0.403475
Si Si6 0.572892 0.800732 0.402325
O O1 0.303401 0.916532 0.011127
O O2 0.185014 0.864076 0.246164
O O3 0.206686 0.000000 0.120798
O O4 0.238555 0.901382 0.784698
O O5 0.882274 0.422198 0.175749
O O6 0.794008 0.328926 0.351392
O O7 0.888575 0.313799 0.893135
O O8 0.422426 0.127030 0.473839
O O9 0.449368 0.000000 0.303247
O O10 0.500000 0.109733 0.000000
O O11 0.322675 0.688357 0.347037
O O12 0.229608 0.733150 0.247428
O O13 0.605430 0.737764 0.474207
O O14 0.500000 0.779165 0.500000
#
# Coordination Sequence:
#
# PCOD8106624 Si02
#       6
#     8   8   8   8   8   8
#     4  11  23  38  61  90 119 150 189 241 303 354
#     4  11  21  37  58  85 119 155 198 234 282 346
#     4  11  23  37  52  78 120 165 201 235 273 327
#     4  10  21  36  62  83 118 152 187 246 295 344
#     4  10  22  38  60  87 115 149 197 245 291 344
#     4  12  24  39  60  84 117 160 205 242 280 338
#
# _framework density 19.298629999999999
#
# number of rings (size 3 to 8) (size 9 to 14) (size 15 to 20)
#    0.000    1.167    5.000    1.000    4.667    6.333 
#    0.000    0.000    0.000    0.500    0.000    1.167 
#    0.000    0.000    0.000    0.000    0.000    0.000 
#
# Total GULP energy -297458.202925 kJ/mol
# GULP energy per Si atom -12394.091789 kJ/mol
# Density = 1.925471 g / cm^3
# Si number density = 19.298630 Si / 1000 Ang^3
#
#
#
# Elastic Constant Matrix: (Units=GPa)
#
#
# Indices 1 2 3 4 5 6 
#
# 1 135.9862 49.7677 34.5936 0.0000 11.4579 0.0000
# 2 49.7677 125.0776 41.4609 0.0000 2.4814 0.0000
# 3 34.5936 41.4609 82.7078 0.0000 9.7910 0.0000
# 4 0.0000 0.0000 0.0000 27.7617 0.0000 -0.8849
# 5 11.4579 2.4814 9.7910 0.0000 22.7164 0.0000
# 6 0.0000 0.0000 0.0000 -0.8849 0.0000 19.4014
#
#
#
# Elastic Compliance Matrix: (Units=1/GPa)
#
#
# Indices 1 2 3 4 5 6 
#
# 1 0.009228 -0.002950 -0.001968 0.000000 -0.003484 0.000000
# 2 -0.002950 0.010557 -0.004318 0.000000 0.002196 0.000000
# 3 -0.001968 -0.004318 0.015707 0.000000 -0.005305 0.000000
# 4 0.000000 0.000000 0.000000 0.036073 0.000000 0.001645
# 5 -0.003484 0.002196 -0.005305 0.000000 0.047825 0.000000
# 6 0.000000 0.000000 0.000000 0.001645 0.000000 0.051618
#
#
# Mechanical properties :
#
#
# Convention : Reuss Voigt Hill
#
# Bulk Modulus (GPa) = 58.76094 66.15734 62.45914
# Shear Modulus (GPa) = 25.62101 28.50585 27.06343
#
# Velocity S-wave (km/s) = 3.64759 3.84746 3.74886
# Velocity P-wave (km/s) = 6.94652 7.35477 7.15356
#
# Compressibility (1/GPa) = 0.01701811
#
# Stress axis : x y z
#
# Youngs Moduli (GPa) = 108.37073 94.72717 63.66709
#
# Poissons Ratio (x) = 0.27945 0.12532
# Poissons Ratio (y) = 0.31970 0.27492
# Poissons Ratio (z) = 0.21331 0.40904
#
# Static dielectric constant tensor:
#      x y z
#    x 3.771850 0.000000 0.252050 
#    y 0.000000 3.307910 0.000000 
#    z 0.252050 0.000000 3.453190 
# 
# 
# High freq. dielectric constant tensor:
#      x y z
#    x 1.744990 0.000000 0.029020 
#    y 0.000000 1.732360 0.000000 
#    z 0.029020 0.000000 1.741880 
# 
# From -- ./inp_files/25318.got.cif
#   From: 2010.06.25/outbox.cif.g09.slc.cpg/sg12_13_cif.got.tgz:25318.got - 2010.06.28 00:19:55.
