data_PCOD8106879
_publ_section_title
;
Structure prediction by ZEFSAII (Michael W. Deem and Ramdas Pophale) SiO2 
 PCOD8106879
Probable space group: C 2/M
;
_chemical_formula_sum "Si O2"
_cell_formula_units_Z 56
_cell_length_a 10.208648
_cell_length_b 9.225626
_cell_length_c 33.593066
_cell_angle_alpha 90.000000
_cell_angle_beta 67.634521
_cell_angle_gamma 90.000000
_cell_volume 2925.836242
_symmetry_space_group_name_H-M "C 2/M"
_symmetry_group_IT_number 12
_symmetry_cell_setting 'monoclinic'
loop_
_space_group_symop_operation_xyz
x,y,z
-x,y,-z
-x,-y,-z
x,-y,z
1/2+x,1/2+y,z
1/2-x,1/2+y,-z
1/2-x,1/2-y,-z
1/2+x,1/2-y,z
loop_
_atom_site_type_symbol
_atom_site_label
_atom_site_fract_x
_atom_site_fract_y
_atom_site_fract_z
Si Si1 0.604081 0.169978 0.022761
Si Si2 0.715628 0.669681 0.544497
Si Si3 0.058849 0.829191 0.266168
Si Si4 0.270767 0.168131 0.309666
Si Si5 0.611983 0.666620 0.409194
Si Si6 0.019113 0.669869 0.878013
Si Si7 0.157970 0.170554 0.167871
O O1 0.534955 0.215852 0.072386
O O2 0.633046 0.000000 0.017075
O O3 0.500000 0.221407 0.000000
O O4 0.750000 0.250000 0.000000
O O5 0.745567 0.500000 0.535722
O O6 0.750000 0.750000 0.500000
O O7 0.554002 0.700496 0.575054
O O8 0.818069 0.729597 0.566624
O O9 0.184044 0.779249 0.281079
O O10 0.100656 0.778559 0.217221
O O11 0.914586 0.756162 0.296512
O O12 0.036531 0.000000 0.271621
O O13 0.176829 0.201657 0.358929
O O14 0.309884 0.000000 0.301662
O O15 0.638273 0.500000 0.418784
O O16 0.002476 0.500000 0.872381
O O17 0.180462 0.719928 0.855148
O O18 0.929983 0.751894 0.855653
O O19 0.142050 0.000000 0.163848
#
# Coordination Sequence:
#
# PCOD8106879 Si02
#       7
#     8   8   8   8   8   8   8
#     4  10  21  37  57  81 109 142 181 225 273 326
#     4  11  23  39  60  85 114 148 186 229 276 327
#     4  10  21  37  57  83 113 145 184 228 274 325
#     4  10  21  38  59  82 111 147 185 227 274 324
#     4  10  22  39  58  83 114 147 185 228 274 326
#     4  10  21  37  57  81 109 143 183 225 271 326
#     4  10  21  37  57  81 111 146 183 226 274 324
#
# _framework density 19.139825999999999
#
# number of rings (size 3 to 8) (size 9 to 14) (size 15 to 20)
#    0.000    1.857    0.000    3.429    0.000    9.429 
#    0.000    0.000    0.000    0.000    0.000    0.000 
#    0.000    0.000    0.000    0.000    0.000    0.000 
#
# Total GULP energy -347352.461553 kJ/mol
# GULP energy per Si atom -12405.445055 kJ/mol
# Density = 1.909626 g / cm^3
# Si number density = 19.139826 Si / 1000 Ang^3
#
#
#
# Elastic Constant Matrix: (Units=GPa)
#
#
# Indices 1 2 3 4 5 6 
#
# 1 91.0033 34.4509 29.1080 0.0000 5.1377 0.0000
# 2 34.4509 47.3713 34.1435 0.0000 2.7705 0.0000
# 3 29.1080 34.1435 109.2623 0.0000 1.5545 0.0000
# 4 0.0000 0.0000 0.0000 31.6903 0.0000 1.6022
# 5 5.1377 2.7705 1.5545 0.0000 45.9312 0.0000
# 6 0.0000 0.0000 0.0000 1.6022 0.0000 41.2844
#
#
#
# Elastic Compliance Matrix: (Units=1/GPa)
#
#
# Indices 1 2 3 4 5 6 
#
# 1 0.015263 -0.010479 -0.000777 0.000000 -0.001049 0.000000
# 2 -0.010479 0.034526 -0.007988 0.000000 -0.000640 0.000000
# 3 -0.000777 -0.007988 0.011853 0.000000 0.000168 0.000000
# 4 0.000000 0.000000 0.000000 0.031617 0.000000 -0.001227
# 5 -0.001049 -0.000640 0.000168 0.000000 0.021922 0.000000
# 6 0.000000 0.000000 0.000000 -0.001227 0.000000 0.024270
#
#
# Mechanical properties :
#
#
# Convention : Reuss Voigt Hill
#
# Bulk Modulus (GPa) = 43.18874 49.22684 46.20779
# Shear Modulus (GPa) = 26.93126 33.77679 30.35403
#
# Velocity S-wave (km/s) = 3.75518 4.20544 3.98667
# Velocity P-wave (km/s) = 6.43550 7.02541 6.73691
#
# Compressibility (1/GPa) = 0.02315419
#
# Stress axis : x y z
#
# Youngs Moduli (GPa) = 65.51646 28.96374 84.36643
#
# Poissons Ratio (x) = 0.30352 0.06552
# Poissons Ratio (y) = 0.68656 0.67394
# Poissons Ratio (z) = 0.05088 0.23137
#
# Static dielectric constant tensor:
#      x y z
#    x 3.341350 0.000000 -0.184960 
#    y 0.000000 3.424990 0.000000 
#    z -0.184960 0.000000 3.519240 
# 
# 
# High freq. dielectric constant tensor:
#      x y z
#    x 1.759250 0.000000 -0.000270 
#    y 0.000000 1.737520 0.000000 
#    z -0.000270 0.000000 1.765280 
# 
# From -- ./inp_files/373579.got.cif
#   From: 2010.06.25/outbox.cif.g09.slc.cpg/sg12_187_cif.got.tgz:373579.got - 2010.06.28 00:19:55.
