data_PCOD8106451
_publ_section_title
;
Structure prediction by ZEFSAII (Michael W. Deem and Ramdas Pophale) SiO2 
 PCOD8106451
Probable space group: C 2/M
;
_chemical_formula_sum "Si O2"
_cell_formula_units_Z 64
_cell_length_a 32.924207
_cell_length_b 18.216276
_cell_length_c 17.032524
_cell_angle_alpha 90.000000
_cell_angle_beta 162.348377
_cell_angle_gamma 90.000000
_cell_volume 3097.590968
_symmetry_space_group_name_H-M "C 2/M"
_symmetry_group_IT_number 12
_symmetry_cell_setting 'monoclinic'
loop_
_space_group_symop_operation_xyz
x,y,z
-x,y,-z
-x,-y,-z
x,-y,z
1/2+x,1/2+y,z
1/2-x,1/2+y,-z
1/2-x,1/2-y,-z
1/2+x,1/2-y,z
loop_
_atom_site_type_symbol
_atom_site_label
_atom_site_fract_x
_atom_site_fract_y
_atom_site_fract_z
Si Si1 0.199500 0.412706 0.994341
Si Si2 0.091253 0.412829 0.485233
Si Si3 0.672153 0.819301 0.485007
Si Si4 0.718635 0.412758 0.024118
Si Si5 0.033450 0.214649 0.972464
Si Si6 0.926179 0.087315 0.527124
Si Si7 0.645847 0.083701 0.291708
Si Si8 0.605977 0.415962 0.355417
O O1 0.206851 0.500000 0.005675
O O2 0.223772 0.381205 0.951568
O O3 0.056345 0.387052 0.762071
O O4 0.312832 0.380336 0.260888
O O5 0.099380 0.500000 0.485475
O O6 0.131868 0.371436 0.481706
O O7 0.189358 0.386417 0.734928
O O8 0.551075 0.764346 0.243385
O O9 0.707213 0.869331 0.474804
O O10 0.808449 0.774030 0.753303
O O11 0.717156 0.500000 0.018263
O O12 0.569230 0.382041 0.762131
O O13 0.994828 0.129971 0.884734
O O14 0.000000 0.236401 0.000000
O O15 0.897402 0.114353 0.562192
O O16 0.923812 0.000000 0.519650
O O17 0.741289 0.091505 0.392239
O O18 0.633491 0.000000 0.297465
O O19 0.500000 0.114718 0.000000
O O20 0.555933 0.500000 0.258645
#
# Coordination Sequence:
#
# PCOD8106451 Si02
#       8
#     8   8   8   8   8   8   8   8
#     4   9  17  29  51  85 121 156 192 236 294 353
#     4  10  21  36  58  89 123 156 197 249 297 352
#     4  12  26  42  62  86 119 161 207 251 302 359
#     4   9  16  30  51  81 122 159 191 235 295 355
#     4  12  26  44  63  86 115 162 206 255 303 361
#     4   9  17  29  50  82 121 157 191 234 285 353
#     4  10  22  38  61  89 122 161 201 250 303 355
#     4  10  22  39  61  91 124 158 201 249 302 356
#
# _framework density 20.661217000000001
#
# number of rings (size 3 to 8) (size 9 to 14) (size 15 to 20)
#    0.000    1.875    1.250    2.625    3.500    5.250 
#    0.000    0.000    0.000    0.000    0.000   15.750 
#    0.000    0.000    0.000    0.000    0.000    0.000 
#
# Total GULP energy -396883.322149 kJ/mol
# GULP energy per Si atom -12402.603817 kJ/mol
# Density = 2.061419 g / cm^3
# Si number density = 20.661217 Si / 1000 Ang^3
#
#
#
# Elastic Constant Matrix: (Units=GPa)
#
#
# Indices 1 2 3 4 5 6 
#
# 1 148.1880 28.9917 62.9438 0.0000 7.7238 0.0000
# 2 28.9917 46.0617 33.0744 0.0000 -4.1033 0.0000
# 3 62.9438 33.0744 172.2431 0.0000 9.2633 0.0000
# 4 0.0000 0.0000 0.0000 24.1290 0.0000 -5.3131
# 5 7.7238 -4.1033 9.2633 0.0000 36.2891 0.0000
# 6 0.0000 0.0000 0.0000 -5.3131 0.0000 5.3450
#
#
#
# Elastic Compliance Matrix: (Units=1/GPa)
#
#
# Indices 1 2 3 4 5 6 
#
# 1 0.008573 -0.003898 -0.002294 0.000000 -0.001680 0.000000
# 2 -0.003898 0.027583 -0.004141 0.000000 0.005006 0.000000
# 3 -0.002294 -0.004141 0.007542 0.000000 -0.001905 0.000000
# 4 0.000000 0.000000 0.000000 0.053057 0.000000 0.052741
# 5 -0.001680 0.005006 -0.001905 0.000000 0.028966 0.000000
# 6 0.000000 0.000000 0.000000 0.052741 0.000000 0.239518
#
#
# Mechanical properties :
#
#
# Convention : Reuss Voigt Hill
#
# Bulk Modulus (GPa) = 43.42011 68.50140 55.96076
# Shear Modulus (GPa) = 12.70380 29.25147 20.97764
#
# Velocity S-wave (km/s) = 2.48233 3.76675 3.18986
# Velocity P-wave (km/s) = 5.41081 7.22111 6.38049
#
# Compressibility (1/GPa) = 0.02303080
#
# Stress axis : x y z
#
# Youngs Moduli (GPa) = 116.64852 36.25402 132.59663
#
# Poissons Ratio (x) = 0.14133 0.30416
# Poissons Ratio (y) = 0.45473 0.54911
# Poissons Ratio (z) = 0.26758 0.15013
#
# Static dielectric constant tensor:
#      x y z
#    x 3.843320 0.000000 -0.008650 
#    y 0.000000 3.346250 0.000000 
#    z -0.008650 0.000000 3.936750 
# 
# 
# High freq. dielectric constant tensor:
#      x y z
#    x 1.816870 0.000000 0.002210 
#    y 0.000000 1.764430 0.000000 
#    z 0.002210 0.000000 1.821970 
# 
# From -- ./inp_files/251930.got.cif
#   From: 2010.06.25/outbox.cif.g09.slc.cpg/sg12_126_cif.got.tgz:251930.got - 2010.06.28 00:19:55.
