data_PCOD8106372
_publ_section_title
;
Structure prediction by ZEFSAII (Michael W. Deem and Ramdas Pophale) SiO2 
 PCOD8106372
Probable space group: C 2/M
;
_chemical_formula_sum "Si O2"
_cell_formula_units_Z 52
_cell_length_a 14.391671
_cell_length_b 13.458459
_cell_length_c 20.382475
_cell_angle_alpha 90.000000
_cell_angle_beta 40.069369
_cell_angle_gamma 90.000000
_cell_volume 2541.305269
_symmetry_space_group_name_H-M "C 2/M"
_symmetry_group_IT_number 12
_symmetry_cell_setting 'monoclinic'
loop_
_space_group_symop_operation_xyz
x,y,z
-x,y,-z
-x,-y,-z
x,-y,z
1/2+x,1/2+y,z
1/2-x,1/2+y,-z
1/2-x,1/2-y,-z
1/2+x,1/2-y,z
loop_
_atom_site_type_symbol
_atom_site_label
_atom_site_fract_x
_atom_site_fract_y
_atom_site_fract_z
Si Si1 0.874938 0.809602 0.618244
Si Si2 0.280118 0.500000 0.905815
Si Si3 0.593917 0.886299 0.312690
Si Si4 0.609870 0.301498 0.103910
Si Si5 0.413366 0.389343 0.112613
Si Si6 0.318153 0.500000 0.733688
Si Si7 0.940489 0.335730 0.269713
Si Si8 0.501779 0.000000 0.134709
O O1 0.906720 0.699674 0.631336
O O2 0.726206 0.814031 0.656914
O O3 0.000000 0.833655 0.500000
O O4 0.882585 0.898480 0.667630
O O5 0.347770 0.411818 0.907972
O O6 0.337285 0.500000 0.800992
O O7 0.109299 0.500000 0.014314
O O8 0.743366 0.871896 0.192255
O O9 0.460196 0.874730 0.333636
O O10 0.583819 0.000000 0.347679
O O11 0.474794 0.302934 0.126306
O O12 0.543546 0.259964 0.207507
O O13 0.750000 0.250000 0.000000
O O14 0.436040 0.500000 0.129426
O O15 0.500000 0.376271 0.000000
O O16 0.149610 0.500000 0.817620
O O17 0.015518 0.405839 0.174892
#
# Coordination Sequence:
#
# PCOD8106372 Si02
#       8
#     8   4   8   8   8   4   8   4
#     4  11  25  47  73  96 130 173 230 289 348 392
#     4  12  23  37  59  94 134 174 220 262 323 394
#     4  11  23  42  70  99 132 174 223 278 334 403
#     4  12  22  35  58  90 132 176 217 261 322 393
#     4  10  21  36  57  88 132 175 220 263 322 398
#     4  10  24  44  64  97 129 173 224 281 331 399
#     4  11  22  42  66  98 131 176 219 269 328 400
#     4  10  21  39  62  92 134 173 212 257 317 397
#
# _framework density 20.461925999999998
#
# number of rings (size 3 to 8) (size 9 to 14) (size 15 to 20)
#    0.000    1.077    4.615    2.308    0.000    0.923 
#    0.000    0.000    0.000    0.000    0.000    0.000 
#    0.000    0.000    0.000    0.000    0.000    0.000 
#
# Total GULP energy -322114.607135 kJ/mol
# GULP energy per Si atom -12389.023351 kJ/mol
# Density = 2.041535 g / cm^3
# Si number density = 20.461926 Si / 1000 Ang^3
#
#
#
# Elastic Constant Matrix: (Units=GPa)
#
#
# Indices 1 2 3 4 5 6 
#
# 1 105.4096 39.1445 32.3268 0.0003 -0.7531 0.0003
# 2 39.1445 124.9216 36.7208 0.0002 -1.6794 0.0002
# 3 32.3268 36.7208 110.9346 0.0004 -11.6971 0.0006
# 4 0.0003 0.0002 0.0004-1658.4445 0.0003-1225.5607
# 5 -0.7531 -1.6794 -11.6971 0.0003 18.1072 0.0000
# 6 0.0003 0.0002 0.0006-1225.5607 0.0000 -870.5612
#
#
#
# Elastic Compliance Matrix: (Units=1/GPa)
#
#
# Indices 1 2 3 4 5 6 
#
# 1 0.011293 -0.002821 -0.002506 0.000000 -0.001411 0.000000
# 2 -0.002821 0.009595 -0.002439 0.000000 -0.000803 0.000000
# 3 -0.002506 -0.002439 0.011286 0.000000 0.006960 0.000000
# 4 0.000000 0.000000 0.000000 0.014953 0.000000 -0.021050
# 5 -0.001411 -0.000803 0.006960 0.000000 0.059590 0.000000
# 6 0.000000 0.000000 0.000000 -0.021050 0.000000 0.028485
#
#
# Mechanical properties :
#
#
# Convention : Reuss Voigt Hill
#
# Bulk Modulus (GPa) = 60.08672 61.96112 61.02392
# Shear Modulus (GPa) = 31.99405 -486.64147 -227.32371
#
# Velocity S-wave (km/s) = 3.95851 -15.43840 -10.55164
# Velocity P-wave (km/s) = 7.09380 16.95421 10.88860
#
# Compressibility (1/GPa) = 0.01664261
#
# Stress axis : x y z
#
# Youngs Moduli (GPa) = 88.55214 104.22035 88.60846
#
# Poissons Ratio (x) = 0.29401 0.22203
# Poissons Ratio (y) = 0.24981 0.21609
# Poissons Ratio (z) = 0.22189 0.25416
#
# Static dielectric constant tensor:
#      x y z
#    x 3.649290 0.000000 -0.107240 
#    y 0.000000 4.293590 0.000000 
#    z -0.107240 0.000000 3.512760 
# 
# 
# High freq. dielectric constant tensor:
#      x y z
#    x 1.798770 0.000000 -0.010250 
#    y 0.000000 1.819100 0.000000 
#    z -0.010250 0.000000 1.779280 
# 
# From -- ./inp_files/270608.got.cif
#   From: 2010.06.25/outbox.cif.g09.slc.cpg/sg12_136_cif.got.tgz:270608.got - 2010.06.28 00:19:55.
