data_PCOD8106406
_publ_section_title
;
Structure prediction by ZEFSAII (Michael W. Deem and Ramdas Pophale) SiO2 
 PCOD8106406
Probable space group: C 2/M
;
_chemical_formula_sum "Si O2"
_cell_formula_units_Z 64
_cell_length_a 9.443010
_cell_length_b 27.269665
_cell_length_c 24.459282
_cell_angle_alpha 90.000000
_cell_angle_beta 150.432706
_cell_angle_gamma 90.000000
_cell_volume 3107.943460
_symmetry_space_group_name_H-M "C 2/M"
_symmetry_group_IT_number 12
_symmetry_cell_setting 'monoclinic'
loop_
_space_group_symop_operation_xyz
x,y,z
-x,y,-z
-x,-y,-z
x,-y,z
1/2+x,1/2+y,z
1/2-x,1/2+y,-z
1/2-x,1/2-y,-z
1/2+x,1/2-y,z
loop_
_atom_site_type_symbol
_atom_site_label
_atom_site_fract_x
_atom_site_fract_y
_atom_site_fract_z
Si Si1 0.409806 0.808050 0.362316
Si Si2 0.687467 0.945605 0.014998
Si Si3 0.830981 0.096216 0.888010
Si Si4 0.033787 0.278686 0.074496
Si Si5 0.373892 0.807846 0.226673
Si Si6 0.484243 0.697538 0.403331
Si Si7 0.582571 0.346413 0.732962
Si Si8 0.838634 0.554909 0.786603
O O1 0.280971 0.805086 0.258331
O O2 0.446719 0.755317 0.403750
O O3 0.738692 0.827950 0.475373
O O4 0.193381 0.844227 0.320615
O O5 0.001958 0.922993 0.109684
O O6 0.747874 0.000000 0.057195
O O7 0.500000 0.918402 0.000000
O O8 0.523813 0.945667 0.903278
O O9 0.807208 0.153772 0.869213
O O10 0.527752 0.068542 0.796268
O O11 0.000000 0.087259 0.000000
O O12 0.313564 0.244177 0.176934
O O13 0.117930 0.328318 0.136668
O O14 0.000000 0.292971 0.000000
O O15 0.750000 0.250000 0.000000
O O16 0.701260 0.826261 0.334213
O O17 0.486223 0.690561 0.339084
O O18 0.605381 0.402031 0.717767
O O19 0.704805 0.500000 0.732778
#
# Coordination Sequence:
#
# PCOD8106406 Si02
#       8
#     8   8   8   8   8   8   8   8
#     4  11  23  38  64  90 121 151 202 260 311 353
#     4   9  19  35  56  84 115 150 203 258 300 343
#     4  10  21  36  58  85 121 165 200 242 296 367
#     4  12  25  37  55  87 133 170 194 229 293 372
#     4  12  22  38  57  91 122 162 202 241 295 378
#     4  11  21  42  62  87 119 160 199 255 305 366
#     4  12  23  40  60  91 123 163 211 247 307 371
#     4  10  22  39  60  83 117 164 213 258 299 361
#
# _framework density 20.592396000000001
#
# number of rings (size 3 to 8) (size 9 to 14) (size 15 to 20)
#    0.000    1.125    3.750    3.000    5.250    4.000 
#    0.000    0.000    0.000    1.500    0.000    0.875 
#    0.000    0.000    0.000    0.000    0.000    0.000 
#
# Total GULP energy -396571.008021 kJ/mol
# GULP energy per Si atom -12392.844001 kJ/mol
# Density = 2.054553 g / cm^3
# Si number density = 20.592396 Si / 1000 Ang^3
#
#
#
# Elastic Constant Matrix: (Units=GPa)
#
#
# Indices 1 2 3 4 5 6 
#
# 1 115.8366 31.2499 19.8483 0.0005 10.2401 0.0014
# 2 31.2499 95.4116 18.9056 -0.0003 9.9950 0.0004
# 3 19.8483 18.9056 66.1607 0.0069 9.8531 0.0034
# 4 0.0005 -0.0003 0.0069 16.0654 0.0017 3.4978
# 5 10.2401 9.9950 9.8531 0.0017 36.7595 0.0013
# 6 0.0014 0.0004 0.0034 3.4978 0.0013 26.9305
#
#
#
# Elastic Compliance Matrix: (Units=1/GPa)
#
#
# Indices 1 2 3 4 5 6 
#
# 1 0.009821 -0.002673 -0.001962 0.000001 -0.001483 0.000000
# 2 -0.002673 0.012020 -0.002351 0.000001 -0.001894 0.000000
# 3 -0.001962 -0.002351 0.016872 -0.000007 -0.003337 -0.000001
# 4 0.000001 0.000001 -0.000007 0.064057 -0.000002 -0.008320
# 5 -0.001483 -0.001894 -0.003337 -0.000002 0.029026 -0.000001
# 6 0.000000 0.000000 -0.000001 -0.008320 -0.000001 0.038213
#
#
# Mechanical properties :
#
#
# Convention : Reuss Voigt Hill
#
# Bulk Modulus (GPa) = 40.41584 46.37962 43.39773
# Shear Modulus (GPa) = 26.01072 29.77808 27.89440
#
# Velocity S-wave (km/s) = 3.55790 3.80685 3.68448
# Velocity P-wave (km/s) = 6.04544 6.47259 6.26266
#
# Compressibility (1/GPa) = 0.02474278
#
# Stress axis : x y z
#
# Youngs Moduli (GPa) = 101.82141 83.19126 59.26984
#
# Poissons Ratio (x) = 0.22233 0.11627
# Poissons Ratio (y) = 0.27213 0.13935
# Poissons Ratio (z) = 0.19975 0.19559
#
# Static dielectric constant tensor:
#      x y z
#    x 3.950320 0.000000 0.206380 
#    y 0.000000 3.741870 -0.000010 
#    z 0.206380 -0.000010 3.814380 
# 
# 
# High freq. dielectric constant tensor:
#      x y z
#    x 1.821520 0.000000 0.010460 
#    y 0.000000 1.779110 0.000000 
#    z 0.010460 0.000000 1.779440 
# 
# From -- ./inp_files/334331.got.cif
#   From: 2010.06.25/outbox.cif.g09.slc.cpg/sg12_168_cif.got.tgz:334331.got - 2010.06.28 00:19:55.
