data_PCOD8106680
_publ_section_title
;
Structure prediction by ZEFSAII (Michael W. Deem and Ramdas Pophale) SiO2 
 PCOD8106680
Probable space group: C 2/M
;
_chemical_formula_sum "Si O2"
_cell_formula_units_Z 64
_cell_length_a 13.173574
_cell_length_b 13.078205
_cell_length_c 24.085660
_cell_angle_alpha 90.000000
_cell_angle_beta 59.871711
_cell_angle_gamma 90.000000
_cell_volume 3589.038053
_symmetry_space_group_name_H-M "C 2/M"
_symmetry_group_IT_number 12
_symmetry_cell_setting 'monoclinic'
loop_
_space_group_symop_operation_xyz
x,y,z
-x,y,-z
-x,-y,-z
x,-y,z
1/2+x,1/2+y,z
1/2-x,1/2+y,-z
1/2-x,1/2-y,-z
1/2+x,1/2-y,z
loop_
_atom_site_type_symbol
_atom_site_label
_atom_site_fract_x
_atom_site_fract_y
_atom_site_fract_z
Si Si1 0.943490 0.249177 0.272765
Si Si2 0.805213 0.618207 0.937340
Si Si3 0.372004 0.388777 0.510256
Si Si4 0.663440 0.117635 0.198301
Si Si5 0.064411 0.790551 0.039043
Si Si6 0.029234 0.878238 0.627449
Si Si7 0.413430 0.382469 0.175592
Si Si8 0.279119 0.621765 0.647877
O O1 0.925607 0.173262 0.329022
O O2 0.963193 0.184541 0.211904
O O3 0.831610 0.322080 0.295053
O O4 0.057843 0.316873 0.252131
O O5 0.836299 0.500000 0.937528
O O6 0.805587 0.649698 0.872880
O O7 0.904642 0.682757 0.941260
O O8 0.678625 0.640781 0.997807
O O9 0.500000 0.405135 0.500000
O O10 0.315755 0.500000 0.514459
O O11 0.388103 0.333761 0.445840
O O12 0.294308 0.335407 0.579908
O O13 0.775498 0.138496 0.206039
O O14 0.625156 0.000000 0.211030
O O15 0.978980 0.856077 0.100874
O O16 0.000000 0.763801 0.000000
O O17 0.893215 0.850965 0.653235
O O18 0.044491 0.000000 0.627839
O O19 0.437391 0.500000 0.183471
O O20 0.258647 0.500000 0.653231
#
# Coordination Sequence:
#
# PCOD8106680 Si02
#       8
#     8   8   8   8   8   8   8   8
#     4  12  21  33  51  77 107 137 170 211 258 305
#     4  10  21  37  57  82 106 129 165 214 261 303
#     4   7  12  27  50  73  98 130 169 213 252 293
#     4  10  21  37  54  73 103 138 172 208 252 306
#     4  11  21  37  61  81 101 132 174 215 254 305
#     4   9  18  33  52  74 103 137 170 211 260 301
#     4  11  23  37  53  77 104 136 175 212 254 303
#     4   9  18  33  53  76 102 134 175 212 250 305
#
# _framework density 17.832076000000001
#
# number of rings (size 3 to 8) (size 9 to 14) (size 15 to 20)
#    0.000    2.125    2.500    3.375    0.000    1.250 
#    0.000    0.000    0.000    0.750    0.000    0.000 
#    0.000   16.000    0.000    0.000    0.000    0.000 
#
# Total GULP energy -396673.459979 kJ/mol
# GULP energy per Si atom -12396.045624 kJ/mol
# Density = 1.779149 g / cm^3
# Si number density = 17.832076 Si / 1000 Ang^3
#
#
#
# Elastic Constant Matrix: (Units=GPa)
#
#
# Indices 1 2 3 4 5 6 
#
# 1 54.3339 27.5115 8.4207 0.0000 4.3730 0.0000
# 2 27.5115 57.2824 23.0827 0.0000 -1.4705 0.0000
# 3 8.4207 23.0827 64.0838 0.0000 10.2457 0.0000
# 4 0.0000 0.0000 0.0000 19.1041 0.0000 1.8571
# 5 4.3730 -1.4705 10.2457 0.0000 29.9426 0.0000
# 6 0.0000 0.0000 0.0000 1.8571 0.0000 15.4367
#
#
#
# Elastic Compliance Matrix: (Units=1/GPa)
#
#
# Indices 1 2 3 4 5 6 
#
# 1 0.025089 -0.013075 0.002223 0.000000 -0.005067 0.000000
# 2 -0.013075 0.027636 -0.009265 0.000000 0.006437 0.000000
# 3 0.002223 -0.009265 0.019861 0.000000 -0.007576 0.000000
# 4 0.000000 0.000000 0.000000 0.052964 0.000000 -0.006372
# 5 -0.005067 0.006437 -0.007576 0.000000 0.037046 0.000000
# 6 0.000000 0.000000 0.000000 -0.006372 0.000000 0.065547
#
#
# Mechanical properties :
#
#
# Convention : Reuss Voigt Hill
#
# Bulk Modulus (GPa) = 30.91168 32.63665 31.77417
# Shear Modulus (GPa) = 17.91076 20.67570 19.29323
#
# Velocity S-wave (km/s) = 3.17269 3.40879 3.29285
# Velocity P-wave (km/s) = 5.54921 5.81679 5.68458
#
# Compressibility (1/GPa) = 0.03235023
#
# Stress axis : x y z
#
# Youngs Moduli (GPa) = 39.85867 36.18452 50.34990
#
# Poissons Ratio (x) = 0.47313 -0.11194
# Poissons Ratio (y) = 0.52117 0.46652
# Poissons Ratio (z) = -0.08861 0.33527
#
# Static dielectric constant tensor:
#      x y z
#    x 3.121090 0.000000 0.002610 
#    y 0.000000 3.101740 0.000000 
#    z 0.002610 0.000000 3.472960 
# 
# 
# High freq. dielectric constant tensor:
#      x y z
#    x 1.677400 0.000000 0.000410 
#    y 0.000000 1.676100 0.000000 
#    z 0.000410 0.000000 1.703020 
# 
# From -- ./inp_files/335190.got.cif
#   From: 2010.06.25/outbox.cif.g09.slc.cpg/sg12_168_cif.got.tgz:335190.got - 2010.06.28 00:19:55.
