data_PCOD8106401
_publ_section_title
;
Structure prediction by ZEFSAII (Michael W. Deem and Ramdas Pophale) SiO2 
 PCOD8106401
Probable space group: C 2/M
;
_chemical_formula_sum "Si O2"
_cell_formula_units_Z 40
_cell_length_a 28.279151
_cell_length_b 14.789024
_cell_length_c 9.011590
_cell_angle_alpha 90.000000
_cell_angle_beta 149.446928
_cell_angle_gamma 90.000000
_cell_volume 1915.836270
_symmetry_space_group_name_H-M "C 2/M"
_symmetry_group_IT_number 12
_symmetry_cell_setting 'monoclinic'
loop_
_space_group_symop_operation_xyz
x,y,z
-x,y,-z
-x,-y,-z
x,-y,z
1/2+x,1/2+y,z
1/2-x,1/2+y,-z
1/2-x,1/2-y,-z
1/2+x,1/2-y,z
loop_
_atom_site_type_symbol
_atom_site_label
_atom_site_fract_x
_atom_site_fract_y
_atom_site_fract_z
Si Si1 0.912301 0.794267 0.189793
Si Si2 0.061178 0.682683 0.032739
Si Si3 0.782289 0.606537 0.362654
Si Si4 0.319176 0.170457 0.155193
Si Si5 0.840751 0.500000 0.074368
Si Si6 0.986317 0.500000 0.233330
O O1 0.902943 0.711806 0.284554
O O2 0.000000 0.848507 0.500000
O O3 0.934098 0.754729 0.086814
O O4 0.823375 0.859187 0.941450
O O5 0.167162 0.659986 0.368158
O O6 0.007424 0.590330 0.846992
O O7 0.000000 0.727225 0.000000
O O8 0.781418 0.500000 0.392124
O O9 0.843529 0.626830 0.380193
O O10 0.278573 0.089048 0.941654
O O11 0.250000 0.250000 0.000000
O O12 0.881792 0.500000 0.021132
O O13 0.930585 0.500000 0.425211
#
# Coordination Sequence:
#
# PCOD8106401 Si02
#       6
#     8   8   8   8   4   4
#     4  11  23  41  61  84 118 160 200 239 287 351
#     4  12  23  37  59  90 121 149 189 243 301 354
#     4  11  23  39  60  89 120 152 196 245 293 347
#     4  10  21  36  58  85 116 152 194 239 288 350
#     4  11  18  34  56  86 118 151 188 235 295 353
#     4  11  21  30  58  86 118 145 181 239 298 359
#
# _framework density 20.878610999999999
#
# number of rings (size 3 to 8) (size 9 to 14) (size 15 to 20)
#    0.000    1.000    4.000    4.500    0.000    0.400 
#    0.000    0.000    0.000    0.600    0.000    0.000 
#    0.000    0.000    0.000    0.000    0.000    0.000 
#
# Total GULP energy -247770.304833 kJ/mol
# GULP energy per Si atom -12388.515242 kJ/mol
# Density = 2.083109 g / cm^3
# Si number density = 20.878611 Si / 1000 Ang^3
#
#
#
# Elastic Constant Matrix: (Units=GPa)
#
#
# Indices 1 2 3 4 5 6 
#
# 1 133.3954 34.4357 32.6151 0.0000 -7.5848 0.0000
# 2 34.4357 75.4748 24.6110 0.0000 7.6851 0.0000
# 3 32.6151 24.6110 129.3071 0.0000 5.3322 0.0000
# 4 0.0000 0.0000 0.0000 21.4776 0.0000 1.5227
# 5 -7.5848 7.6851 5.3322 0.0000 23.6413 0.0000
# 6 0.0000 0.0000 0.0000 1.5227 0.0000 23.9042
#
#
#
# Elastic Compliance Matrix: (Units=1/GPa)
#
#
# Indices 1 2 3 4 5 6 
#
# 1 0.009258 -0.004135 -0.001742 0.000000 0.004707 0.000000
# 2 -0.004135 0.016363 -0.001814 0.000000 -0.006236 0.000000
# 3 -0.001742 -0.001814 0.008597 0.000000 -0.001908 0.000000
# 4 0.000000 0.000000 0.000000 0.046771 0.000000 -0.002979
# 5 0.004707 -0.006236 -0.001908 0.000000 0.046267 0.000000
# 6 0.000000 0.000000 0.000000 -0.002979 0.000000 0.042023
#
#
# Mechanical properties :
#
#
# Convention : Reuss Voigt Hill
#
# Bulk Modulus (GPa) = 53.09397 57.94454 55.51926
# Shear Modulus (GPa) = 26.18632 30.23899 28.21265
#
# Velocity S-wave (km/s) = 3.54534 3.80981 3.67995
# Velocity P-wave (km/s) = 6.49956 6.86777 6.68620
#
# Compressibility (1/GPa) = 0.01883453
#
# Stress axis : x y z
#
# Youngs Moduli (GPa) = 108.01989 61.11476 116.32070
#
# Poissons Ratio (x) = 0.25271 0.20264
# Poissons Ratio (y) = 0.44666 0.21102
# Poissons Ratio (z) = 0.18818 0.11087
#
# Static dielectric constant tensor:
#      x y z
#    x 4.234810 0.000000 -0.210990 
#    y 0.000000 3.799350 0.000000 
#    z -0.210990 0.000000 3.630340 
# 
# 
# High freq. dielectric constant tensor:
#      x y z
#    x 1.837640 0.000000 -0.008130 
#    y 0.000000 1.799200 0.000000 
#    z -0.008130 0.000000 1.801250 
# 
# From -- ./inp_files/72888.got.cif
#   From: 2010.06.25/outbox.cif.g09.slc.cpg/sg12_37_cif.got.tgz:72888.got - 2010.06.28 00:19:55.
