data_PCOD8106390
_publ_section_title
;
Structure prediction by ZEFSAII (Michael W. Deem and Ramdas Pophale) SiO2 
 PCOD8106390
Probable space group: C 2/M
;
_chemical_formula_sum "Si O2"
_cell_formula_units_Z 64
_cell_length_a 14.260215
_cell_length_b 22.300150
_cell_length_c 16.434981
_cell_angle_alpha 90.000000
_cell_angle_beta 38.827641
_cell_angle_gamma 90.000000
_cell_volume 3276.849925
_symmetry_space_group_name_H-M "C 2/M"
_symmetry_group_IT_number 12
_symmetry_cell_setting 'monoclinic'
loop_
_space_group_symop_operation_xyz
x,y,z
-x,y,-z
-x,-y,-z
x,-y,z
1/2+x,1/2+y,z
1/2-x,1/2+y,-z
1/2-x,1/2-y,-z
1/2+x,1/2-y,z
loop_
_atom_site_type_symbol
_atom_site_label
_atom_site_fract_x
_atom_site_fract_y
_atom_site_fract_z
Si Si1 0.114216 0.726583 0.994705
Si Si2 0.433040 0.067932 0.129490
Si Si3 0.797263 0.432247 0.929642
Si Si4 0.623585 0.374331 0.351191
Si Si5 0.167342 0.321203 0.199246
Si Si6 0.343597 0.761551 0.632806
Si Si7 0.444090 0.250054 0.264636
Si Si8 0.372205 0.363841 0.827989
O O1 0.014763 0.715332 0.140548
O O2 0.220692 0.784678 0.936396
O O3 0.215531 0.668531 0.912465
O O4 0.000000 0.737992 0.000000
O O5 0.553160 0.071236 0.119287
O O6 0.288062 0.102049 0.262117
O O7 0.384536 0.000000 0.143026
O O8 0.500000 0.096026 0.000000
O O9 0.766363 0.500000 0.920465
O O10 0.819516 0.390830 0.834143
O O11 0.656396 0.411454 0.080390
O O12 0.500000 0.397351 0.500000
O O13 0.625884 0.302279 0.346121
O O14 0.579601 0.396397 0.289372
O O15 0.220991 0.307919 0.255635
O O16 0.999195 0.292041 0.302562
O O17 0.500000 0.790082 0.500000
O O18 0.234353 0.753505 0.628605
O O19 0.498289 0.318366 0.233616
#
# Coordination Sequence:
#
# PCOD8106390 Si02
#       8
#     8   8   8   8   8   8   8   8
#     4  11  18  29  57  87 110 147 179 227 286 352
#     4  10  21  36  58  83 112 159 201 237 285 337
#     4  11  22  35  57  86 115 142 192 250 289 337
#     4  11  22  36  53  85 125 156 194 229 280 359
#     4  11  20  36  56  85 112 150 185 229 297 337
#     4  11  24  38  55  84 118 156 191 230 291 349
#     4  11  19  35  57  83 115 148 188 240 276 359
#     4  11  20  33  55  85 117 151 187 226 298 338
#
# _framework density 19.530951999999999
#
# number of rings (size 3 to 8) (size 9 to 14) (size 15 to 20)
#    0.000    1.125    7.500    1.500    1.750    0.750 
#    2.250    0.000    0.000    3.750    0.000    0.000 
#    0.000    0.000    0.000    0.000    0.000    0.000 
#
# Total GULP energy -396682.775839 kJ/mol
# GULP energy per Si atom -12396.336745 kJ/mol
# Density = 1.948650 g / cm^3
# Si number density = 19.530952 Si / 1000 Ang^3
#
#
#
# Elastic Constant Matrix: (Units=GPa)
#
#
# Indices 1 2 3 4 5 6 
#
# 1 62.4094 12.9366 6.0717 -0.0066 -10.1980 0.0033
# 2 12.9366 94.2227 25.8560 -0.0033 -1.8357 0.0021
# 3 6.0717 25.8560 84.3155 -0.0065 -11.9037 0.0022
# 4 -0.0066 -0.0033 -0.0065 16.3307 0.0056 1.5160
# 5 -10.1980 -1.8357 -11.9037 0.0056 24.6452 -0.0024
# 6 0.0033 0.0021 0.0022 1.5160 -0.0024 20.5217
#
#
#
# Elastic Compliance Matrix: (Units=1/GPa)
#
#
# Indices 1 2 3 4 5 6 
#
# 1 0.017682 -0.002425 0.000513 0.000005 0.007384 -0.000002
# 2 -0.002425 0.011940 -0.003759 0.000001 -0.001930 -0.000001
# 3 0.000513 -0.003759 0.013915 0.000003 0.006653 -0.000001
# 4 0.000005 0.000001 0.000003 0.061657 -0.000011 -0.004555
# 5 0.007384 -0.001930 0.006653 -0.000011 0.046701 0.000005
# 6 -0.000002 -0.000001 -0.000001 -0.004555 0.000005 0.049065
#
#
# Mechanical properties :
#
#
# Convention : Reuss Voigt Hill
#
# Bulk Modulus (GPa) = 31.06036 36.74180 33.90108
# Shear Modulus (GPa) = 22.41792 25.37175 23.89484
#
# Velocity S-wave (km/s) = 3.39162 3.60815 3.50156
# Velocity P-wave (km/s) = 5.59241 6.01758 5.80889
#
# Compressibility (1/GPa) = 0.03219538
#
# Stress axis : x y z
#
# Youngs Moduli (GPa) = 56.55313 83.75165 71.86257
#
# Poissons Ratio (x) = 0.20306 -0.03684
# Poissons Ratio (y) = 0.13712 0.27016
# Poissons Ratio (z) = -0.02899 0.31485
#
# Static dielectric constant tensor:
#      x y z
#    x 3.691980 -0.000010 0.027320 
#    y -0.000010 3.464870 0.000010 
#    z 0.027320 0.000010 3.621950 
# 
# 
# High freq. dielectric constant tensor:
#      x y z
#    x 1.754380 0.000000 0.001040 
#    y 0.000000 1.729650 0.000000 
#    z 0.001040 0.000000 1.746860 
# 
# From -- ./inp_files/218487.got.cif
#   From: 2010.06.25/outbox.cif.g09.slc.cpg/sg12_110_cif.got.tgz:218487.got - 2010.06.28 00:19:55.
