data_PCOD8106318
_publ_section_title
;
Structure prediction by ZEFSAII (Michael W. Deem and Ramdas Pophale) SiO2 
 PCOD8106318
Probable space group: C 2/M
;
_chemical_formula_sum "Si O2"
_cell_formula_units_Z 48
_cell_length_a 19.637027
_cell_length_b 9.091623
_cell_length_c 30.509613
_cell_angle_alpha 90.000000
_cell_angle_beta 28.210694
_cell_angle_gamma 90.000000
_cell_volume 2574.859083
_symmetry_space_group_name_H-M "C 2/M"
_symmetry_group_IT_number 12
_symmetry_cell_setting 'monoclinic'
loop_
_space_group_symop_operation_xyz
x,y,z
-x,y,-z
-x,-y,-z
x,-y,z
1/2+x,1/2+y,z
1/2-x,1/2+y,-z
1/2-x,1/2-y,-z
1/2+x,1/2-y,z
loop_
_atom_site_type_symbol
_atom_site_label
_atom_site_fract_x
_atom_site_fract_y
_atom_site_fract_z
Si Si1 0.462565 0.172836 0.396177
Si Si2 0.719660 0.325896 0.763918
Si Si3 0.035067 0.830276 0.030525
Si Si4 0.218110 0.672453 0.585169
Si Si5 0.280119 0.328906 0.937583
Si Si6 0.610664 0.329309 0.731667
O O1 0.625121 0.233624 0.308523
O O2 0.367335 0.253564 0.486513
O O3 0.406568 0.210943 0.379260
O O4 0.453559 0.000000 0.410904
O O5 0.717459 0.500000 0.768717
O O6 0.596123 0.264382 0.866255
O O7 0.687731 0.275659 0.732502
O O8 0.064297 0.000000 0.026403
O O9 0.000000 0.811505 0.000000
O O10 0.177970 0.737250 0.958268
O O11 0.243793 0.500000 0.573942
O O12 0.173528 0.732580 0.657305
O O13 0.248889 0.500000 0.961564
O O14 0.441856 0.299269 0.830820
O O15 0.250000 0.250000 0.000000
O O16 0.643222 0.500000 0.703939
#
# Coordination Sequence:
#
# PCOD8106318 Si02
#       6
#     8   8   8   8   8   8
#     4   9  19  37  60  80 107 146 185 226 274 331
#     4   9  18  36  57  81 109 145 191 228 268 328
#     4  10  21  37  60  86 116 152 193 237 279 334
#     4  10  21  36  57  85 112 139 181 231 280 334
#     4  11  22  38  59  83 117 154 191 235 283 338
#     4  10  21  37  57  80 111 148 186 227 275 335
#
# _framework density 18.641797
#
# number of rings (size 3 to 8) (size 9 to 14) (size 15 to 20)
#    0.000    2.167    1.667    1.000    2.333    3.000 
#    0.000    5.000    0.000    0.000    0.000    0.000 
#    0.000    0.000    0.000    0.000    0.000    0.000 
#
# Total GULP energy -297666.798027 kJ/mol
# GULP energy per Si atom -12402.783251 kJ/mol
# Density = 1.859937 g / cm^3
# Si number density = 18.641797 Si / 1000 Ang^3
#
#
#
# Elastic Constant Matrix: (Units=GPa)
#
#
# Indices 1 2 3 4 5 6 
#
# 1 103.1019 30.9864 63.2622 -0.0035 -4.3325 0.0044
# 2 30.9864 47.3373 35.3600 -0.0062 1.1483 0.0100
# 3 63.2622 35.3600 99.4646 -0.0061 -3.8187 0.0021
# 4 -0.0035 -0.0062 -0.0061 30.0090 0.0001 1.4559
# 5 -4.3325 1.1483 -3.8187 0.0001 41.0944 -0.0046
# 6 0.0044 0.0100 0.0021 1.4559 -0.0046 30.1191
#
#
#
# Elastic Compliance Matrix: (Units=1/GPa)
#
#
# Indices 1 2 3 4 5 6 
#
# 1 0.016492 -0.004104 -0.008992 -0.000001 0.001018 0.000000
# 2 -0.004104 0.029912 -0.008101 0.000005 -0.002021 -0.000009
# 3 -0.008992 -0.008101 0.018692 0.000001 0.001015 0.000003
# 4 -0.000001 0.000005 0.000001 0.033402 0.000000 -0.001615
# 5 0.001018 -0.002021 0.001015 0.000000 0.024592 0.000004
# 6 0.000000 -0.000009 0.000003 -0.001615 0.000004 0.033280
#
#
# Mechanical properties :
#
#
# Convention : Reuss Voigt Hill
#
# Bulk Modulus (GPa) = 44.04782 56.56900 50.30841
# Shear Modulus (GPa) = 24.23298 28.26418 26.24858
#
# Velocity S-wave (km/s) = 3.60936 3.89803 3.75647
# Velocity P-wave (km/s) = 6.40701 7.11833 6.77202
#
# Compressibility (1/GPa) = 0.02270260
#
# Stress axis : x y z
#
# Youngs Moduli (GPa) = 60.63373 33.43167 53.49964
#
# Poissons Ratio (x) = 0.13720 0.48105
# Poissons Ratio (y) = 0.24883 0.43341
# Poissons Ratio (z) = 0.54520 0.27083
#
# Static dielectric constant tensor:
#      x y z
#    x 3.555620 -0.000010 -0.152440 
#    y -0.000010 3.355670 -0.000030 
#    z -0.152440 -0.000030 3.517380 
# 
# 
# High freq. dielectric constant tensor:
#      x y z
#    x 1.733230 0.000000 -0.002160 
#    y 0.000000 1.705730 0.000000 
#    z -0.002160 0.000000 1.731850 
# 
# From -- ./inp_files/244612.got.cif
#   From: 2010.06.25/outbox.cif.g09.slc.cpg/sg12_123_cif.got.tgz:244612.got - 2010.06.28 00:19:55.
