data_PCOD8106700
_publ_section_title
;
Structure prediction by ZEFSAII (Michael W. Deem and Ramdas Pophale) SiO2 
 PCOD8106700
Probable space group: C 2/M
;
_chemical_formula_sum "Si O2"
_cell_formula_units_Z 56
_cell_length_a 14.338720
_cell_length_b 8.469046
_cell_length_c 24.533045
_cell_angle_alpha 90.000000
_cell_angle_beta 106.184812
_cell_angle_gamma 90.000000
_cell_volume 2861.105250
_symmetry_space_group_name_H-M "C 2/M"
_symmetry_group_IT_number 12
_symmetry_cell_setting 'monoclinic'
loop_
_space_group_symop_operation_xyz
x,y,z
-x,y,-z
-x,-y,-z
x,-y,z
1/2+x,1/2+y,z
1/2-x,1/2+y,-z
1/2-x,1/2-y,-z
1/2+x,1/2-y,z
loop_
_atom_site_type_symbol
_atom_site_label
_atom_site_fract_x
_atom_site_fract_y
_atom_site_fract_z
Si Si1 0.628011 0.683445 0.554023
Si Si2 0.126692 0.684576 0.240478
Si Si3 0.434341 0.185011 0.565613
Si Si4 0.226298 0.685492 0.144666
Si Si5 0.957468 0.186158 0.937220
Si Si6 0.943317 0.187437 0.157110
Si Si7 0.314819 0.682436 0.637007
O O1 0.599648 0.500000 0.550721
O O2 0.634142 0.742274 0.492694
O O3 0.546742 0.784465 0.571788
O O4 0.728766 0.709072 0.600573
O O5 0.134276 0.500000 0.254731
O O6 0.192620 0.734078 0.199675
O O7 0.167827 0.784086 0.297046
O O8 0.014759 0.730434 0.211998
O O9 0.410451 0.270353 0.618674
O O10 0.413857 0.000000 0.566846
O O11 0.222983 0.500000 0.136284
O O12 0.153243 0.758604 0.088545
O O13 0.334704 0.749381 0.151260
O O14 0.025567 0.242502 0.898391
O O15 0.957568 0.000000 0.940990
O O16 0.000000 0.259877 0.000000
O O17 0.951417 0.000000 0.165588
O O18 0.288767 0.500000 0.624657
#
# Coordination Sequence:
#
# PCOD8106700 Si02
#       7
#     8   8   8   8   8   8   8
#     4  11  22  39  60  85 115 148 184 226 276 333
#     4  10  21  37  54  77 105 135 178 229 274 322
#     4  11  22  39  60  85 114 146 184 228 277 332
#     4   9  19  35  55  76 103 140 179 219 266 319
#     4   9  18  32  51  78 111 142 176 219 264 315
#     4   9  18  35  55  75 104 143 180 217 269 326
#     4  12  24  39  58  82 111 147 186 228 280 334
#
# _framework density 19.572855000000001
#
# number of rings (size 3 to 8) (size 9 to 14) (size 15 to 20)
#    0.000    1.857    0.000    5.571    0.000    3.143 
#    0.000    4.286    0.000    0.000    0.000    0.000 
#    0.000    0.000    0.000    0.000    0.000    0.000 
#
# Total GULP energy -347311.751452 kJ/mol
# GULP energy per Si atom -12403.991123 kJ/mol
# Density = 1.952831 g / cm^3
# Si number density = 19.572855 Si / 1000 Ang^3
#
#
#
# Elastic Constant Matrix: (Units=GPa)
#
#
# Indices 1 2 3 4 5 6 
#
# 1 106.4298 20.0492 25.5476 0.0000 0.2170 0.0000
# 2 20.0492 61.1281 37.1690 0.0000 4.2379 0.0000
# 3 25.5476 37.1690 80.6260 0.0000 -10.1412 0.0000
# 4 0.0000 0.0000 0.0000 26.6684 0.0000 7.7260
# 5 0.2170 4.2379 -10.1412 0.0000 14.7831 0.0000
# 6 0.0000 0.0000 0.0000 7.7260 0.0000 27.1766
#
#
#
# Elastic Compliance Matrix: (Units=1/GPa)
#
#
# Indices 1 2 3 4 5 6 
#
# 1 0.010361 -0.001633 -0.002725 0.000000 -0.001553 0.000000
# 2 -0.001633 0.026496 -0.013844 0.000000 -0.017069 0.000000
# 3 -0.002725 -0.013844 0.022056 0.000000 0.019139 0.000000
# 4 0.000000 0.000000 0.000000 0.040863 0.000000 -0.011617
# 5 -0.001553 -0.017069 0.019139 0.000000 0.085690 0.000000
# 6 0.000000 0.000000 0.000000 -0.011617 0.000000 0.040099
#
#
# Mechanical properties :
#
#
# Convention : Reuss Voigt Hill
#
# Bulk Modulus (GPa) = 44.43023 45.96838 45.19931
# Shear Modulus (GPa) = 18.55465 24.75349 21.65407
#
# Velocity S-wave (km/s) = 3.08227 3.56010 3.32976
# Velocity P-wave (km/s) = 5.95116 6.35892 6.15842
#
# Compressibility (1/GPa) = 0.02250720
#
# Stress axis : x y z
#
# Youngs Moduli (GPa) = 96.51637 37.74124 45.33876
#
# Poissons Ratio (x) = 0.06165 0.12357
# Poissons Ratio (y) = 0.15765 0.62768
# Poissons Ratio (z) = 0.26305 0.52250
#
# Static dielectric constant tensor:
#      x y z
#    x 3.653930 0.000000 -0.069120 
#    y 0.000000 3.488480 0.000000 
#    z -0.069120 0.000000 3.644320 
# 
# 
# High freq. dielectric constant tensor:
#      x y z
#    x 1.765600 0.000000 0.000070 
#    y 0.000000 1.764400 0.000000 
#    z 0.000070 0.000000 1.760380 
# 
# From -- ./inp_files/338170.got.cif
#   From: 2010.06.25/outbox.cif.g09.slc.cpg/sg12_170_cif.got.tgz:338170.got - 2010.06.28 00:19:55.
