data_PCOD8106077
_publ_section_title
;
Structure prediction by ZEFSAII (Michael W. Deem and Ramdas Pophale) SiO2 
 PCOD8106077
Probable space group: C 2/M
;
_chemical_formula_sum "Si O2"
_cell_formula_units_Z 56
_cell_length_a 9.102362
_cell_length_b 12.735568
_cell_length_c 23.555638
_cell_angle_alpha 90.000000
_cell_angle_beta 112.527140
_cell_angle_gamma 90.000000
_cell_volume 2522.303670
_symmetry_space_group_name_H-M "C 2/M"
_symmetry_group_IT_number 12
_symmetry_cell_setting 'monoclinic'
loop_
_space_group_symop_operation_xyz
x,y,z
-x,y,-z
-x,-y,-z
x,-y,z
1/2+x,1/2+y,z
1/2-x,1/2+y,-z
1/2-x,1/2-y,-z
1/2+x,1/2-y,z
loop_
_atom_site_type_symbol
_atom_site_label
_atom_site_fract_x
_atom_site_fract_y
_atom_site_fract_z
Si Si1 0.575290 0.877857 0.072081
Si Si2 0.542531 0.883533 0.662475
Si Si3 0.746393 0.621466 0.685935
Si Si4 0.226559 0.198654 0.223270
Si Si5 0.107701 0.757794 0.861523
Si Si6 0.647779 0.881859 0.562186
Si Si7 0.538638 0.621479 0.443851
O O1 0.757175 0.836810 0.095622
O O2 0.465029 0.817094 0.100786
O O3 0.577318 0.000000 0.089057
O O4 0.500000 0.858359 0.000000
O O5 0.397607 0.829562 0.674421
O O6 0.699952 0.889281 0.724890
O O7 0.589696 0.821732 0.611255
O O8 0.484164 0.000000 0.637506
O O9 0.773803 0.500000 0.707295
O O10 0.731683 0.687532 0.741965
O O11 0.596329 0.634173 0.623010
O O12 0.312578 0.187495 0.175371
O O13 0.039267 0.177676 0.187535
O O14 0.500000 0.885626 0.500000
O O15 0.799877 0.825288 0.556442
O O16 0.700381 0.000000 0.587766
O O17 0.500000 0.675799 0.500000
O O18 0.574372 0.500000 0.462418
#
# Coordination Sequence:
#
# PCOD8106077 Si02
#       7
#     8   8   8   8   8   8   8
#     4  10  22  44  74 105 139 180 223 269 324 381
#     4  10  21  36  55  79 112 155 200 255 319 378
#     4  10  21  37  58  80 112 160 207 261 324 390
#     4  11  22  39  58  88 127 166 209 257 310 379
#     4  10  23  40  65  98 137 176 217 268 317 381
#     4   9  17  30  50  76 107 145 194 256 324 389
#     4   9  17  30  51  79 108 145 200 262 328 398
#
# _framework density 22.201924999999999
#
# number of rings (size 3 to 8) (size 9 to 14) (size 15 to 20)
#    0.000    2.143    1.429    1.286    2.000    6.857 
#    0.000    2.857    0.000   11.143    0.000    0.000 
#    0.000    0.000    0.000    0.000    0.000    0.000 
#
# Total GULP energy -347054.697522 kJ/mol
# GULP energy per Si atom -12394.810626 kJ/mol
# Density = 2.215139 g / cm^3
# Si number density = 22.201925 Si / 1000 Ang^3
#
#
#
# Elastic Constant Matrix: (Units=GPa)
#
#
# Indices 1 2 3 4 5 6 
#
# 1 169.7694 32.4049 62.2966 0.0000 5.0924 0.0000
# 2 32.4049 58.0559 13.6326 0.0000 -10.2933 0.0000
# 3 62.2966 13.6326 124.0506 0.0000 7.2513 0.0000
# 4 0.0000 0.0000 0.0000 20.9089 0.0000 5.0037
# 5 5.0924 -10.2933 7.2513 0.0000 42.7966 0.0000
# 6 0.0000 0.0000 0.0000 5.0037 0.0000 27.2142
#
#
#
# Elastic Compliance Matrix: (Units=1/GPa)
#
#
# Indices 1 2 3 4 5 6 
#
# 1 0.007943 -0.003840 -0.003492 0.000000 -0.001277 0.000000
# 2 -0.003840 0.020494 -0.000645 0.000000 0.005495 0.000000
# 3 -0.003492 -0.000645 0.009969 0.000000 -0.001429 0.000000
# 4 0.000000 0.000000 0.000000 0.050028 0.000000 -0.009198
# 5 -0.001277 0.005495 -0.001429 0.000000 0.025082 0.000000
# 6 0.000000 0.000000 0.000000 -0.009198 0.000000 0.038437
#
#
# Mechanical properties :
#
#
# Convention : Reuss Voigt Hill
#
# Bulk Modulus (GPa) = 44.53972 63.17158 53.85565
# Shear Modulus (GPa) = 28.50765 34.42006 31.46385
#
# Velocity S-wave (km/s) = 3.58721 3.94168 3.76861
# Velocity P-wave (km/s) = 6.10427 7.01646 6.57620
#
# Compressibility (1/GPa) = 0.02245187
#
# Stress axis : x y z
#
# Youngs Moduli (GPa) = 125.89569 48.79502 100.30687
#
# Poissons Ratio (x) = 0.18737 0.35030
# Poissons Ratio (y) = 0.48343 0.06470
# Poissons Ratio (z) = 0.43966 0.03148
#
# Static dielectric constant tensor:
#      x y z
#    x 4.332030 0.000000 -0.115820 
#    y 0.000000 4.007970 0.000000 
#    z -0.115820 0.000000 4.092160 
# 
# 
# High freq. dielectric constant tensor:
#      x y z
#    x 1.893660 0.000000 -0.001450 
#    y 0.000000 1.859820 0.000000 
#    z -0.001450 0.000000 1.873840 
# 
# From -- ./inp_files/332688.got.cif
#   From: 2010.06.25/outbox.cif.g09.slc.cpg/sg12_167_cif.got.tgz:332688.got - 2010.06.28 00:19:55.
