data_PCOD8106654
_publ_section_title
;
Structure prediction by ZEFSAII (Michael W. Deem and Ramdas Pophale) SiO2 
 PCOD8106654
Probable space group: C 2/M
;
_chemical_formula_sum "Si O2"
_cell_formula_units_Z 32
_cell_length_a 12.271228
_cell_length_b 23.140696
_cell_length_c 5.844613
_cell_angle_alpha 90.000000
_cell_angle_beta 118.885518
_cell_angle_gamma 90.000000
_cell_volume 1453.179742
_symmetry_space_group_name_H-M "C 2/M"
_symmetry_group_IT_number 12
_symmetry_cell_setting 'monoclinic'
loop_
_space_group_symop_operation_xyz
x,y,z
-x,y,-z
-x,-y,-z
x,-y,z
1/2+x,1/2+y,z
1/2-x,1/2+y,-z
1/2-x,1/2-y,-z
1/2+x,1/2-y,z
loop_
_atom_site_type_symbol
_atom_site_label
_atom_site_fract_x
_atom_site_fract_y
_atom_site_fract_z
Si Si1 0.639171 0.299184 0.638353
Si Si2 0.266994 0.102947 0.514462
Si Si3 0.000000 0.372021 0.000000
Si Si4 0.573211 0.500000 0.324773
Si Si5 0.332518 0.823850 0.200057
O O1 0.500000 0.323412 0.500000
O O2 0.711483 0.333956 0.516876
O O3 0.641339 0.229982 0.602539
O O4 0.701164 0.313281 0.944472
O O5 0.161401 0.055286 0.417273
O O6 0.320619 0.114213 0.315863
O O7 0.384341 0.087880 0.798453
O O8 0.049808 0.329839 0.850618
O O9 0.500000 0.500000 0.500000
O O10 0.500000 0.500000 0.000000
#
# Coordination Sequence:
#
# PCOD8106654 Si02
#       5
#     8   8   4   4   8
#     4  10  21  36  64  97 141 177 234 277 361 423
#     4  11  24  43  70  96 136 185 233 294 356 410
#     4  10  22  41  68  98 144 169 242 280 362 428
#     4  12  32  53  77 105 143 184 248 305 350 422
#     4  10  22  39  62 103 136 183 221 295 345 434
#
# _framework density 22.020674
#
# number of rings (size 3 to 8) (size 9 to 14) (size 15 to 20)
#    0.000    1.500    0.000    3.750   10.500    4.500 
#    0.000    2.500    0.000    0.000    0.000    0.000 
#    0.000    0.000    0.000    0.000    0.000    0.000 
#
# Total GULP energy -198224.094600 kJ/mol
# GULP energy per Si atom -12389.005913 kJ/mol
# Density = 2.197055 g / cm^3
# Si number density = 22.020674 Si / 1000 Ang^3
#
#
#
# Elastic Constant Matrix: (Units=GPa)
#
#
# Indices 1 2 3 4 5 6 
#
# 1 149.1254 64.1815 68.3959 0.0000 9.8784 0.0000
# 2 64.1815 111.3225 53.1293 0.0000 -9.1049 0.0000
# 3 68.3959 53.1293 108.3676 0.0000 14.5687 0.0000
# 4 0.0000 0.0000 0.0000 25.0938 0.0000 7.6264
# 5 9.8784 -9.1049 14.5687 0.0000 53.2499 0.0000
# 6 0.0000 0.0000 0.0000 7.6264 0.0000 38.7099
#
#
#
# Elastic Compliance Matrix: (Units=1/GPa)
#
#
# Indices 1 2 3 4 5 6 
#
# 1 0.010632 -0.004095 -0.004509 0.000000 -0.001439 0.000000
# 2 -0.004095 0.014058 -0.004913 0.000000 0.004508 0.000000
# 3 -0.004509 -0.004913 0.015036 0.000000 -0.004117 0.000000
# 4 0.000000 0.000000 0.000000 0.042388 0.000000 -0.008351
# 5 -0.001439 0.004508 -0.004117 0.000000 0.020943 0.000000
# 6 0.000000 0.000000 0.000000 -0.008351 0.000000 0.027478
#
#
# Mechanical properties :
#
#
# Convention : Reuss Voigt Hill
#
# Bulk Modulus (GPa) = 78.80038 82.24765 80.52401
# Shear Modulus (GPa) = 30.90226 35.61798 33.26012
#
# Velocity S-wave (km/s) = 3.75017 4.02615 3.89061
# Velocity P-wave (km/s) = 7.39013 7.68404 7.53852
#
# Compressibility (1/GPa) = 0.01269029
#
# Stress axis : x y z
#
# Youngs Moduli (GPa) = 94.05898 71.13613 66.50737
#
# Poissons Ratio (x) = 0.29133 0.29987
# Poissons Ratio (y) = 0.38520 0.32677
# Poissons Ratio (z) = 0.42410 0.34951
#
# Static dielectric constant tensor:
#      x y z
#    x 4.145040 0.000000 0.111520 
#    y 0.000000 3.644090 0.000000 
#    z 0.111520 0.000000 4.333860 
# 
# 
# High freq. dielectric constant tensor:
#      x y z
#    x 1.883870 0.000000 0.011330 
#    y 0.000000 1.831660 0.000000 
#    z 0.011330 0.000000 1.879030 
# 
# From -- ./inp_files/6540.got.cif
#   From: 2010.06.25/outbox.cif.g09.slc.cpg/sg12_4_cif.got.tgz:6540.got - 2010.06.28 00:19:55.
