data_PCOD8106281
_publ_section_title
;
Structure prediction by ZEFSAII (Michael W. Deem and Ramdas Pophale) SiO2 
 PCOD8106281
Probable space group: C 2/M
;
_chemical_formula_sum "Si O2"
_cell_formula_units_Z 56
_cell_length_a 24.644830
_cell_length_b 8.707924
_cell_length_c 18.133477
_cell_angle_alpha 90.000000
_cell_angle_beta 43.617035
_cell_angle_gamma 90.000000
_cell_volume 2684.520073
_symmetry_space_group_name_H-M "C 2/M"
_symmetry_group_IT_number 12
_symmetry_cell_setting 'monoclinic'
loop_
_space_group_symop_operation_xyz
x,y,z
-x,y,-z
-x,-y,-z
x,-y,z
1/2+x,1/2+y,z
1/2-x,1/2+y,-z
1/2-x,1/2-y,-z
1/2+x,1/2-y,z
loop_
_atom_site_type_symbol
_atom_site_label
_atom_site_fract_x
_atom_site_fract_y
_atom_site_fract_z
Si Si1 0.394060 0.181074 0.028615
Si Si2 0.544192 0.820449 0.624670
Si Si3 0.594540 0.320008 0.323368
Si Si4 0.973705 0.823746 0.199761
Si Si5 0.662913 0.675829 0.772212
Si Si6 0.331404 0.320704 0.593673
Si Si7 0.244569 0.819443 0.084933
O O1 0.395048 0.266368 0.106075
O O2 0.316396 0.240630 0.063305
O O3 0.392746 0.000000 0.044157
O O4 0.469548 0.222737 0.906522
O O5 0.482713 0.774895 0.621382
O O6 0.522216 0.732918 0.720762
O O7 0.630813 0.772023 0.511576
O O8 0.542130 0.000000 0.642553
O O9 0.575950 0.500000 0.334118
O O10 0.620451 0.278578 0.380304
O O11 0.663463 0.266335 0.201069
O O12 0.884904 0.806693 0.257029
O O13 0.001883 0.000000 0.169260
O O14 0.686974 0.500000 0.762605
O O15 0.740550 0.778403 0.692248
O O16 0.337022 0.500000 0.570861
O O17 0.249325 0.000000 0.073782
O O18 0.250000 0.750000 0.000000
#
# Coordination Sequence:
#
# PCOD8106281 Si02
#       7
#     8   8   8   8   8   8   8
#     4  11  22  40  64  94 128 165 211 259 313 375
#     4  12  26  42  63  95 128 164 211 263 318 375
#     4  10  21  41  64  89 125 167 209 253 309 377
#     4  11  25  44  64  91 127 170 214 260 316 374
#     4  11  24  42  66  95 127 165 213 263 313 373
#     4  11  23  43  69  94 124 167 212 258 316 377
#     4  10  21  36  56  88 125 163 204 248 303 366
#
# _framework density 20.860340000000001
#
# number of rings (size 3 to 8) (size 9 to 14) (size 15 to 20)
#    0.000    1.143    1.429    4.714    0.000   11.429 
#    0.000    0.000    0.000    0.000    0.000    0.000 
#    0.000    0.000    0.000    0.000    0.000    0.000 
#
# Total GULP energy -347381.535421 kJ/mol
# GULP energy per Si atom -12406.483408 kJ/mol
# Density = 2.081286 g / cm^3
# Si number density = 20.860340 Si / 1000 Ang^3
#
#
#
# Elastic Constant Matrix: (Units=GPa)
#
#
# Indices 1 2 3 4 5 6 
#
# 1 71.3822 28.4453 18.2796 0.0006 -7.7583 0.0018
# 2 28.4453 59.1198 9.7372 0.0035 -3.8466 -0.0008
# 3 18.2796 9.7372 100.6049 -0.0062 -7.7049 0.0032
# 4 0.0006 0.0035 -0.0062 38.9791 0.0037 -1.1763
# 5 -7.7583 -3.8466 -7.7049 0.0037 16.4947 -0.0014
# 6 0.0018 -0.0008 0.0032 -1.1763 -0.0014 31.8195
#
#
#
# Elastic Compliance Matrix: (Units=1/GPa)
#
#
# Indices 1 2 3 4 5 6 
#
# 1 0.018423 -0.008139 -0.002117 0.000000 0.005778 -0.000001
# 2 -0.008139 0.020965 -0.000486 -0.000002 0.000834 0.000001
# 3 -0.002117 -0.000486 0.010668 0.000001 0.003874 -0.000001
# 4 0.000000 -0.000002 0.000001 0.025683 -0.000006 0.000949
# 5 0.005778 0.000834 0.003874 -0.000006 0.065348 0.000002
# 6 -0.000001 0.000001 -0.000001 0.000949 0.000002 0.031462
#
#
# Mechanical properties :
#
#
# Convention : Reuss Voigt Hill
#
# Bulk Modulus (GPa) = 35.00086 38.22567 36.61327
# Shear Modulus (GPa) = 24.56289 29.10164 26.83227
#
# Velocity S-wave (km/s) = 3.43518 3.73912 3.59037
# Velocity P-wave (km/s) = 5.70518 6.08323 5.89723
#
# Compressibility (1/GPa) = 0.02857072
#
# Stress axis : x y z
#
# Youngs Moduli (GPa) = 54.28079 47.69766 93.73543
#
# Poissons Ratio (x) = 0.38823 0.19844
# Poissons Ratio (y) = 0.44181 0.04560
# Poissons Ratio (z) = 0.11491 0.02320
#
# Static dielectric constant tensor:
#      x y z
#    x 3.997330 0.000000 -0.054180 
#    y 0.000000 3.753820 0.000010 
#    z -0.054180 0.000010 3.821450 
# 
# 
# High freq. dielectric constant tensor:
#      x y z
#    x 1.823490 0.000000 -0.000890 
#    y 0.000000 1.817640 0.000000 
#    z -0.000890 0.000000 1.828120 
# 
# From -- ./inp_files/288236.got.cif
#   From: 2010.06.25/outbox.cif.g09.slc.cpg/sg12_145_cif.got.tgz:288236.got - 2010.06.28 00:19:55.
