data_PCOD8106355
_publ_section_title
;
Structure prediction by ZEFSAII (Michael W. Deem and Ramdas Pophale) SiO2 
 PCOD8106355
Probable space group: C 2/M
;
_chemical_formula_sum "Si O2"
_cell_formula_units_Z 56
_cell_length_a 18.497959
_cell_length_b 9.018136
_cell_length_c 18.354406
_cell_angle_alpha 90.000000
_cell_angle_beta 111.167070
_cell_angle_gamma 90.000000
_cell_volume 2855.251915
_symmetry_space_group_name_H-M "C 2/M"
_symmetry_group_IT_number 12
_symmetry_cell_setting 'monoclinic'
loop_
_space_group_symop_operation_xyz
x,y,z
-x,y,-z
-x,-y,-z
x,-y,z
1/2+x,1/2+y,z
1/2-x,1/2+y,-z
1/2-x,1/2-y,-z
1/2+x,1/2-y,z
loop_
_atom_site_type_symbol
_atom_site_label
_atom_site_fract_x
_atom_site_fract_y
_atom_site_fract_z
Si Si1 0.276646 0.173735 0.862803
Si Si2 0.615880 0.824891 0.843810
Si Si3 0.685711 0.169486 0.288529
Si Si4 0.715164 0.174315 0.557741
Si Si5 0.026339 0.670871 0.306980
Si Si6 0.432193 0.664170 0.531671
Si Si7 0.078255 0.323722 0.991479
O O1 0.197468 0.253265 0.854492
O O2 0.301536 0.212158 0.790103
O O3 0.345705 0.234706 0.938731
O O4 0.263897 0.000000 0.869408
O O5 0.552938 0.778101 0.760445
O O6 0.627316 0.000000 0.849711
O O7 0.584757 0.768589 0.910644
O O8 0.738913 0.278785 0.354109
O O9 0.595884 0.193847 0.275065
O O10 0.710510 0.000000 0.313604
O O11 0.750000 0.250000 0.500000
O O12 0.627166 0.227449 0.530431
O O13 0.718231 0.000000 0.549852
O O14 0.021811 0.500000 0.330177
O O15 0.038777 0.771136 0.381655
O O16 0.500000 0.647618 0.500000
O O17 0.396590 0.500000 0.534004
O O18 0.074995 0.500000 0.994889
O O19 0.000000 0.258199 0.000000
#
# Coordination Sequence:
#
# PCOD8106355 Si02
#       7
#     8   8   8   8   8   8   8
#     4  10  21  36  58  87 118 155 194 238 294 347
#     4  10  21  36  57  87 120 153 194 242 292 347
#     4  10  21  38  59  84 115 153 200 247 291 347
#     4  12  24  40  63  89 118 155 199 246 299 354
#     4  10  21  38  59  83 113 154 199 244 292 347
#     4  11  25  42  61  86 118 155 198 247 299 353
#     4   9  17  34  61  88 115 151 198 242 282 340
#
# _framework density 19.61298
#
# number of rings (size 3 to 8) (size 9 to 14) (size 15 to 20)
#    0.000    1.714    1.429    3.000    2.000    5.714 
#    0.000    0.000    0.000    3.429    0.000    0.000 
#    0.000    0.000    0.000    0.000    0.000    0.000 
#
# Total GULP energy -347252.382910 kJ/mol
# GULP energy per Si atom -12401.870818 kJ/mol
# Density = 1.956834 g / cm^3
# Si number density = 19.612980 Si / 1000 Ang^3
#
#
#
# Elastic Constant Matrix: (Units=GPa)
#
#
# Indices 1 2 3 4 5 6 
#
# 1 132.4774 41.7003 49.0830 0.0000 8.8528 0.0000
# 2 41.7003 87.3590 44.2095 0.0000 5.5493 0.0000
# 3 49.0830 44.2095 93.5532 0.0000 11.9771 0.0000
# 4 0.0000 0.0000 0.0000 25.6874 0.0000 2.9729
# 5 8.8528 5.5493 11.9771 0.0000 42.1490 0.0000
# 6 0.0000 0.0000 0.0000 2.9729 0.0000 32.4243
#
#
#
# Elastic Compliance Matrix: (Units=1/GPa)
#
#
# Indices 1 2 3 4 5 6 
#
# 1 0.009861 -0.002747 -0.003795 0.000000 -0.000631 0.000000
# 2 -0.002747 0.015810 -0.006058 0.000000 0.000217 0.000000
# 3 -0.003795 -0.006058 0.015918 0.000000 -0.002929 0.000000
# 4 0.000000 0.000000 0.000000 0.039347 0.000000 -0.003608
# 5 -0.000631 0.000217 -0.002929 0.000000 0.024662 0.000000
# 6 0.000000 0.000000 0.000000 -0.003608 0.000000 0.031172
#
#
# Mechanical properties :
#
#
# Convention : Reuss Voigt Hill
#
# Bulk Modulus (GPa) = 61.01258 64.81947 62.91602
# Shear Modulus (GPa) = 29.86289 31.94528 30.90409
#
# Velocity S-wave (km/s) = 3.90630 4.04020 3.97381
# Velocity P-wave (km/s) = 7.17784 7.40846 7.29406
#
# Compressibility (1/GPa) = 0.01639006
#
# Stress axis : x y z
#
# Youngs Moduli (GPa) = 101.40711 63.25097 62.82267
#
# Poissons Ratio (x) = 0.17372 0.23841
# Poissons Ratio (y) = 0.27852 0.38058
# Poissons Ratio (z) = 0.38484 0.38317
#
# Static dielectric constant tensor:
#      x y z
#    x 3.565770 0.000000 0.161150 
#    y 0.000000 3.448340 0.000000 
#    z 0.161150 0.000000 3.656930 
# 
# 
# High freq. dielectric constant tensor:
#      x y z
#    x 1.778270 0.000000 0.002170 
#    y 0.000000 1.744590 0.000000 
#    z 0.002170 0.000000 1.777290 
# 
# From -- ./inp_files/275091.got.cif
#   From: 2010.06.25/outbox.cif.g09.slc.cpg/sg12_138_cif.got.tgz:275091.got - 2010.06.28 00:19:55.
