data_PCOD8106902
_publ_section_title
;
Structure prediction by ZEFSAII (Michael W. Deem and Ramdas Pophale) SiO2 
 PCOD8106902
Probable space group: C 2/M
;
_chemical_formula_sum "Si O2"
_cell_formula_units_Z 56
_cell_length_a 23.365007
_cell_length_b 8.941809
_cell_length_c 14.788532
_cell_angle_alpha 90.000000
_cell_angle_beta 70.310592
_cell_angle_gamma 90.000000
_cell_volume 2909.054416
_symmetry_space_group_name_H-M "C 2/M"
_symmetry_group_IT_number 12
_symmetry_cell_setting 'monoclinic'
loop_
_space_group_symop_operation_xyz
x,y,z
-x,y,-z
-x,-y,-z
x,-y,z
1/2+x,1/2+y,z
1/2-x,1/2+y,-z
1/2-x,1/2-y,-z
1/2+x,1/2-y,z
loop_
_atom_site_type_symbol
_atom_site_label
_atom_site_fract_x
_atom_site_fract_y
_atom_site_fract_z
Si Si1 0.763845 0.673348 0.086708
Si Si2 0.564938 0.172320 0.162799
Si Si3 0.386274 0.677070 0.041368
Si Si4 0.356853 0.327907 0.737042
Si Si5 0.673635 0.176316 0.621834
Si Si6 0.070470 0.327130 0.812170
Si Si7 0.688874 0.324150 0.430762
O O1 0.778400 0.500000 0.062824
O O2 0.821408 0.752386 0.102037
O O3 0.707977 0.696760 0.182645
O O4 0.750000 0.750000 0.000000
O O5 0.592094 0.225854 0.243821
O O6 0.492772 0.195499 0.206249
O O7 0.581999 0.000000 0.136771
O O8 0.593853 0.269954 0.067967
O O9 0.382188 0.500000 0.042566
O O10 0.433010 0.732666 0.093189
O O11 0.377198 0.500000 0.733886
O O12 0.349579 0.277733 0.636898
O O13 0.624334 0.235523 0.720097
O O14 0.657976 0.245386 0.532715
O O15 0.740782 0.226989 0.617854
O O16 0.667927 0.000000 0.615895
O O17 0.081170 0.500000 0.832151
O O18 0.686854 0.500000 0.447413
#
# Coordination Sequence:
#
# PCOD8106902 Si02
#       7
#     8   8   8   8   8   8   8
#     4  11  21  35  56  82 113 148 184 227 276 327
#     4  11  23  38  57  79 109 149 192 236 277 330
#     4  12  24  37  56  83 113 149 188 232 283 334
#     4  10  21  37  57  81 114 151 185 225 279 334
#     4   9  18  36  60  84 110 139 177 229 281 332
#     4  10  22  40  59  80 108 147 191 234 283 331
#     4   9  18  34  58  86 112 141 175 221 280 337
#
# _framework density 19.250240999999999
#
# number of rings (size 3 to 8) (size 9 to 14) (size 15 to 20)
#    0.000    1.714    1.429    3.429    0.000    6.857 
#    0.000    3.571    0.000    4.286    0.000    0.000 
#    0.000    0.000    0.000    0.000    0.000    0.000 
#
# Total GULP energy -347316.385947 kJ/mol
# GULP energy per Si atom -12404.156641 kJ/mol
# Density = 1.920643 g / cm^3
# Si number density = 19.250241 Si / 1000 Ang^3
#
#
#
# Elastic Constant Matrix: (Units=GPa)
#
#
# Indices 1 2 3 4 5 6 
#
# 1 105.2563 46.0667 39.1387 0.0000 16.5289 0.0000
# 2 46.0667 90.4997 30.5635 0.0000 8.4973 0.0000
# 3 39.1387 30.5635 78.2856 0.0000 19.4869 0.0000
# 4 0.0000 0.0000 0.0000 30.0508 0.0000 6.9570
# 5 16.5289 8.4973 19.4869 0.0000 30.5989 0.0000
# 6 0.0000 0.0000 0.0000 6.9570 0.0000 31.9893
#
#
#
# Elastic Compliance Matrix: (Units=1/GPa)
#
#
# Indices 1 2 3 4 5 6 
#
# 1 0.013886 -0.005402 -0.003969 0.000000 -0.003473 0.000000
# 2 -0.005402 0.014834 -0.003318 0.000000 0.000911 0.000000
# 3 -0.003969 -0.003318 0.018171 0.000000 -0.008507 0.000000
# 4 0.000000 0.000000 0.000000 0.035041 0.000000 -0.007621
# 5 -0.003473 0.000911 -0.008507 0.000000 0.039722 0.000000
# 6 0.000000 0.000000 0.000000 -0.007621 0.000000 0.032918
#
#
# Mechanical properties :
#
#
# Convention : Reuss Voigt Hill
#
# Bulk Modulus (GPa) = 46.48040 56.17548 51.32794
# Shear Modulus (GPa) = 26.72084 29.07931 27.90008
#
# Velocity S-wave (km/s) = 3.72973 3.89085 3.81115
# Velocity P-wave (km/s) = 6.53802 7.03065 6.78880
#
# Compressibility (1/GPa) = 0.02151444
#
# Stress axis : x y z
#
# Youngs Moduli (GPa) = 72.01503 67.41117 55.03363
#
# Poissons Ratio (x) = 0.36415 0.21841
# Poissons Ratio (y) = 0.38902 0.18258
# Poissons Ratio (z) = 0.28581 0.22365
#
# Static dielectric constant tensor:
#      x y z
#    x 3.699480 0.000000 -0.168450 
#    y 0.000000 3.563490 0.000000 
#    z -0.168450 0.000000 3.825470 
# 
# 
# High freq. dielectric constant tensor:
#      x y z
#    x 1.752230 0.000000 0.008880 
#    y 0.000000 1.746120 0.000000 
#    z 0.008880 0.000000 1.741680 
# 
# From -- ./inp_files/238365.got.cif
#   From: 2010.06.25/outbox.cif.g09.slc.cpg/sg12_120_cif.got.tgz:238365.got - 2010.06.28 00:19:55.
