data_PCOD8106039
_publ_section_title
;
Structure prediction by ZEFSAII (Michael W. Deem and Ramdas Pophale) SiO2 
 PCOD8106039
Probable space group: C 2/M
;
_chemical_formula_sum "Si O2"
_cell_formula_units_Z 64
_cell_length_a 31.417096
_cell_length_b 8.858580
_cell_length_c 16.191137
_cell_angle_alpha 90.000000
_cell_angle_beta 135.298498
_cell_angle_gamma 90.000000
_cell_volume 3169.699535
_symmetry_space_group_name_H-M "C 2/M"
_symmetry_group_IT_number 12
_symmetry_cell_setting 'monoclinic'
loop_
_space_group_symop_operation_xyz
x,y,z
-x,y,-z
-x,-y,-z
x,-y,z
1/2+x,1/2+y,z
1/2-x,1/2+y,-z
1/2-x,1/2-y,-z
1/2+x,1/2-y,z
loop_
_atom_site_type_symbol
_atom_site_label
_atom_site_fract_x
_atom_site_fract_y
_atom_site_fract_z
Si Si1 0.009674 0.827719 0.679260
Si Si2 0.121789 0.172122 0.546751
Si Si3 0.567895 0.177719 0.071935
Si Si4 0.310347 0.171601 0.052895
Si Si5 0.909335 0.670262 0.330346
Si Si6 0.398756 0.322392 0.054585
Si Si7 0.662635 0.325635 0.318435
Si Si8 0.202675 0.326336 0.536661
O O1 0.028971 0.724314 0.628473
O O2 0.043022 0.778023 0.809451
O O3 0.937975 0.808493 0.592567
O O4 0.027071 0.000000 0.681668
O O5 0.107180 0.217755 0.619394
O O6 0.174496 0.279752 0.585389
O O7 0.144470 0.000000 0.577333
O O8 0.610720 0.225286 0.206320
O O9 0.571264 0.000000 0.063335
O O10 0.500000 0.230172 0.000000
O O11 0.591123 0.256904 0.021636
O O12 0.356637 0.181188 0.191377
O O13 0.337838 0.254660 0.010613
O O14 0.296241 0.000000 0.008292
O O15 0.250000 0.250000 0.000000
O O16 0.918118 0.500000 0.375153
O O17 0.389914 0.500000 0.034676
O O18 0.643070 0.500000 0.288474
O O19 0.725713 0.297543 0.357854
O O20 0.671208 0.277856 0.424882
O O21 0.189081 0.500000 0.497018
#
# Coordination Sequence:
#
# PCOD8106039 Si02
#       8
#     8   8   8   8   8   8   8   8
#     4   9  20  37  56  81 115 152 191 236 285 345
#     4  11  22  35  56  86 116 152 195 237 285 346
#     4  11  25  42  62  92 125 159 202 253 307 361
#     4  10  21  38  60  85 116 154 197 244 296 357
#     4  10  21  36  54  81 114 150 190 236 288 343
#     4  10  21  39  61  86 117 156 199 245 301 360
#     4  10  22  42  65  87 118 156 196 243 299 359
#     4  10  22  40  62  89 118 153 196 245 298 353
#
# _framework density 20.191188
#
# number of rings (size 3 to 8) (size 9 to 14) (size 15 to 20)
#    0.000    1.875    0.000    3.000    1.750    8.000 
#    0.000    1.250    0.000    0.000    0.000    0.000 
#    0.000    0.000    0.000    0.000    0.000    0.000 
#
# Total GULP energy -396951.397983 kJ/mol
# GULP energy per Si atom -12404.731187 kJ/mol
# Density = 2.014523 g / cm^3
# Si number density = 20.191188 Si / 1000 Ang^3
#
#
#
# Elastic Constant Matrix: (Units=GPa)
#
#
# Indices 1 2 3 4 5 6 
#
# 1 102.1823 43.8552 27.6646 0.0000 9.6705 0.0000
# 2 43.8552 92.7090 26.4361 0.0000 9.3944 0.0000
# 3 27.6646 26.4361 51.0519 0.0000 2.3662 0.0000
# 4 0.0000 0.0000 0.0000 33.6575 0.0000 -3.1554
# 5 9.6705 9.3944 2.3662 0.0000 23.3116 0.0000
# 6 0.0000 0.0000 0.0000 -3.1554 0.0000 38.9826
#
#
#
# Elastic Compliance Matrix: (Units=1/GPa)
#
#
# Indices 1 2 3 4 5 6 
#
# 1 0.013354 -0.004661 -0.004675 0.000000 -0.003187 0.000000
# 2 -0.004661 0.014760 -0.004955 0.000000 -0.003512 0.000000
# 3 -0.004675 -0.004955 0.024620 0.000000 0.001437 0.000000
# 4 0.000000 0.000000 0.000000 0.029938 0.000000 0.002423
# 5 -0.003187 -0.003512 0.001437 0.000000 0.045488 0.000000
# 6 0.000000 0.000000 0.000000 0.002423 0.000000 0.025849
#
#
# Mechanical properties :
#
#
# Convention : Reuss Voigt Hill
#
# Bulk Modulus (GPa) = 41.40290 49.09499 45.24895
# Shear Modulus (GPa) = 26.22709 29.05616 27.64163
#
# Velocity S-wave (km/s) = 3.60799 3.79760 3.70401
# Velocity P-wave (km/s) = 6.15684 6.60279 6.38371
#
# Compressibility (1/GPa) = 0.02415290
#
# Stress axis : x y z
#
# Youngs Moduli (GPa) = 74.88251 67.75093 40.61676
#
# Poissons Ratio (x) = 0.31579 0.18989
# Poissons Ratio (y) = 0.34903 0.20124
# Poissons Ratio (z) = 0.35009 0.33568
#
# Static dielectric constant tensor:
#      x y z
#    x 3.658050 0.000000 0.121610 
#    y 0.000000 3.787970 0.000000 
#    z 0.121610 0.000000 3.614450 
# 
# 
# High freq. dielectric constant tensor:
#      x y z
#    x 1.792580 0.000000 0.002780 
#    y 0.000000 1.800600 0.000000 
#    z 0.002780 0.000000 1.783590 
# 
# From -- ./inp_files/250105.got.cif
#   From: 2010.06.25/outbox.cif.g09.slc.cpg/sg12_126_cif.got.tgz:250105.got - 2010.06.28 00:19:55.
