data_PCOD8106587
_publ_section_title
;
Structure prediction by ZEFSAII (Michael W. Deem and Ramdas Pophale) SiO2 
 PCOD8106587
Probable space group: C 2/M
;
_chemical_formula_sum "Si O2"
_cell_formula_units_Z 48
_cell_length_a 14.413687
_cell_length_b 17.863883
_cell_length_c 16.971427
_cell_angle_alpha 90.000000
_cell_angle_beta 29.896131
_cell_angle_gamma 90.000000
_cell_volume 2178.074798
_symmetry_space_group_name_H-M "C 2/M"
_symmetry_group_IT_number 12
_symmetry_cell_setting 'monoclinic'
loop_
_space_group_symop_operation_xyz
x,y,z
-x,y,-z
-x,-y,-z
x,-y,z
1/2+x,1/2+y,z
1/2-x,1/2+y,-z
1/2-x,1/2-y,-z
1/2+x,1/2-y,z
loop_
_atom_site_type_symbol
_atom_site_label
_atom_site_fract_x
_atom_site_fract_y
_atom_site_fract_z
Si Si1 0.827863 0.657985 0.394621
Si Si2 0.519795 0.697058 0.795659
Si Si3 0.845331 0.411568 0.547310
Si Si4 0.068174 0.821904 0.369660
Si Si5 0.325589 0.799853 0.050253
Si Si6 0.391233 0.085425 0.188614
O O1 0.880185 0.744782 0.338840
O O2 0.906036 0.628817 0.420803
O O3 0.602573 0.651232 0.559127
O O4 0.917866 0.606460 0.261080
O O5 0.650651 0.626177 0.717368
O O6 0.321735 0.672833 0.906536
O O7 0.468741 0.735985 0.916381
O O8 0.814310 0.500000 0.556766
O O9 0.000000 0.396846 0.500000
O O10 0.212991 0.772621 0.211324
O O11 0.180937 0.894351 0.317409
O O12 0.000000 0.777800 0.500000
O O13 0.451076 0.871720 0.977633
O O14 0.430049 0.000000 0.145347
#
# Coordination Sequence:
#
# PCOD8106587 Si02
#       6
#     8   8   8   8   8   8
#     4  10  21  42  66  94 129 169 220 273 320 373
#     4  10  22  42  66  92 128 168 222 268 323 377
#     4  11  24  41  65  99 131 174 228 273 322 376
#     4  10  21  36  60  97 132 160 208 256 319 393
#     4  10  21  39  60  92 132 169 213 257 317 393
#     4  10  22  38  60  94 138 175 203 248 320 401
#
# _framework density 22.03781
#
# number of rings (size 3 to 8) (size 9 to 14) (size 15 to 20)
#    0.000    1.833    1.667    1.500    0.000    9.000 
#    3.000    0.000    0.000    0.000    0.000   22.167 
#    0.000    0.667    0.000    0.000    0.000    0.000 
#
# Total GULP energy -297435.461822 kJ/mol
# GULP energy per Si atom -12393.144243 kJ/mol
# Density = 2.198765 g / cm^3
# Si number density = 22.037810 Si / 1000 Ang^3
#
#
#
# Elastic Constant Matrix: (Units=GPa)
#
#
# Indices 1 2 3 4 5 6 
#
# 1 140.2144 46.5802 46.0184 -0.0138 -4.5215 -0.0091
# 2 46.5802 112.2350 48.4147 0.0021 -4.6322 -0.0031
# 3 46.0184 48.4147 143.7410 -0.0221 13.0254 -0.0149
# 4 -0.0138 0.0021 -0.0221 -17.7700 0.0017 -24.5326
# 5 -4.5215 -4.6322 13.0254 0.0017 45.3109 0.0138
# 6 -0.0091 -0.0031 -0.0149 -24.5326 0.0138 16.6702
#
#
#
# Elastic Compliance Matrix: (Units=1/GPa)
#
#
# Indices 1 2 3 4 5 6 
#
# 1 0.008723 -0.002717 -0.001983 -0.000002 0.001163 -0.000002
# 2 -0.002717 0.011475 -0.003159 0.000004 0.001810 0.000002
# 3 -0.001983 -0.003159 0.008936 -0.000007 -0.003090 -0.000002
# 4 -0.000002 0.000004 -0.000007 -0.018562 0.000011 -0.027317
# 5 0.001163 0.001810 -0.003090 0.000011 0.023259 -0.000004
# 6 -0.000002 0.000002 -0.000002 -0.027317 -0.000004 0.019787
#
#
# Mechanical properties :
#
#
# Convention : Reuss Voigt Hill
#
# Bulk Modulus (GPa) = 74.53952 75.35745 74.94848
# Shear Modulus (GPa) = 67.74447 25.85402 46.79925
#
# Velocity S-wave (km/s) = 5.55039 3.42887 4.61324
# Velocity P-wave (km/s) = 8.65868 7.06718 7.90309
#
# Compressibility (1/GPa) = 0.01341570
#
# Stress axis : x y z
#
# Youngs Moduli (GPa) = 114.64277 87.14653 111.90911
#
# Poissons Ratio (x) = 0.23676 0.22190
# Poissons Ratio (y) = 0.31146 0.35355
# Poissons Ratio (z) = 0.22732 0.27532
#
# Static dielectric constant tensor:
#      x y z
#    x 4.261140 -0.000020 0.043490 
#    y -0.000020 3.626560 0.000060 
#    z 0.043490 0.000060 4.305520 
# 
# 
# High freq. dielectric constant tensor:
#      x y z
#    x 1.888260 0.000000 0.004280 
#    y 0.000000 1.820590 0.000010 
#    z 0.004280 0.000010 1.885500 
# 
# From -- ./inp_files/271577.got.cif
#   From: 2010.06.25/outbox.cif.g09.slc.cpg/sg12_136_cif.got.tgz:271577.got - 2010.06.28 00:19:55.
