data_PCOD8106436
_publ_section_title
;
Structure prediction by ZEFSAII (Michael W. Deem and Ramdas Pophale) SiO2 
 PCOD8106436
Probable space group: C 2/M
;
_chemical_formula_sum "Si O2"
_cell_formula_units_Z 64
_cell_length_a 19.668384
_cell_length_b 8.714586
_cell_length_c 23.995074
_cell_angle_alpha 90.000000
_cell_angle_beta 51.546718
_cell_angle_gamma 90.000000
_cell_volume 3220.796931
_symmetry_space_group_name_H-M "C 2/M"
_symmetry_group_IT_number 12
_symmetry_cell_setting 'monoclinic'
loop_
_space_group_symop_operation_xyz
x,y,z
-x,y,-z
-x,-y,-z
x,-y,z
1/2+x,1/2+y,z
1/2-x,1/2+y,-z
1/2-x,1/2-y,-z
1/2+x,1/2-y,z
loop_
_atom_site_type_symbol
_atom_site_label
_atom_site_fract_x
_atom_site_fract_y
_atom_site_fract_z
Si Si1 0.797044 0.318266 0.683242
Si Si2 0.555599 0.675442 0.094863
Si Si3 0.638225 0.676725 0.837579
Si Si4 0.287510 0.181608 0.563703
Si Si5 0.658525 0.820708 0.945259
Si Si6 0.561102 0.179645 0.302483
Si Si7 0.657866 0.178672 0.140170
Si Si8 0.880068 0.180117 0.417724
O O1 0.790946 0.500000 0.683150
O O2 0.712252 0.257911 0.758878
O O3 0.798778 0.249111 0.620011
O O4 0.883867 0.267971 0.671602
O O5 0.583292 0.500000 0.091741
O O6 0.452102 0.692171 0.148504
O O7 0.591411 0.783668 0.124994
O O8 0.590860 0.727909 0.017258
O O9 0.657216 0.500000 0.845078
O O10 0.638358 0.780182 0.892111
O O11 0.194649 0.236076 0.586856
O O12 0.365153 0.244600 0.485770
O O13 0.294735 0.000000 0.561080
O O14 0.755699 0.776300 0.913191
O O15 0.644741 0.000000 0.962335
O O16 0.615882 0.224705 0.220281
O O17 0.471768 0.271102 0.346022
O O18 0.540264 0.000000 0.314478
O O19 0.681932 0.000000 0.126464
O O20 0.876947 0.000000 0.426880
#
# Coordination Sequence:
#
# PCOD8106436 Si02
#       8
#     8   8   8   8   8   8   8   8
#     4   9  18  37  62  85 110 150 199 240 280 340
#     4  11  24  39  62  90 118 155 200 247 297 356
#     4  10  21  40  63  87 118 155 199 245 295 355
#     4   9  19  37  62  86 114 154 196 234 279 339
#     4  12  24  40  62  86 120 157 197 247 299 356
#     4  10  21  38  61  84 114 153 193 238 288 348
#     4  11  23  41  62  86 120 156 198 248 299 356
#     4  10  21  36  58  88 123 152 187 238 287 339
#
# _framework density 19.87086
#
# number of rings (size 3 to 8) (size 9 to 14) (size 15 to 20)
#    0.000    1.750    1.250    3.000    1.750    4.500 
#    0.000    3.750    0.000    0.000    0.000    0.000 
#    0.000    0.000    0.000    0.000    0.000    0.000 
#
# Total GULP energy -396957.786555 kJ/mol
# GULP energy per Si atom -12404.930830 kJ/mol
# Density = 1.982563 g / cm^3
# Si number density = 19.870860 Si / 1000 Ang^3
#
#
#
# Elastic Constant Matrix: (Units=GPa)
#
#
# Indices 1 2 3 4 5 6 
#
# 1 66.7706 15.5474 14.0144 -0.0001 3.8762 -0.0005
# 2 15.5474 32.5800 20.9486 -0.0001 -3.9571 -0.0013
# 3 14.0144 20.9486 66.2070 0.0000 8.1385 -0.0001
# 4 -0.0001 -0.0001 0.0000 27.9762 0.0000 -0.2332
# 5 3.8762 -3.9571 8.1385 0.0000 39.9274 0.0000
# 6 -0.0005 -0.0013 -0.0001 -0.2332 0.0000 29.5100
#
#
#
# Elastic Compliance Matrix: (Units=1/GPa)
#
#
# Indices 1 2 3 4 5 6 
#
# 1 0.017127 -0.007907 -0.000844 0.000000 -0.002274 0.000000
# 2 -0.007907 0.043883 -0.013170 0.000000 0.007801 0.000002
# 3 -0.000844 -0.013170 0.020104 0.000000 -0.005321 -0.000001
# 4 0.000000 0.000000 0.000000 0.035747 0.000000 0.000282
# 5 -0.002274 0.007801 -0.005321 0.000000 0.027124 0.000000
# 6 0.000000 0.000002 -0.000001 0.000282 0.000000 0.033889
#
#
# Mechanical properties :
#
#
# Convention : Reuss Voigt Hill
#
# Bulk Modulus (GPa) = 26.82988 29.61981 28.22485
# Shear Modulus (GPa) = 21.35479 27.15253 24.25366
#
# Velocity S-wave (km/s) = 3.28179 3.70056 3.49745
# Velocity P-wave (km/s) = 5.28125 5.76172 5.52671
#
# Compressibility (1/GPa) = 0.03727187
#
# Stress axis : x y z
#
# Youngs Moduli (GPa) = 58.38782 22.78805 49.74105
#
# Poissons Ratio (x) = 0.18018 0.04198
# Poissons Ratio (y) = 0.46165 0.65510
# Poissons Ratio (z) = 0.04928 0.30012
#
# Static dielectric constant tensor:
#      x y z
#    x 3.710130 0.000000 0.062110 
#    y 0.000000 3.421920 0.000000 
#    z 0.062110 0.000000 3.748380 
# 
# 
# High freq. dielectric constant tensor:
#      x y z
#    x 1.783310 0.000000 0.000430 
#    y 0.000000 1.758880 0.000000 
#    z 0.000430 0.000000 1.783170 
# 
# From -- ./inp_files/346028.got.cif
#   From: 2010.06.25/outbox.cif.g09.slc.cpg/sg12_174_cif.got.tgz:346028.got - 2010.06.28 00:19:55.
