data_PCOD8106880
_publ_section_title
;
Structure prediction by ZEFSAII (Michael W. Deem and Ramdas Pophale) SiO2 
 PCOD8106880
Probable space group: C 2/M
;
_chemical_formula_sum "Si O2"
_cell_formula_units_Z 40
_cell_length_a 26.854629
_cell_length_b 8.950243
_cell_length_c 9.523276
_cell_angle_alpha 90.000000
_cell_angle_beta 110.565261
_cell_angle_gamma 90.000000
_cell_volume 2143.101349
_symmetry_space_group_name_H-M "C 2/M"
_symmetry_group_IT_number 12
_symmetry_cell_setting 'monoclinic'
loop_
_space_group_symop_operation_xyz
x,y,z
-x,y,-z
-x,-y,-z
x,-y,z
1/2+x,1/2+y,z
1/2-x,1/2+y,-z
1/2-x,1/2-y,-z
1/2+x,1/2-y,z
loop_
_atom_site_type_symbol
_atom_site_label
_atom_site_fract_x
_atom_site_fract_y
_atom_site_fract_z
Si Si1 0.088712 0.324846 0.953213
Si Si2 0.795399 0.671256 0.631961
Si Si3 0.092661 0.823122 0.245385
Si Si4 0.993144 0.673048 0.655398
Si Si5 0.206413 0.668181 0.046470
O O1 0.092042 0.500000 0.995244
O O2 0.048380 0.290935 0.788103
O O3 0.070362 0.239985 0.075787
O O4 0.147000 0.265679 0.964063
O O5 0.801975 0.500000 0.590229
O O6 0.750000 0.750000 0.500000
O O7 0.850420 0.755422 0.659666
O O8 0.777956 0.681240 0.775912
O O9 0.052616 0.777267 0.328691
O O10 0.097145 0.000000 0.240860
O O11 0.977333 0.500000 0.660178
O O12 0.000000 0.714188 0.500000
O O13 0.206746 0.500000 0.992669
O O14 0.250000 0.750000 0.000000
#
# Coordination Sequence:
#
# PCOD8106880 Si02
#       5
#     8   8   8   8   8
#     4   9  19  37  57  77 106 145 187 226 267 323
#     4  10  21  38  58  82 111 144 183 224 269 322
#     4  11  22  36  56  82 110 143 183 225 272 326
#     4  10  21  37  57  81 109 144 184 227 278 329
#     4   9  19  34  53  79 109 142 181 223 267 318
#
# _framework density 18.664538
#
# number of rings (size 3 to 8) (size 9 to 14) (size 15 to 20)
#    0.000    2.200    0.000    4.200    0.000    9.200 
#    0.000    2.000    0.000    0.000    0.000    0.000 
#    0.000    0.000    0.000    0.000    0.000    0.000 
#
# Total GULP energy -248046.416107 kJ/mol
# GULP energy per Si atom -12402.320805 kJ/mol
# Density = 1.862206 g / cm^3
# Si number density = 18.664538 Si / 1000 Ang^3
#
#
#
# Elastic Constant Matrix: (Units=GPa)
#
#
# Indices 1 2 3 4 5 6 
#
# 1 121.7103 61.9752 73.3475 0.0000 -7.0331 0.0000
# 2 61.9752 112.3160 58.8209 0.0000 -1.0183 0.0000
# 3 73.3475 58.8209 124.8451 0.0000 13.3635 0.0000
# 4 0.0000 0.0000 0.0000 27.5008 0.0000 -2.8595
# 5 -7.0331 -1.0183 13.3635 0.0000 33.1464 0.0000
# 6 0.0000 0.0000 0.0000 -2.8595 0.0000 37.2521
#
#
#
# Elastic Compliance Matrix: (Units=1/GPa)
#
#
# Indices 1 2 3 4 5 6 
#
# 1 0.015457 -0.004471 -0.007641 0.000000 0.006223 0.000000
# 2 -0.004471 0.013354 -0.003770 0.000000 0.000981 0.000000
# 3 -0.007641 -0.003770 0.015113 0.000000 -0.007830 0.000000
# 4 0.000000 0.000000 0.000000 0.036655 0.000000 0.002814
# 5 0.006223 0.000981 -0.007830 0.000000 0.034677 0.000000
# 6 0.000000 0.000000 0.000000 0.002814 0.000000 0.027060
#
#
# Mechanical properties :
#
#
# Convention : Reuss Voigt Hill
#
# Bulk Modulus (GPa) = 82.23218 83.01764 82.62491
# Shear Modulus (GPa) = 28.06888 30.56170 29.31529
#
# Velocity S-wave (km/s) = 3.88217 4.05090 3.96743
# Velocity P-wave (km/s) = 8.01552 8.15200 8.08405
#
# Compressibility (1/GPa) = 0.01216069
#
# Stress axis : x y z
#
# Youngs Moduli (GPa) = 64.69483 74.88472 66.16732
#
# Poissons Ratio (x) = 0.33483 0.50556
# Poissons Ratio (y) = 0.28927 0.24944
# Poissons Ratio (z) = 0.49431 0.28230
#
# Static dielectric constant tensor:
#      x y z
#    x 3.538820 0.000000 0.107670 
#    y 0.000000 3.411540 0.000000 
#    z 0.107670 0.000000 3.442480 
# 
# 
# High freq. dielectric constant tensor:
#      x y z
#    x 1.733780 0.000000 0.006190 
#    y 0.000000 1.720950 0.000000 
#    z 0.006190 0.000000 1.722470 
# 
# From -- ./inp_files/93038.got.cif
#   From: 2010.06.25/outbox.cif.g09.slc.cpg/sg12_47_cif.got.tgz:93038.got - 2010.06.28 00:19:55.
