data_PCOD8106102
_publ_section_title
;
Structure prediction by ZEFSAII (Michael W. Deem and Ramdas Pophale) SiO2 
 PCOD8106102
Probable space group: C 2/M
;
_chemical_formula_sum "Si O2"
_cell_formula_units_Z 56
_cell_length_a 10.041910
_cell_length_b 9.127006
_cell_length_c 31.712693
_cell_angle_alpha 90.000000
_cell_angle_beta 76.570714
_cell_angle_gamma 90.000000
_cell_volume 2827.076971
_symmetry_space_group_name_H-M "C 2/M"
_symmetry_group_IT_number 12
_symmetry_cell_setting 'monoclinic'
loop_
_space_group_symop_operation_xyz
x,y,z
-x,y,-z
-x,-y,-z
x,-y,z
1/2+x,1/2+y,z
1/2-x,1/2+y,-z
1/2-x,1/2-y,-z
1/2+x,1/2-y,z
loop_
_atom_site_type_symbol
_atom_site_label
_atom_site_fract_x
_atom_site_fract_y
_atom_site_fract_z
Si Si1 0.646567 0.327864 0.691661
Si Si2 0.551080 0.671370 0.116147
Si Si3 0.787317 0.329929 0.164471
Si Si4 0.883281 0.331383 0.974007
Si Si5 0.927334 0.828498 0.547878
Si Si6 0.152909 0.171358 0.261969
Si Si7 0.159721 0.171727 0.594790
O O1 0.670210 0.500000 0.692249
O O2 0.770258 0.251361 0.706165
O O3 0.505534 0.282289 0.724744
O O4 0.644622 0.272231 0.643718
O O5 0.530802 0.500000 0.108623
O O6 0.688328 0.700313 0.132375
O O7 0.421199 0.730291 0.151373
O O8 0.560252 0.757519 0.072047
O O9 0.830402 0.500000 0.162766
O O10 0.709989 0.281084 0.212449
O O11 0.846542 0.500000 0.967515
O O12 0.750000 0.250000 0.000000
O O13 0.000000 0.318050 0.000000
O O14 0.020121 0.786995 0.581177
O O15 0.000000 0.773311 0.500000
O O16 0.783579 0.748692 0.562055
O O17 0.897858 0.000000 0.547704
O O18 0.170045 0.000000 0.268611
O O19 0.187483 0.000000 0.590838
#
# Coordination Sequence:
#
# PCOD8106102 Si02
#       7
#     8   8   8   8   8   8   8
#     4  10  21  37  56  81 113 146 184 230 277 329
#     4  11  23  39  61  87 115 150 190 232 281 334
#     4  10  22  39  58  84 116 148 186 232 280 331
#     4  11  24  41  61  87 119 153 191 235 281 332
#     4  10  21  37  57  81 109 143 184 228 275 330
#     4  10  21  38  59  82 112 149 186 228 278 330
#     4  10  21  36  55  81 112 145 182 227 278 330
#
# _framework density 19.808444999999999
#
# number of rings (size 3 to 8) (size 9 to 14) (size 15 to 20)
#    0.000    1.714    0.000    3.857    0.000   10.571 
#    0.000    0.000    0.000    0.000    0.000    0.000 
#    0.000    0.000    0.000    0.000    0.000    0.000 
#
# Total GULP energy -347367.161926 kJ/mol
# GULP energy per Si atom -12405.970069 kJ/mol
# Density = 1.976336 g / cm^3
# Si number density = 19.808445 Si / 1000 Ang^3
#
#
#
# Elastic Constant Matrix: (Units=GPa)
#
#
# Indices 1 2 3 4 5 6 
#
# 1 57.8845 30.5091 -2.0524 0.0000 -9.1009 0.0000
# 2 30.5091 63.9367 26.0492 0.0000 -3.1223 0.0000
# 3 -2.0524 26.0492 90.9570 0.0000 -3.1076 0.0000
# 4 0.0000 0.0000 0.0000 32.4686 0.0000 -0.8726
# 5 -9.1009 -3.1223 -3.1076 0.0000 41.5906 0.0000
# 6 0.0000 0.0000 0.0000 -0.8726 0.0000 34.7809
#
#
#
# Elastic Compliance Matrix: (Units=1/GPa)
#
#
# Indices 1 2 3 4 5 6 
#
# 1 0.025515 -0.013856 0.004711 0.000000 0.004895 0.000000
# 2 -0.013856 0.025268 -0.007607 0.000000 -0.001703 0.000000
# 3 0.004711 -0.007607 0.013329 0.000000 0.001456 0.000000
# 4 0.000000 0.000000 0.000000 0.030820 0.000000 0.000773
# 5 0.004895 -0.001703 0.001456 0.000000 0.025096 0.000000
# 6 0.000000 0.000000 0.000000 0.000773 0.000000 0.028771
#
#
# Mechanical properties :
#
#
# Convention : Reuss Voigt Hill
#
# Bulk Modulus (GPa) = 32.67058 35.75445 34.21251
# Shear Modulus (GPa) = 25.97320 32.31952 29.14636
#
# Velocity S-wave (km/s) = 3.62500 4.04369 3.84006
# Velocity P-wave (km/s) = 5.83523 6.31595 6.08034
#
# Compressibility (1/GPa) = 0.03060858
#
# Stress axis : x y z
#
# Youngs Moduli (GPa) = 39.19208 39.57516 75.02472
#
# Poissons Ratio (x) = 0.54834 -0.35345
# Poissons Ratio (y) = 0.54303 0.57075
# Poissons Ratio (z) = -0.18464 0.30107
#
# Static dielectric constant tensor:
#      x y z
#    x 3.637590 0.000000 -0.027980 
#    y 0.000000 3.553490 0.000000 
#    z -0.027980 0.000000 3.847030 
# 
# 
# High freq. dielectric constant tensor:
#      x y z
#    x 1.783300 0.000000 -0.000510 
#    y 0.000000 1.767470 0.000000 
#    z -0.000510 0.000000 1.791140 
# 
# From -- ./inp_files/373474.got.cif
#   From: 2010.06.25/outbox.cif.g09.slc.cpg/sg12_187_cif.got.tgz:373474.got - 2010.06.28 00:19:55.
