data_PCOD8106915
_publ_section_title
;
Structure prediction by ZEFSAII (Michael W. Deem and Ramdas Pophale) SiO2 
 PCOD8106915
Probable space group: C 2/M
;
_chemical_formula_sum "Si O2"
_cell_formula_units_Z 48
_cell_length_a 10.069694
_cell_length_b 9.134588
_cell_length_c 26.770321
_cell_angle_alpha 90.000000
_cell_angle_beta 78.989752
_cell_angle_gamma 90.000000
_cell_volume 2417.075889
_symmetry_space_group_name_H-M "C 2/M"
_symmetry_group_IT_number 12
_symmetry_cell_setting 'monoclinic'
loop_
_space_group_symop_operation_xyz
x,y,z
-x,y,-z
-x,-y,-z
x,-y,z
1/2+x,1/2+y,z
1/2-x,1/2+y,-z
1/2-x,1/2-y,-z
1/2+x,1/2-y,z
loop_
_atom_site_type_symbol
_atom_site_label
_atom_site_fract_x
_atom_site_fract_y
_atom_site_fract_z
Si Si1 0.657824 0.170245 0.114135
Si Si2 0.324353 0.668039 0.273466
Si Si3 0.494529 0.672933 0.556921
Si Si4 0.265254 0.331361 0.390454
Si Si5 0.455097 0.669388 0.057802
Si Si6 0.623743 0.671884 0.218776
O O1 0.532207 0.237007 0.093547
O O2 0.795214 0.196296 0.073480
O O3 0.675062 0.246999 0.165939
O O4 0.629314 0.000000 0.124925
O O5 0.287225 0.500000 0.264036
O O6 0.333100 0.694959 0.331925
O O7 0.467743 0.710141 0.239361
O O8 0.210483 0.772610 0.259222
O O9 0.500000 0.732973 0.500000
O O10 0.477643 0.500000 0.559441
O O11 0.630628 0.723339 0.574856
O O12 0.369945 0.738834 0.595820
O O13 0.227693 0.500000 0.401374
O O14 0.492655 0.500000 0.063814
O O15 0.500000 0.723039 0.000000
O O16 0.646571 0.500000 0.210764
#
# Coordination Sequence:
#
# PCOD8106915 Si02
#       6
#     8   8   8   8   8   8
#     4  11  23  38  59  87 116 148 189 234 280 334
#     4  10  22  39  57  81 113 146 185 233 280 331
#     4  10  21  37  57  83 115 149 187 231 278 332
#     4  10  21  37  57  82 112 146 186 232 280 331
#     4  10  22  40  60  84 116 152 190 234 283 334
#     4  11  23  39  60  84 113 150 188 229 281 337
#
# _framework density 19.858706000000002
#
# number of rings (size 3 to 8) (size 9 to 14) (size 15 to 20)
#    0.000    1.667    0.000    4.000    0.000   10.000 
#    0.000    0.000    0.000    0.000    0.000    0.000 
#    0.000    0.000    0.000    0.000    0.000    0.000 
#
# Total GULP energy -297769.174577 kJ/mol
# GULP energy per Si atom -12407.048941 kJ/mol
# Density = 1.981351 g / cm^3
# Si number density = 19.858706 Si / 1000 Ang^3
#
#
#
# Elastic Constant Matrix: (Units=GPa)
#
#
# Indices 1 2 3 4 5 6 
#
# 1 84.0370 41.0253 14.3045 0.0000 5.1070 0.0000
# 2 41.0253 68.9727 27.8202 0.0000 3.8301 0.0000
# 3 14.3045 27.8202 84.1116 0.0000 2.9622 0.0000
# 4 0.0000 0.0000 0.0000 33.1884 0.0000 1.6943
# 5 5.1070 3.8301 2.9622 0.0000 42.0906 0.0000
# 6 0.0000 0.0000 0.0000 1.6943 0.0000 30.3857
#
#
#
# Elastic Compliance Matrix: (Units=1/GPa)
#
#
# Indices 1 2 3 4 5 6 
#
# 1 0.016844 -0.010173 0.000541 0.000000 -0.001156 0.000000
# 2 -0.010173 0.022929 -0.005838 0.000000 -0.000441 0.000000
# 3 0.000541 -0.005838 0.013746 0.000000 -0.000502 0.000000
# 4 0.000000 0.000000 0.000000 0.030217 0.000000 -0.001685
# 5 -0.001156 -0.000441 -0.000502 0.000000 0.023974 0.000000
# 6 0.000000 0.000000 0.000000 -0.001685 0.000000 0.033004
#
#
# Mechanical properties :
#
#
# Convention : Reuss Voigt Hill
#
# Bulk Modulus (GPa) = 44.29093 44.82459 44.55776
# Shear Modulus (GPa) = 27.90498 31.39769 29.65133
#
# Velocity S-wave (km/s) = 3.75263 3.98056 3.86828
# Velocity P-wave (km/s) = 6.41310 6.61417 6.51441
#
# Compressibility (1/GPa) = 0.02257798
#
# Stress axis : x y z
#
# Youngs Moduli (GPa) = 59.36877 43.61363 72.75032
#
# Poissons Ratio (x) = 0.44367 -0.03934
# Poissons Ratio (y) = 0.60394 0.42473
# Poissons Ratio (z) = -0.03211 0.25462
#
# Static dielectric constant tensor:
#      x y z
#    x 3.578090 0.000000 0.006890 
#    y 0.000000 3.564590 0.000000 
#    z 0.006890 0.000000 3.764870 
# 
# 
# High freq. dielectric constant tensor:
#      x y z
#    x 1.783150 0.000000 -0.000390 
#    y 0.000000 1.771670 0.000000 
#    z -0.000390 0.000000 1.789600 
# 
# From -- ./inp_files/334625.got.cif
#   From: 2010.06.25/outbox.cif.g09.slc.cpg/sg12_168_cif.got.tgz:334625.got - 2010.06.28 00:19:55.
