data_PCOD8106914
_publ_section_title
;
Structure prediction by ZEFSAII (Michael W. Deem and Ramdas Pophale) SiO2 
 PCOD8106914
Probable space group: C 2/M
;
_chemical_formula_sum "Si O2"
_cell_formula_units_Z 40
_cell_length_a 19.228198
_cell_length_b 8.413755
_cell_length_c 27.760065
_cell_angle_alpha 90.000000
_cell_angle_beta 152.534701
_cell_angle_gamma 90.000000
_cell_volume 2071.328009
_symmetry_space_group_name_H-M "C 2/M"
_symmetry_group_IT_number 12
_symmetry_cell_setting 'monoclinic'
loop_
_space_group_symop_operation_xyz
x,y,z
-x,y,-z
-x,-y,-z
x,-y,z
1/2+x,1/2+y,z
1/2-x,1/2+y,-z
1/2-x,1/2-y,-z
1/2+x,1/2-y,z
loop_
_atom_site_type_symbol
_atom_site_label
_atom_site_fract_x
_atom_site_fract_y
_atom_site_fract_z
Si Si1 0.116707 0.314525 0.885799
Si Si2 0.021958 0.815285 0.730150
Si Si3 0.696977 0.685879 0.279509
Si Si4 0.208221 0.814410 0.564334
Si Si5 0.421585 0.812879 0.334486
O O1 0.136857 0.500000 0.889175
O O2 0.124621 0.225960 0.839293
O O3 0.958288 0.282899 0.814952
O O4 0.250000 0.250000 0.000000
O O5 0.868437 0.714116 0.637371
O O6 0.112351 0.769752 0.737483
O O7 0.980405 0.000000 0.705215
O O8 0.659285 0.500000 0.256453
O O9 0.798742 0.726675 0.388465
O O10 0.787908 0.738303 0.288118
O O11 0.081115 0.745258 0.451996
O O12 0.182535 0.000000 0.556700
O O13 0.426362 0.000000 0.330675
#
# Coordination Sequence:
#
# PCOD8106914 Si02
#       5
#     8   8   8   8   8
#     4  11  22  40  64  85 108 139 180 226 274 329
#     4  11  22  37  57  82 112 145 186 229 272 324
#     4  10  21  37  57  82 112 146 185 227 273 325
#     4  11  21  34  54  80 113 152 191 226 266 322
#     4  11  22  36  54  80 116 151 183 225 275 323
#
# _framework density 19.311281000000001
#
# number of rings (size 3 to 8) (size 9 to 14) (size 15 to 20)
#    0.000    1.200    0.000   10.200    0.000    5.600 
#    0.000    1.000    0.000    6.000    0.000    0.000 
#    0.000    0.000    0.000    0.000    0.000    0.000 
#
# Total GULP energy -248115.186070 kJ/mol
# GULP energy per Si atom -12405.759303 kJ/mol
# Density = 1.926733 g / cm^3
# Si number density = 19.311281 Si / 1000 Ang^3
#
#
#
# Elastic Constant Matrix: (Units=GPa)
#
#
# Indices 1 2 3 4 5 6 
#
# 1 153.5993 27.8749 46.5527 -0.0004 -19.1885 -0.0001
# 2 27.8749 75.4563 6.5949 -0.0005 -1.0738 -0.0012
# 3 46.5527 6.5949 103.9436 -0.0013 -23.1514 0.0000
# 4 -0.0004 -0.0005 -0.0013 32.0410 -0.0001 -2.4292
# 5 -19.1885 -1.0738 -23.1514 -0.0001 16.7685 0.0001
# 6 -0.0001 -0.0012 0.0000 -2.4292 0.0001 33.6040
#
#
#
# Elastic Compliance Matrix: (Units=1/GPa)
#
#
# Indices 1 2 3 4 5 6 
#
# 1 0.008505 -0.002859 -0.002167 0.000000 0.006557 0.000000
# 2 -0.002859 0.014290 -0.000218 0.000000 -0.002658 0.000001
# 3 -0.002167 -0.000218 0.014512 0.000001 0.017542 0.000000
# 4 0.000000 0.000000 0.000001 0.031382 0.000001 0.002269
# 5 0.006557 -0.002658 0.017542 0.000001 0.091189 0.000000
# 6 0.000000 0.000001 0.000000 0.002269 0.000000 0.029922
#
#
# Mechanical properties :
#
#
# Convention : Reuss Voigt Hill
#
# Bulk Modulus (GPa) = 37.28769 55.00491 46.14630
# Shear Modulus (GPa) = 23.89716 33.28115 28.58915
#
# Velocity S-wave (km/s) = 3.52159 4.15589 3.85182
# Velocity P-wave (km/s) = 5.99050 7.18149 6.61286
#
# Compressibility (1/GPa) = 0.02681850
#
# Stress axis : x y z
#
# Youngs Moduli (GPa) = 117.57223 69.97795 68.90712
#
# Poissons Ratio (x) = 0.20009 0.14934
# Poissons Ratio (y) = 0.33617 0.01503
# Poissons Ratio (z) = 0.25482 0.01526
#
# Static dielectric constant tensor:
#      x y z
#    x 3.658540 0.000000 -0.124210 
#    y 0.000000 3.697100 0.000000 
#    z -0.124210 0.000000 3.360210 
# 
# 
# High freq. dielectric constant tensor:
#      x y z
#    x 1.758850 0.000000 -0.009250 
#    y 0.000000 1.771120 0.000000 
#    z -0.009250 0.000000 1.732060 
# 
# From -- ./inp_files/187008.got.cif
#   From: 2010.06.25/outbox.cif.g09.slc.cpg/sg12_94_cif.got.tgz:187008.got - 2010.06.28 00:19:55.
