data_PCOD8106094
_publ_section_title
;
Structure prediction by ZEFSAII (Michael W. Deem and Ramdas Pophale) SiO2 
 PCOD8106094
Probable space group: C 2/M
;
_chemical_formula_sum "Si O2"
_cell_formula_units_Z 56
_cell_length_a 19.212368
_cell_length_b 13.850154
_cell_length_c 17.494675
_cell_angle_alpha 90.000000
_cell_angle_beta 147.026983
_cell_angle_gamma 90.000000
_cell_volume 2533.582410
_symmetry_space_group_name_H-M "C 2/M"
_symmetry_group_IT_number 12
_symmetry_cell_setting 'monoclinic'
loop_
_space_group_symop_operation_xyz
x,y,z
-x,y,-z
-x,-y,-z
x,-y,z
1/2+x,1/2+y,z
1/2-x,1/2+y,-z
1/2-x,1/2-y,-z
1/2+x,1/2-y,z
loop_
_atom_site_type_symbol
_atom_site_label
_atom_site_fract_x
_atom_site_fract_y
_atom_site_fract_z
Si Si1 0.146198 0.115137 0.617310
Si Si2 0.694565 0.610286 0.181882
Si Si3 0.238515 0.389146 0.430621
Si Si4 0.784688 0.614443 0.425759
Si Si5 0.623812 0.805133 0.071689
Si Si6 0.438571 0.110451 0.141579
Si Si7 0.436870 0.111489 0.305636
O O1 0.180868 0.158126 0.564678
O O2 0.242640 0.162890 0.767041
O O3 0.000000 0.143925 0.500000
O O4 0.166206 0.000000 0.639546
O O5 0.646350 0.500000 0.123606
O O6 0.695089 0.640184 0.271759
O O7 0.605902 0.688099 0.058222
O O8 0.837297 0.625196 0.281552
O O9 0.279138 0.500000 0.471188
O O10 0.270844 0.343417 0.544711
O O11 0.090339 0.376805 0.274771
O O12 0.794184 0.500000 0.441080
O O13 0.927600 0.656689 0.543699
O O14 0.500000 0.852567 0.000000
O O15 0.630226 0.831128 0.988952
O O16 0.391847 0.152770 0.181014
O O17 0.397388 0.000000 0.091880
O O18 0.461491 0.000000 0.310052
#
# Coordination Sequence:
#
# PCOD8106094 Si02
#       7
#     8   8   8   8   8   8   8
#     4  10  21  37  59  89 125 154 185 239 300 354
#     4  10  21  36  55  80 114 156 203 253 293 329
#     4   8  14  29  56  86 115 147 184 232 290 350
#     4   8  14  28  55  85 110 143 190 240 292 349
#     4  12  24  37  59  84 117 161 207 235 284 352
#     4   9  17  32  59  91 117 146 189 236 286 357
#     4   8  15  30  56  87 115 145 186 241 302 351
#
# _framework density 22.103089000000001
#
# number of rings (size 3 to 8) (size 9 to 14) (size 15 to 20)
#    0.000    2.714    1.429    2.571    0.000    4.286 
#    0.000    0.714    6.286    0.000    0.000    0.000 
#    0.000    0.000    0.000    0.000    0.000    0.286 
#
# Total GULP energy -346920.786307 kJ/mol
# GULP energy per Si atom -12390.028082 kJ/mol
# Density = 2.205278 g / cm^3
# Si number density = 22.103089 Si / 1000 Ang^3
#
#
#
# Elastic Constant Matrix: (Units=GPa)
#
#
# Indices 1 2 3 4 5 6 
#
# 1 105.7596 13.0294 38.3962 0.0001 -23.1984 0.0000
# 2 13.0294 55.0970 26.0804 0.0001 -10.3244 0.0000
# 3 38.3962 26.0804 81.2555 0.0002 -15.7997 0.0000
# 4 0.0001 0.0001 0.0002 13.1142 0.0000 4.6066
# 5 -23.1984 -10.3244 -15.7997 0.0000 39.2467 0.0000
# 6 0.0000 0.0000 0.0000 4.6066 0.0000 5.2331
#
#
#
# Elastic Compliance Matrix: (Units=1/GPa)
#
#
# Indices 1 2 3 4 5 6 
#
# 1 0.012389 0.000426 -0.004931 0.000000 0.005450 0.000000
# 2 0.000426 0.021771 -0.006538 0.000000 0.003347 0.000000
# 3 -0.004931 -0.006538 0.017179 0.000000 0.002281 0.000000
# 4 0.000000 0.000000 0.000000 0.110386 0.000000 -0.097170
# 5 0.005450 0.003347 0.002281 0.000000 0.030500 0.000000
# 6 0.000000 0.000000 0.000000 -0.097170 0.000000 0.276626
#
#
# Mechanical properties :
#
#
# Convention : Reuss Voigt Hill
#
# Bulk Modulus (GPa) = 34.18615 44.12489 39.15552
# Shear Modulus (GPa) = 9.98625 22.49255 16.23940
#
# Velocity S-wave (km/s) = 2.12787 3.19348 2.71350
# Velocity P-wave (km/s) = 4.64084 5.79692 5.25079
#
# Compressibility (1/GPa) = 0.02925161
#
# Stress axis : x y z
#
# Youngs Moduli (GPa) = 80.71965 45.93231 58.21044
#
# Poissons Ratio (x) = -0.01955 0.28704
# Poissons Ratio (y) = -0.03436 0.38059
# Poissons Ratio (z) = 0.39803 0.30032
#
# Static dielectric constant tensor:
#      x y z
#    x 4.332690 0.000000 -0.315330 
#    y 0.000000 3.834340 0.000000 
#    z -0.315330 0.000000 3.719660 
# 
# 
# High freq. dielectric constant tensor:
#      x y z
#    x 1.877900 0.000000 -0.019970 
#    y 0.000000 1.856560 0.000000 
#    z -0.019970 0.000000 1.844890 
# 
# From -- ./inp_files/284606.got.cif
#   From: 2010.06.25/outbox.cif.g09.slc.cpg/sg12_143_cif.got.tgz:284606.got - 2010.06.28 00:19:55.
