data_PCOD8106584
_publ_section_title
;
Structure prediction by ZEFSAII (Michael W. Deem and Ramdas Pophale) SiO2 
 PCOD8106584
Probable space group: C 2/M
;
_chemical_formula_sum "Si O2"
_cell_formula_units_Z 64
_cell_length_a 18.902903
_cell_length_b 13.757375
_cell_length_c 11.647401
_cell_angle_alpha 90.000000
_cell_angle_beta 98.010806
_cell_angle_gamma 90.000000
_cell_volume 2999.399848
_symmetry_space_group_name_H-M "C 2/M"
_symmetry_group_IT_number 12
_symmetry_cell_setting 'monoclinic'
loop_
_space_group_symop_operation_xyz
x,y,z
-x,y,-z
-x,-y,-z
x,-y,z
1/2+x,1/2+y,z
1/2-x,1/2+y,-z
1/2-x,1/2-y,-z
1/2+x,1/2-y,z
loop_
_atom_site_type_symbol
_atom_site_label
_atom_site_fract_x
_atom_site_fract_y
_atom_site_fract_z
Si Si1 0.171295 0.614833 0.959879
Si Si2 0.466518 0.792286 0.179805
Si Si3 0.437878 0.895479 0.401298
Si Si4 0.289977 0.389273 0.578465
Si Si5 0.037091 0.891401 0.130004
Si Si6 0.301952 0.610144 0.840208
Si Si7 0.656110 0.808189 0.433045
Si Si8 0.893567 0.612388 0.820914
O O1 0.159591 0.500000 0.928954
O O2 0.109322 0.680410 0.890767
O O3 0.246680 0.652900 0.923088
O O4 0.168069 0.632692 0.097042
O O5 0.470263 0.831133 0.308893
O O6 0.483703 0.676974 0.191275
O O7 0.531991 0.838664 0.122099
O O8 0.500000 0.922404 0.500000
O O9 0.379948 0.835553 0.456408
O O10 0.406131 0.000000 0.350021
O O11 0.315157 0.500000 0.557617
O O12 0.264692 0.381530 0.706252
O O13 0.352290 0.308822 0.580528
O O14 0.234459 0.353356 0.469980
O O15 0.117718 0.843288 0.140037
O O16 0.041515 0.000000 0.186879
O O17 0.000000 0.898681 0.000000
O O18 0.315833 0.500000 0.879376
O O19 0.628839 0.853389 0.309577
O O20 0.910610 0.500000 0.816138
#
# Coordination Sequence:
#
# PCOD8106584 Si02
#       8
#     8   8   8   8   8   8   8   8
#     4  10  21  36  60  95 128 158 194 251 321 379
#     4  12  22  37  60  92 126 160 207 254 309 373
#     4  11  22  37  60  86 117 156 198 248 303 366
#     4  10  21  38  62  86 116 158 204 254 304 362
#     4  10  22  42  66  90 122 168 216 256 300 366
#     4   9  19  39  64  88 117 157 204 250 300 361
#     4  11  22  38  59  88 120 160 207 251 307 374
#     4  11  21  35  57  88 128 162 195 250 316 380
#
# _framework density 21.337603000000001
#
# number of rings (size 3 to 8) (size 9 to 14) (size 15 to 20)
#    0.000    1.500    1.250    4.875    0.000    2.000 
#    0.000    8.750    0.000    2.250    0.000    1.750 
#    0.000    0.000    0.000    0.000    0.000    0.000 
#
# Total GULP energy -396435.209413 kJ/mol
# GULP energy per Si atom -12388.600294 kJ/mol
# Density = 2.128904 g / cm^3
# Si number density = 21.337603 Si / 1000 Ang^3
#
#
#
# Elastic Constant Matrix: (Units=GPa)
#
#
# Indices 1 2 3 4 5 6 
#
# 1 88.9651 27.4128 28.7098 0.0000 -8.7995 0.0000
# 2 27.4128 119.5422 34.4440 0.0000 -26.8305 0.0000
# 3 28.7098 34.4440 84.8451 0.0000 -9.1472 0.0000
# 4 0.0000 0.0000 0.0000 20.0163 0.0000 -5.9497
# 5 -8.7995 -26.8305 -9.1472 0.0000 34.9958 0.0000
# 6 0.0000 0.0000 0.0000 -5.9497 0.0000 31.9336
#
#
#
# Elastic Compliance Matrix: (Units=1/GPa)
#
#
# Indices 1 2 3 4 5 6 
#
# 1 0.013034 -0.001723 -0.003601 0.000000 0.001015 0.000000
# 2 -0.001723 0.011358 -0.003227 0.000000 0.007431 0.000000
# 3 -0.003601 -0.003227 0.014355 0.000000 0.000373 0.000000
# 4 0.000000 0.000000 0.000000 0.052888 0.000000 0.009854
# 5 0.001015 0.007431 0.000373 0.000000 0.034625 0.000000
# 6 0.000000 0.000000 0.000000 0.009854 0.000000 0.033151
#
#
# Mechanical properties :
#
#
# Convention : Reuss Voigt Hill
#
# Bulk Modulus (GPa) = 46.20211 52.72062 49.46136
# Shear Modulus (GPa) = 27.21410 30.90820 29.06115
#
# Velocity S-wave (km/s) = 3.57516 3.81009 3.69449
# Velocity P-wave (km/s) = 6.22433 6.64208 6.43659
#
# Compressibility (1/GPa) = 0.02164403
#
# Stress axis : x y z
#
# Youngs Moduli (GPa) = 76.72264 88.04327 69.66271
#
# Poissons Ratio (x) = 0.15174 0.25088
# Poissons Ratio (y) = 0.13223 0.22477
# Poissons Ratio (z) = 0.27631 0.28408
#
# Static dielectric constant tensor:
#      x y z
#    x 4.245070 0.000000 -0.104640 
#    y 0.000000 4.206320 0.000000 
#    z -0.104640 0.000000 3.938220 
# 
# 
# High freq. dielectric constant tensor:
#      x y z
#    x 1.822770 0.000000 0.009300 
#    y 0.000000 1.846000 0.000000 
#    z 0.009300 0.000000 1.832670 
# 
# From -- ./inp_files/156614.got.cif
#   From: 2010.06.25/outbox.cif.g09.slc.cpg/sg12_79_cif.got.tgz:156614.got - 2010.06.28 00:19:55.
