data_PCOD8106393
_publ_section_title
;
Structure prediction by ZEFSAII (Michael W. Deem and Ramdas Pophale) SiO2 
 PCOD8106393
Probable space group: C 2/M
;
_chemical_formula_sum "Si O2"
_cell_formula_units_Z 40
_cell_length_a 17.453659
_cell_length_b 25.173484
_cell_length_c 9.392304
_cell_angle_alpha 90.000000
_cell_angle_beta 150.339164
_cell_angle_gamma 90.000000
_cell_volume 2042.154161
_symmetry_space_group_name_H-M "C 2/M"
_symmetry_group_IT_number 12
_symmetry_cell_setting 'monoclinic'
loop_
_space_group_symop_operation_xyz
x,y,z
-x,y,-z
-x,-y,-z
x,-y,z
1/2+x,1/2+y,z
1/2-x,1/2+y,-z
1/2-x,1/2-y,-z
1/2+x,1/2-y,z
loop_
_atom_site_type_symbol
_atom_site_label
_atom_site_fract_x
_atom_site_fract_y
_atom_site_fract_z
Si Si1 0.888702 0.788921 0.449282
Si Si2 0.033576 0.392636 0.712937
Si Si3 0.137403 0.908110 0.627846
Si Si4 0.468465 0.790705 0.115950
Si Si5 0.437177 0.000000 0.672718
Si Si6 0.255750 0.000000 0.645906
O O1 0.913201 0.851372 0.517915
O O2 0.000000 0.769643 0.500000
O O3 0.930485 0.757194 0.659037
O O4 0.708527 0.778551 0.126057
O O5 0.976722 0.346974 0.729555
O O6 0.000000 0.371932 0.500000
O O7 0.935795 0.446829 0.575653
O O8 0.214599 0.403575 0.029958
O O9 0.163139 0.946883 0.536456
O O10 0.000000 0.932429 0.500000
O O11 0.500000 0.794277 0.000000
O O12 0.283494 0.000000 0.521878
O O13 0.584882 0.000000 0.011979
#
# Coordination Sequence:
#
# PCOD8106393 Si02
#       6
#     8   8   8   8   4   4
#     4  10  21  38  58  82 115 150 190 225 277 339
#     4  10  21  36  58  84 111 144 184 228 273 331
#     4   9  19  34  58  83 110 147 186 221 273 335
#     4  11  23  37  58  86 114 146 190 235 280 326
#     4   9  19  32  57  83 111 142 180 230 276 324
#     4   9  17  32  57  83 112 141 182 230 275 321
#
# _framework density 19.587160999999998
#
# number of rings (size 3 to 8) (size 9 to 14) (size 15 to 20)
#    0.000    2.200    0.000    2.400    8.400    3.200 
#    0.000    0.000    0.000    1.200    0.000    0.000 
#    0.000    0.000    0.000    0.000    0.000    0.000 
#
# Total GULP energy -248018.791252 kJ/mol
# GULP energy per Si atom -12400.939563 kJ/mol
# Density = 1.954258 g / cm^3
# Si number density = 19.587161 Si / 1000 Ang^3
#
#
#
# Elastic Constant Matrix: (Units=GPa)
#
#
# Indices 1 2 3 4 5 6 
#
# 1 124.2604 60.2441 38.5551 0.0000 -10.6732 0.0000
# 2 60.2441 127.1564 46.0408 0.0000 -12.0595 0.0000
# 3 38.5551 46.0408 48.3020 0.0000 -9.5242 0.0000
# 4 0.0000 0.0000 0.0000 22.1657 0.0000 -0.0827
# 5 -10.6732 -12.0595 -9.5242 0.0000 35.3296 0.0000
# 6 0.0000 0.0000 0.0000 -0.0827 0.0000 29.5328
#
#
#
# Elastic Compliance Matrix: (Units=1/GPa)
#
#
# Indices 1 2 3 4 5 6 
#
# 1 0.011533 -0.003226 -0.005978 0.000000 0.000771 0.000000
# 2 -0.003226 0.012950 -0.009599 0.000000 0.000858 0.000000
# 3 -0.005978 -0.009599 0.035510 0.000000 0.004490 0.000000
# 4 0.000000 0.000000 0.000000 0.045115 0.000000 0.000126
# 5 0.000771 0.000858 0.004490 0.000000 0.030041 0.000000
# 6 0.000000 0.000000 0.000000 0.000126 0.000000 0.033861
#
#
# Mechanical properties :
#
#
# Convention : Reuss Voigt Hill
#
# Bulk Modulus (GPa) = 44.67209 65.48875 55.08042
# Shear Modulus (GPa) = 23.35571 27.73090 25.54330
#
# Velocity S-wave (km/s) = 3.45686 3.76675 3.61513
# Velocity P-wave (km/s) = 6.22812 7.24051 6.75331
#
# Compressibility (1/GPa) = 0.02238534
#
# Stress axis : x y z
#
# Youngs Moduli (GPa) = 86.70776 77.22031 28.16075
#
# Poissons Ratio (x) = 0.24913 0.16836
# Poissons Ratio (y) = 0.27974 0.27032
# Poissons Ratio (z) = 0.51838 0.74126
#
# Static dielectric constant tensor:
#      x y z
#    x 3.685270 0.000000 0.193940 
#    y 0.000000 3.723640 0.000000 
#    z 0.193940 0.000000 3.265530 
# 
# 
# High freq. dielectric constant tensor:
#      x y z
#    x 1.765630 0.000000 0.009330 
#    y 0.000000 1.777780 0.000000 
#    z 0.009330 0.000000 1.730890 
# 
# From -- ./inp_files/50998.got.cif
#   From: 2010.06.25/outbox.cif.g09.slc.cpg/sg12_26_cif.got.tgz:50998.got - 2010.06.28 00:19:55.
