data_PCOD8106965
_publ_section_title
;
Structure prediction by ZEFSAII (Michael W. Deem and Ramdas Pophale) SiO2 
 PCOD8106965
Probable space group: C 2/M
;
_chemical_formula_sum "Si O2"
_cell_formula_units_Z 56
_cell_length_a 19.746453
_cell_length_b 9.075566
_cell_length_c 28.494711
_cell_angle_alpha 90.000000
_cell_angle_beta 146.986744
_cell_angle_gamma 90.000000
_cell_volume 2782.213932
_symmetry_space_group_name_H-M "C 2/M"
_symmetry_group_IT_number 12
_symmetry_cell_setting 'monoclinic'
loop_
_space_group_symop_operation_xyz
x,y,z
-x,y,-z
-x,-y,-z
x,-y,z
1/2+x,1/2+y,z
1/2-x,1/2+y,-z
1/2-x,1/2-y,-z
1/2+x,1/2-y,z
loop_
_atom_site_type_symbol
_atom_site_label
_atom_site_fract_x
_atom_site_fract_y
_atom_site_fract_z
Si Si1 0.215373 0.831069 0.246842
Si Si2 0.198152 0.333364 0.538429
Si Si3 0.141568 0.827968 0.593686
Si Si4 0.434298 0.329763 0.099713
Si Si5 0.249326 0.829092 0.925518
Si Si6 0.057148 0.167144 0.380990
Si Si7 0.819118 0.670870 0.207360
O O1 0.318342 0.730606 0.332055
O O2 0.227424 0.805852 0.198140
O O3 0.078395 0.784191 0.184206
O O4 0.242235 0.000000 0.275723
O O5 0.153210 0.500000 0.520433
O O6 0.225147 0.254316 0.603437
O O7 0.087478 0.248540 0.447268
O O8 0.324560 0.328449 0.583495
O O9 0.000000 0.787598 0.500000
O O10 0.167640 0.000000 0.606044
O O11 0.417487 0.500000 0.074620
O O12 0.377044 0.303486 0.118150
O O13 0.366897 0.226073 0.023244
O O14 0.246655 0.738279 0.876126
O O15 0.267666 0.000000 0.924167
O O16 0.948418 0.247789 0.290536
O O17 0.018346 0.000000 0.370479
O O18 0.847077 0.500000 0.214703
#
# Coordination Sequence:
#
# PCOD8106965 Si02
#       7
#     8   8   8   8   8   8   8
#     4  10  23  41  61  86 118 159 204 246 292 353
#     4  10  21  37  58  82 111 153 199 244 295 354
#     4  11  24  39  57  84 119 157 198 248 299 346
#     4   9  20  41  64  87 117 153 197 243 293 356
#     4  10  21  38  63  91 120 153 193 245 300 354
#     4  10  21  37  57  83 117 151 194 248 297 348
#     4  11  23  38  59  87 120 158 197 242 295 354
#
# _framework density 20.127856999999999
#
# number of rings (size 3 to 8) (size 9 to 14) (size 15 to 20)
#    0.000    1.857    0.000    3.000    2.000    8.000 
#    0.000    2.857    0.000    0.000    0.000    0.000 
#    0.000    0.000    0.000    0.000    0.000    0.000 
#
# Total GULP energy -347350.495515 kJ/mol
# GULP energy per Si atom -12405.374840 kJ/mol
# Density = 2.008205 g / cm^3
# Si number density = 20.127857 Si / 1000 Ang^3
#
#
#
# Elastic Constant Matrix: (Units=GPa)
#
#
# Indices 1 2 3 4 5 6 
#
# 1 80.4007 55.8602 45.1869 0.0000 -14.9645 0.0000
# 2 55.8602 138.6163 58.5627 -0.0001 -4.0674 0.0002
# 3 45.1869 58.5627 91.8082 0.0000 -1.2205 0.0000
# 4 0.0000 -0.0001 0.0000 39.7695 0.0000 -6.8636
# 5 -14.9645 -4.0674 -1.2205 0.0000 28.7967 0.0000
# 6 0.0000 0.0002 0.0000 -6.8636 0.0000 28.7312
#
#
#
# Elastic Compliance Matrix: (Units=1/GPa)
#
#
# Indices 1 2 3 4 5 6 
#
# 1 0.022422 -0.005644 -0.007295 0.000000 0.010545 0.000000
# 2 -0.005644 0.011333 -0.004471 0.000000 -0.001522 0.000000
# 3 -0.007295 -0.004471 0.017286 0.000000 -0.003690 0.000000
# 4 0.000000 0.000000 0.000000 0.026226 0.000000 0.006265
# 5 0.010545 -0.001522 -0.003690 0.000000 0.039835 0.000000
# 6 0.000000 0.000000 0.000000 0.006265 0.000000 0.036302
#
#
# Mechanical properties :
#
#
# Convention : Reuss Voigt Hill
#
# Bulk Modulus (GPa) = 61.65454 70.00497 65.82976
# Shear Modulus (GPa) = 25.82207 29.54049 27.68128
#
# Velocity S-wave (km/s) = 3.58565 3.83514 3.71249
# Velocity P-wave (km/s) = 6.91668 7.38015 7.15217
#
# Compressibility (1/GPa) = 0.01621941
#
# Stress axis : x y z
#
# Youngs Moduli (GPa) = 44.59902 88.23715 57.84975
#
# Poissons Ratio (x) = 0.49802 0.42204
# Poissons Ratio (y) = 0.25172 0.25867
# Poissons Ratio (z) = 0.32537 0.39455
#
# Static dielectric constant tensor:
#      x y z
#    x 3.731140 0.000000 -0.060040 
#    y 0.000000 3.828440 0.000000 
#    z -0.060040 0.000000 3.530100 
# 
# 
# High freq. dielectric constant tensor:
#      x y z
#    x 1.793170 0.000000 -0.003980 
#    y 0.000000 1.796350 0.000000 
#    z -0.003980 0.000000 1.778220 
# 
# From -- ./inp_files/380617.got.cif
#   From: 2010.06.25/outbox.cif.g09.slc.cpg/sg12_191_cif.got.tgz:380617.got - 2010.06.28 00:19:55.
