data_PCOD8106818
_publ_section_title
;
Structure prediction by ZEFSAII (Michael W. Deem and Ramdas Pophale) SiO2 
 PCOD8106818
Probable space group: C 2/M
;
_chemical_formula_sum "Si O2"
_cell_formula_units_Z 56
_cell_length_a 18.434084
_cell_length_b 8.854302
_cell_length_c 29.270547
_cell_angle_alpha 90.000000
_cell_angle_beta 37.792592
_cell_angle_gamma 90.000000
_cell_volume 2927.716032
_symmetry_space_group_name_H-M "C 2/M"
_symmetry_group_IT_number 12
_symmetry_cell_setting 'monoclinic'
loop_
_space_group_symop_operation_xyz
x,y,z
-x,y,-z
-x,-y,-z
x,-y,z
1/2+x,1/2+y,z
1/2-x,1/2+y,-z
1/2-x,1/2-y,-z
1/2+x,1/2-y,z
loop_
_atom_site_type_symbol
_atom_site_label
_atom_site_fract_x
_atom_site_fract_y
_atom_site_fract_z
Si Si1 0.902280 0.176412 0.639076
Si Si2 0.484938 0.677978 0.780345
Si Si3 0.864781 0.325743 0.063556
Si Si4 0.335674 0.673826 0.770065
Si Si5 0.321073 0.324421 0.505469
Si Si6 0.754407 0.677191 0.633519
Si Si7 0.208618 0.677285 0.067059
O O1 0.850635 0.245664 0.712336
O O2 0.845646 0.267896 0.625985
O O3 0.041133 0.207136 0.570121
O O4 0.872355 0.000000 0.647265
O O5 0.460734 0.500000 0.796198
O O6 0.428634 0.740764 0.760821
O O7 0.622168 0.719581 0.715056
O O8 0.419775 0.758109 0.855066
O O9 0.852722 0.500000 0.053616
O O10 0.798723 0.303349 0.145138
O O11 0.805874 0.216732 0.056405
O O12 0.000000 0.275971 0.000000
O O13 0.369166 0.500000 0.747022
O O14 0.292100 0.500000 0.519981
O O15 0.250000 0.250000 0.500000
O O16 0.279754 0.256860 0.573558
O O17 0.768822 0.500000 0.619051
O O18 0.198134 0.500000 0.066064
O O19 0.250000 0.750000 0.000000
#
# Coordination Sequence:
#
# PCOD8106818 Si02
#       7
#     8   8   8   8   8   8   8
#     4  10  21  37  56  81 114 151 188 227 277 335
#     4   9  19  38  59  79 107 145 189 234 282 336
#     4   9  18  34  56  82 112 147 186 229 281 338
#     4   8  15  32  56  76 101 141 185 226 271 328
#     4  11  23  39  60  84 112 149 191 233 278 334
#     4  11  23  38  58  85 116 148 184 232 284 330
#     4  11  22  36  56  82 113 149 189 233 280 331
#
# _framework density 19.127537
#
# number of rings (size 3 to 8) (size 9 to 14) (size 15 to 20)
#    0.000    2.143    0.000    4.286    0.000    7.714 
#    0.000    4.286    0.000    0.000    0.000    0.000 
#    0.000    0.000    0.000    0.000    0.000    0.000 
#
# Total GULP energy -347217.533787 kJ/mol
# GULP energy per Si atom -12400.626207 kJ/mol
# Density = 1.908400 g / cm^3
# Si number density = 19.127537 Si / 1000 Ang^3
#
#
#
# Elastic Constant Matrix: (Units=GPa)
#
#
# Indices 1 2 3 4 5 6 
#
# 1 117.4533 53.1326 78.8098 0.0042 8.2983 0.0430
# 2 53.1326 87.8132 74.5115 0.0008 2.9326 0.0062
# 3 78.8098 74.5115 155.2365 0.0015 11.7408 0.0072
# 4 0.0042 0.0008 0.0015 27.8885 -0.0046 3.4619
# 5 8.2983 2.9326 11.7408 -0.0046 38.6301 -0.0051
# 6 0.0430 0.0062 0.0072 3.4619 -0.0051 26.5683
#
#
#
# Elastic Compliance Matrix: (Units=1/GPa)
#
#
# Indices 1 2 3 4 5 6 
#
# 1 0.013759 -0.004105 -0.004928 0.000001 -0.001146 -0.000020
# 2 -0.004105 0.020509 -0.007890 0.000000 0.001723 0.000004
# 3 -0.004928 -0.007890 0.012902 -0.000001 -0.002264 0.000006
# 4 0.000001 0.000000 -0.000001 0.036447 0.000004 -0.004749
# 5 -0.001146 0.001723 -0.002264 0.000004 0.026690 0.000007
# 6 -0.000020 0.000004 0.000006 -0.004749 0.000007 0.038258
#
#
# Mechanical properties :
#
#
# Convention : Reuss Voigt Hill
#
# Bulk Modulus (GPa) = 75.05734 85.93453 80.49594
# Shear Modulus (GPa) = 26.75912 28.88731 27.82322
#
# Velocity S-wave (km/s) = 3.74436 3.89041 3.81808
# Velocity P-wave (km/s) = 7.61704 8.07496 7.84934
#
# Compressibility (1/GPa) = 0.01332315
#
# Stress axis : x y z
#
# Youngs Moduli (GPa) = 72.68211 48.75812 77.50740
#
# Poissons Ratio (x) = 0.20016 0.38194
# Poissons Ratio (y) = 0.29838 0.61157
# Poissons Ratio (z) = 0.35816 0.38472
#
# Static dielectric constant tensor:
#      x y z
#    x 3.530420 -0.000050 0.042580 
#    y -0.000050 3.376700 0.000010 
#    z 0.042580 0.000010 3.817410 
# 
# 
# High freq. dielectric constant tensor:
#      x y z
#    x 1.742810 0.000000 0.000740 
#    y 0.000000 1.728520 0.000000 
#    z 0.000740 0.000000 1.763160 
# 
# From -- ./inp_files/362989.got.cif
#   From: 2010.06.25/outbox.cif.g09.slc.cpg/sg12_182_cif.got.tgz:362989.got - 2010.06.28 00:19:55.
