data_PCOD8106028
_publ_section_title
;
Structure prediction by ZEFSAII (Michael W. Deem and Ramdas Pophale) SiO2 
 PCOD8106028
Probable space group: C 2/M
;
_chemical_formula_sum "Si O2"
_cell_formula_units_Z 56
_cell_length_a 15.087161
_cell_length_b 15.081405
_cell_length_c 16.635308
_cell_angle_alpha 90.000000
_cell_angle_beta 49.336767
_cell_angle_gamma 90.000000
_cell_volume 2871.216196
_symmetry_space_group_name_H-M "C 2/M"
_symmetry_group_IT_number 12
_symmetry_cell_setting 'monoclinic'
loop_
_space_group_symop_operation_xyz
x,y,z
-x,y,-z
-x,-y,-z
x,-y,z
1/2+x,1/2+y,z
1/2-x,1/2+y,-z
1/2-x,1/2-y,-z
1/2+x,1/2-y,z
loop_
_atom_site_type_symbol
_atom_site_label
_atom_site_fract_x
_atom_site_fract_y
_atom_site_fract_z
Si Si1 0.975485 0.315703 0.183372
Si Si2 0.288285 0.101492 0.184514
Si Si3 0.971480 0.898041 0.607909
Si Si4 0.506480 0.899934 0.405926
Si Si5 0.320429 0.100170 0.829153
Si Si6 0.619470 0.251322 0.606207
Si Si7 0.670148 0.750527 0.969731
O O1 0.888571 0.383957 0.191488
O O2 0.898729 0.252389 0.286770
O O3 0.076805 0.368017 0.171358
O O4 0.035247 0.253756 0.078884
O O5 0.163898 0.123289 0.297883
O O6 0.303692 0.162597 0.097951
O O7 0.294494 0.000000 0.151520
O O8 0.000000 0.873760 0.500000
O O9 0.050279 0.837133 0.617653
O O10 0.002056 0.000000 0.609390
O O11 0.500000 0.861848 0.500000
O O12 0.635405 0.895533 0.289744
O O13 0.424104 0.841774 0.400528
O O14 0.457567 0.000000 0.433822
O O15 0.203974 0.160996 0.901579
O O16 0.285905 0.000000 0.873036
O O17 0.750000 0.250000 0.500000
O O18 0.750000 0.750000 0.000000
#
# Coordination Sequence:
#
# PCOD8106028 Si02
#       7
#     8   8   8   8   8   8   8
#     4  10  21  36  54  83 115 142 183 233 274 324
#     4  11  22  37  60  85 112 147 184 227 281 332
#     4  10  21  37  57  84 116 149 188 232 276 328
#     4   9  18  33  54  80 107 138 184 232 269 318
#     4   9  18  34  57  81 109 146 183 225 276 325
#     4  11  22  36  57  81 112 150 181 221 280 336
#     4  10  21  36  54  80 113 142 181 230 273 326
#
# _framework density 19.50393
#
# number of rings (size 3 to 8) (size 9 to 14) (size 15 to 20)
#    0.000    2.000    0.000    4.714    0.000    5.714 
#    0.000    0.714    0.000    2.571    0.000    0.000 
#    0.000    0.000    0.000    0.000    0.000    0.000 
#
# Total GULP energy -347078.395177 kJ/mol
# GULP energy per Si atom -12395.656971 kJ/mol
# Density = 1.945954 g / cm^3
# Si number density = 19.503930 Si / 1000 Ang^3
#
#
#
# Elastic Constant Matrix: (Units=GPa)
#
#
# Indices 1 2 3 4 5 6 
#
# 1 58.9099 40.6871 43.7653 0.0000 -1.5899 0.0000
# 2 40.6871 116.5302 71.6903 0.0000 -3.7941 0.0000
# 3 43.7653 71.6903 176.2458 0.0000 -3.8754 0.0000
# 4 0.0000 0.0000 0.0000 13.3107 0.0000 16.8215
# 5 -1.5899 -3.7941 -3.8754 0.0000 36.5168 0.0000
# 6 0.0000 0.0000 0.0000 16.8215 0.0000 11.2158
#
#
#
# Elastic Compliance Matrix: (Units=1/GPa)
#
#
# Indices 1 2 3 4 5 6 
#
# 1 0.023782 -0.006229 -0.003371 0.000000 0.000031 0.000000
# 2 -0.006229 0.013095 -0.003765 0.000000 0.000690 0.000000
# 3 -0.003371 -0.003765 0.008049 0.000000 0.000316 0.000000
# 4 0.000000 0.000000 0.000000 -0.083906 0.000000 0.125842
# 5 0.000031 0.000690 0.000316 0.000000 0.027491 0.000000
# 6 0.000000 0.000000 0.000000 0.125842 0.000000 -0.099578
#
#
# Mechanical properties :
#
#
# Convention : Reuss Voigt Hill
#
# Bulk Modulus (GPa) = 54.95341 73.77460 64.36401
# Shear Modulus (GPa) = -63.88034 25.24489 -19.31773
#
# Velocity S-wave (km/s) = -5.72919 3.60161 -3.15056
# Velocity P-wave (km/s) = 3.94058 7.42988 4.45393
#
# Compressibility (1/GPa) = 0.01819723
#
# Stress axis : x y z
#
# Youngs Moduli (GPa) = 42.04772 76.36680 124.23403
#
# Poissons Ratio (x) = 0.47566 0.41884
# Poissons Ratio (y) = 0.26190 0.46769
# Poissons Ratio (z) = 0.14176 0.28749
#
# Static dielectric constant tensor:
#      x y z
#    x 3.327770 0.000000 -0.122440 
#    y 0.000000 3.623750 0.000000 
#    z -0.122440 0.000000 4.687320 
# 
# 
# High freq. dielectric constant tensor:
#      x y z
#    x 1.733000 0.000000 0.007420 
#    y 0.000000 1.760660 0.000000 
#    z 0.007420 0.000000 1.785550 
# 
# From -- ./inp_files/270198.got.cif
#   From: 2010.06.25/outbox.cif.g09.slc.cpg/sg12_136_cif.got.tgz:270198.got - 2010.06.28 00:19:55.
