data_PCOD8106037
_publ_section_title
;
Structure prediction by ZEFSAII (Michael W. Deem and Ramdas Pophale) SiO2 
 PCOD8106037
Probable space group: C 2/M
;
_chemical_formula_sum "Si O2"
_cell_formula_units_Z 48
_cell_length_a 15.692838
_cell_length_b 8.980353
_cell_length_c 16.742278
_cell_angle_alpha 90.000000
_cell_angle_beta 89.217470
_cell_angle_gamma 90.000000
_cell_volume 2359.222721
_symmetry_space_group_name_H-M "C 2/M"
_symmetry_group_IT_number 12
_symmetry_cell_setting 'monoclinic'
loop_
_space_group_symop_operation_xyz
x,y,z
-x,y,-z
-x,-y,-z
x,-y,z
1/2+x,1/2+y,z
1/2-x,1/2+y,-z
1/2-x,1/2-y,-z
1/2+x,1/2-y,z
loop_
_atom_site_type_symbol
_atom_site_label
_atom_site_fract_x
_atom_site_fract_y
_atom_site_fract_z
Si Si1 0.600225 0.829804 0.494317
Si Si2 0.585614 0.175937 0.185796
Si Si3 0.914857 0.175636 0.182923
Si Si4 0.654357 0.829708 0.667304
Si Si5 0.149582 0.170271 0.336113
Si Si6 0.249184 0.176014 0.914528
O O1 0.500000 0.810627 0.500000
O O2 0.640367 0.775194 0.577103
O O3 0.638087 0.724747 0.426213
O O4 0.626216 0.000000 0.475621
O O5 0.500957 0.248403 0.148230
O O6 0.593932 0.230629 0.276874
O O7 0.667267 0.229713 0.134354
O O8 0.576093 0.000000 0.185418
O O9 0.900850 0.226358 0.274153
O O10 0.835455 0.229752 0.130462
O O11 0.925964 0.000000 0.179835
O O12 0.752425 0.813175 0.689735
O O13 0.622688 0.000000 0.676926
O O14 0.119146 0.000000 0.330054
O O15 0.249490 0.000000 0.924468
O O16 0.250000 0.250000 0.000000
#
# Coordination Sequence:
#
# PCOD8106037 Si02
#       6
#     8   8   8   8   8   8
#     4  10  21  36  54  80 118 163 210 258 308 364
#     4  11  23  42  65  92 126 167 208 251 310 372
#     4  11  23  41  65  96 127 162 208 257 308 364
#     4  10  21  37  58  87 122 165 210 253 309 368
#     4  11  22  36  58  88 120 161 212 260 307 361
#     4  10  24  44  67  94 127 163 202 250 309 371
#
# _framework density 20.345685
#
# number of rings (size 3 to 8) (size 9 to 14) (size 15 to 20)
#    0.000    1.500    1.667    3.000    0.000    6.333 
#    0.000    3.333    0.000    0.000    0.000    0.000 
#    0.000    0.000    0.000    0.000    0.000    0.000 
#
# Total GULP energy -297741.203780 kJ/mol
# GULP energy per Si atom -12405.883491 kJ/mol
# Density = 2.029938 g / cm^3
# Si number density = 20.345685 Si / 1000 Ang^3
#
#
#
# Elastic Constant Matrix: (Units=GPa)
#
#
# Indices 1 2 3 4 5 6 
#
# 1 142.2356 54.8005 58.5930 0.0000 6.2727 0.0000
# 2 54.8005 78.4395 45.6640 0.0000 -1.1556 0.0000
# 3 58.5930 45.6640 121.7798 0.0000 2.8319 0.0000
# 4 0.0000 0.0000 0.0000 38.4959 0.0000 2.0534
# 5 6.2727 -1.1556 2.8319 0.0000 21.1023 0.0000
# 6 0.0000 0.0000 0.0000 2.0534 0.0000 25.9873
#
#
#
# Elastic Compliance Matrix: (Units=1/GPa)
#
#
# Indices 1 2 3 4 5 6 
#
# 1 0.010560 -0.005765 -0.002848 0.000000 -0.003073 0.000000
# 2 -0.005765 0.019519 -0.004624 0.000000 0.003403 0.000000
# 3 -0.002848 -0.004624 0.011337 0.000000 -0.000928 0.000000
# 4 0.000000 0.000000 0.000000 0.026087 0.000000 -0.002061
# 5 -0.003073 0.003403 -0.000928 0.000000 0.048612 0.000000
# 6 0.000000 0.000000 0.000000 -0.002061 0.000000 0.038643
#
#
# Mechanical properties :
#
#
# Convention : Reuss Voigt Hill
#
# Bulk Modulus (GPa) = 66.92613 73.39664 70.16138
# Shear Modulus (GPa) = 26.85087 29.34362 28.09725
#
# Velocity S-wave (km/s) = 3.63675 3.80182 3.72020
# Velocity P-wave (km/s) = 7.11341 7.44479 7.28098
#
# Compressibility (1/GPa) = 0.01494185
#
# Stress axis : x y z
#
# Youngs Moduli (GPa) = 94.69273 51.23304 88.20502
#
# Poissons Ratio (x) = 0.29538 0.25119
# Poissons Ratio (y) = 0.54593 0.40787
# Poissons Ratio (z) = 0.26966 0.23691
#
# Static dielectric constant tensor:
#      x y z
#    x 3.929280 0.000000 0.061280 
#    y 0.000000 3.618530 0.000000 
#    z 0.061280 0.000000 3.606360 
# 
# 
# High freq. dielectric constant tensor:
#      x y z
#    x 1.811700 0.000000 0.004220 
#    y 0.000000 1.791930 0.000000 
#    z 0.004220 0.000000 1.790130 
# 
# From -- ./inp_files/267689.got.cif
#   From: 2010.06.25/outbox.cif.g09.slc.cpg/sg12_134_cif.got.tgz:267689.got - 2010.06.28 00:19:55.
