data_PCOD8106888
_publ_section_title
;
Structure prediction by ZEFSAII (Michael W. Deem and Ramdas Pophale) SiO2 
 PCOD8106888
Probable space group: C 2/M
;
_chemical_formula_sum "Si O2"
_cell_formula_units_Z 56
_cell_length_a 8.877348
_cell_length_b 19.130853
_cell_length_c 17.917784
_cell_angle_alpha 90.000000
_cell_angle_beta 104.342977
_cell_angle_gamma 90.000000
_cell_volume 2948.149744
_symmetry_space_group_name_H-M "C 2/M"
_symmetry_group_IT_number 12
_symmetry_cell_setting 'monoclinic'
loop_
_space_group_symop_operation_xyz
x,y,z
-x,y,-z
-x,-y,-z
x,-y,z
1/2+x,1/2+y,z
1/2-x,1/2+y,-z
1/2-x,1/2-y,-z
1/2+x,1/2-y,z
loop_
_atom_site_type_symbol
_atom_site_label
_atom_site_fract_x
_atom_site_fract_y
_atom_site_fract_z
Si Si1 0.883985 0.582378 0.421932
Si Si2 0.525269 0.177945 0.698888
Si Si3 0.384837 0.177392 0.122765
Si Si4 0.173617 0.177945 0.698888
Si Si5 0.676700 0.581738 1.000000
Si Si6 0.237927 0.677393 0.122764
Si Si7 0.537947 0.582378 0.421932
O O1 0.899389 0.500000 0.414378
O O2 0.711711 0.605523 0.423421
O O3 0.000000 0.610127 0.500000
O O4 0.928479 0.614595 0.348354
O O5 0.605482 0.163276 0.787998
O O6 0.341239 0.182749 0.682479
O O7 0.585630 0.250000 0.671262
O O8 0.288223 0.114142 0.076261
O O9 0.297697 0.249999 0.095396
O O10 0.552685 0.181150 0.105371
O O11 0.182515 0.163277 0.787999
O O12 0.080125 0.114595 0.651647
O O13 0.712832 0.500000 0.999999
O O14 0.500000 0.597091 0.000000
O O15 0.711963 0.614144 0.923740
O O16 0.500000 0.610127 0.500000
O O17 0.514986 0.500000 0.414378
#
# Coordination Sequence:
#
# PCOD8106888 Si02
#       7
#     8   8   8   8   8   8   8
#     4  10  21  37  57  81 111 147 185 226 273 326
#     4  10  21  37  58  84 112 143 182 227 274 325
#     4  10  21  38  60  83 110 145 183 225 273 327
#     4  10  21  37  58  84 112 143 182 227 274 325
#     4  11  24  39  56  81 113 147 184 227 272 321
#     4  10  21  38  60  83 110 145 183 225 273 327
#     4  10  21  37  57  81 111 147 185 226 273 326
#
# _framework density 18.994965000000001
#
# number of rings (size 3 to 8) (size 9 to 14) (size 15 to 20)
#    0.000    1.857    0.000    3.429    0.000    8.000 
#    0.000    8.571    0.000    0.000    0.000    0.000 
#    0.000    0.000    0.000    0.000    0.000    0.000 
#
# Total GULP energy -347370.725281 kJ/mol
# GULP energy per Si atom -12406.097331 kJ/mol
# Density = 1.895173 g / cm^3
# Si number density = 18.994965 Si / 1000 Ang^3
#
#
#
# Elastic Constant Matrix: (Units=GPa)
#
#
# Indices 1 2 3 4 5 6 
#
# 1 139.9167 64.0870 66.9415 0.0000 -0.0714 0.0000
# 2 64.0870 86.4472 59.4993 0.0000 0.2204 0.0000
# 3 66.9415 59.4993 105.4501 0.0000 1.7285 0.0000
# 4 0.0000 0.0000 0.0000 44.1127 0.0000 -0.3107
# 5 -0.0714 0.2204 1.7285 0.0000 37.1377 0.0000
# 6 0.0000 0.0000 0.0000 -0.3107 0.0000 37.6536
#
#
#
# Elastic Compliance Matrix: (Units=1/GPa)
#
#
# Indices 1 2 3 4 5 6 
#
# 1 0.011861 -0.005900 -0.004205 0.000000 0.000254 0.000000
# 2 -0.005900 0.021852 -0.008589 0.000000 0.000259 0.000000
# 3 -0.004205 -0.008589 0.017011 0.000000 -0.000749 0.000000
# 4 0.000000 0.000000 0.000000 0.022671 0.000000 0.000187
# 5 0.000254 0.000259 -0.000749 0.000000 0.026961 0.000000
# 6 0.000000 0.000000 0.000000 0.000187 0.000000 0.026559
#
#
# Mechanical properties :
#
#
# Convention : Reuss Voigt Hill
#
# Bulk Modulus (GPa) = 74.97782 79.20775 77.09279
# Shear Modulus (GPa) = 29.62976 33.19986 31.41481
#
# Velocity S-wave (km/s) = 3.95381 4.18523 4.07117
# Velocity P-wave (km/s) = 7.77185 8.07123 7.92295
#
# Compressibility (1/GPa) = 0.01333728
#
# Stress axis : x y z
#
# Youngs Moduli (GPa) = 84.30686 45.76142 58.78485
#
# Poissons Ratio (x) = 0.26998 0.24720
# Poissons Ratio (y) = 0.49739 0.50490
# Poissons Ratio (z) = 0.35452 0.39305
#
# Static dielectric constant tensor:
#      x y z
#    x 3.693130 0.000000 0.008290 
#    y 0.000000 3.373430 0.000000 
#    z 0.008290 0.000000 3.520860 
# 
# 
# High freq. dielectric constant tensor:
#      x y z
#    x 1.759030 0.000000 0.000560 
#    y 0.000000 1.733770 0.000000 
#    z 0.000560 0.000000 1.747410 
# 
# From -- ./inp_files/257186.got.cif
#   From: 2010.06.25/outbox.cif.g09.slc.cpg/sg12_129_cif.got.tgz:257186.got - 2010.06.28 00:19:55.
