data_PCOD8106726
_publ_section_title
;
Structure prediction by ZEFSAII (Michael W. Deem and Ramdas Pophale) SiO2 
 PCOD8106726
Probable space group: C 2/M
;
_chemical_formula_sum "Si O2"
_cell_formula_units_Z 48
_cell_length_a 15.292972
_cell_length_b 8.807357
_cell_length_c 18.124793
_cell_angle_alpha 90.000000
_cell_angle_beta 88.635351
_cell_angle_gamma 90.000000
_cell_volume 2440.548005
_symmetry_space_group_name_H-M "C 2/M"
_symmetry_group_IT_number 12
_symmetry_cell_setting 'monoclinic'
loop_
_space_group_symop_operation_xyz
x,y,z
-x,y,-z
-x,-y,-z
x,-y,z
1/2+x,1/2+y,z
1/2-x,1/2+y,-z
1/2-x,1/2-y,-z
1/2+x,1/2-y,z
loop_
_atom_site_type_symbol
_atom_site_label
_atom_site_fract_x
_atom_site_fract_y
_atom_site_fract_z
Si Si1 0.663529 0.820942 0.587173
Si Si2 0.342084 0.821091 0.579239
Si Si3 0.986395 0.820465 0.162952
Si Si4 0.178801 0.323601 0.903536
Si Si5 0.357557 0.823687 0.925393
Si Si6 0.497236 0.179749 0.681957
O O1 0.641587 0.763592 0.504741
O O2 0.753670 0.749644 0.613953
O O3 0.588224 0.767759 0.644122
O O4 0.672481 0.000000 0.587331
O O5 0.421855 0.766930 0.627815
O O6 0.332682 0.000000 0.581219
O O7 0.891501 0.749676 0.149514
O O8 0.055998 0.762194 0.102120
O O9 0.018091 0.768945 0.242464
O O10 0.979852 0.000000 0.157870
O O11 0.188556 0.500000 0.884263
O O12 0.271996 0.244249 0.887415
O O13 0.147718 0.297133 0.987414
O O14 0.365083 0.000000 0.904636
O O15 0.494459 0.000000 0.696677
#
# Coordination Sequence:
#
# PCOD8106726 Si02
#       6
#     8   8   8   8   8   8
#     4   9  18  34  57  82 106 137 179 226 276 329
#     4   9  18  34  57  82 106 137 179 226 276 329
#     4  12  25  38  55  82 117 154 191 230 276 332
#     4  10  21  39  63  88 113 144 185 232 281 333
#     4  10  21  39  63  88 113 144 185 232 281 333
#     4  10  21  37  55  76 109 149 185 224 274 332
#
# _framework density 19.667712999999999
#
# number of rings (size 3 to 8) (size 9 to 14) (size 15 to 20)
#    0.000    2.000    0.000    3.500    0.000    8.667 
#    0.000    3.333    0.000    5.000    0.000    0.000 
#    0.000    0.000    0.000    0.000    0.000    0.000 
#
# Total GULP energy -297710.136462 kJ/mol
# GULP energy per Si atom -12404.589019 kJ/mol
# Density = 1.962295 g / cm^3
# Si number density = 19.667713 Si / 1000 Ang^3
#
#
#
# Elastic Constant Matrix: (Units=GPa)
#
#
# Indices 1 2 3 4 5 6 
#
# 1 93.9824 21.3022 18.3814 0.0000 5.2756 0.0000
# 2 21.3022 49.0410 28.1886 0.0000 6.3695 0.0000
# 3 18.3814 28.1886 45.8914 0.0000 3.0223 0.0000
# 4 0.0000 0.0000 0.0000 27.3183 0.0000 -0.4139
# 5 5.2756 6.3695 3.0223 0.0000 17.7546 0.0000
# 6 0.0000 0.0000 0.0000 -0.4139 0.0000 39.1962
#
#
#
# Elastic Compliance Matrix: (Units=1/GPa)
#
#
# Indices 1 2 3 4 5 6 
#
# 1 0.012041 -0.003532 -0.002529 0.000000 -0.001880 0.000000
# 2 -0.003532 0.033752 -0.018800 0.000000 -0.007859 0.000000
# 3 -0.002529 -0.018800 0.034242 0.000000 0.001667 0.000000
# 4 0.000000 0.000000 0.000000 0.036611 0.000000 0.000387
# 5 -0.001880 -0.007859 0.001667 0.000000 0.059418 0.000000
# 6 0.000000 0.000000 0.000000 0.000387 0.000000 0.025517
#
#
# Mechanical properties :
#
#
# Convention : Reuss Voigt Hill
#
# Bulk Modulus (GPa) = 32.99028 36.07325 34.53177
# Shear Modulus (GPa) = 19.12719 24.92333 22.02526
#
# Velocity S-wave (km/s) = 3.12190 3.56367 3.35007
# Velocity P-wave (km/s) = 5.45942 5.94257 5.70611
#
# Compressibility (1/GPa) = 0.03031196
#
# Stress axis : x y z
#
# Youngs Moduli (GPa) = 83.04834 29.62768 29.20416
#
# Poissons Ratio (x) = 0.10465 0.07387
# Poissons Ratio (y) = 0.29335 0.54903
# Poissons Ratio (z) = 0.21007 0.55699
#
# Static dielectric constant tensor:
#      x y z
#    x 3.739200 0.000000 0.026750 
#    y 0.000000 3.515840 0.000000 
#    z 0.026750 0.000000 3.530290 
# 
# 
# High freq. dielectric constant tensor:
#      x y z
#    x 1.780320 0.000000 0.003050 
#    y 0.000000 1.763210 0.000000 
#    z 0.003050 0.000000 1.759730 
# 
# From -- ./inp_files/267705.got.cif
#   From: 2010.06.25/outbox.cif.g09.slc.cpg/sg12_134_cif.got.tgz:267705.got - 2010.06.28 00:19:55.
