data_PCOD8106321
_publ_section_title
;
Structure prediction by ZEFSAII (Michael W. Deem and Ramdas Pophale) SiO2 
 PCOD8106321
Probable space group: C 2/M
;
_chemical_formula_sum "Si O2"
_cell_formula_units_Z 64
_cell_length_a 28.537400
_cell_length_b 9.158753
_cell_length_c 23.822282
_cell_angle_alpha 90.000000
_cell_angle_beta 147.092189
_cell_angle_gamma 90.000000
_cell_volume 3382.711419
_symmetry_space_group_name_H-M "C 2/M"
_symmetry_group_IT_number 12
_symmetry_cell_setting 'monoclinic'
loop_
_space_group_symop_operation_xyz
x,y,z
-x,y,-z
-x,-y,-z
x,-y,z
1/2+x,1/2+y,z
1/2-x,1/2+y,-z
1/2-x,1/2-y,-z
1/2+x,1/2-y,z
loop_
_atom_site_type_symbol
_atom_site_label
_atom_site_fract_x
_atom_site_fract_y
_atom_site_fract_z
Si Si1 0.086433 0.172829 0.056096
Si Si2 0.249485 0.326727 0.710005
Si Si3 0.077873 0.670990 0.821309
Si Si4 0.380810 0.169955 0.635306
Si Si5 0.848432 0.827809 0.210721
Si Si6 0.737974 0.671460 0.402954
Si Si7 0.649651 0.830333 0.014624
Si Si8 0.411698 0.171947 0.380586
O O1 0.166284 0.231007 0.173234
O O2 0.090700 0.242039 0.998800
O O3 0.088573 0.000000 0.051158
O O4 0.000000 0.225306 0.000000
O O5 0.248173 0.500000 0.706685
O O6 0.249543 0.264716 0.646890
O O7 0.165031 0.269491 0.657091
O O8 0.088712 0.500000 0.818680
O O9 0.127184 0.764645 0.824941
O O10 0.978027 0.717797 0.720738
O O11 0.120072 0.713305 0.922809
O O12 0.346016 0.255066 0.654463
O O13 0.324089 0.211294 0.523956
O O14 0.374891 0.000000 0.643593
O O15 0.749280 0.787409 0.123295
O O16 0.908522 0.754517 0.318182
O O17 0.863686 0.000000 0.225730
O O18 0.720656 0.500000 0.384628
O O19 0.633832 0.000000 0.009727
O O20 0.500000 0.212432 0.500000
O O21 0.404445 0.000000 0.361338
#
# Coordination Sequence:
#
# PCOD8106321 Si02
#       8
#     8   8   8   8   8   8   8   8
#     4  10  21  36  57  85 114 147 189 233 280 336
#     4   9  18  34  55  83 112 142 183 230 273 325
#     4  10  22  38  59  82 108 144 190 235 277 334
#     4   9  19  35  54  80 109 140 180 227 272 325
#     4  11  23  39  58  83 115 146 183 233 288 337
#     4   9  18  33  55  78 110 144 176 222 275 327
#     4  10  22  40  58  81 113 148 185 231 286 339
#     4  10  21  37  62  87 111 151 195 229 275 337
#
# _framework density 18.919733999999998
#
# number of rings (size 3 to 8) (size 9 to 14) (size 15 to 20)
#    0.000    2.250    1.250    0.750    3.500    2.000 
#    0.000    1.250    0.000    0.000    0.000    0.000 
#    0.000    0.000    0.000    0.000    0.000    0.000 
#
# Total GULP energy -396927.244860 kJ/mol
# GULP energy per Si atom -12403.976402 kJ/mol
# Density = 1.887667 g / cm^3
# Si number density = 18.919734 Si / 1000 Ang^3
#
#
#
# Elastic Constant Matrix: (Units=GPa)
#
#
# Indices 1 2 3 4 5 6 
#
# 1 152.8289 52.1757 72.4738 0.0000 -8.2574 0.0000
# 2 52.1757 46.7913 40.3302 0.0000 -2.3209 0.0000
# 3 72.4738 40.3302 116.9282 0.0000 -0.9782 0.0000
# 4 0.0000 0.0000 0.0000 19.8286 0.0000 -4.9754
# 5 -8.2574 -2.3209 -0.9782 0.0000 35.1444 0.0000
# 6 0.0000 0.0000 0.0000 -4.9754 0.0000 34.5303
#
#
#
# Elastic Compliance Matrix: (Units=1/GPa)
#
#
# Indices 1 2 3 4 5 6 
#
# 1 0.011847 -0.009670 -0.003991 0.000000 0.002034 0.000000
# 2 -0.009670 0.038409 -0.007254 0.000000 0.000063 0.000000
# 3 -0.003991 -0.007254 0.013519 0.000000 -0.001040 0.000000
# 4 0.000000 0.000000 0.000000 0.052324 0.000000 0.007539
# 5 0.002034 0.000063 -0.001040 0.000000 0.028907 0.000000
# 6 0.000000 0.000000 0.000000 0.007539 0.000000 0.030046
#
#
# Mechanical properties :
#
#
# Convention : Reuss Voigt Hill
#
# Bulk Modulus (GPa) = 45.56511 71.83421 58.69966
# Shear Modulus (GPa) = 22.30188 28.00525 25.15357
#
# Velocity S-wave (km/s) = 3.43704 3.85153 3.65017
# Velocity P-wave (km/s) = 6.31559 7.60456 6.98985
#
# Compressibility (1/GPa) = 0.02194662
#
# Stress axis : x y z
#
# Youngs Moduli (GPa) = 84.41146 26.03539 73.96992
#
# Poissons Ratio (x) = 0.25175 0.29518
# Poissons Ratio (y) = 0.81622 0.53658
# Poissons Ratio (z) = 0.33685 0.18886
#
# Static dielectric constant tensor:
#      x y z
#    x 3.557740 0.000000 0.002770 
#    y 0.000000 3.205720 0.000000 
#    z 0.002770 0.000000 3.607610 
# 
# 
# High freq. dielectric constant tensor:
#      x y z
#    x 1.745680 0.000000 -0.002020 
#    y 0.000000 1.712260 0.000000 
#    z -0.002020 0.000000 1.745610 
# 
# From -- ./inp_files/353467.got.cif
#   From: 2010.06.25/outbox.cif.g09.slc.cpg/sg12_177_cif.got.tgz:353467.got - 2010.06.28 00:19:55.
