data_PCOD8106471
_publ_section_title
;
Structure prediction by ZEFSAII (Michael W. Deem and Ramdas Pophale) SiO2 
 PCOD8106471
Probable space group: C 2/M
;
_chemical_formula_sum "Si O2"
_cell_formula_units_Z 60
_cell_length_a 14.711587
_cell_length_b 23.678262
_cell_length_c 8.384407
_cell_angle_alpha 90.000000
_cell_angle_beta 99.824018
_cell_angle_gamma 90.000000
_cell_volume 2877.837396
_symmetry_space_group_name_H-M "C 2/M"
_symmetry_group_IT_number 12
_symmetry_cell_setting 'monoclinic'
loop_
_space_group_symop_operation_xyz
x,y,z
-x,y,-z
-x,-y,-z
x,-y,z
1/2+x,1/2+y,z
1/2-x,1/2+y,-z
1/2-x,1/2-y,-z
1/2+x,1/2-y,z
loop_
_atom_site_type_symbol
_atom_site_label
_atom_site_fract_x
_atom_site_fract_y
_atom_site_fract_z
Si Si1 0.423819 0.661147 0.606620
Si Si2 0.497003 0.436639 0.811815
Si Si3 0.277024 0.142205 0.565633
Si Si4 0.132407 0.438175 0.965288
Si Si5 0.453742 0.786914 0.661496
Si Si6 0.401172 0.936311 0.410156
Si Si7 0.000000 0.346022 0.000000
Si Si8 0.300091 0.436378 0.196948
O O1 0.500000 0.643450 0.500000
O O2 0.421962 0.608820 0.730639
O O3 0.320675 0.669496 0.510195
O O4 0.453747 0.719996 0.694489
O O5 0.475463 0.500000 0.738524
O O6 0.596829 0.413348 0.787161
O O7 0.500000 0.439856 0.000000
O O8 0.348445 0.191692 0.630631
O O9 0.319157 0.104277 0.438234
O O10 0.261790 0.101206 0.708010
O O11 0.103005 0.500000 0.026885
O O12 0.096491 0.433992 0.777131
O O13 0.087732 0.386954 0.050617
O O14 0.244232 0.433941 0.011851
O O15 0.500000 0.799799 0.500000
O O16 0.507646 0.810965 0.834845
O O17 0.500000 0.912821 0.500000
O O18 0.385097 0.000000 0.469149
O O19 0.304992 0.500000 0.264901
#
# Coordination Sequence:
#
# PCOD8106471 Si02
#       8
#     8   8   8   8   8   8   4   8
#     4  11  25  44  67  91 125 167 215 278 328 384
#     4  10  23  43  67  94 128 164 206 268 332 392
#     4  12  21  41  65  90 128 171 215 270 322 388
#     4  10  21  36  58  91 130 165 209 259 319 385
#     4  11  26  45  65  95 132 173 227 274 323 384
#     4  10  22  37  59  94 132 171 213 264 323 390
#     4  12  21  40  68  92 123 180 216 262 324 386
#     4  10  21  37  61  95 129 164 208 260 322 394
#
# _framework density 20.848989
#
# number of rings (size 3 to 8) (size 9 to 14) (size 15 to 20)
#    0.000    1.333    2.667    3.000    2.800    1.333 
#    0.000    0.000    0.000    5.200    0.000    0.000 
#    0.000    0.000    0.000    0.000    0.000    0.000 
#
# Total GULP energy -371775.375004 kJ/mol
# GULP energy per Si atom -12392.512500 kJ/mol
# Density = 2.080154 g / cm^3
# Si number density = 20.848989 Si / 1000 Ang^3
#
#
#
# Elastic Constant Matrix: (Units=GPa)
#
#
# Indices 1 2 3 4 5 6 
#
# 1 89.8053 32.1633 22.5876 0.0000 7.2050 0.0000
# 2 32.1633 119.4310 39.7934 0.0000 3.1629 0.0000
# 3 22.5876 39.7934 88.2872 0.0000 7.4148 0.0000
# 4 0.0000 0.0000 0.0000 24.6351 0.0000 2.3606
# 5 7.2050 3.1629 7.4148 0.0000 31.0285 0.0000
# 6 0.0000 0.0000 0.0000 2.3606 0.0000 27.9382
#
#
#
# Elastic Compliance Matrix: (Units=1/GPa)
#
#
# Indices 1 2 3 4 5 6 
#
# 1 0.012767 -0.002769 -0.001830 0.000000 -0.002245 0.000000
# 2 -0.002769 0.010453 -0.004049 0.000000 0.000545 0.000000
# 3 -0.001830 -0.004049 0.013827 0.000000 -0.002467 0.000000
# 4 0.000000 0.000000 0.000000 0.040924 0.000000 -0.003458
# 5 -0.002245 0.000545 -0.002467 0.000000 0.033284 0.000000
# 6 0.000000 0.000000 0.000000 -0.003458 0.000000 0.036085
#
#
# Mechanical properties :
#
#
# Convention : Reuss Voigt Hill
#
# Bulk Modulus (GPa) = 50.62790 54.06802 52.34796
# Shear Modulus (GPa) = 29.20218 30.25232 29.72725
#
# Velocity S-wave (km/s) = 3.74659 3.81336 3.78012
# Velocity P-wave (km/s) = 6.56138 6.73635 6.64944
#
# Compressibility (1/GPa) = 0.01975195
#
# Stress axis : x y z
#
# Youngs Moduli (GPa) = 78.32514 95.66248 72.32277
#
# Poissons Ratio (x) = 0.26491 0.13233
# Poissons Ratio (y) = 0.21690 0.29283
# Poissons Ratio (z) = 0.14331 0.38733
#
# Static dielectric constant tensor:
#      x y z
#    x 4.305770 0.000000 0.009240 
#    y 0.000000 3.911490 0.000000 
#    z 0.009240 0.000000 3.636680 
# 
# 
# High freq. dielectric constant tensor:
#      x y z
#    x 1.813440 0.000000 0.010800 
#    y 0.000000 1.822610 0.000000 
#    z 0.010800 0.000000 1.809690 
# 
# From -- ./inp_files/65919.got.cif
#   From: 2010.06.25/outbox.cif.g09.slc.cpg/sg12_33_cif.got.tgz:65919.got - 2010.06.28 00:19:55.
