data_PCOD8106309
_publ_section_title
;
Structure prediction by ZEFSAII (Michael W. Deem and Ramdas Pophale) SiO2 
 PCOD8106309
Probable space group: C 2/M
;
_chemical_formula_sum "Si O2"
_cell_formula_units_Z 56
_cell_length_a 16.050894
_cell_length_b 22.673045
_cell_length_c 9.541050
_cell_angle_alpha 90.000000
_cell_angle_beta 126.471858
_cell_angle_gamma 90.000000
_cell_volume 2792.169206
_symmetry_space_group_name_H-M "C 2/M"
_symmetry_group_IT_number 12
_symmetry_cell_setting 'monoclinic'
loop_
_space_group_symop_operation_xyz
x,y,z
-x,y,-z
-x,-y,-z
x,-y,z
1/2+x,1/2+y,z
1/2-x,1/2+y,-z
1/2-x,1/2-y,-z
1/2+x,1/2-y,z
loop_
_atom_site_type_symbol
_atom_site_label
_atom_site_fract_x
_atom_site_fract_y
_atom_site_fract_z
Si Si1 0.273794 0.931483 0.187032
Si Si2 0.901275 0.155551 0.996039
Si Si3 0.249999 0.750000 0.254630
Si Si4 0.403248 0.154745 0.812501
Si Si5 0.401275 0.655552 0.306512
Si Si6 0.903248 0.345254 0.493994
Si Si7 0.226208 0.568517 0.139451
O O1 0.162806 0.902578 0.113008
O O2 0.361522 0.903463 0.373437
O O3 0.266479 0.000000 0.214899
O O4 0.301626 0.919736 0.051623
O O5 0.826010 0.212022 0.918696
O O6 0.945412 0.148106 0.195413
O O7 0.000000 0.165156 0.000000
O O8 0.182856 0.705978 0.283263
O O9 0.326005 0.712021 0.233317
O O10 0.317143 0.794022 0.417548
O O11 0.435799 0.138625 0.685798
O O12 0.361519 0.096536 0.849599
O O13 0.500000 0.178419 0.000000
O O14 0.500000 0.665160 0.500000
O O15 0.337197 0.597422 0.287403
O O16 0.000000 0.321579 0.500000
O O17 0.233525 0.500000 0.181949
#
# Coordination Sequence:
#
# PCOD8106309 Si02
#       7
#     8   8   8   8   8   8   8
#     4   9  20  40  61  81 110 148 188 229 274 327
#     4  10  21  36  57  84 113 147 186 229 278 330
#     4  10  22  38  58  80 112 150 190 230 270 324
#     4  11  23  38  58  85 114 146 185 229 278 330
#     4  10  21  36  57  84 113 147 186 229 278 330
#     4  11  23  38  58  85 114 146 185 229 278 330
#     4   9  20  40  61  81 110 148 188 229 274 327
#
# _framework density 20.056090999999999
#
# number of rings (size 3 to 8) (size 9 to 14) (size 15 to 20)
#    0.000    2.000    0.000    2.571    0.000   13.143 
#    0.000    0.000    0.000    0.000    0.000    0.000 
#    0.000    0.000    0.000    0.000    0.000    0.000 
#
# Total GULP energy -347203.167004 kJ/mol
# GULP energy per Si atom -12400.113107 kJ/mol
# Density = 2.001044 g / cm^3
# Si number density = 20.056091 Si / 1000 Ang^3
#
#
#
# Elastic Constant Matrix: (Units=GPa)
#
#
# Indices 1 2 3 4 5 6 
#
# 1 115.7385 45.3963 65.4201 0.0000 2.1866 0.0000
# 2 45.3963 136.2180 41.4465 0.0000 4.6074 0.0000
# 3 65.4201 41.4465 114.3660 0.0000 -0.5962 0.0000
# 4 0.0000 0.0000 0.0000 18.6808 0.0000 -1.0321
# 5 2.1866 4.6074 -0.5962 0.0000 27.4684 0.0000
# 6 0.0000 0.0000 0.0000 -1.0321 0.0000 17.7969
#
#
#
# Elastic Compliance Matrix: (Units=1/GPa)
#
#
# Indices 1 2 3 4 5 6 
#
# 1 0.013453 -0.002375 -0.006839 0.000000 -0.000821 0.000000
# 2 -0.002375 0.008728 -0.001812 0.000000 -0.001314 0.000000
# 3 -0.006839 -0.001812 0.013318 0.000000 0.001137 0.000000
# 4 0.000000 0.000000 0.000000 0.053703 0.000000 0.003114
# 5 -0.000821 -0.001314 0.001137 0.000000 0.036716 0.000000
# 6 0.000000 0.000000 0.000000 0.003114 0.000000 0.056370
#
#
# Mechanical properties :
#
#
# Convention : Reuss Voigt Hill
#
# Bulk Modulus (GPa) = 74.35591 74.53871 74.44731
# Shear Modulus (GPa) = 23.94384 27.05987 25.50185
#
# Velocity S-wave (km/s) = 3.45895 3.67714 3.56972
# Velocity P-wave (km/s) = 7.28745 7.43467 7.36143
#
# Compressibility (1/GPa) = 0.01344883
#
# Stress axis : x y z
#
# Youngs Moduli (GPa) = 74.33411 114.57082 75.08411
#
# Poissons Ratio (x) = 0.27207 0.51350
# Poissons Ratio (y) = 0.17652 0.13602
# Poissons Ratio (z) = 0.50837 0.20756
#
# Static dielectric constant tensor:
#      x y z
#    x 3.598400 0.000000 0.082390 
#    y 0.000000 3.654230 0.000000 
#    z 0.082390 0.000000 3.527830 
# 
# 
# High freq. dielectric constant tensor:
#      x y z
#    x 1.781990 0.000000 0.002240 
#    y 0.000000 1.782330 0.000000 
#    z 0.002240 0.000000 1.780080 
# 
# From -- ./inp_files/65990.got.cif
#   From: 2010.06.25/outbox.cif.g09.slc.cpg/sg12_33_cif.got.tgz:65990.got - 2010.06.28 00:19:55.
