data_PCOD8106293
_publ_section_title
;
Structure prediction by ZEFSAII (Michael W. Deem and Ramdas Pophale) SiO2 
 PCOD8106293
Probable space group: C 2/M
;
_chemical_formula_sum "Si O2"
_cell_formula_units_Z 36
_cell_length_a 11.904208
_cell_length_b 25.005568
_cell_length_c 6.840626
_cell_angle_alpha 90.000000
_cell_angle_beta 114.958294
_cell_angle_gamma 90.000000
_cell_volume 1846.103564
_symmetry_space_group_name_H-M "C 2/M"
_symmetry_group_IT_number 12
_symmetry_cell_setting 'monoclinic'
loop_
_space_group_symop_operation_xyz
x,y,z
-x,y,-z
-x,-y,-z
x,-y,z
1/2+x,1/2+y,z
1/2-x,1/2+y,-z
1/2-x,1/2-y,-z
1/2+x,1/2-y,z
loop_
_atom_site_type_symbol
_atom_site_label
_atom_site_fract_x
_atom_site_fract_y
_atom_site_fract_z
Si Si1 0.135786 0.360346 0.519341
Si Si2 0.000000 0.817247 0.000000
Si Si3 0.138644 0.561334 0.180164
Si Si4 0.371150 0.214546 0.829711
Si Si5 0.722228 0.357206 0.981153
O O1 0.145603 0.414855 0.402503
O O2 0.166920 0.308832 0.408233
O O3 0.231505 0.364147 0.764513
O O4 0.000000 0.352257 0.500000
O O5 0.107992 0.778644 0.171760
O O6 0.071397 0.853201 0.890200
O O7 0.179695 0.500000 0.217771
O O8 0.236802 0.591778 0.114422
O O9 0.000000 0.568166 0.000000
O O10 0.500000 0.186946 0.000000
O O11 0.268462 0.197928 0.914662
#
# Coordination Sequence:
#
# PCOD8106293 Si02
#       5
#     8   4   8   8   8
#     4  11  17  32  58  83 109 136 178 226 267 314
#     4  10  22  36  55  76 111 160 176 204 268 322
#     4  10  21  36  57  83 109 134 172 233 283 311
#     4   9  19  34  51  79 111 140 175 223 259 301
#     4  11  20  37  55  79 114 141 181 221 261 322
#
# _framework density 19.500530000000001
#
# number of rings (size 3 to 8) (size 9 to 14) (size 15 to 20)
#    0.667    1.111    4.444    2.000    0.000    2.222 
#    0.000   11.667    0.000    1.333    0.000    0.000 
#    0.000    0.000    0.000    0.000    0.000    0.000 
#
# Total GULP energy -223076.829557 kJ/mol
# GULP energy per Si atom -12393.157198 kJ/mol
# Density = 1.945615 g / cm^3
# Si number density = 19.500530 Si / 1000 Ang^3
#
#
#
# Elastic Constant Matrix: (Units=GPa)
#
#
# Indices 1 2 3 4 5 6 
#
# 1 130.0448 40.3828 19.4229 0.0000 -32.6197 0.0000
# 2 40.3828 106.3867 20.5008 0.0000 -17.2964 0.0000
# 3 19.4229 20.5008 102.0615 0.0000 -21.5263 0.0000
# 4 0.0000 0.0000 0.0000 1.7330 0.0000 -9.6593
# 5 -32.6197 -17.2964 -21.5263 0.0000 23.6237 0.0000
# 6 0.0000 0.0000 0.0000 -9.6593 0.0000 21.5251
#
#
#
# Elastic Compliance Matrix: (Units=1/GPa)
#
#
# Indices 1 2 3 4 5 6 
#
# 1 0.012408 -0.002270 0.001681 0.000000 0.017004 0.000000
# 2 -0.002270 0.011116 -0.000923 0.000000 0.004164 0.000000
# 3 0.001681 -0.000923 0.012392 0.000000 0.012937 0.000000
# 4 0.000000 0.000000 0.000000 -0.384379 0.000000 -0.172489
# 5 0.017004 0.004164 0.012937 0.000000 0.080646 0.000000
# 6 0.000000 0.000000 0.000000 -0.172489 0.000000 -0.030947
#
#
# Mechanical properties :
#
#
# Convention : Reuss Voigt Hill
#
# Bulk Modulus (GPa) = 30.40091 55.45621 42.92856
# Shear Modulus (GPa) = -17.55769 26.58881 4.51556
#
# Velocity S-wave (km/s) = -3.00387 3.69655 1.52336
# Velocity P-wave (km/s) = 1.89542 6.83516 5.01558
#
# Compressibility (1/GPa) = 0.03289375
#
# Stress axis : x y z
#
# Youngs Moduli (GPa) = 80.59029 89.96086 80.69644
#
# Poissons Ratio (x) = 0.20417 -0.13563
# Poissons Ratio (y) = 0.18290 0.07445
# Poissons Ratio (z) = -0.13545 0.08300
#
# Static dielectric constant tensor:
#      x y z
#    x 3.654700 0.000000 -0.150520 
#    y 0.000000 3.456060 0.000000 
#    z -0.150520 0.000000 3.536790 
# 
# 
# High freq. dielectric constant tensor:
#      x y z
#    x 1.754900 0.000000 -0.023950 
#    y 0.000000 1.743380 0.000000 
#    z -0.023950 0.000000 1.747990 
# 
# From -- ./inp_files/7974.got.cif
#   From: 2010.06.25/outbox.cif.g09.slc.cpg/sg12_4_cif.got.tgz:7974.got - 2010.06.28 00:19:55.
