data_PCOD8106058
_publ_section_title
;
Structure prediction by ZEFSAII (Michael W. Deem and Ramdas Pophale) SiO2 
 PCOD8106058
Probable space group: C 2/M
;
_chemical_formula_sum "Si O2"
_cell_formula_units_Z 64
_cell_length_a 19.659076
_cell_length_b 8.712483
_cell_length_c 21.947678
_cell_angle_alpha 90.000000
_cell_angle_beta 59.181229
_cell_angle_gamma 90.000000
_cell_volume 3228.357822
_symmetry_space_group_name_H-M "C 2/M"
_symmetry_group_IT_number 12
_symmetry_cell_setting 'monoclinic'
loop_
_space_group_symop_operation_xyz
x,y,z
-x,y,-z
-x,-y,-z
x,-y,z
1/2+x,1/2+y,z
1/2-x,1/2+y,-z
1/2-x,1/2-y,-z
1/2+x,1/2-y,z
loop_
_atom_site_type_symbol
_atom_site_label
_atom_site_fract_x
_atom_site_fract_y
_atom_site_fract_z
Si Si1 0.014107 0.823677 0.426587
Si Si2 0.104012 0.323483 0.285304
Si Si3 0.712349 0.322516 0.076207
Si Si4 0.374978 0.179074 0.239536
Si Si5 0.714700 0.323272 0.608286
Si Si6 0.763322 0.676104 0.183289
Si Si7 0.137336 0.672297 0.532176
Si Si8 0.041059 0.181107 0.197459
O O1 0.930168 0.800335 0.432822
O O2 0.000000 0.757470 0.500000
O O3 0.080720 0.721126 0.364370
O O4 0.040797 0.000000 0.413875
O O5 0.088348 0.500000 0.278411
O O6 0.196419 0.288108 0.239016
O O7 0.048738 0.224946 0.264951
O O8 0.705062 0.500000 0.066450
O O9 0.770473 0.289904 0.107424
O O10 0.622810 0.259468 0.128467
O O11 0.750000 0.250000 0.000000
O O12 0.314490 0.266728 0.312241
O O13 0.344075 0.206609 0.184073
O O14 0.464726 0.240061 0.202107
O O15 0.374445 0.000000 0.256169
O O16 0.686458 0.500000 0.611847
O O17 0.809819 0.314294 0.554056
O O18 0.684787 0.204261 0.571839
O O19 0.735111 0.500000 0.204965
O O20 0.102104 0.500000 0.552516
O O21 0.030481 0.000000 0.196386
#
# Coordination Sequence:
#
# PCOD8106058 Si02
#       8
#     8   8   8   8   8   8   8   8
#     4  11  24  38  53  73 103 144 186 233 292 345
#     4  11  22  37  59  83 110 146 194 244 288 343
#     4   9  19  38  64  90 118 154 191 229 275 331
#     4  11  22  36  58  85 115 150 192 237 283 336
#     4  10  21  36  55  77 106 143 181 230 288 343
#     4   9  21  40  59  85 121 156 190 232 286 344
#     4  10  21  37  54  75 102 137 186 237 286 342
#     4  10  21  39  61  86 119 154 190 231 280 337
#
# _framework density 19.824318999999999
#
# number of rings (size 3 to 8) (size 9 to 14) (size 15 to 20)
#    0.000    1.875    0.000    4.500    1.750    6.000 
#    0.000    0.625    0.000    3.750    0.000    0.000 
#    0.000    0.000    0.000    0.000    0.000    0.000 
#
# Total GULP energy -396635.313139 kJ/mol
# GULP energy per Si atom -12394.853536 kJ/mol
# Density = 1.977920 g / cm^3
# Si number density = 19.824319 Si / 1000 Ang^3
#
#
#
# Elastic Constant Matrix: (Units=GPa)
#
#
# Indices 1 2 3 4 5 6 
#
# 1 89.7930 28.7806 38.1017 0.0000 10.9836 0.0001
# 2 28.7806 75.6785 39.4267 0.0000 0.6408 0.0001
# 3 38.1017 39.4267 126.5306 0.0000 7.7664 0.0001
# 4 0.0000 0.0000 0.0000 32.0346 0.0000 -0.3510
# 5 10.9836 0.6408 7.7664 0.0000 20.2584 0.0000
# 6 0.0001 0.0001 0.0001 -0.3510 0.0000 27.6297
#
#
#
# Elastic Compliance Matrix: (Units=1/GPa)
#
#
# Indices 1 2 3 4 5 6 
#
# 1 0.014369 -0.004019 -0.002667 0.000000 -0.006641 0.000000
# 2 -0.004019 0.016939 -0.004269 0.000000 0.003280 0.000000
# 3 -0.002667 -0.004269 0.010179 0.000000 -0.002321 0.000000
# 4 0.000000 0.000000 0.000000 0.031221 0.000000 0.000397
# 5 -0.006641 0.003280 -0.002321 0.000000 0.053749 0.000000
# 6 0.000000 0.000000 0.000000 0.000397 0.000000 0.036198
#
#
# Mechanical properties :
#
#
# Convention : Reuss Voigt Hill
#
# Bulk Modulus (GPa) = 51.08152 56.06888 53.57520
# Shear Modulus (GPa) = 26.16580 28.36410 27.26495
#
# Velocity S-wave (km/s) = 3.63696 3.78666 3.71257
# Velocity P-wave (km/s) = 6.59240 6.88932 6.74249
#
# Compressibility (1/GPa) = 0.01957655
#
# Stress axis : x y z
#
# Youngs Moduli (GPa) = 69.59508 59.03707 98.24087
#
# Poissons Ratio (x) = 0.23726 0.26200
# Poissons Ratio (y) = 0.27969 0.41941
# Poissons Ratio (z) = 0.18561 0.25204
#
# Static dielectric constant tensor:
#      x y z
#    x 3.645030 0.000000 -0.118730 
#    y 0.000000 3.564500 0.000000 
#    z -0.118730 0.000000 4.039380 
# 
# 
# High freq. dielectric constant tensor:
#      x y z
#    x 1.766540 0.000000 0.002170 
#    y 0.000000 1.778970 0.000000 
#    z 0.002170 0.000000 1.759230 
# 
# From -- ./inp_files/319967.got.cif
#   From: 2010.06.25/outbox.cif.g09.slc.cpg/sg12_160_cif.got.tgz:319967.got - 2010.06.28 00:19:55.
