data_PCOD8106297
_publ_section_title
;
Structure prediction by ZEFSAII (Michael W. Deem and Ramdas Pophale) SiO2 
 PCOD8106297
Probable space group: C 2/M
;
_chemical_formula_sum "Si O2"
_cell_formula_units_Z 56
_cell_length_a 19.081888
_cell_length_b 20.094353
_cell_length_c 10.497756
_cell_angle_alpha 90.000000
_cell_angle_beta 129.829456
_cell_angle_gamma 90.000000
_cell_volume 3091.200981
_symmetry_space_group_name_H-M "C 2/M"
_symmetry_group_IT_number 12
_symmetry_cell_setting 'monoclinic'
loop_
_space_group_symop_operation_xyz
x,y,z
-x,y,-z
-x,-y,-z
x,-y,z
1/2+x,1/2+y,z
1/2-x,1/2+y,-z
1/2-x,1/2-y,-z
1/2+x,1/2-y,z
loop_
_atom_site_type_symbol
_atom_site_label
_atom_site_fract_x
_atom_site_fract_y
_atom_site_fract_z
Si Si1 0.816022 0.750711 0.761384
Si Si2 0.781845 0.193786 0.128742
Si Si3 0.514283 0.312819 0.651185
Si Si4 0.242874 0.074982 0.080996
Si Si5 0.628691 0.797636 0.436244
Si Si6 0.096207 0.424772 0.543973
Si Si7 0.070366 0.134439 0.978083
O O1 0.771816 0.694709 0.800444
O O2 0.733000 0.792759 0.605423
O O3 0.874054 0.714499 0.718834
O O4 0.884719 0.796282 0.923285
O O5 0.886178 0.216112 0.259655
O O6 0.750000 0.250000 0.000000
O O7 0.765839 0.120783 0.053130
O O8 0.500000 0.353404 0.500000
O O9 0.439411 0.254382 0.575630
O O10 0.514886 0.357034 0.780223
O O11 0.327571 0.097740 0.265659
O O12 0.256267 0.000000 0.048499
O O13 0.149974 0.080423 0.054968
O O14 0.596394 0.873043 0.426845
O O15 0.115716 0.500000 0.516543
O O16 0.000000 0.421602 0.500000
O O17 0.000000 0.106734 0.000000
#
# Coordination Sequence:
#
# PCOD8106297 Si02
#       7
#     8   8   8   8   8   8   8
#     4  11  21  34  53  87 114 148 183 243 281 351
#     4  11  20  35  57  83 110 146 192 234 284 338
#     4  11  21  31  54  85 113 144 186 238 289 333
#     4  10  22  39  59  81 114 152 193 237 285 341
#     4  11  21  33  55  84 117 144 187 232 304 325
#     4  10  21  36  57  83 111 150 193 232 280 350
#     4  11  21  37  56  85 116 150 195 232 290 341
#
# _framework density 18.115936999999999
#
# number of rings (size 3 to 8) (size 9 to 14) (size 15 to 20)
#    0.000    1.286    7.143    0.429    2.000    0.286 
#    0.000    0.714    0.000    6.857    0.000    4.000 
#    0.000    0.000    0.000    0.000    0.000    0.000 
#
# Total GULP energy -346977.143083 kJ/mol
# GULP energy per Si atom -12392.040824 kJ/mol
# Density = 1.807470 g / cm^3
# Si number density = 18.115937 Si / 1000 Ang^3
#
#
#
# Elastic Constant Matrix: (Units=GPa)
#
#
# Indices 1 2 3 4 5 6 
#
# 1 91.7198 21.5171 31.6335 0.0000 -14.3823 0.0000
# 2 21.5171 63.3632 10.1798 0.0000 -12.6605 0.0000
# 3 31.6335 10.1798 81.9952 0.0000 -9.5719 0.0000
# 4 0.0000 0.0000 0.0000 16.1458 0.0000 -1.1926
# 5 -14.3823 -12.6605 -9.5719 0.0000 36.4552 0.0000
# 6 0.0000 0.0000 0.0000 -1.1926 0.0000 25.2832
#
#
#
# Elastic Compliance Matrix: (Units=1/GPa)
#
#
# Indices 1 2 3 4 5 6 
#
# 1 0.013724 -0.003319 -0.004524 0.000000 0.003074 0.000000
# 2 -0.003319 0.017934 -0.000383 0.000000 0.004818 0.000000
# 3 -0.004524 -0.000383 0.014200 0.000000 0.001811 0.000000
# 4 0.000000 0.000000 0.000000 0.062152 0.000000 0.002932
# 5 0.003074 0.004818 0.001811 0.000000 0.030792 0.000000
# 6 0.000000 0.000000 0.000000 0.002932 0.000000 0.039690
#
#
# Mechanical properties :
#
#
# Convention : Reuss Voigt Hill
#
# Bulk Modulus (GPa) = 34.00867 40.41543 37.21205
# Shear Modulus (GPa) = 24.42049 27.16003 25.79026
#
# Velocity S-wave (km/s) = 3.67551 3.87620 3.77719
# Velocity P-wave (km/s) = 6.06845 6.51083 6.29353
#
# Compressibility (1/GPa) = 0.02940427
#
# Stress axis : x y z
#
# Youngs Moduli (GPa) = 72.86704 55.76154 70.42257
#
# Poissons Ratio (x) = 0.18510 0.31856
# Poissons Ratio (y) = 0.24188 0.02700
# Poissons Ratio (z) = 0.32962 0.02138
#
# Static dielectric constant tensor:
#      x y z
#    x 3.177690 0.000000 0.406530 
#    y 0.000000 2.855980 0.000000 
#    z 0.406530 0.000000 3.025270 
# 
# 
# High freq. dielectric constant tensor:
#      x y z
#    x 1.715620 0.000000 0.009750 
#    y 0.000000 1.664280 0.000000 
#    z 0.009750 0.000000 1.711410 
# 
# From -- ./inp_files/168522.got.cif
#   From: 2010.06.25/outbox.cif.g09.slc.cpg/sg12_85_cif.got.tgz:168522.got - 2010.06.28 00:19:55.
