data_PCOD8106199
_publ_section_title
;
Structure prediction by ZEFSAII (Michael W. Deem and Ramdas Pophale) SiO2 
 PCOD8106199
Probable space group: C 2/M
;
_chemical_formula_sum "Si O2"
_cell_formula_units_Z 48
_cell_length_a 31.622435
_cell_length_b 8.633618
_cell_length_c 15.851036
_cell_angle_alpha 90.000000
_cell_angle_beta 143.325379
_cell_angle_gamma 90.000000
_cell_volume 2584.737541
_symmetry_space_group_name_H-M "C 2/M"
_symmetry_group_IT_number 12
_symmetry_cell_setting 'monoclinic'
loop_
_space_group_symop_operation_xyz
x,y,z
-x,y,-z
-x,-y,-z
x,-y,z
1/2+x,1/2+y,z
1/2-x,1/2+y,-z
1/2-x,1/2-y,-z
1/2+x,1/2-y,z
loop_
_atom_site_type_symbol
_atom_site_label
_atom_site_fract_x
_atom_site_fract_y
_atom_site_fract_z
Si Si1 0.217232 0.319894 0.864684
Si Si2 0.231297 0.818990 0.233858
Si Si3 0.069174 0.683358 0.560171
Si Si4 0.122808 0.818324 0.481508
Si Si5 0.044058 0.818566 0.185214
Si Si6 0.095513 0.319195 0.099596
O O1 0.215800 0.500000 0.876585
O O2 0.263713 0.276538 0.857189
O O3 0.137001 0.260840 0.722717
O O4 0.250000 0.250000 0.000000
O O5 0.304323 0.776148 0.396634
O O6 0.168738 0.718005 0.171615
O O7 0.216204 0.000000 0.223515
O O8 0.071381 0.500000 0.546938
O O9 0.069631 0.769938 0.471309
O O10 0.000000 0.735427 0.500000
O O11 0.085761 0.770075 0.335424
O O12 0.139290 0.000000 0.512027
O O13 0.091741 0.772911 0.181443
O O14 0.027866 0.000000 0.157014
O O15 0.969338 0.729378 0.064445
O O16 0.090820 0.500000 0.111663
#
# Coordination Sequence:
#
# PCOD8106199 Si02
#       6
#     8   8   8   8   8   8
#     4   9  19  34  53  77 104 137 174 215 263 313
#     4  10  21  38  57  78 109 145 178 218 271 321
#     4   9  19  36  55  76 105 141 179 218 265 317
#     4  10  21  36  56  82 108 139 181 224 266 315
#     4  10  21  38  57  79 111 144 175 218 271 320
#     4  11  22  36  57  83 108 139 182 223 262 315
#
# _framework density 18.570550000000001
#
# number of rings (size 3 to 8) (size 9 to 14) (size 15 to 20)
#    0.000    2.167    0.000    5.000    0.000    8.333 
#    0.000    3.333    0.000    0.000    0.000    0.000 
#    0.000    0.000    0.000    0.000    0.000    0.000 
#
# Total GULP energy -297654.391034 kJ/mol
# GULP energy per Si atom -12402.266293 kJ/mol
# Density = 1.852828 g / cm^3
# Si number density = 18.570550 Si / 1000 Ang^3
#
#
#
# Elastic Constant Matrix: (Units=GPa)
#
#
# Indices 1 2 3 4 5 6 
#
# 1 104.9427 23.0070 61.8022 0.0000 3.9062 0.0000
# 2 23.0070 35.5978 29.7983 0.0000 -2.9686 0.0000
# 3 61.8022 29.7983 116.3316 0.0000 -25.6245 0.0000
# 4 0.0000 0.0000 0.0000 31.3574 0.0000 0.2913
# 5 3.9062 -2.9686 -25.6245 0.0000 31.0505 0.0000
# 6 0.0000 0.0000 0.0000 0.2913 0.0000 32.0609
#
#
#
# Elastic Compliance Matrix: (Units=1/GPa)
#
#
# Indices 1 2 3 4 5 6 
#
# 1 0.016885 -0.002889 -0.010705 0.000000 -0.011235 0.000000
# 2 -0.002889 0.036916 -0.008633 0.000000 -0.003232 0.000000
# 3 -0.010705 -0.008633 0.020299 0.000000 0.017273 0.000000
# 4 0.000000 0.000000 0.000000 0.031893 0.000000 -0.000290
# 5 -0.011235 -0.003232 0.017273 0.000000 0.047565 0.000000
# 6 0.000000 0.000000 0.000000 -0.000290 0.000000 0.031193
#
#
# Mechanical properties :
#
#
# Convention : Reuss Voigt Hill
#
# Bulk Modulus (GPa) = 33.73086 54.00967 43.87026
# Shear Modulus (GPa) = 20.91288 28.37806 24.64547
#
# Velocity S-wave (km/s) = 3.35943 3.91336 3.64693
# Velocity P-wave (km/s) = 5.76635 7.04030 6.43493
#
# Compressibility (1/GPa) = 0.02964644
#
# Stress axis : x y z
#
# Youngs Moduli (GPa) = 59.22505 27.08866 49.26246
#
# Poissons Ratio (x) = 0.07825 0.52735
# Poissons Ratio (y) = 0.17108 0.42529
# Poissons Ratio (z) = 0.63400 0.23386
#
# Static dielectric constant tensor:
#      x y z
#    x 3.457490 0.000000 0.037300 
#    y 0.000000 3.439050 0.000000 
#    z 0.037300 0.000000 3.159940 
# 
# 
# High freq. dielectric constant tensor:
#      x y z
#    x 1.724010 0.000000 0.000090 
#    y 0.000000 1.727170 0.000000 
#    z 0.000090 0.000000 1.722340 
# 
# From -- ./inp_files/249341.got.cif
#   From: 2010.06.25/outbox.cif.g09.slc.cpg/sg12_125_cif.got.tgz:249341.got - 2010.06.28 00:19:55.
