data_PCOD8106455
_publ_section_title
;
Structure prediction by ZEFSAII (Michael W. Deem and Ramdas Pophale) SiO2 
 PCOD8106455
Probable space group: C 2/M
;
_chemical_formula_sum "Si O2"
_cell_formula_units_Z 48
_cell_length_a 21.806608
_cell_length_b 16.350351
_cell_length_c 18.402977
_cell_angle_alpha 90.000000
_cell_angle_beta 161.322752
_cell_angle_gamma 90.000000
_cell_volume 2101.234676
_symmetry_space_group_name_H-M "C 2/M"
_symmetry_group_IT_number 12
_symmetry_cell_setting 'monoclinic'
loop_
_space_group_symop_operation_xyz
x,y,z
-x,y,-z
-x,-y,-z
x,-y,z
1/2+x,1/2+y,z
1/2-x,1/2+y,-z
1/2-x,1/2-y,-z
1/2+x,1/2-y,z
loop_
_atom_site_type_symbol
_atom_site_label
_atom_site_fract_x
_atom_site_fract_y
_atom_site_fract_z
Si Si1 0.020547 0.405975 0.601534
Si Si2 0.896855 0.597391 0.990634
Si Si3 0.867972 0.851000 0.790638
Si Si4 0.086289 0.094695 0.902577
Si Si5 0.749976 0.173511 0.318951
Si Si6 0.343212 0.679002 0.155358
O O1 0.070283 0.500000 0.645517
O O2 0.000000 0.362396 0.500000
O O3 0.834839 0.395852 0.442144
O O4 0.202487 0.367403 0.845371
O O5 0.874881 0.500000 0.973555
O O6 0.764172 0.628177 0.774723
O O7 0.822976 0.640108 0.981673
O O8 0.122473 0.619452 0.232595
O O9 0.855574 0.759342 0.804605
O O10 0.946849 0.854144 0.797678
O O11 0.000000 0.896481 0.000000
O O12 0.057024 0.111398 0.785039
O O13 0.058825 0.000000 0.890031
O O14 0.968898 0.198433 0.585054
O O15 0.250000 0.750000 0.000000
#
# Coordination Sequence:
#
# PCOD8106455 Si02
#       6
#     8   8   8   8   8   8
#     4  10  21  36  58  89 127 174 224 272 319 384
#     4  11  25  48  76 105 135 178 236 297 350 406
#     4  12  22  38  67  94 130 171 220 271 333 391
#     4  11  25  42  61  96 136 176 223 270 334 408
#     4  11  25  45  71 104 134 173 234 291 343 408
#     4  12  27  45  69 101 142 184 224 280 350 418
#
# _framework density 22.843713000000001
#
# number of rings (size 3 to 8) (size 9 to 14) (size 15 to 20)
#    0.000    0.833    3.333    4.500    0.000    9.333 
#    0.000    0.000    0.000    0.000    0.000    0.000 
#    0.000    0.000    0.000    0.000    0.000    0.000 
#
# Total GULP energy -297413.516532 kJ/mol
# GULP energy per Si atom -12392.229855 kJ/mol
# Density = 2.279172 g / cm^3
# Si number density = 22.843713 Si / 1000 Ang^3
#
#
#
# Elastic Constant Matrix: (Units=GPa)
#
#
# Indices 1 2 3 4 5 6 
#
# 1 151.8829 28.0460 22.0061 0.0006 17.4559 -0.0001
# 2 28.0460 80.5466 26.8830 0.0115 -3.0685 0.0082
# 3 22.0061 26.8830 103.9349 0.0245 15.4078 0.0095
# 4 0.0006 0.0115 0.0245 40.2192 0.0226 9.1988
# 5 17.4559 -3.0685 15.4078 0.0226 33.4003 0.0076
# 6 -0.0001 0.0082 0.0095 9.1988 0.0076 44.5528
#
#
#
# Elastic Compliance Matrix: (Units=1/GPa)
#
#
# Indices 1 2 3 4 5 6 
#
# 1 0.007595 -0.002698 -0.000306 0.000003 -0.004076 0.000001
# 2 -0.002698 0.014848 -0.003951 -0.000004 0.004596 -0.000002
# 3 -0.000306 -0.003951 0.011526 -0.000003 -0.005520 0.000000
# 4 0.000003 -0.000004 -0.000003 0.026096 -0.000017 -0.005388
# 5 -0.004076 0.004596 -0.005520 -0.000017 0.035039 -0.000002
# 6 0.000001 -0.000002 0.000000 -0.005388 -0.000002 0.023558
#
#
# Mechanical properties :
#
#
# Convention : Reuss Voigt Hill
#
# Bulk Modulus (GPa) = 49.84897 54.47052 52.15974
# Shear Modulus (GPa) = 35.90457 40.92975 38.41716
#
# Velocity S-wave (km/s) = 3.96883 4.23747 4.10535
# Velocity P-wave (km/s) = 6.54761 6.91652 6.73459
#
# Compressibility (1/GPa) = 0.02006060
#
# Stress axis : x y z
#
# Youngs Moduli (GPa) = 131.66631 67.34835 86.75722
#
# Poissons Ratio (x) = 0.18168 0.02656
# Poissons Ratio (y) = 0.35519 0.34276
# Poissons Ratio (z) = 0.04030 0.26608
#
# Static dielectric constant tensor:
#      x y z
#    x 4.188050 -0.000020 -0.019860 
#    y -0.000020 3.989420 -0.000010 
#    z -0.019860 -0.000010 4.268320 
# 
# 
# High freq. dielectric constant tensor:
#      x y z
#    x 1.907030 0.000000 0.008190 
#    y 0.000000 1.899470 0.000000 
#    z 0.008190 0.000000 1.905120 
# 
# From -- ./inp_files/285414.got.cif
#   From: 2010.06.25/outbox.cif.g09.slc.cpg/sg12_143_cif.got.tgz:285414.got - 2010.06.28 00:19:55.
