data_PCOD8106253
_publ_section_title
;
Structure prediction by ZEFSAII (Michael W. Deem and Ramdas Pophale) SiO2 
 PCOD8106253
Probable space group: C 2/M
;
_chemical_formula_sum "Si O2"
_cell_formula_units_Z 64
_cell_length_a 15.003135
_cell_length_b 8.984440
_cell_length_c 24.399320
_cell_angle_alpha 90.000000
_cell_angle_beta 105.704417
_cell_angle_gamma 90.000000
_cell_volume 3166.128878
_symmetry_space_group_name_H-M "C 2/M"
_symmetry_group_IT_number 12
_symmetry_cell_setting 'monoclinic'
loop_
_space_group_symop_operation_xyz
x,y,z
-x,y,-z
-x,-y,-z
x,-y,z
1/2+x,1/2+y,z
1/2-x,1/2+y,-z
1/2-x,1/2-y,-z
1/2+x,1/2-y,z
loop_
_atom_site_type_symbol
_atom_site_label
_atom_site_fract_x
_atom_site_fract_y
_atom_site_fract_z
Si Si1 0.428611 0.174550 0.628722
Si Si2 0.737329 0.829766 0.737379
Si Si3 0.755953 0.676556 0.386429
Si Si4 0.488746 0.175880 0.935803
Si Si5 0.397533 0.675139 0.135851
Si Si6 0.201497 0.675491 0.149025
Si Si7 0.942598 0.827545 0.435503
Si Si8 0.962481 0.331411 0.248181
O O1 0.335892 0.264738 0.598528
O O2 0.511015 0.235553 0.605410
O O3 0.453346 0.203299 0.696704
O O4 0.415620 0.000000 0.614795
O O5 0.751645 0.773718 0.678095
O O6 0.801518 0.737190 0.789625
O O7 0.630406 0.804335 0.733133
O O8 0.767149 0.000000 0.748401
O O9 0.766017 0.500000 0.395172
O O10 0.841765 0.758180 0.429321
O O11 0.571331 0.250074 0.915385
O O12 0.388797 0.232465 0.898176
O O13 0.498316 0.000000 0.931513
O O14 0.500000 0.228198 0.000000
O O15 0.402116 0.500000 0.129623
O O16 0.293409 0.731326 0.132304
O O17 0.466719 0.723737 0.196373
O O18 0.202800 0.500000 0.153520
O O19 0.000000 0.806667 0.500000
O O20 0.934452 0.000000 0.417253
O O21 0.967654 0.500000 0.226911
#
# Coordination Sequence:
#
# PCOD8106253 Si02
#       8
#     8   8   8   8   8   8   8   8
#     4  11  23  40  63  93 125 163 205 251 306 363
#     4   9  18  35  58  86 119 153 193 240 294 354
#     4  11  23  40  62  93 127 162 204 251 304 366
#     4  10  22  40  59  80 112 156 201 241 289 355
#     4  10  21  36  56  85 116 148 190 243 297 348
#     4   9  20  37  56  82 114 151 192 237 293 352
#     4  11  25  45  67  91 122 163 210 257 306 362
#     4   9  18  36  59  85 119 156 195 237 292 360
#
# _framework density 20.213961000000001
#
# number of rings (size 3 to 8) (size 9 to 14) (size 15 to 20)
#    0.000    2.000    1.250    1.500    1.750    5.250 
#    0.000    0.000    0.000    0.000    0.000    0.000 
#    0.000    0.000    0.000    0.000    0.000    0.000 
#
# Total GULP energy -396921.057036 kJ/mol
# GULP energy per Si atom -12403.783032 kJ/mol
# Density = 2.016795 g / cm^3
# Si number density = 20.213961 Si / 1000 Ang^3
#
#
#
# Elastic Constant Matrix: (Units=GPa)
#
#
# Indices 1 2 3 4 5 6 
#
# 1 57.2932 18.3371 13.8838 0.0000 17.5615 0.0000
# 2 18.3371 59.0536 31.9783 0.0000 7.1145 0.0000
# 3 13.8838 31.9783 72.6109 0.0000 14.5897 0.0000
# 4 0.0000 0.0000 0.0000 31.8590 0.0000 -2.6354
# 5 17.5615 7.1145 14.5897 0.0000 33.6786 0.0000
# 6 0.0000 0.0000 0.0000 -2.6354 0.0000 31.3192
#
#
#
# Elastic Compliance Matrix: (Units=1/GPa)
#
#
# Indices 1 2 3 4 5 6 
#
# 1 0.022525 -0.005958 0.000465 0.000000 -0.010688 0.000000
# 2 -0.005958 0.023821 -0.009819 0.000000 0.002329 0.000000
# 3 0.000465 -0.009819 0.019321 0.000000 -0.006538 0.000000
# 4 0.000000 0.000000 0.000000 0.031608 0.000000 0.002660
# 5 -0.010688 0.002329 -0.006538 0.000000 0.037606 0.000000
# 6 0.000000 0.000000 0.000000 0.002660 0.000000 0.032153
#
#
# Mechanical properties :
#
#
# Convention : Reuss Voigt Hill
#
# Bulk Modulus (GPa) = 28.53824 35.26179 31.90002
# Shear Modulus (GPa) = 23.88457 27.68860 25.78659
#
# Velocity S-wave (km/s) = 3.44115 3.70506 3.57554
# Velocity P-wave (km/s) = 5.47151 5.98210 5.73249
#
# Compressibility (1/GPa) = 0.03504071
#
# Stress axis : x y z
#
# Youngs Moduli (GPa) = 44.39605 41.98033 51.75606
#
# Poissons Ratio (x) = 0.25013 -0.02405
# Poissons Ratio (y) = 0.26452 0.50821
# Poissons Ratio (z) = -0.02063 0.41222
#
# Static dielectric constant tensor:
#      x y z
#    x 3.735540 0.000000 0.099930 
#    y 0.000000 3.572790 0.000000 
#    z 0.099930 0.000000 3.672920 
# 
# 
# High freq. dielectric constant tensor:
#      x y z
#    x 1.794490 0.000000 0.003320 
#    y 0.000000 1.786280 0.000000 
#    z 0.003320 0.000000 1.784260 
# 
# From -- ./inp_files/359932.got.cif
#   From: 2010.06.25/outbox.cif.g09.slc.cpg/sg12_180_cif.got.tgz:359932.got - 2010.06.28 00:19:55.
