data_PCOD8106328
_publ_section_title
;
Structure prediction by ZEFSAII (Michael W. Deem and Ramdas Pophale) SiO2 
 PCOD8106328
Probable space group: C 2/M
;
_chemical_formula_sum "Si O2"
_cell_formula_units_Z 56
_cell_length_a 14.409762
_cell_length_b 10.794173
_cell_length_c 27.794642
_cell_angle_alpha 90.000000
_cell_angle_beta 41.757967
_cell_angle_gamma 90.000000
_cell_volume 2879.200935
_symmetry_space_group_name_H-M "C 2/M"
_symmetry_group_IT_number 12
_symmetry_cell_setting 'monoclinic'
loop_
_space_group_symop_operation_xyz
x,y,z
-x,y,-z
-x,-y,-z
x,-y,z
1/2+x,1/2+y,z
1/2-x,1/2+y,-z
1/2-x,1/2-y,-z
1/2+x,1/2-y,z
loop_
_atom_site_type_symbol
_atom_site_label
_atom_site_fract_x
_atom_site_fract_y
_atom_site_fract_z
Si Si1 0.751463 0.358737 0.675451
Si Si2 0.528800 0.288178 0.832619
Si Si3 0.431415 0.500000 0.108275
Si Si4 0.286299 0.358463 0.420270
Si Si5 0.272193 0.229862 0.075369
Si Si6 0.802002 0.000000 0.062856
Si Si7 0.438663 0.858698 0.412393
Si Si8 0.464829 0.858678 0.082041
O O1 0.708387 0.500000 0.701205
O O2 0.636165 0.276389 0.747055
O O3 0.754746 0.327806 0.618126
O O4 0.901740 0.330245 0.638768
O O5 0.577213 0.381910 0.854852
O O6 0.378858 0.334780 0.870065
O O7 0.536404 0.160088 0.859862
O O8 0.304683 0.500000 0.120120
O O9 0.557959 0.500000 0.022086
O O10 0.347447 0.500000 0.401747
O O11 0.393743 0.250405 0.393494
O O12 0.146433 0.346786 0.505330
O O13 0.227801 0.371041 0.078874
O O14 0.345570 0.218908 0.099353
O O15 0.379625 0.176831 0.994971
O O16 0.419288 0.000000 0.399094
O O17 0.433896 0.000000 0.081338
#
# Coordination Sequence:
#
# PCOD8106328 Si02
#       8
#     8   8   4   8   8   4   8   8
#     4  10  21  36  57  85 116 151 190 229 277 340
#     4  12  24  36  57  82 112 151 187 228 286 343
#     4  11  20  38  60  80 104 142 192 236 281 330
#     4   9  18  36  62  90 117 150 192 233 278 337
#     4  11  23  38  59  82 106 144 190 242 286 339
#     4  11  20  40  62  81 104 139 198 251 282 322
#     4   9  18  36  62  89 117 151 191 236 280 328
#     4  11  24  40  55  81 113 143 186 240 292 337
#
# _framework density 19.449840999999999
#
# number of rings (size 3 to 8) (size 9 to 14) (size 15 to 20)
#    0.000    1.571    3.571    2.571    3.000    2.857 
#    0.000    3.571    0.000    3.429    0.000    0.000 
#    0.000    0.000    0.000    0.000    0.000    0.000 
#
# Total GULP energy -346928.657741 kJ/mol
# GULP energy per Si atom -12390.309205 kJ/mol
# Density = 1.940557 g / cm^3
# Si number density = 19.449841 Si / 1000 Ang^3
#
#
#
# Elastic Constant Matrix: (Units=GPa)
#
#
# Indices 1 2 3 4 5 6 
#
# 1 61.6138 20.8768 37.5937 0.0000 -14.2141 0.0000
# 2 20.8768 97.6802 21.5412 0.0000 -6.8600 0.0000
# 3 37.5937 21.5412 68.7127 0.0000 -13.8722 0.0000
# 4 0.0000 0.0000 0.0000 19.6551 0.0000 4.0380
# 5 -14.2141 -6.8600 -13.8722 0.0000 18.0402 0.0000
# 6 0.0000 0.0000 0.0000 4.0380 0.0000 24.8768
#
#
#
# Elastic Compliance Matrix: (Units=1/GPa)
#
#
# Indices 1 2 3 4 5 6 
#
# 1 0.026696 -0.002359 -0.011602 0.000000 0.011215 0.000000
# 2 -0.002359 0.011257 -0.002071 0.000000 0.000829 0.000000
# 3 -0.011602 -0.002071 0.023137 0.000000 0.007863 0.000000
# 4 0.000000 0.000000 0.000000 0.052632 0.000000 -0.008543
# 5 0.011215 0.000829 0.007863 0.000000 0.070630 0.000000
# 6 0.000000 0.000000 0.000000 -0.008543 0.000000 0.041585
#
#
# Mechanical properties :
#
#
# Convention : Reuss Voigt Hill
#
# Bulk Modulus (GPa) = 34.45149 43.11445 38.78297
# Shear Modulus (GPa) = 18.67929 22.38077 20.53003
#
# Velocity S-wave (km/s) = 3.10237 3.39586 3.25243
# Velocity P-wave (km/s) = 5.53031 6.13115 5.83846
#
# Compressibility (1/GPa) = 0.02902632
#
# Stress axis : x y z
#
# Youngs Moduli (GPa) = 37.45925 88.83653 43.22002
#
# Poissons Ratio (x) = 0.20960 0.50142
# Poissons Ratio (y) = 0.08838 0.08949
# Poissons Ratio (z) = 0.43459 0.18395
#
# Static dielectric constant tensor:
#      x y z
#    x 3.541340 0.000000 0.140420 
#    y 0.000000 4.028190 0.000000 
#    z 0.140420 0.000000 3.398910 
# 
# 
# High freq. dielectric constant tensor:
#      x y z
#    x 1.757180 0.000000 0.010230 
#    y 0.000000 1.759030 0.000000 
#    z 0.010230 0.000000 1.736620 
# 
# From -- ./inp_files/360793.got.cif
#   From: 2010.06.25/outbox.cif.g09.slc.cpg/sg12_181_cif.got.tgz:360793.got - 2010.06.28 00:19:55.
