data_PCOD8106568
_publ_section_title
;
Structure prediction by ZEFSAII (Michael W. Deem and Ramdas Pophale) SiO2 
 PCOD8106568
Probable space group: C 2/M
;
_chemical_formula_sum "Si O2"
_cell_formula_units_Z 48
_cell_length_a 12.648969
_cell_length_b 14.328004
_cell_length_c 20.627969
_cell_angle_alpha 90.000000
_cell_angle_beta 145.175803
_cell_angle_gamma 90.000000
_cell_volume 2134.908485
_symmetry_space_group_name_H-M "C 2/M"
_symmetry_group_IT_number 12
_symmetry_cell_setting 'monoclinic'
loop_
_space_group_symop_operation_xyz
x,y,z
-x,y,-z
-x,-y,-z
x,-y,z
1/2+x,1/2+y,z
1/2-x,1/2+y,-z
1/2-x,1/2-y,-z
1/2+x,1/2-y,z
loop_
_atom_site_type_symbol
_atom_site_label
_atom_site_fract_x
_atom_site_fract_y
_atom_site_fract_z
Si Si1 0.565285 0.602784 0.744488
Si Si2 0.271850 0.392572 0.345516
Si Si3 0.364093 0.893117 0.125116
Si Si4 0.860063 0.162283 0.526991
Si Si5 0.478654 0.607629 0.132052
Si Si6 0.173554 0.234202 0.130433
O O1 0.654172 0.500000 0.794974
O O2 0.391612 0.599281 0.607290
O O3 0.500193 0.636000 0.782502
O O4 0.719599 0.672657 0.793934
O O5 0.331318 0.500000 0.360386
O O6 0.431319 0.323334 0.398473
O O7 0.243060 0.382713 0.409369
O O8 0.075910 0.369495 0.212560
O O9 0.309095 0.830684 0.157800
O O10 0.345511 0.000000 0.138353
O O11 0.233272 0.873441 0.997207
O O12 0.750000 0.250000 0.500000
O O13 0.533696 0.500000 0.146925
O O14 0.617403 0.675033 0.164724
O O15 0.000000 0.264487 0.000000
#
# Coordination Sequence:
#
# PCOD8106568 Si02
#       6
#     8   8   8   8   8   8
#     4  11  24  40  59  90 130 163 198 254 321 375
#     4  10  21  40  64  88 117 155 201 249 299 359
#     4   9  18  36  64  95 125 163 213 261 303 358
#     4  11  23  40  62  87 114 150 200 254 307 362
#     4   9  20  39  62  91 130 170 206 252 310 367
#     4  10  21  36  60  91 127 170 216 254 297 362
#
# _framework density 22.483401000000001
#
# number of rings (size 3 to 8) (size 9 to 14) (size 15 to 20)
#    0.000    2.000    0.000    3.500    0.000   10.333 
#    0.000    1.667    0.000    1.000    0.000   38.500 
#    0.000    0.000    0.000    0.000    0.000    0.000 
#
# Total GULP energy -297404.724331 kJ/mol
# GULP energy per Si atom -12391.863514 kJ/mol
# Density = 2.243223 g / cm^3
# Si number density = 22.483401 Si / 1000 Ang^3
#
#
#
# Elastic Constant Matrix: (Units=GPa)
#
#
# Indices 1 2 3 4 5 6 
#
# 1 128.0480 56.1885 49.3220 -0.0001 -14.5736 -0.0001
# 2 56.1885 103.2723 22.0405 0.0000 11.5213 -0.0001
# 3 49.3220 22.0405 59.6708 -0.0001 -14.7176 -0.0003
# 4 -0.0001 0.0000 -0.0001 29.7971 -0.0001 4.6702
# 5 -14.5736 11.5213 -14.7176 -0.0001 42.2470 -0.0001
# 6 -0.0001 -0.0001 -0.0003 4.6702 -0.0001 30.0519
#
#
#
# Elastic Compliance Matrix: (Units=1/GPa)
#
#
# Indices 1 2 3 4 5 6 
#
# 1 0.014335 -0.006381 -0.008581 0.000000 0.003696 0.000000
# 2 -0.006381 0.014244 -0.001628 0.000000 -0.006653 0.000000
# 3 -0.008581 -0.001628 0.026072 0.000000 0.006567 0.000000
# 4 0.000000 0.000000 0.000000 0.034398 0.000000 -0.005346
# 5 0.003696 -0.006653 0.006567 0.000000 0.029047 0.000000
# 6 0.000000 0.000000 0.000000 -0.005346 0.000000 0.034107
#
#
# Mechanical properties :
#
#
# Convention : Reuss Voigt Hill
#
# Bulk Modulus (GPa) = 46.57078 60.67701 53.62390
# Shear Modulus (GPa) = 25.96853 31.31520 28.64186
#
# Velocity S-wave (km/s) = 3.40223 3.73609 3.57306
# Velocity P-wave (km/s) = 6.01597 6.75701 6.39723
#
# Compressibility (1/GPa) = 0.02147269
#
# Stress axis : x y z
#
# Youngs Moduli (GPa) = 69.75850 70.20296 38.35485
#
# Poissons Ratio (x) = 0.44793 0.32911
# Poissons Ratio (y) = 0.44510 0.06246
# Poissons Ratio (z) = 0.59857 0.11432
#
# Static dielectric constant tensor:
#      x y z
#    x 4.004070 0.000000 -0.240710 
#    y 0.000000 4.030470 0.000000 
#    z -0.240710 0.000000 4.336290 
# 
# 
# High freq. dielectric constant tensor:
#      x y z
#    x 1.883690 0.000000 -0.021000 
#    y 0.000000 1.881610 0.000000 
#    z -0.021000 0.000000 1.890500 
# 
# From -- ./inp_files/305688.got.cif
#   From: 2010.06.25/outbox.cif.g09.slc.cpg/sg12_153_cif.got.tgz:305688.got - 2010.06.28 00:19:55.
