data_PCOD8106074
_publ_section_title
;
Structure prediction by ZEFSAII (Michael W. Deem and Ramdas Pophale) SiO2 
 PCOD8106074
Probable space group: C 2/M
;
_chemical_formula_sum "Si O2"
_cell_formula_units_Z 48
_cell_length_a 30.677676
_cell_length_b 8.859338
_cell_length_c 9.384351
_cell_angle_alpha 90.000000
_cell_angle_beta 89.835208
_cell_angle_gamma 90.000000
_cell_volume 2550.504971
_symmetry_space_group_name_H-M "C 2/M"
_symmetry_group_IT_number 12
_symmetry_cell_setting 'monoclinic'
loop_
_space_group_symop_operation_xyz
x,y,z
-x,y,-z
-x,-y,-z
x,-y,z
1/2+x,1/2+y,z
1/2-x,1/2+y,-z
1/2-x,1/2-y,-z
1/2+x,1/2-y,z
loop_
_atom_site_type_symbol
_atom_site_label
_atom_site_fract_x
_atom_site_fract_y
_atom_site_fract_z
Si Si1 0.461110 0.327475 0.587565
Si Si2 0.787030 0.177840 0.403990
Si Si3 0.368423 0.824468 0.899382
Si Si4 0.041045 0.826902 0.083941
Si Si5 0.365886 0.677600 0.603852
Si Si6 0.212777 0.676968 0.905361
O O1 0.500000 0.244126 0.500000
O O2 0.459228 0.500000 0.536343
O O3 0.472030 0.311958 0.752363
O O4 0.413325 0.256349 0.557556
O O5 0.750000 0.250000 0.500000
O O6 0.832798 0.216493 0.478487
O O7 0.786850 0.249424 0.249207
O O8 0.779071 0.000000 0.391937
O O9 0.414730 0.761318 0.952020
O O10 0.351164 0.750147 0.753349
O O11 0.373330 0.000000 0.869592
O O12 0.333768 0.789719 0.023010
O O13 0.048844 0.000000 0.038856
O O14 0.000000 0.756948 0.000000
O O15 0.369340 0.500000 0.634246
O O16 0.222086 0.500000 0.890826
O O17 0.250000 0.750000 0.000000
#
# Coordination Sequence:
#
# PCOD8106074 Si02
#       6
#     8   8   8   8   8   8
#     4   8  14  27  48  73 100 129 166 213 259 304
#     4  11  23  38  58  83 111 144 181 225 276 328
#     4  10  21  36  55  79 109 145 181 223 276 327
#     4   9  18  32  52  77 104 139 182 224 266 317
#     4   9  19  35  55  79 106 139 179 221 267 322
#     4  11  24  40  58  82 111 145 186 229 277 333
#
# _framework density 18.819804000000001
#
# number of rings (size 3 to 8) (size 9 to 14) (size 15 to 20)
#    0.000    2.333    0.000    3.500    0.000    8.333 
#    0.000    3.333    0.000    8.000    0.000    0.000 
#    0.000    0.000    0.000    0.000    0.000    0.000 
#
# Total GULP energy -297573.231877 kJ/mol
# GULP energy per Si atom -12398.884662 kJ/mol
# Density = 1.877697 g / cm^3
# Si number density = 18.819804 Si / 1000 Ang^3
#
#
#
# Elastic Constant Matrix: (Units=GPa)
#
#
# Indices 1 2 3 4 5 6 
#
# 1 145.8180 65.3698 96.8673 0.0000 3.7220 0.0000
# 2 65.3698 79.1849 62.1170 0.0000 0.5070 0.0000
# 3 96.8673 62.1170 142.8079 0.0000 3.2403 0.0000
# 4 0.0000 0.0000 0.0000 29.4845 0.0000 -0.0740
# 5 3.7220 0.5070 3.2403 0.0000 38.8031 0.0000
# 6 0.0000 0.0000 0.0000 -0.0740 0.0000 27.2426
#
#
#
# Elastic Compliance Matrix: (Units=1/GPa)
#
#
# Indices 1 2 3 4 5 6 
#
# 1 0.014354 -0.006406 -0.006934 0.000000 -0.000714 0.000000
# 2 -0.006406 0.022036 -0.005257 0.000000 0.000766 0.000000
# 3 -0.006934 -0.005257 0.014002 0.000000 -0.000436 0.000000
# 4 0.000000 0.000000 0.000000 0.033916 0.000000 0.000092
# 5 -0.000714 0.000766 -0.000436 0.000000 0.025866 0.000000
# 6 0.000000 0.000000 0.000000 0.000092 0.000000 0.036707
#
#
# Mechanical properties :
#
#
# Convention : Reuss Voigt Hill
#
# Bulk Modulus (GPa) = 75.76630 90.72434 83.24532
# Shear Modulus (GPa) = 26.52865 28.66983 27.59924
#
# Velocity S-wave (km/s) = 3.75856 3.90729 3.83365
# Velocity P-wave (km/s) = 7.69297 8.28658 7.99529
#
# Compressibility (1/GPa) = 0.01319848
#
# Stress axis : x y z
#
# Youngs Moduli (GPa) = 69.66722 45.38009 71.41691
#
# Poissons Ratio (x) = 0.29070 0.49519
# Poissons Ratio (y) = 0.44628 0.37546
# Poissons Ratio (z) = 0.48306 0.23858
#
# Static dielectric constant tensor:
#      x y z
#    x 3.800070 0.000000 -0.153110 
#    y 0.000000 3.368050 0.000000 
#    z -0.153110 0.000000 3.276860 
# 
# 
# High freq. dielectric constant tensor:
#      x y z
#    x 1.749680 0.000000 0.000170 
#    y 0.000000 1.714270 0.000000 
#    z 0.000170 0.000000 1.731060 
# 
# From -- ./inp_files/108750.got.cif
#   From: 2010.06.25/outbox.cif.g09.slc.cpg/sg12_55_cif.got.tgz:108750.got - 2010.06.28 00:19:55.
