data_PCOD8106073
_publ_section_title
;
Structure prediction by ZEFSAII (Michael W. Deem and Ramdas Pophale) SiO2 
 PCOD8106073
Probable space group: C 2/M
;
_chemical_formula_sum "Si O2"
_cell_formula_units_Z 56
_cell_length_a 26.590640
_cell_length_b 8.811619
_cell_length_c 13.385299
_cell_angle_alpha 90.000000
_cell_angle_beta 65.121047
_cell_angle_gamma 90.000000
_cell_volume 2845.214131
_symmetry_space_group_name_H-M "C 2/M"
_symmetry_group_IT_number 12
_symmetry_cell_setting 'monoclinic'
loop_
_space_group_symop_operation_xyz
x,y,z
-x,y,-z
-x,-y,-z
x,-y,z
1/2+x,1/2+y,z
1/2-x,1/2+y,-z
1/2-x,1/2-y,-z
1/2+x,1/2-y,z
loop_
_atom_site_type_symbol
_atom_site_label
_atom_site_fract_x
_atom_site_fract_y
_atom_site_fract_z
Si Si1 0.906765 0.825428 0.407740
Si Si2 0.908795 0.677948 0.614705
Si Si3 0.811672 0.177188 0.807792
Si Si4 0.027920 0.174624 0.263746
Si Si5 0.698505 0.179269 0.600443
Si Si6 0.693774 0.177654 0.829133
Si Si7 0.625480 0.325601 0.046134
O O1 0.922885 0.772415 0.504530
O O2 0.858754 0.721202 0.404519
O O3 0.962781 0.805680 0.294808
O O4 0.887089 0.000000 0.425142
O O5 0.911282 0.500000 0.589703
O O6 0.847522 0.723484 0.701580
O O7 0.954495 0.719427 0.659098
O O8 0.748297 0.226500 0.845162
O O9 0.829802 0.214657 0.905350
O O10 0.820946 0.000000 0.775049
O O11 0.063868 0.219978 0.135813
O O12 0.042295 0.000000 0.280230
O O13 0.750000 0.250000 0.500000
O O14 0.696767 0.244884 0.714726
O O15 0.706119 0.000000 0.592786
O O16 0.688045 0.000000 0.825588
O O17 0.639932 0.236174 0.933230
O O18 0.628407 0.500000 0.014565
#
# Coordination Sequence:
#
# PCOD8106073 Si02
#       7
#     8   8   8   8   8   8   8
#     4  11  22  38  59  79 107 149 189 228 276 325
#     4  11  21  32  53  86 117 144 180 227 278 332
#     4   9  18  34  54  79 113 149 184 221 268 329
#     4   9  20  38  57  80 111 147 185 224 272 329
#     4  11  24  41  60  84 112 143 184 229 273 325
#     4  10  21  36  55  79 109 145 181 223 276 327
#     4   9  18  33  55  82 110 140 180 228 271 322
#
# _framework density 19.682175000000001
#
# number of rings (size 3 to 8) (size 9 to 14) (size 15 to 20)
#    0.000    2.000    0.000    4.714    0.000    8.000 
#    0.000    0.714    0.000    4.286    0.000    0.000 
#    0.000    0.000    0.000    0.000    0.000    0.000 
#
# Total GULP energy -347232.277604 kJ/mol
# GULP energy per Si atom -12401.152772 kJ/mol
# Density = 1.963738 g / cm^3
# Si number density = 19.682175 Si / 1000 Ang^3
#
#
#
# Elastic Constant Matrix: (Units=GPa)
#
#
# Indices 1 2 3 4 5 6 
#
# 1 91.2894 23.6620 54.1698 0.0000 -21.9944 0.0000
# 2 23.6620 54.0169 34.2142 0.0000 -4.3458 0.0000
# 3 54.1698 34.2142 140.5519 0.0000 -14.5572 0.0000
# 4 0.0000 0.0000 0.0000 33.0058 0.0000 -1.4032
# 5 -21.9944 -4.3458 -14.5572 0.0000 21.0004 0.0000
# 6 0.0000 0.0000 0.0000 -1.4032 0.0000 25.6640
#
#
#
# Elastic Compliance Matrix: (Units=1/GPa)
#
#
# Indices 1 2 3 4 5 6 
#
# 1 0.018336 -0.003936 -0.004529 0.000000 0.015250 0.000000
# 2 -0.003936 0.022748 -0.004266 0.000000 -0.002373 0.000000
# 3 -0.004529 -0.004266 0.010037 0.000000 0.001331 0.000000
# 4 0.000000 0.000000 0.000000 0.030368 0.000000 0.001660
# 5 0.015250 -0.002373 0.001331 0.000000 0.064021 0.000000
# 6 0.000000 0.000000 0.000000 0.001660 0.000000 0.039056
#
#
# Mechanical properties :
#
#
# Convention : Reuss Voigt Hill
#
# Bulk Modulus (GPa) = 38.97471 56.66115 47.81793
# Shear Modulus (GPa) = 22.87457 27.52152 25.19804
#
# Velocity S-wave (km/s) = 3.41280 3.74344 3.58194
# Velocity P-wave (km/s) = 5.94766 6.89456 6.43854
#
# Compressibility (1/GPa) = 0.02565767
#
# Stress axis : x y z
#
# Youngs Moduli (GPa) = 54.53677 43.95916 99.63370
#
# Poissons Ratio (x) = 0.17304 0.45126
# Poissons Ratio (y) = 0.21468 0.42505
# Poissons Ratio (z) = 0.24701 0.18754
#
# Static dielectric constant tensor:
#      x y z
#    x 3.534900 0.000000 -0.189150 
#    y 0.000000 3.442800 0.000000 
#    z -0.189150 0.000000 3.716470 
# 
# 
# High freq. dielectric constant tensor:
#      x y z
#    x 1.757220 0.000000 -0.018600 
#    y 0.000000 1.760650 0.000000 
#    z -0.018600 0.000000 1.768790 
# 
# From -- ./inp_files/180642.got.cif
#   From: 2010.06.25/outbox.cif.g09.slc.cpg/sg12_91_cif.got.tgz:180642.got - 2010.06.28 00:19:55.
