data_PCOD8106042
_publ_section_title
;
Structure prediction by ZEFSAII (Michael W. Deem and Ramdas Pophale) SiO2 
 PCOD8106042
Probable space group: C 2/M
;
_chemical_formula_sum "Si O2"
_cell_formula_units_Z 64
_cell_length_a 19.331771
_cell_length_b 8.961056
_cell_length_c 19.279592
_cell_angle_alpha 90.000000
_cell_angle_beta 86.986360
_cell_angle_gamma 90.000000
_cell_volume 3335.244279
_symmetry_space_group_name_H-M "C 2/M"
_symmetry_group_IT_number 12
_symmetry_cell_setting 'monoclinic'
loop_
_space_group_symop_operation_xyz
x,y,z
-x,y,-z
-x,-y,-z
x,-y,z
1/2+x,1/2+y,z
1/2-x,1/2+y,-z
1/2-x,1/2-y,-z
1/2+x,1/2-y,z
loop_
_atom_site_type_symbol
_atom_site_label
_atom_site_fract_x
_atom_site_fract_y
_atom_site_fract_z
Si Si1 0.322905 0.824549 0.484629
Si Si2 0.291601 0.329906 0.081068
Si Si3 0.346257 0.330272 0.939950
Si Si4 0.610136 0.173503 0.191038
Si Si5 0.235117 0.169418 0.767860
Si Si6 0.361539 0.175017 0.328367
Si Si7 0.496569 0.676009 0.703193
Si Si8 0.559358 0.674128 0.442848
O O1 0.250000 0.750000 0.500000
O O2 0.353231 0.776250 0.408595
O O3 0.372923 0.768225 0.542670
O O4 0.313831 0.000000 0.490708
O O5 0.261586 0.500000 0.073884
O O6 0.234290 0.205804 0.068083
O O7 0.312942 0.310477 0.160598
O O8 0.356088 0.307773 0.023442
O O9 0.361894 0.500000 0.917229
O O10 0.393321 0.223231 0.889793
O O11 0.685592 0.212250 0.218349
O O12 0.552103 0.264608 0.233949
O O13 0.593098 0.000000 0.197141
O O14 0.207428 0.277485 0.709478
O O15 0.231271 0.000000 0.740700
O O16 0.427258 0.256733 0.291932
O O17 0.372080 0.000000 0.320626
O O18 0.503017 0.500000 0.708431
O O19 0.464757 0.725653 0.631489
O O20 0.500000 0.716481 0.500000
O O21 0.577892 0.500000 0.444911
#
# Coordination Sequence:
#
# PCOD8106042 Si02
#       8
#     8   8   8   8   8   8   8   8
#     4  11  25  41  60  85 114 147 184 228 277 327
#     4   8  15  28  47  75 109 144 182 226 275 326
#     4   9  15  26  48  77 109 143 182 226 274 325
#     4  10  21  36  54  82 116 147 185 230 275 325
#     4   9  19  35  55  80 112 149 185 224 274 327
#     4  11  24  40  57  81 112 146 185 228 273 328
#     4  11  23  39  61  83 109 146 185 226 277 334
#     4  10  21  40  63  86 110 140 182 230 276 329
#
# _framework density 19.188998999999999
#
# number of rings (size 3 to 8) (size 9 to 14) (size 15 to 20)
#    0.000    2.125    1.250    2.625    1.750    5.750 
#    0.000    0.000    0.000    0.750    0.000    5.250 
#    0.000    0.000    0.000    0.000    0.000    0.000 
#
# Total GULP energy -396726.016847 kJ/mol
# GULP energy per Si atom -12397.688026 kJ/mol
# Density = 1.914532 g / cm^3
# Si number density = 19.188999 Si / 1000 Ang^3
#
#
#
# Elastic Constant Matrix: (Units=GPa)
#
#
# Indices 1 2 3 4 5 6 
#
# 1 71.5423 27.7213 15.7979 0.0000 -13.1218 0.0000
# 2 27.7213 61.8813 23.5746 0.0000 -4.5267 0.0000
# 3 15.7979 23.5746 47.7180 0.0000 -21.6562 0.0000
# 4 0.0000 0.0000 0.0000 30.3182 0.0000 -1.5233
# 5 -13.1218 -4.5267 -21.6562 0.0000 27.1092 0.0000
# 6 0.0000 0.0000 0.0000 -1.5233 0.0000 30.8133
#
#
#
# Elastic Compliance Matrix: (Units=1/GPa)
#
#
# Indices 1 2 3 4 5 6 
#
# 1 0.018469 -0.008476 0.002334 0.000000 0.009389 0.000000
# 2 -0.008476 0.024710 -0.014732 0.000000 -0.011745 0.000000
# 3 0.002334 -0.014732 0.042134 0.000000 0.032329 0.000000
# 4 0.000000 0.000000 0.000000 0.033066 0.000000 0.001635
# 5 0.009389 -0.011745 0.032329 0.000000 0.065297 0.000000
# 6 0.000000 0.000000 0.000000 0.001635 0.000000 0.032534
#
#
# Mechanical properties :
#
#
# Convention : Reuss Voigt Hill
#
# Bulk Modulus (GPa) = 22.95444 35.03656 28.99550
# Shear Modulus (GPa) = 18.35001 25.25132 21.80067
#
# Velocity S-wave (km/s) = 3.09573 3.63151 3.37427
# Velocity P-wave (km/s) = 4.97658 5.99017 5.50674
#
# Compressibility (1/GPa) = 0.04356456
#
# Stress axis : x y z
#
# Youngs Moduli (GPa) = 54.14604 40.46911 23.73376
#
# Poissons Ratio (x) = 0.34301 -0.05539
# Poissons Ratio (y) = 0.45893 0.34965
# Poissons Ratio (z) = -0.12637 0.59620
#
# Static dielectric constant tensor:
#      x y z
#    x 2.895800 0.000000 -0.188600 
#    y 0.000000 3.485520 0.000000 
#    z -0.188600 0.000000 3.891120 
# 
# 
# High freq. dielectric constant tensor:
#      x y z
#    x 1.711360 0.000000 -0.017130 
#    y 0.000000 1.752990 0.000000 
#    z -0.017130 0.000000 1.759050 
# 
# From -- ./inp_files/313988.got.cif
#   From: 2010.06.25/outbox.cif.g09.slc.cpg/sg12_157_cif.got.tgz:313988.got - 2010.06.28 00:19:55.
