data_PCOD8106245
_publ_section_title
;
Structure prediction by ZEFSAII (Michael W. Deem and Ramdas Pophale) SiO2 
 PCOD8106245
Probable space group: C 2/M
;
_chemical_formula_sum "Si O2"
_cell_formula_units_Z 52
_cell_length_a 13.422778
_cell_length_b 13.270743
_cell_length_c 20.173742
_cell_angle_alpha 90.000000
_cell_angle_beta 129.218900
_cell_angle_gamma 90.000000
_cell_volume 2784.055083
_symmetry_space_group_name_H-M "C 2/M"
_symmetry_group_IT_number 12
_symmetry_cell_setting 'monoclinic'
loop_
_space_group_symop_operation_xyz
x,y,z
-x,y,-z
-x,-y,-z
x,-y,z
1/2+x,1/2+y,z
1/2-x,1/2+y,-z
1/2-x,1/2-y,-z
1/2+x,1/2-y,z
loop_
_atom_site_type_symbol
_atom_site_label
_atom_site_fract_x
_atom_site_fract_y
_atom_site_fract_z
Si Si1 0.892716 0.726305 0.790757
Si Si2 0.515738 0.887153 0.388682
Si Si3 0.189118 0.251863 0.901886
Si Si4 0.771505 0.614209 0.199690
Si Si5 0.761371 0.382678 0.614791
Si Si6 0.000000 0.232702 0.500000
Si Si7 0.376624 0.884565 0.912232
O O1 0.820993 0.821429 0.792280
O O2 0.825423 0.688972 0.696182
O O3 0.889994 0.632218 0.839667
O O4 0.037160 0.761355 0.838664
O O5 0.417067 0.874943 0.286483
O O6 0.658368 0.872100 0.419372
O O7 0.484214 0.803889 0.429891
O O8 0.503033 0.000000 0.414048
O O9 0.230440 0.351750 0.878204
O O10 0.243354 0.158466 0.883201
O O11 0.250000 0.250000 0.000000
O O12 0.721950 0.500000 0.181756
O O13 0.756142 0.500000 0.635233
O O14 0.619987 0.341154 0.541227
O O15 0.374181 0.000000 0.929067
O O16 0.500000 0.832905 0.000000
#
# Coordination Sequence:
#
# PCOD8106245 Si02
#       7
#     8   8   8   8   8   4   8
#     4  11  21  39  60  82 118 155 193 245 294 351
#     4  10  21  39  62  90 119 154 203 243 294 364
#     4  11  22  37  60  87 117 152 198 245 288 343
#     4  10  22  39  61  87 117 158 200 242 296 357
#     4  11  23  39  61  89 119 156 200 244 300 364
#     4  12  22  40  62  92 122 156 194 254 306 350
#     4  10  21  36  56  84 116 150 193 240 292 349
#
# _framework density 18.677792
#
# number of rings (size 3 to 8) (size 9 to 14) (size 15 to 20)
#    0.000    1.385    4.615    1.385    0.000    1.846 
#    0.000    0.769    0.000    0.923    0.000    0.000 
#    0.000    0.000    0.000    0.000    0.000    0.000 
#
# Total GULP energy -322407.667792 kJ/mol
# GULP energy per Si atom -12400.294915 kJ/mol
# Density = 1.863528 g / cm^3
# Si number density = 18.677792 Si / 1000 Ang^3
#
#
#
# Elastic Constant Matrix: (Units=GPa)
#
#
# Indices 1 2 3 4 5 6 
#
# 1 102.5181 49.8869 20.6865 0.0000 13.6842 0.0000
# 2 49.8869 110.8411 33.3438 0.0000 4.6511 0.0000
# 3 20.6865 33.3438 68.1305 0.0000 2.4170 0.0000
# 4 0.0000 0.0000 0.0000 28.6217 0.0000 1.5228
# 5 13.6842 4.6511 2.4170 0.0000 37.0869 0.0000
# 6 0.0000 0.0000 0.0000 1.5228 0.0000 19.5083
#
#
#
# Elastic Compliance Matrix: (Units=1/GPa)
#
#
# Indices 1 2 3 4 5 6 
#
# 1 0.013170 -0.005390 -0.001215 0.000000 -0.004104 0.000000
# 2 -0.005390 0.012822 -0.004663 0.000000 0.000685 0.000000
# 3 -0.001215 -0.004663 0.017332 0.000000 -0.000096 0.000000
# 4 0.000000 0.000000 0.000000 0.035084 0.000000 -0.002739
# 5 -0.004104 0.000685 -0.000096 0.000000 0.028399 0.000000
# 6 0.000000 0.000000 0.000000 -0.002739 0.000000 0.051474
#
#
# Mechanical properties :
#
#
# Convention : Reuss Voigt Hill
#
# Bulk Modulus (GPa) = 48.10472 54.36937 51.23704
# Shear Modulus (GPa) = 26.63165 28.88153 27.75659
#
# Velocity S-wave (km/s) = 3.78013 3.93657 3.85915
# Velocity P-wave (km/s) = 6.69802 7.05935 6.88106
#
# Compressibility (1/GPa) = 0.02078798
#
# Stress axis : x y z
#
# Youngs Moduli (GPa) = 75.92890 77.99274 57.69588
#
# Poissons Ratio (x) = 0.42036 0.07013
# Poissons Ratio (y) = 0.40924 0.26903
# Poissons Ratio (z) = 0.09229 0.36367
#
# Static dielectric constant tensor:
#      x y z
#    x 3.640310 0.000000 -0.034990 
#    y 0.000000 3.427760 0.000000 
#    z -0.034990 0.000000 3.640760 
# 
# 
# High freq. dielectric constant tensor:
#      x y z
#    x 1.737520 0.000000 0.003400 
#    y 0.000000 1.724650 0.000000 
#    z 0.003400 0.000000 1.725200 
# 
# From -- ./inp_files/305350.got.cif
#   From: 2010.06.25/outbox.cif.g09.slc.cpg/sg12_153_cif.got.tgz:305350.got - 2010.06.28 00:19:55.
