data_PCOD8106124
_publ_section_title
;
Structure prediction by ZEFSAII (Michael W. Deem and Ramdas Pophale) SiO2 
 PCOD8106124
Probable space group: C 2/M
;
_chemical_formula_sum "Si O2"
_cell_formula_units_Z 32
_cell_length_a 5.254028
_cell_length_b 18.628999
_cell_length_c 14.898267
_cell_angle_alpha 90.000000
_cell_angle_beta 71.292733
_cell_angle_gamma 90.000000
_cell_volume 1381.164505
_symmetry_space_group_name_H-M "C 2/M"
_symmetry_group_IT_number 12
_symmetry_cell_setting 'monoclinic'
loop_
_space_group_symop_operation_xyz
x,y,z
-x,y,-z
-x,-y,-z
x,-y,z
1/2+x,1/2+y,z
1/2-x,1/2+y,-z
1/2-x,1/2-y,-z
1/2+x,1/2-y,z
loop_
_atom_site_type_symbol
_atom_site_label
_atom_site_fract_x
_atom_site_fract_y
_atom_site_fract_z
Si Si1 0.136574 0.216961 0.393199
Si Si2 0.078805 0.414328 0.892266
Si Si3 0.831750 0.916588 0.207033
Si Si4 0.434387 0.918314 0.405501
O O1 0.414634 0.261700 0.342929
O O2 0.197725 0.131730 0.392583
O O3 0.000000 0.245950 0.500000
O O4 0.082254 0.500000 0.886359
O O5 0.371204 0.382281 0.832478
O O6 0.865157 0.382141 0.845647
O O7 0.000000 0.387557 0.000000
O O8 0.708203 0.905188 0.319721
O O9 0.859294 0.000000 0.180895
O O10 0.500000 0.897571 0.500000
O O11 0.330310 0.000000 0.407423
#
# Coordination Sequence:
#
# PCOD8106124 Si02
#       4
#     8   8   8   8
#     4  10  21  38  57  76 103 144 191 233 269 309
#     4   9  16  28  46  67  96 134 171 213 269 321
#     4   9  18  30  45  70 102 134 172 216 261 315
#     4  10  21  36  55  81 115 152 185 220 268 326
#
# _framework density 23.168854
#
# number of rings (size 3 to 8) (size 9 to 14) (size 15 to 20)
#    0.000    2.500    0.000    3.000    0.000    7.500 
#    0.000    8.750    0.000    0.750    0.000    0.000 
#    0.000   20.000    0.000    0.000    0.000    0.000 
#
# Total GULP energy -198322.292316 kJ/mol
# GULP energy per Si atom -12395.143270 kJ/mol
# Density = 2.311612 g / cm^3
# Si number density = 23.168854 Si / 1000 Ang^3
#
#
#
# Elastic Constant Matrix: (Units=GPa)
#
#
# Indices 1 2 3 4 5 6 
#
# 1 176.5503 28.0753 52.1467 0.0000 -29.0791 0.0000
# 2 28.0753 94.7987 1.1423 0.0000 -9.1224 0.0000
# 3 52.1467 1.1423 133.3343 0.0000 -9.3581 0.0000
# 4 0.0000 0.0000 0.0000 0.5194 0.0000 -9.8237
# 5 -29.0791 -9.1224 -9.3581 0.0000 30.1514 0.0000
# 6 0.0000 0.0000 0.0000 -9.8237 0.0000 20.4440
#
#
#
# Elastic Compliance Matrix: (Units=1/GPa)
#
#
# Indices 1 2 3 4 5 6 
#
# 1 0.007694 -0.001659 -0.002565 0.000000 0.006122 0.000000
# 2 -0.001659 0.011225 0.000694 0.000000 0.002012 0.000000
# 3 -0.002565 0.000694 0.008524 0.000000 0.000382 0.000000
# 4 0.000000 0.000000 0.000000 -0.238033 0.000000 -0.114380
# 5 0.006122 0.002012 0.000382 0.000000 0.039798 0.000000
# 6 0.000000 0.000000 0.000000 -0.114380 0.000000 -0.006047
#
#
# Mechanical properties :
#
#
# Convention : Reuss Voigt Hill
#
# Bulk Modulus (GPa) = 49.06054 63.04577 56.05316
# Shear Modulus (GPa) = -30.67750 31.77755 0.55003
#
# Velocity S-wave (km/s) = -3.64274 3.70748 0.48776
# Velocity P-wave (km/s) = 1.87840 6.75261 4.95611
#
# Compressibility (1/GPa) = 0.02038298
#
# Stress axis : x y z
#
# Youngs Moduli (GPa) = 129.97306 89.08607 117.31568
#
# Poissons Ratio (x) = 0.14775 0.30093
# Poissons Ratio (y) = 0.21557 -0.08138
# Poissons Ratio (z) = 0.33340 -0.06180
#
# Static dielectric constant tensor:
#      x y z
#    x 4.453590 0.000000 -0.226960 
#    y 0.000000 3.629750 0.000000 
#    z -0.226960 0.000000 4.024510 
# 
# 
# High freq. dielectric constant tensor:
#      x y z
#    x 1.930630 0.000000 -0.014380 
#    y 0.000000 1.861300 0.000000 
#    z -0.014380 0.000000 1.893160 
# 
# From -- ./inp_files/191161.got.cif
#   From: 2010.06.25/outbox.cif.g09.slc.cpg/sg12_96_cif.got.tgz:191161.got - 2010.06.28 00:19:55.
