data_PCOD8106366
_publ_section_title
;
Structure prediction by ZEFSAII (Michael W. Deem and Ramdas Pophale) SiO2 
 PCOD8106366
Probable space group: C 2/M
;
_chemical_formula_sum "Si O2"
_cell_formula_units_Z 64
_cell_length_a 14.651440
_cell_length_b 8.632444
_cell_length_c 25.625752
_cell_angle_alpha 90.000000
_cell_angle_beta 89.852082
_cell_angle_gamma 90.000000
_cell_volume 3241.076278
_symmetry_space_group_name_H-M "C 2/M"
_symmetry_group_IT_number 12
_symmetry_cell_setting 'monoclinic'
loop_
_space_group_symop_operation_xyz
x,y,z
-x,y,-z
-x,-y,-z
x,-y,z
1/2+x,1/2+y,z
1/2-x,1/2+y,-z
1/2-x,1/2-y,-z
1/2+x,1/2-y,z
loop_
_atom_site_type_symbol
_atom_site_label
_atom_site_fract_x
_atom_site_fract_y
_atom_site_fract_z
Si Si1 0.885223 0.179615 0.732018
Si Si2 0.877434 0.820732 0.371361
Si Si3 0.925331 0.678235 0.264248
Si Si4 0.254542 0.819538 0.923683
Si Si5 0.103066 0.816865 0.004103
Si Si6 0.271207 0.177670 0.186224
Si Si7 0.312781 0.319946 0.618553
Si Si8 0.471514 0.180460 0.557772
O O1 0.803976 0.221063 0.770870
O O2 0.857106 0.225480 0.673665
O O3 0.970430 0.283434 0.748817
O O4 0.912683 0.000000 0.734856
O O5 0.886484 0.785066 0.310195
O O6 0.776458 0.782139 0.391083
O O7 0.947358 0.715079 0.402677
O O8 0.899998 0.000000 0.381447
O O9 0.913273 0.500000 0.281377
O O10 0.869342 0.710937 0.211596
O O11 0.347666 0.738215 0.942909
O O12 0.240169 0.787089 0.863127
O O13 0.266880 0.000000 0.933269
O O14 0.165431 0.758516 0.955481
O O15 0.096399 0.000000 0.005133
O O16 0.000000 0.747364 0.000000
O O17 0.261700 0.000000 0.168304
O O18 0.286069 0.500000 0.617138
O O19 0.382933 0.280195 0.572592
O O20 0.500000 0.231562 0.500000
O O21 0.446758 0.000000 0.560710
#
# Coordination Sequence:
#
# PCOD8106366 Si02
#       8
#     8   8   8   8   8   8   8   8
#     4  10  21  38  59  86 116 155 199 241 295 358
#     4  12  24  39  63  91 121 159 200 244 298 360
#     4  11  22  38  60  87 119 157 201 247 296 354
#     4  10  21  36  57  88 119 149 196 250 292 343
#     4   9  19  38  62  84 113 157 199 237 295 357
#     4  10  22  40  58  81 122 163 195 237 297 356
#     4  11  22  40  65  91 120 155 200 248 298 358
#     4  11  25  44  65  91 122 156 198 250 306 364
#
# _framework density 19.746528000000001
#
# number of rings (size 3 to 8) (size 9 to 14) (size 15 to 20)
#    0.000    1.500    2.500    2.625    0.000    5.250 
#    0.000    3.750    0.000    0.000    0.000    0.000 
#    0.000    0.000    0.000    0.000    0.000    0.000 
#
# Total GULP energy -396974.592764 kJ/mol
# GULP energy per Si atom -12405.456024 kJ/mol
# Density = 1.970158 g / cm^3
# Si number density = 19.746528 Si / 1000 Ang^3
#
#
#
# Elastic Constant Matrix: (Units=GPa)
#
#
# Indices 1 2 3 4 5 6 
#
# 1 97.0469 18.5596 -2.4695 0.0000 -0.3939 0.0000
# 2 18.5596 38.8062 15.9769 0.0000 -0.5646 0.0000
# 3 -2.4695 15.9769 55.3833 0.0000 -5.6108 0.0000
# 4 0.0000 0.0000 0.0000 28.4399 0.0000 -3.6044
# 5 -0.3939 -0.5646 -5.6108 0.0000 22.8222 0.0000
# 6 0.0000 0.0000 0.0000 -3.6044 0.0000 29.2832
#
#
#
# Elastic Compliance Matrix: (Units=1/GPa)
#
#
# Indices 1 2 3 4 5 6 
#
# 1 0.011627 -0.006572 0.002480 0.000000 0.000648 0.000000
# 2 -0.006572 0.033000 -0.009990 0.000000 -0.001753 0.000000
# 3 0.002480 -0.009990 0.021565 0.000000 0.005097 0.000000
# 4 0.000000 0.000000 0.000000 0.035719 0.000000 0.004397
# 5 0.000648 -0.001753 0.005097 0.000000 0.045038 0.000000
# 6 0.000000 0.000000 0.000000 0.004397 0.000000 0.034690
#
#
# Mechanical properties :
#
#
# Convention : Reuss Voigt Hill
#
# Bulk Modulus (GPa) = 26.29752 28.37450 27.33601
# Shear Modulus (GPa) = 22.47387 26.72035 24.59711
#
# Velocity S-wave (km/s) = 3.37726 3.68253 3.53319
# Velocity P-wave (km/s) = 5.34362 5.69929 5.52432
#
# Compressibility (1/GPa) = 0.03802640
#
# Stress axis : x y z
#
# Youngs Moduli (GPa) = 86.00698 30.30298 46.37139
#
# Poissons Ratio (x) = 0.19916 -0.11500
# Poissons Ratio (y) = 0.56527 0.46327
# Poissons Ratio (z) = -0.21330 0.30274
#
# Static dielectric constant tensor:
#      x y z
#    x 3.787470 0.000000 -0.043610 
#    y 0.000000 3.512530 0.000000 
#    z -0.043610 0.000000 3.506020 
# 
# 
# High freq. dielectric constant tensor:
#      x y z
#    x 1.781970 0.000000 -0.000020 
#    y 0.000000 1.768200 0.000000 
#    z -0.000020 0.000000 1.762630 
# 
# From -- ./inp_files/338697.got.cif
#   From: 2010.06.25/outbox.cif.g09.slc.cpg/sg12_170_cif.got.tgz:338697.got - 2010.06.28 00:19:55.
