data_PCOD8106389
_publ_section_title
;
Structure prediction by ZEFSAII (Michael W. Deem and Ramdas Pophale) SiO2 
 PCOD8106389
Probable space group: C 2/M
;
_chemical_formula_sum "Si O2"
_cell_formula_units_Z 56
_cell_length_a 17.451300
_cell_length_b 14.916891
_cell_length_c 14.099414
_cell_angle_alpha 90.000000
_cell_angle_beta 127.237361
_cell_angle_gamma 90.000000
_cell_volume 2922.093826
_symmetry_space_group_name_H-M "C 2/M"
_symmetry_group_IT_number 12
_symmetry_cell_setting 'monoclinic'
loop_
_space_group_symop_operation_xyz
x,y,z
-x,y,-z
-x,-y,-z
x,-y,z
1/2+x,1/2+y,z
1/2-x,1/2+y,-z
1/2-x,1/2-y,-z
1/2+x,1/2-y,z
loop_
_atom_site_type_symbol
_atom_site_label
_atom_site_fract_x
_atom_site_fract_y
_atom_site_fract_z
Si Si1 0.961825 0.099442 0.367791
Si Si2 0.253677 0.900499 0.810429
Si Si3 0.411554 0.238018 0.860642
Si Si4 0.566096 0.895658 0.639564
Si Si5 0.513117 0.744314 0.746696
Si Si6 0.785041 0.099608 0.814601
Si Si7 0.200281 0.156318 0.962966
O O1 0.852269 0.136411 0.295904
O O2 0.027700 0.171946 0.360458
O O3 0.000000 0.089821 0.500000
O O4 0.962352 0.000000 0.319528
O O5 0.335095 0.837346 0.829768
O O6 0.254901 0.903780 0.925798
O O7 0.271955 0.000000 0.783627
O O8 0.440505 0.222403 0.773156
O O9 0.361868 0.334445 0.826305
O O10 0.500000 0.232278 0.000000
O O11 0.500000 0.868104 0.500000
O O12 0.545478 0.833917 0.715826
O O13 0.677634 0.880053 0.695885
O O14 0.547778 0.000000 0.653318
O O15 0.590858 0.680638 0.856867
O O16 0.815827 0.000000 0.807018
O O17 0.789176 0.105344 0.931017
O O18 0.250000 0.250000 0.000000
#
# Coordination Sequence:
#
# PCOD8106389 Si02
#       7
#     8   8   8   8   8   8   8
#     4   9  19  38  63  87 110 143 195 248 286 331
#     4  10  21  36  58  83 112 151 192 235 286 337
#     4  12  24  39  52  83 128 155 183 231 285 357
#     4  10  22  41  64  88 112 148 201 247 283 336
#     4  11  21  35  60  84 118 154 187 234 294 342
#     4  11  22  38  61  84 115 156 194 239 292 337
#     4  11  17  36  58  83 113 143 193 245 279 334
#
# _framework density 19.164341
#
# number of rings (size 3 to 8) (size 9 to 14) (size 15 to 20)
#    0.000    1.429    4.286    1.714    0.000    2.286 
#    0.000    2.857    0.000    5.143    0.000    0.000 
#    0.000    0.000    0.000    0.000    0.000    0.000 
#
# Total GULP energy -346985.615331 kJ/mol
# GULP energy per Si atom -12392.343405 kJ/mol
# Density = 1.912072 g / cm^3
# Si number density = 19.164341 Si / 1000 Ang^3
#
#
#
# Elastic Constant Matrix: (Units=GPa)
#
#
# Indices 1 2 3 4 5 6 
#
# 1 98.8233 42.0420 28.7751 0.0000 -4.5526 0.0000
# 2 42.0420 96.0785 25.8128 0.0000 0.5600 0.0000
# 3 28.7751 25.8128 83.3213 0.0000 3.3895 0.0000
# 4 0.0000 0.0000 0.0000 25.9461 0.0000 2.7328
# 5 -4.5526 0.5600 3.3895 0.0000 19.7927 0.0000
# 6 0.0000 0.0000 0.0000 2.7328 0.0000 18.4487
#
#
#
# Elastic Compliance Matrix: (Units=1/GPa)
#
#
# Indices 1 2 3 4 5 6 
#
# 1 0.013357 -0.005003 -0.003216 0.000000 0.003765 0.000000
# 2 -0.005003 0.013228 -0.002325 0.000000 -0.001127 0.000000
# 3 -0.003216 -0.002325 0.013957 0.000000 -0.003064 0.000000
# 4 0.000000 0.000000 0.000000 0.039152 0.000000 -0.005800
# 5 0.003765 -0.001127 -0.003064 0.000000 0.051946 0.000000
# 6 0.000000 0.000000 0.000000 -0.005800 0.000000 0.055063
#
#
# Mechanical properties :
#
#
# Convention : Reuss Voigt Hill
#
# Bulk Modulus (GPa) = 51.39865 52.38699 51.89282
# Shear Modulus (GPa) = 23.33425 24.94371 24.13898
#
# Velocity S-wave (km/s) = 3.49318 3.61164 3.55290
# Velocity P-wave (km/s) = 6.56871 6.69230 6.63079
#
# Compressibility (1/GPa) = 0.01945576
#
# Stress axis : x y z
#
# Youngs Moduli (GPa) = 74.86544 75.59532 71.64725
#
# Poissons Ratio (x) = 0.37818 0.23044
# Poissons Ratio (y) = 0.37453 0.16655
# Poissons Ratio (z) = 0.24079 0.17573
#
# Static dielectric constant tensor:
#      x y z
#    x 3.343120 0.000000 0.023700 
#    y 0.000000 3.776320 0.000000 
#    z 0.023700 0.000000 3.633390 
# 
# 
# High freq. dielectric constant tensor:
#      x y z
#    x 1.719980 0.000000 -0.000070 
#    y 0.000000 1.763790 0.000000 
#    z -0.000070 0.000000 1.746640 
# 
# From -- ./inp_files/225165.got.cif
#   From: 2010.06.25/outbox.cif.g09.slc.cpg/sg12_113_cif.got.tgz:225165.got - 2010.06.28 00:19:55.
