data_PCOD8106381
_publ_section_title
;
Structure prediction by ZEFSAII (Michael W. Deem and Ramdas Pophale) SiO2 
 PCOD8106381
Probable space group: C 2/M
;
_chemical_formula_sum "Si O2"
_cell_formula_units_Z 64
_cell_length_a 14.686898
_cell_length_b 18.107680
_cell_length_c 17.626758
_cell_angle_alpha 90.000000
_cell_angle_beta 40.831017
_cell_angle_gamma 90.000000
_cell_volume 3064.999296
_symmetry_space_group_name_H-M "C 2/M"
_symmetry_group_IT_number 12
_symmetry_cell_setting 'monoclinic'
loop_
_space_group_symop_operation_xyz
x,y,z
-x,y,-z
-x,-y,-z
x,-y,z
1/2+x,1/2+y,z
1/2-x,1/2+y,-z
1/2-x,1/2-y,-z
1/2+x,1/2-y,z
loop_
_atom_site_type_symbol
_atom_site_label
_atom_site_fract_x
_atom_site_fract_y
_atom_site_fract_z
Si Si1 0.619159 0.082287 0.480777
Si Si2 0.926701 0.678444 0.233678
Si Si3 0.129930 0.830673 0.360291
Si Si4 0.433259 0.918664 0.736806
Si Si5 0.667722 0.211993 0.981669
Si Si6 0.637723 0.412649 0.201367
Si Si7 0.892178 0.837146 0.275513
Si Si8 0.230864 0.194578 0.799882
O O1 0.500000 0.112356 0.500000
O O2 0.568096 0.079655 0.598803
O O3 0.744344 0.139054 0.400936
O O4 0.665189 0.000000 0.424799
O O5 0.772620 0.647138 0.314248
O O6 0.022808 0.619474 0.213602
O O7 0.923008 0.753970 0.286729
O O8 0.007420 0.695353 0.104045
O O9 0.102419 0.889254 0.310223
O O10 0.154284 0.749230 0.310338
O O11 0.000000 0.831501 0.500000
O O12 0.305757 0.880089 0.776104
O O13 0.380921 0.000000 0.790335
O O14 0.735184 0.134630 0.912452
O O15 0.661367 0.268801 0.916544
O O16 0.750000 0.250000 0.000000
O O17 0.671102 0.500000 0.177332
O O18 0.505889 0.395598 0.230818
O O19 0.885769 0.829623 0.187865
#
# Coordination Sequence:
#
# PCOD8106381 Si02
#       8
#     8   8   8   8   8   8   8   8
#     4  10  21  36  57  90 139 178 205 254 324 404
#     4  11  24  42  68  94 123 175 222 274 324 381
#     4  10  25  44  67  98 131 170 221 274 321 385
#     4  11  23  38  59  96 135 170 212 269 334 397
#     4  11  21  47  68  93 131 169 224 275 323 379
#     4  11  25  44  67  96 132 175 218 271 333 397
#     4  11  22  38  64  97 126 172 216 268 326 395
#     4  10  22  39  67  98 129 172 219 270 323 391
#
# _framework density 20.880918000000001
#
# number of rings (size 3 to 8) (size 9 to 14) (size 15 to 20)
#    0.000    1.375    3.750    1.125    5.250    6.750 
#    0.000    0.625    0.000    0.750    0.000    0.000 
#    0.000    0.000    0.000    0.000    0.000    0.000 
#
# Total GULP energy -396752.115781 kJ/mol
# GULP energy per Si atom -12398.503618 kJ/mol
# Density = 2.083339 g / cm^3
# Si number density = 20.880918 Si / 1000 Ang^3
#
#
#
# Elastic Constant Matrix: (Units=GPa)
#
#
# Indices 1 2 3 4 5 6 
#
# 1 74.7457 22.8701 1.4776 0.0003 6.7340 -0.0003
# 2 22.8701 128.8765 13.3627 0.0003 6.7362 -0.0004
# 3 1.4776 13.3627 92.6256 0.0009 2.6663 -0.0010
# 4 0.0003 0.0003 0.0009 24.4968 -0.0004 -2.3048
# 5 6.7340 6.7362 2.6663 -0.0004 33.0739 0.0004
# 6 -0.0003 -0.0004 -0.0010 -2.3048 0.0004 23.2472
#
#
#
# Elastic Compliance Matrix: (Units=1/GPa)
#
#
# Indices 1 2 3 4 5 6 
#
# 1 0.014340 -0.002437 0.000193 0.000000 -0.002439 0.000000
# 2 -0.002437 0.008368 -0.001136 0.000000 -0.001116 0.000000
# 3 0.000193 -0.001136 0.010977 0.000000 -0.000693 0.000000
# 4 0.000000 0.000000 0.000000 0.041206 0.000000 0.004085
# 5 -0.002439 -0.001116 -0.000693 0.000000 0.031015 -0.000001
# 6 0.000000 0.000000 0.000000 0.004085 -0.000001 0.043421
#
#
# Mechanical properties :
#
#
# Convention : Reuss Voigt Hill
#
# Bulk Modulus (GPa) = 37.14105 41.29651 39.21878
# Shear Modulus (GPa) = 30.29139 33.39938 31.84539
#
# Velocity S-wave (km/s) = 3.81290 4.00374 3.90948
# Velocity P-wave (km/s) = 6.10000 6.41820 6.26112
#
# Compressibility (1/GPa) = 0.02692439
#
# Stress axis : x y z
#
# Youngs Moduli (GPa) = 69.73323 119.50204 91.10011
#
# Poissons Ratio (x) = 0.29127 -0.01759
# Poissons Ratio (y) = 0.16996 0.10351
# Poissons Ratio (z) = -0.01346 0.13578
#
# Static dielectric constant tensor:
#      x y z
#    x 3.866800 0.000000 0.061290 
#    y 0.000000 3.930290 0.000000 
#    z 0.061290 0.000000 3.820740 
# 
# 
# High freq. dielectric constant tensor:
#      x y z
#    x 1.824600 0.000000 0.002650 
#    y 0.000000 1.813320 0.000000 
#    z 0.002650 0.000000 1.811750 
# 
# From -- ./inp_files/271702.got.cif
#   From: 2010.06.25/outbox.cif.g09.slc.cpg/sg12_136_cif.got.tgz:271702.got - 2010.06.28 00:19:55.
