data_PCOD8106912
_publ_section_title
;
Structure prediction by ZEFSAII (Michael W. Deem and Ramdas Pophale) SiO2 
 PCOD8106912
Probable space group: C 2/M
;
_chemical_formula_sum "Si O2"
_cell_formula_units_Z 56
_cell_length_a 27.683342
_cell_length_b 9.089874
_cell_length_c 13.498447
_cell_angle_alpha 90.000000
_cell_angle_beta 121.991118
_cell_angle_gamma 90.000000
_cell_volume 2880.863838
_symmetry_space_group_name_H-M "C 2/M"
_symmetry_group_IT_number 12
_symmetry_cell_setting 'monoclinic'
loop_
_space_group_symop_operation_xyz
x,y,z
-x,y,-z
-x,-y,-z
x,-y,z
1/2+x,1/2+y,z
1/2-x,1/2+y,-z
1/2-x,1/2-y,-z
1/2+x,1/2-y,z
loop_
_atom_site_type_symbol
_atom_site_label
_atom_site_fract_x
_atom_site_fract_y
_atom_site_fract_z
Si Si1 0.547617 0.160453 0.470536
Si Si2 0.450385 0.172258 0.229114
Si Si3 0.717727 0.166971 0.693830
Si Si4 0.874784 0.172977 0.305435
Si Si5 0.808484 0.668129 0.550109
Si Si6 0.655657 0.673575 0.232274
Si Si7 0.058276 0.671451 0.008865
O O1 0.500000 0.134714 0.500000
O O2 0.514347 0.215070 0.335601
O O3 0.590977 0.282103 0.558001
O O4 0.577617 0.000000 0.484367
O O5 0.401619 0.258982 0.235564
O O6 0.447260 0.215136 0.111501
O O7 0.439636 0.000000 0.235680
O O8 0.689736 0.267629 0.749032
O O9 0.677452 0.178717 0.551381
O O10 0.782201 0.219176 0.742324
O O11 0.718713 0.000000 0.733538
O O12 0.873982 0.000000 0.292701
O O13 0.802553 0.500000 0.578089
O O14 0.750000 0.750000 0.500000
O O15 0.854363 0.748746 0.671115
O O16 0.650926 0.500000 0.241888
O O17 0.608640 0.729831 0.105833
O O18 0.072858 0.500000 0.039233
O O19 0.000000 0.713157 0.000000
#
# Coordination Sequence:
#
# PCOD8106912 Si02
#       7
#     8   8   8   8   8   8   8
#     4   8  15  30  51  73 102 142 179 210 257 319
#     4   9  19  37  57  76 106 147 185 222 267 322
#     4   9  19  35  54  78 111 149 183 215 262 326
#     4  11  21  31  51  84 115 142 178 224 272 322
#     4   9  17  31  53  79 108 143 180 220 265 315
#     4  10  21  37  57  82 112 146 183 226 275 324
#     4  10  22  40  61  83 105 137 184 230 273 326
#
# _framework density 19.438613
#
# number of rings (size 3 to 8) (size 9 to 14) (size 15 to 20)
#    0.000    2.571    0.000    3.857    0.000    8.000 
#    0.000    3.571    0.000    0.000    0.000    0.000 
#    0.000    0.000    0.000    0.000    0.000    0.000 
#
# Total GULP energy -347032.355192 kJ/mol
# GULP energy per Si atom -12394.012685 kJ/mol
# Density = 1.939437 g / cm^3
# Si number density = 19.438613 Si / 1000 Ang^3
#
#
#
# Elastic Constant Matrix: (Units=GPa)
#
#
# Indices 1 2 3 4 5 6 
#
# 1 102.5627 56.0578 45.3766 0.0000 -4.9041 0.0000
# 2 56.0578 108.1225 47.5827 0.0000 -4.9384 0.0000
# 3 45.3766 47.5827 120.0714 0.0000 -7.1366 0.0000
# 4 0.0000 0.0000 0.0000 27.8578 0.0000 -2.0013
# 5 -4.9041 -4.9384 -7.1366 0.0000 18.8554 0.0000
# 6 0.0000 0.0000 0.0000 -2.0013 0.0000 15.7468
#
#
#
# Elastic Compliance Matrix: (Units=1/GPa)
#
#
# Indices 1 2 3 4 5 6 
#
# 1 0.014476 -0.006150 -0.002972 0.000000 0.001029 0.000000
# 2 -0.006150 0.013846 -0.003112 0.000000 0.000849 0.000000
# 3 -0.002972 -0.003112 0.010834 0.000000 0.002513 0.000000
# 4 0.000000 0.000000 0.000000 0.036227 0.000000 0.004604
# 5 0.001029 0.000849 0.002513 0.000000 0.054476 0.000000
# 6 0.000000 0.000000 0.000000 0.004604 0.000000 0.064090
#
#
# Mechanical properties :
#
#
# Convention : Reuss Voigt Hill
#
# Bulk Modulus (GPa) = 68.08877 69.86565 68.97721
# Shear Modulus (GPa) = 22.38995 24.60796 23.49895
#
# Velocity S-wave (km/s) = 3.39754 3.56185 3.48067
# Velocity P-wave (km/s) = 7.10596 7.27567 7.19132
#
# Compressibility (1/GPa) = 0.01468671
#
# Stress axis : x y z
#
# Youngs Moduli (GPa) = 69.08047 72.22376 92.29964
#
# Poissons Ratio (x) = 0.44419 0.27433
# Poissons Ratio (y) = 0.42486 0.28726
# Poissons Ratio (z) = 0.20532 0.22478
#
# Static dielectric constant tensor:
#      x y z
#    x 3.500780 0.000000 -0.037740 
#    y 0.000000 3.479880 0.000000 
#    z -0.037740 0.000000 3.821790 
# 
# 
# High freq. dielectric constant tensor:
#      x y z
#    x 1.753530 0.000000 -0.001440 
#    y 0.000000 1.751050 0.000000 
#    z -0.001440 0.000000 1.742440 
# 
# From -- ./inp_files/249285.got.cif
#   From: 2010.06.25/outbox.cif.g09.slc.cpg/sg12_125_cif.got.tgz:249285.got - 2010.06.28 00:19:55.
