data_PCOD8106495
_publ_section_title
;
Structure prediction by ZEFSAII (Michael W. Deem and Ramdas Pophale) SiO2 
 PCOD8106495
Probable space group: C 2/M
;
_chemical_formula_sum "Si O2"
_cell_formula_units_Z 48
_cell_length_a 22.830182
_cell_length_b 9.049215
_cell_length_c 12.061380
_cell_angle_alpha 90.000000
_cell_angle_beta 76.053410
_cell_angle_gamma 90.000000
_cell_volume 2418.366605
_symmetry_space_group_name_H-M "C 2/M"
_symmetry_group_IT_number 12
_symmetry_cell_setting 'monoclinic'
loop_
_space_group_symop_operation_xyz
x,y,z
-x,y,-z
-x,-y,-z
x,-y,z
1/2+x,1/2+y,z
1/2-x,1/2+y,-z
1/2-x,1/2-y,-z
1/2+x,1/2-y,z
loop_
_atom_site_type_symbol
_atom_site_label
_atom_site_fract_x
_atom_site_fract_y
_atom_site_fract_z
Si Si1 0.255820 0.163726 0.827136
Si Si2 0.908464 0.324049 0.265499
Si Si3 0.876652 0.827390 0.064791
Si Si4 0.711732 0.666848 0.607203
Si Si5 0.008026 0.173674 0.367206
Si Si6 0.876930 0.830382 0.818446
O O1 0.192967 0.229499 0.903321
O O2 0.253211 0.162639 0.696101
O O3 0.312858 0.254945 0.838424
O O4 0.264837 0.000000 0.870940
O O5 0.905517 0.500000 0.265347
O O6 0.915782 0.264024 0.136132
O O7 0.848781 0.257958 0.346774
O O8 0.963523 0.271578 0.315218
O O9 0.877810 0.000000 0.100090
O O10 0.904014 0.801958 0.929740
O O11 0.695303 0.500000 0.576403
O O12 0.750000 0.750000 0.500000
O O13 0.000000 0.212891 0.500000
O O14 0.075071 0.221117 0.296162
O O15 0.996435 0.000000 0.350382
O O16 0.862459 0.000000 0.807851
#
# Coordination Sequence:
#
# PCOD8106495 Si02
#       6
#     8   8   8   8   8   8
#     4   9  19  34  54  84 120 151 183 234 294 345
#     4  11  23  39  60  86 115 152 196 244 295 347
#     4   9  19  38  60  85 118 153 191 240 296 354
#     4  10  21  37  58  86 118 156 196 239 291 346
#     4  10  23  42  60  82 114 156 199 242 295 351
#     4  10  21  36  59  87 114 154 201 239 289 353
#
# _framework density 19.848106999999999
#
# number of rings (size 3 to 8) (size 9 to 14) (size 15 to 20)
#    0.000    2.167    0.000    3.500    2.333    5.667 
#    0.000    3.333    0.000    0.000    0.000    0.000 
#    0.000    0.000    0.000    0.000    0.000    0.000 
#
# Total GULP energy -297565.730564 kJ/mol
# GULP energy per Si atom -12398.572107 kJ/mol
# Density = 1.980293 g / cm^3
# Si number density = 19.848107 Si / 1000 Ang^3
#
#
#
# Elastic Constant Matrix: (Units=GPa)
#
#
# Indices 1 2 3 4 5 6 
#
# 1 69.5245 46.0115 41.4159 0.0000 17.9359 0.0000
# 2 46.0115 104.7212 44.8059 0.0000 11.0851 0.0000
# 3 41.4159 44.8059 116.5007 0.0000 -10.0144 0.0000
# 4 0.0000 0.0000 0.0000 26.8433 0.0000 5.5615
# 5 17.9359 11.0851 -10.0144 0.0000 25.0010 0.0000
# 6 0.0000 0.0000 0.0000 5.5615 0.0000 34.2074
#
#
#
# Elastic Compliance Matrix: (Units=1/GPa)
#
#
# Indices 1 2 3 4 5 6 
#
# 1 0.031191 -0.006690 -0.010547 0.000000 -0.023636 0.000000
# 2 -0.006690 0.014215 -0.003333 0.000000 -0.002838 0.000000
# 3 -0.010547 -0.003333 0.014906 0.000000 0.015015 0.000000
# 4 0.000000 0.000000 0.000000 0.038552 0.000000 -0.006268
# 5 -0.023636 -0.002838 0.015015 0.000000 0.064228 0.000000
# 6 0.000000 0.000000 0.000000 -0.006268 0.000000 0.030253
#
#
# Mechanical properties :
#
#
# Convention : Reuss Voigt Hill
#
# Bulk Modulus (GPa) = 52.15934 61.69033 56.92484
# Shear Modulus (GPa) = 20.75770 27.77787 24.26779
#
# Velocity S-wave (km/s) = 3.23743 3.74508 3.50047
# Velocity P-wave (km/s) = 6.34909 7.06042 6.71418
#
# Compressibility (1/GPa) = 0.01917202
#
# Stress axis : x y z
#
# Youngs Moduli (GPa) = 32.06012 70.34865 67.08866
#
# Poissons Ratio (x) = 0.47063 0.70760
# Poissons Ratio (y) = 0.21448 0.22359
# Poissons Ratio (z) = 0.33815 0.23445
#
# Static dielectric constant tensor:
#      x y z
#    x 3.482550 0.000000 -0.031100 
#    y 0.000000 3.586430 0.000000 
#    z -0.031100 0.000000 3.765100 
# 
# 
# High freq. dielectric constant tensor:
#      x y z
#    x 1.765620 0.000000 -0.003020 
#    y 0.000000 1.766750 0.000000 
#    z -0.003020 0.000000 1.786210 
# 
# From -- ./inp_files/172301.got.cif
#   From: 2010.06.25/outbox.cif.g09.slc.cpg/sg12_87_cif.got.tgz:172301.got - 2010.06.28 00:19:55.
