data_PCOD8106258
_publ_section_title
;
Structure prediction by ZEFSAII (Michael W. Deem and Ramdas Pophale) SiO2 
 PCOD8106258
Probable space group: C 2/M
;
_chemical_formula_sum "Si O2"
_cell_formula_units_Z 48
_cell_length_a 15.546700
_cell_length_b 9.152300
_cell_length_c 28.800027
_cell_angle_alpha 90.000000
_cell_angle_beta 143.803791
_cell_angle_gamma 90.000000
_cell_volume 2420.024185
_symmetry_space_group_name_H-M "C 2/M"
_symmetry_group_IT_number 12
_symmetry_cell_setting 'monoclinic'
loop_
_space_group_symop_operation_xyz
x,y,z
-x,y,-z
-x,-y,-z
x,-y,z
1/2+x,1/2+y,z
1/2-x,1/2+y,-z
1/2-x,1/2-y,-z
1/2+x,1/2-y,z
loop_
_atom_site_type_symbol
_atom_site_label
_atom_site_fract_x
_atom_site_fract_y
_atom_site_fract_z
Si Si1 0.645910 0.171667 0.489771
Si Si2 0.085721 0.671600 0.171508
Si Si3 0.929774 0.326154 0.196470
Si Si4 0.295011 0.159796 0.632371
Si Si5 0.386356 0.328761 0.910418
Si Si6 0.130592 0.158647 0.655036
O O1 0.750000 0.250000 0.500000
O O2 0.692027 0.227335 0.560549
O O3 0.484066 0.213918 0.403957
O O4 0.661923 0.000000 0.495294
O O5 0.059332 0.500000 0.153132
O O6 0.051040 0.753487 0.108584
O O7 0.256758 0.705149 0.255818
O O8 0.982170 0.731976 0.168379
O O9 0.930570 0.500000 0.194271
O O10 0.770596 0.265977 0.141025
O O11 0.042183 0.277605 0.286772
O O12 0.226749 0.133737 0.652124
O O13 0.300994 0.000000 0.609353
O O14 0.374462 0.500000 0.895233
O O15 0.500000 0.292349 0.000000
O O16 0.056135 0.000000 0.634125
#
# Coordination Sequence:
#
# PCOD8106258 Si02
#       6
#     8   8   8   8   8   8
#     4  12  25  36  50  77 112 146 184 229 274 325
#     4   9  19  37  60  83 110 147 191 232 275 338
#     4   8  17  36  59  81 111 152 187 223 284 344
#     4   9  18  36  59  78 103 144 187 226 276 336
#     4  10  21  36  56  85 118 149 185 232 283 335
#     4   9  19  37  58  79 106 141 182 230 281 332
#
# _framework density 19.834510999999999
#
# number of rings (size 3 to 8) (size 9 to 14) (size 15 to 20)
#    0.000    2.500    0.000    4.000    2.333    4.333 
#    0.000    3.333    0.000    0.000    0.000    0.000 
#    0.000    0.000    0.000    0.000    0.000    0.000 
#
# Total GULP energy -297435.109252 kJ/mol
# GULP energy per Si atom -12393.129552 kJ/mol
# Density = 1.978937 g / cm^3
# Si number density = 19.834511 Si / 1000 Ang^3
#
#
#
# Elastic Constant Matrix: (Units=GPa)
#
#
# Indices 1 2 3 4 5 6 
#
# 1 48.7818 12.1405 9.6702 0.0000 0.8667 0.0000
# 2 12.1405 79.4203 32.4538 0.0000 -3.7622 0.0000
# 3 9.6702 32.4538 70.6912 0.0000 -2.0653 0.0000
# 4 0.0000 0.0000 0.0000 5.1202 0.0000 3.7374
# 5 0.8667 -3.7622 -2.0653 0.0000 35.3928 0.0000
# 6 0.0000 0.0000 0.0000 3.7374 0.0000 22.0167
#
#
#
# Elastic Compliance Matrix: (Units=1/GPa)
#
#
# Indices 1 2 3 4 5 6 
#
# 1 0.021516 -0.002608 -0.001773 0.000000 -0.000907 0.000000
# 2 -0.002608 0.015869 -0.006889 0.000000 0.001349 0.000000
# 3 -0.001773 -0.006889 0.017561 0.000000 0.000336 0.000000
# 4 0.000000 0.000000 0.000000 0.222929 0.000000 -0.037843
# 5 -0.000907 0.001349 0.000336 0.000000 0.028440 0.000000
# 6 0.000000 0.000000 0.000000 -0.037843 0.000000 0.051844
#
#
# Mechanical properties :
#
#
# Convention : Reuss Voigt Hill
#
# Bulk Modulus (GPa) = 30.85751 34.15803 32.50777
# Shear Modulus (GPa) = 12.77141 22.14787 17.45964
#
# Velocity S-wave (km/s) = 2.54027 3.34523 2.97015
# Velocity P-wave (km/s) = 4.91886 5.67271 5.30918
#
# Compressibility (1/GPa) = 0.03240703
#
# Stress axis : x y z
#
# Youngs Moduli (GPa) = 46.47720 63.01643 56.94405
#
# Poissons Ratio (x) = 0.16432 0.10094
# Poissons Ratio (y) = 0.12120 0.39230
# Poissons Ratio (z) = 0.08239 0.43413
#
# Static dielectric constant tensor:
#      x y z
#    x 3.655720 0.000000 -0.092400 
#    y 0.000000 3.218100 0.000000 
#    z -0.092400 0.000000 3.690790 
# 
# 
# High freq. dielectric constant tensor:
#      x y z
#    x 1.772140 0.000000 -0.000150 
#    y 0.000000 1.745040 0.000000 
#    z -0.000150 0.000000 1.778080 
# 
# From -- ./inp_files/314491.got.cif
#   From: 2010.06.25/outbox.cif.g09.slc.cpg/sg12_158_cif.got.tgz:314491.got - 2010.06.28 00:19:55.
