data_PCOD8106629
_publ_section_title
;
Structure prediction by ZEFSAII (Michael W. Deem and Ramdas Pophale) SiO2 
 PCOD8106629
Probable space group: C 2/M
;
_chemical_formula_sum "Si O2"
_cell_formula_units_Z 48
_cell_length_a 11.783450
_cell_length_b 22.146320
_cell_length_c 14.927811
_cell_angle_alpha 90.000000
_cell_angle_beta 37.604261
_cell_angle_gamma 90.000000
_cell_volume 2377.088066
_symmetry_space_group_name_H-M "C 2/M"
_symmetry_group_IT_number 12
_symmetry_cell_setting 'monoclinic'
loop_
_space_group_symop_operation_xyz
x,y,z
-x,y,-z
-x,-y,-z
x,-y,z
1/2+x,1/2+y,z
1/2-x,1/2+y,-z
1/2-x,1/2-y,-z
1/2+x,1/2-y,z
loop_
_atom_site_type_symbol
_atom_site_label
_atom_site_fract_x
_atom_site_fract_y
_atom_site_fract_z
Si Si1 0.806590 0.637282 0.836467
Si Si2 0.803117 0.371088 0.163879
Si Si3 0.060230 0.861756 0.819296
Si Si4 0.631306 0.734240 0.160673
Si Si5 0.932578 0.931368 0.351228
Si Si6 0.154237 0.428142 0.673798
O O1 0.716367 0.639827 0.795647
O O2 0.921524 0.700239 0.768181
O O3 0.949356 0.582140 0.759478
O O4 0.646084 0.628887 0.011241
O O5 0.745895 0.303553 0.165580
O O6 0.649245 0.416872 0.224443
O O7 0.819552 0.382093 0.259645
O O8 0.000000 0.389547 0.000000
O O9 0.126442 0.914988 0.712587
O O10 0.049592 0.802302 0.761330
O O11 0.750000 0.750000 0.000000
O O12 0.806555 0.902493 0.508386
O O13 0.892728 0.000000 0.390333
O O14 0.175102 0.500000 0.685283
#
# Coordination Sequence:
#
# PCOD8106629 Si02
#       6
#     8   8   8   8   8   8
#     4  10  21  36  62  89 123 154 206 255 298 360
#     4  11  22  36  64  95 118 153 199 252 304 360
#     4   9  20  37  58  89 116 158 206 252 301 351
#     4   9  19  35  60  89 119 155 193 245 305 362
#     4  10  22  41  60  82 123 167 203 247 303 364
#     4  11  24  40  60  88 125 165 203 249 307 363
#
# _framework density 20.192772999999999
#
# number of rings (size 3 to 8) (size 9 to 14) (size 15 to 20)
#    0.000    2.000    0.000    4.000    7.000    6.000 
#    0.000    6.667    7.333    0.000    0.000    0.000 
#    0.000    0.000    0.000    0.000    0.000    0.000 
#
# Total GULP energy -297315.543322 kJ/mol
# GULP energy per Si atom -12388.147638 kJ/mol
# Density = 2.014681 g / cm^3
# Si number density = 20.192773 Si / 1000 Ang^3
#
#
#
# Elastic Constant Matrix: (Units=GPa)
#
#
# Indices 1 2 3 4 5 6 
#
# 1 108.4950 40.8747 45.6139 -0.0061 20.5378 0.0000
# 2 40.8747 69.2144 39.2495 0.0000 6.6181 0.0016
# 3 45.6139 39.2495 88.0455 -0.0101 24.1860 -0.0047
# 4 -0.0061 0.0000 -0.0101 21.0001 0.0091 8.3451
# 5 20.5378 6.6181 24.1860 0.0091 19.8711 -0.0015
# 6 0.0000 0.0016 -0.0047 8.3451 -0.0015 28.0536
#
#
#
# Elastic Compliance Matrix: (Units=1/GPa)
#
#
# Indices 1 2 3 4 5 6 
#
# 1 0.014396 -0.006586 -0.001558 0.000009 -0.010788 -0.000003
# 2 -0.006586 0.022852 -0.009846 -0.000012 0.011181 0.000001
# 3 -0.001558 -0.009846 0.022852 0.000022 -0.022924 -0.000003
# 4 0.000009 -0.000012 0.000022 0.054002 -0.000058 -0.016064
# 5 -0.010788 0.011181 -0.022924 -0.000058 0.085652 0.000017
# 6 -0.000003 0.000001 -0.000003 -0.016064 0.000017 0.040425
#
#
# Mechanical properties :
#
#
# Convention : Reuss Voigt Hill
#
# Bulk Modulus (GPa) = 41.46378 57.47013 49.46695
# Shear Modulus (GPa) = 17.59331 23.11942 20.35637
#
# Velocity S-wave (km/s) = 2.95493 3.38736 3.17851
# Velocity P-wave (km/s) = 5.67633 6.61978 6.16612
#
# Compressibility (1/GPa) = 0.02411743
#
# Stress axis : x y z
#
# Youngs Moduli (GPa) = 69.46528 43.76038 43.76062
#
# Poissons Ratio (x) = 0.28821 0.06820
# Poissons Ratio (y) = 0.45750 0.43088
# Poissons Ratio (z) = 0.10826 0.43087
#
# Static dielectric constant tensor:
#      x y z
#    x 3.891350 -0.000020 0.201750 
#    y -0.000020 3.930770 0.000010 
#    z 0.201750 0.000010 3.605760 
# 
# 
# High freq. dielectric constant tensor:
#      x y z
#    x 1.800120 0.000000 0.013850 
#    y 0.000000 1.780390 0.000000 
#    z 0.013850 0.000000 1.773990 
# 
# From -- ./inp_files/50732.got.cif
#   From: 2010.06.25/outbox.cif.g09.slc.cpg/sg12_26_cif.got.tgz:50732.got - 2010.06.28 00:19:55.
