data_PCOD8106812
_publ_section_title
;
Structure prediction by ZEFSAII (Michael W. Deem and Ramdas Pophale) SiO2 
 PCOD8106812
Probable space group: C 2/M
;
_chemical_formula_sum "Si O2"
_cell_formula_units_Z 64
_cell_length_a 13.473966
_cell_length_b 13.558899
_cell_length_c 18.963348
_cell_angle_alpha 90.000000
_cell_angle_beta 83.123523
_cell_angle_gamma 90.000000
_cell_volume 3439.533431
_symmetry_space_group_name_H-M "C 2/M"
_symmetry_group_IT_number 12
_symmetry_cell_setting 'monoclinic'
loop_
_space_group_symop_operation_xyz
x,y,z
-x,y,-z
-x,-y,-z
x,-y,z
1/2+x,1/2+y,z
1/2-x,1/2+y,-z
1/2-x,1/2-y,-z
1/2+x,1/2-y,z
loop_
_atom_site_type_symbol
_atom_site_label
_atom_site_fract_x
_atom_site_fract_y
_atom_site_fract_z
Si Si1 0.851164 0.113622 0.675834
Si Si2 0.601251 0.883978 0.073722
Si Si3 0.684678 0.787425 0.776528
Si Si4 0.319834 0.114017 0.785431
Si Si5 0.504386 0.215360 0.298818
Si Si6 0.300005 0.386877 0.519540
Si Si7 0.909046 0.707436 0.455334
Si Si8 0.124056 0.383575 0.918043
O O1 0.748849 0.136409 0.725037
O O2 0.942285 0.178853 0.697346
O O3 0.832902 0.138960 0.595874
O O4 0.880171 0.000000 0.684325
O O5 0.658546 0.844463 0.137551
O O6 0.488672 0.843749 0.081441
O O7 0.592324 0.000000 0.081905
O O8 0.658383 0.857715 0.995505
O O9 0.727098 0.677072 0.765215
O O10 0.571596 0.782483 0.759682
O O11 0.691289 0.824944 0.856539
O O12 0.414474 0.131492 0.726349
O O13 0.289598 0.000000 0.786363
O O14 0.445682 0.184571 0.373806
O O15 0.320738 0.500000 0.498088
O O16 0.182810 0.364595 0.517646
O O17 0.369430 0.320244 0.463112
O O18 0.000000 0.686013 0.500000
O O19 0.133130 0.500000 0.902617
#
# Coordination Sequence:
#
# PCOD8106812 Si02
#       8
#     8   8   8   8   8   8   8   8
#     4  10  21  37  56  81 108 138 183 226 266 324
#     4   8  15  30  52  81 111 140 180 225 264 313
#     4  11  21  34  56  84 111 144 183 223 274 321
#     4  10  22  37  55  81 113 146 183 223 267 325
#     4  11  22  37  56  81 107 144 180 223 277 318
#     4  10  22  38  59  83 106 138 180 224 271 326
#     4  11  22  39  59  79 113 139 176 231 270 325
#     4   9  16  29  54  84 111 141 179 225 270 312
#
# _framework density 18.607175000000002
#
# number of rings (size 3 to 8) (size 9 to 14) (size 15 to 20)
#    0.000    2.000    3.750    1.125    0.000    3.000 
#    0.000    1.250    0.000    0.000    0.000    1.750 
#    0.000    0.000    0.000    0.000    0.000    0.000 
#
# Total GULP energy -396761.226437 kJ/mol
# GULP energy per Si atom -12398.788326 kJ/mol
# Density = 1.856482 g / cm^3
# Si number density = 18.607175 Si / 1000 Ang^3
#
#
#
# Elastic Constant Matrix: (Units=GPa)
#
#
# Indices 1 2 3 4 5 6 
#
# 1 50.3600 3.0418 12.5388 0.0000 -6.1567 0.0000
# 2 3.0418 50.2505 22.7023 0.0000 -6.0691 0.0000
# 3 12.5388 22.7023 89.9963 0.0000 -12.2454 0.0000
# 4 0.0000 0.0000 0.0000 26.6494 0.0000 0.5722
# 5 -6.1567 -6.0691 -12.2454 0.0000 19.0052 0.0000
# 6 0.0000 0.0000 0.0000 0.5722 0.0000 14.0259
#
#
#
# Elastic Compliance Matrix: (Units=1/GPa)
#
#
# Indices 1 2 3 4 5 6 
#
# 1 0.021074 0.000424 -0.002297 0.000000 0.005482 0.000000
# 2 0.000424 0.022730 -0.005247 0.000000 0.004016 0.000000
# 3 -0.002297 -0.005247 0.013620 0.000000 0.006356 0.000000
# 4 0.000000 0.000000 0.000000 0.037557 0.000000 -0.001532
# 5 0.005482 0.004016 0.006356 0.000000 0.059771 0.000000
# 6 0.000000 0.000000 0.000000 -0.001532 0.000000 0.071359
#
#
# Mechanical properties :
#
#
# Convention : Reuss Voigt Hill
#
# Bulk Modulus (GPa) = 23.15645 29.68584 26.42115
# Shear Modulus (GPa) = 19.62756 22.09104 20.85930
#
# Velocity S-wave (km/s) = 3.25135 3.44936 3.35182
# Velocity P-wave (km/s) = 5.15432 5.64382 5.40461
#
# Compressibility (1/GPa) = 0.04318451
#
# Stress axis : x y z
#
# Youngs Moduli (GPa) = 47.45279 43.99493 73.42172
#
# Poissons Ratio (x) = -0.01867 0.16866
# Poissons Ratio (y) = -0.02013 0.38521
# Poissons Ratio (z) = 0.10901 0.23082
#
# Static dielectric constant tensor:
#      x y z
#    x 3.330930 0.000000 0.052830 
#    y 0.000000 3.163810 0.000000 
#    z 0.052830 0.000000 3.686120 
# 
# 
# High freq. dielectric constant tensor:
#      x y z
#    x 1.714100 0.000000 -0.003470 
#    y 0.000000 1.702980 0.000000 
#    z -0.003470 0.000000 1.733190 
# 
# From -- ./inp_files/263333.got.cif
#   From: 2010.06.25/outbox.cif.g09.slc.cpg/sg12_132_cif.got.tgz:263333.got - 2010.06.28 00:19:55.
