data_PCOD8106699
_publ_section_title
;
Structure prediction by ZEFSAII (Michael W. Deem and Ramdas Pophale) SiO2 
 PCOD8106699
Probable space group: C 2/M
;
_chemical_formula_sum "Si O2"
_cell_formula_units_Z 56
_cell_length_a 19.392374
_cell_length_b 9.121748
_cell_length_c 20.612224
_cell_angle_alpha 90.000000
_cell_angle_beta 124.244149
_cell_angle_gamma 90.000000
_cell_volume 3014.075386
_symmetry_space_group_name_H-M "C 2/M"
_symmetry_group_IT_number 12
_symmetry_cell_setting 'monoclinic'
loop_
_space_group_symop_operation_xyz
x,y,z
-x,y,-z
-x,-y,-z
x,-y,z
1/2+x,1/2+y,z
1/2-x,1/2+y,-z
1/2-x,1/2-y,-z
1/2+x,1/2-y,z
loop_
_atom_site_type_symbol
_atom_site_label
_atom_site_fract_x
_atom_site_fract_y
_atom_site_fract_z
Si Si1 0.590770 0.167024 0.068776
Si Si2 0.358884 0.669282 0.777652
Si Si3 0.333836 0.832900 0.028356
Si Si4 0.694437 0.675449 0.652792
Si Si5 0.056607 0.175021 0.680145
Si Si6 0.928844 0.840558 0.515241
Si Si7 0.462383 0.330351 0.184426
O O1 0.627800 0.268611 0.143695
O O2 0.583295 0.000000 0.090530
O O3 0.500000 0.225970 0.000000
O O4 0.653378 0.176591 0.041746
O O5 0.335144 0.500000 0.771871
O O6 0.284804 0.753607 0.702811
O O7 0.440032 0.692339 0.776511
O O8 0.412276 0.762088 0.105562
O O9 0.325971 0.000000 0.047268
O O10 0.250000 0.750000 0.000000
O O11 0.701844 0.500000 0.654840
O O12 0.640804 0.724563 0.687678
O O13 0.649326 0.736687 0.562794
O O14 0.059410 0.230471 0.755497
O O15 0.973060 0.241452 0.599926
O O16 0.048728 0.000000 0.673361
O O17 0.000000 0.863366 0.500000
O O18 0.897312 0.000000 0.522127
O O19 0.436451 0.500000 0.163672
#
# Coordination Sequence:
#
# PCOD8106699 Si02
#       7
#     8   8   8   8   8   8   8
#     4  10  21  40  61  77  98 137 183 218 254 306
#     4  11  23  35  51  77 111 143 173 217 267 315
#     4  11  24  40  59  81 107 136 171 219 264 312
#     4   9  17  31  55  81 103 132 177 225 261 307
#     4   8  15  30  54  79 102 133 176 220 261 308
#     4   7  11  24  49  79 102 126 170 223 261 296
#     4  10  21  37  54  76 108 144 177 214 264 315
#
# _framework density 18.579495999999999
#
# number of rings (size 3 to 8) (size 9 to 14) (size 15 to 20)
#    0.000    2.571    1.429    2.571    2.000    2.000 
#    0.000    0.714    0.000    4.714    0.000    0.000 
#    0.000    0.000    0.000    0.000    0.000    0.000 
#
# Total GULP energy -347026.243916 kJ/mol
# GULP energy per Si atom -12393.794426 kJ/mol
# Density = 1.853721 g / cm^3
# Si number density = 18.579496 Si / 1000 Ang^3
#
#
#
# Elastic Constant Matrix: (Units=GPa)
#
#
# Indices 1 2 3 4 5 6 
#
# 1 63.8110 27.4288 14.0048 0.0000 10.9174 0.0000
# 2 27.4288 59.5742 27.6367 0.0000 9.6748 0.0000
# 3 14.0048 27.6367 69.5518 0.0000 16.6951 0.0000
# 4 0.0000 0.0000 0.0000 14.1779 0.0000 5.5906
# 5 10.9174 9.6748 16.6951 0.0000 33.9029 0.0000
# 6 0.0000 0.0000 0.0000 5.5906 0.0000 25.0810
#
#
#
# Elastic Compliance Matrix: (Units=1/GPa)
#
#
# Indices 1 2 3 4 5 6 
#
# 1 0.020054 -0.008762 0.000446 0.000000 -0.004177 0.000000
# 2 -0.008762 0.024539 -0.007919 0.000000 -0.000282 0.000000
# 3 0.000446 -0.007919 0.019196 0.000000 -0.007337 0.000000
# 4 0.000000 0.000000 0.000000 0.077329 0.000000 -0.017237
# 5 -0.004177 -0.000282 -0.007337 0.000000 0.034534 0.000000
# 6 0.000000 0.000000 0.000000 -0.017237 0.000000 0.043713
#
#
# Mechanical properties :
#
#
# Convention : Reuss Voigt Hill
#
# Bulk Modulus (GPa) = 31.92854 36.78640 34.35747
# Shear Modulus (GPa) = 19.06398 22.89014 20.97706
#
# Velocity S-wave (km/s) = 3.20672 3.51381 3.36377
# Velocity P-wave (km/s) = 5.56173 6.02536 5.79818
#
# Compressibility (1/GPa) = 0.03131994
#
# Stress axis : x y z
#
# Youngs Moduli (GPa) = 49.86469 40.75112 52.09528
#
# Poissons Ratio (x) = 0.35706 -0.02324
# Poissons Ratio (y) = 0.43691 0.41254
# Poissons Ratio (z) = -0.02225 0.32270
#
# Static dielectric constant tensor:
#      x y z
#    x 3.331850 0.000000 0.004630 
#    y 0.000000 3.180910 0.000000 
#    z 0.004630 0.000000 3.807430 
# 
# 
# High freq. dielectric constant tensor:
#      x y z
#    x 1.709900 0.000000 0.005710 
#    y 0.000000 1.685580 0.000000 
#    z 0.005710 0.000000 1.736170 
# 
# From -- ./inp_files/275072.got.cif
#   From: 2010.06.25/outbox.cif.g09.slc.cpg/sg12_138_cif.got.tgz:275072.got - 2010.06.28 00:19:55.
