data_PCOD8106954
_publ_section_title
;
Structure prediction by ZEFSAII (Michael W. Deem and Ramdas Pophale) SiO2 
 PCOD8106954
Probable space group: C 2/M
;
_chemical_formula_sum "Si O2"
_cell_formula_units_Z 56
_cell_length_a 17.811847
_cell_length_b 8.657685
_cell_length_c 18.462617
_cell_angle_alpha 90.000000
_cell_angle_beta 104.273241
_cell_angle_gamma 90.000000
_cell_volume 2759.220924
_symmetry_space_group_name_H-M "C 2/M"
_symmetry_group_IT_number 12
_symmetry_cell_setting 'monoclinic'
loop_
_space_group_symop_operation_xyz
x,y,z
-x,y,-z
-x,-y,-z
x,-y,z
1/2+x,1/2+y,z
1/2-x,1/2+y,-z
1/2-x,1/2-y,-z
1/2+x,1/2-y,z
loop_
_atom_site_type_symbol
_atom_site_label
_atom_site_fract_x
_atom_site_fract_y
_atom_site_fract_z
Si Si1 0.231414 0.679686 0.276932
Si Si2 0.387667 0.681224 0.859404
Si Si3 0.091816 0.177739 0.718833
Si Si4 0.950485 0.320757 0.142381
Si Si5 0.518639 0.178802 0.421169
Si Si6 0.308495 0.818370 0.571340
Si Si7 0.667179 0.319126 0.996982
O O1 0.209247 0.500000 0.261691
O O2 0.182103 0.784415 0.211358
O O3 0.320260 0.711727 0.280924
O O4 0.214320 0.737358 0.353961
O O5 0.407333 0.500000 0.863635
O O6 0.461655 0.777351 0.852860
O O7 0.363802 0.740496 0.933268
O O8 0.067129 0.286733 0.778518
O O9 0.039965 0.216417 0.637500
O O10 0.079519 0.000000 0.738174
O O11 0.937126 0.500000 0.123325
O O12 0.893384 0.223232 0.079096
O O13 0.500000 0.205640 0.500000
O O14 0.605027 0.238510 0.425511
O O15 0.508682 0.000000 0.396487
O O16 0.250000 0.750000 0.500000
O O17 0.302521 0.000000 0.563359
O O18 0.677866 0.500000 0.001710
O O19 0.750000 0.250000 0.000000
#
# Coordination Sequence:
#
# PCOD8106954 Si02
#       7
#     8   8   8   8   8   8   8
#     4  10  22  39  59  86 120 157 198 245 296 352
#     4  11  24  41  63  91 121 156 199 246 295 352
#     4  11  23  39  61  88 119 157 203 253 302 356
#     4  12  25  41  63  89 120 159 200 246 303 361
#     4  10  21  37  58  86 120 158 201 249 302 360
#     4  10  21  37  57  83 115 152 194 242 296 353
#     4  11  24  42  64  92 125 159 200 247 295 353
#
# _framework density 20.295583000000001
#
# number of rings (size 3 to 8) (size 9 to 14) (size 15 to 20)
#    0.000    1.286    0.000    5.571    0.000   10.000 
#    0.000    0.000    0.000    0.000    0.000    0.000 
#    0.000    0.000    0.000    0.000    0.000    0.000 
#
# Total GULP energy -347405.058680 kJ/mol
# GULP energy per Si atom -12407.323524 kJ/mol
# Density = 2.024939 g / cm^3
# Si number density = 20.295583 Si / 1000 Ang^3
#
#
#
# Elastic Constant Matrix: (Units=GPa)
#
#
# Indices 1 2 3 4 5 6 
#
# 1 148.8972 31.6786 53.5562 0.0000 -7.3250 0.0000
# 2 31.6786 40.1737 19.4520 0.0000 -6.9649 0.0000
# 3 53.5562 19.4520 119.2691 0.0000 -1.9759 0.0000
# 4 0.0000 0.0000 0.0000 37.0072 0.0000 7.9840
# 5 -7.3250 -6.9649 -1.9759 0.0000 45.8089 0.0000
# 6 0.0000 0.0000 0.0000 7.9840 0.0000 23.1403
#
#
#
# Elastic Compliance Matrix: (Units=1/GPa)
#
#
# Indices 1 2 3 4 5 6 
#
# 1 0.009050 -0.005527 -0.003154 0.000000 0.000471 0.000000
# 2 -0.005527 0.031125 -0.002532 0.000000 0.003739 0.000000
# 3 -0.003154 -0.002532 0.010206 0.000000 -0.000449 0.000000
# 4 0.000000 0.000000 0.000000 0.029195 0.000000 -0.010073
# 5 0.000471 0.003739 -0.000449 0.000000 0.022454 0.000000
# 6 0.000000 0.000000 0.000000 -0.010073 0.000000 0.046690
#
#
# Mechanical properties :
#
#
# Convention : Reuss Voigt Hill
#
# Bulk Modulus (GPa) = 35.77440 57.52373 46.64906
# Shear Modulus (GPa) = 27.70613 34.76818 31.23716
#
# Velocity S-wave (km/s) = 3.69878 4.14344 3.92741
# Velocity P-wave (km/s) = 5.99218 7.16207 6.60309
#
# Compressibility (1/GPa) = 0.02795295
#
# Stress axis : x y z
#
# Youngs Moduli (GPa) = 110.50071 32.12883 97.97747
#
# Poissons Ratio (x) = 0.17758 0.30906
# Poissons Ratio (y) = 0.61075 0.24812
# Poissons Ratio (z) = 0.34857 0.08136
#
# Static dielectric constant tensor:
#      x y z
#    x 3.889740 0.000000 -0.222470 
#    y 0.000000 3.642420 0.000000 
#    z -0.222470 0.000000 4.201320 
# 
# 
# High freq. dielectric constant tensor:
#      x y z
#    x 1.813830 0.000000 -0.002460 
#    y 0.000000 1.791290 0.000000 
#    z -0.002460 0.000000 1.809620 
# 
# From -- ./inp_files/275660.got.cif
#   From: 2010.06.25/outbox.cif.g09.slc.cpg/sg12_138_cif.got.tgz:275660.got - 2010.06.28 00:19:55.
