data_PCOD8106971
_publ_section_title
;
Structure prediction by ZEFSAII (Michael W. Deem and Ramdas Pophale) SiO2 
 PCOD8106971
Probable space group: C 2/M
;
_chemical_formula_sum "Si O2"
_cell_formula_units_Z 56
_cell_length_a 28.177511
_cell_length_b 19.005282
_cell_length_c 10.076695
_cell_angle_alpha 90.000000
_cell_angle_beta 32.053123
_cell_angle_gamma 90.000000
_cell_volume 2863.838364
_symmetry_space_group_name_H-M "C 2/M"
_symmetry_group_IT_number 12
_symmetry_cell_setting 'monoclinic'
loop_
_space_group_symop_operation_xyz
x,y,z
-x,y,-z
-x,-y,-z
x,-y,z
1/2+x,1/2+y,z
1/2-x,1/2+y,-z
1/2-x,1/2-y,-z
1/2+x,1/2-y,z
loop_
_atom_site_type_symbol
_atom_site_label
_atom_site_fract_x
_atom_site_fract_y
_atom_site_fract_z
Si Si1 0.626017 0.333003 0.092956
Si Si2 0.702697 0.083086 0.396796
Si Si3 0.779594 0.578900 0.349300
Si Si4 0.878386 0.329211 0.907027
Si Si5 0.417466 0.167113 0.517977
Si Si6 0.912206 0.079922 0.278802
Si Si7 0.573370 0.329326 0.511064
O O1 0.648921 0.251829 0.011546
O O2 0.620977 0.348625 0.261098
O O3 0.531450 0.347829 0.248072
O O4 0.700871 0.383570 0.857890
O O5 0.677692 0.098579 0.609670
O O6 0.625693 0.117449 0.490227
O O7 0.707463 0.000000 0.357070
O O8 0.807434 0.500000 0.243602
O O9 0.672106 0.584499 0.620061
O O10 0.810266 0.628121 0.157792
O O11 0.870117 0.349072 0.771235
O O12 0.977495 0.347845 0.721747
O O13 0.405951 0.248236 0.504575
O O14 0.884834 0.123674 0.473247
O O15 0.932626 0.000000 0.273823
O O16 0.000000 0.112456 0.000000
#
# Coordination Sequence:
#
# PCOD8106971 Si02
#       7
#     8   8   8   8   8   8   8
#     4   9  20  37  60  86 118 152 191 243 296 347
#     4  11  24  39  56  86 123 156 191 242 300 348
#     4  10  23  39  57  84 118 155 195 239 290 350
#     4   9  20  41  63  84 115 153 197 242 288 347
#     4   9  21  40  61  87 117 152 193 244 295 343
#     4  10  21  37  57  83 120 160 195 235 288 349
#     4   9  19  38  59  86 116 153 197 240 291 346
#
# _framework density 19.554175999999998
#
# number of rings (size 3 to 8) (size 9 to 14) (size 15 to 20)
#    0.000    2.429    0.000    2.571    4.000    5.714 
#    5.143    4.286    0.000    0.000    0.000    0.000 
#    0.000    0.000    0.000    0.000    0.000    0.000 
#
# Total GULP energy -347175.210494 kJ/mol
# GULP energy per Si atom -12399.114660 kJ/mol
# Density = 1.950967 g / cm^3
# Si number density = 19.554176 Si / 1000 Ang^3
#
#
#
# Elastic Constant Matrix: (Units=GPa)
#
#
# Indices 1 2 3 4 5 6 
#
# 1 109.0158 58.7159 34.2114 0.0000 13.4734 0.0000
# 2 58.7159 90.6205 49.9302 0.0000 10.6419 0.0000
# 3 34.2114 49.9302 86.5310 0.0000 6.7675 0.0000
# 4 0.0000 0.0000 0.0000 41.7191 0.0000 -1.3300
# 5 13.4734 10.6419 6.7675 0.0000 23.8823 0.0000
# 6 0.0000 0.0000 0.0000 -1.3300 0.0000 35.7621
#
#
#
# Elastic Compliance Matrix: (Units=1/GPa)
#
#
# Indices 1 2 3 4 5 6 
#
# 1 0.014489 -0.008679 -0.000392 0.000000 -0.004196 0.000000
# 2 -0.008679 0.021903 -0.009027 0.000000 -0.002306 0.000000
# 3 -0.000392 -0.009027 0.016964 0.000000 -0.000564 0.000000
# 4 0.000000 0.000000 0.000000 0.023998 0.000000 0.000892
# 5 -0.004196 -0.002306 -0.000564 0.000000 0.045426 0.000000
# 6 0.000000 0.000000 0.000000 0.000892 0.000000 0.027996
#
#
# Mechanical properties :
#
#
# Convention : Reuss Voigt Hill
#
# Bulk Modulus (GPa) = 58.27482 63.54248 60.90865
# Shear Modulus (GPa) = 25.94807 29.82669 27.88738
#
# Velocity S-wave (km/s) = 3.64673 3.90979 3.78055
# Velocity P-wave (km/s) = 6.89913 7.27655 7.09035
#
# Compressibility (1/GPa) = 0.01716007
#
# Stress axis : x y z
#
# Youngs Moduli (GPa) = 69.01675 45.65641 58.94737
#
# Poissons Ratio (x) = 0.39626 0.02313
# Poissons Ratio (y) = 0.59901 0.53209
# Poissons Ratio (z) = 0.02708 0.41212
#
# Static dielectric constant tensor:
#      x y z
#    x 3.570880 0.000000 0.012230 
#    y 0.000000 3.351030 0.000000 
#    z 0.012230 0.000000 3.414440 
# 
# 
# High freq. dielectric constant tensor:
#      x y z
#    x 1.769440 0.000000 -0.000460 
#    y 0.000000 1.755490 0.000000 
#    z -0.000460 0.000000 1.758030 
# 
# From -- ./inp_files/105943.got.cif
#   From: 2010.06.25/outbox.cif.g09.slc.cpg/sg12_53_cif.got.tgz:105943.got - 2010.06.28 00:19:55.
