data_PCOD8106868
_publ_section_title
;
Structure prediction by ZEFSAII (Michael W. Deem and Ramdas Pophale) SiO2 
 PCOD8106868
Probable space group: C 2/M
;
_chemical_formula_sum "Si O2"
_cell_formula_units_Z 48
_cell_length_a 23.142988
_cell_length_b 8.896977
_cell_length_c 17.111786
_cell_angle_alpha 90.000000
_cell_angle_beta 47.941921
_cell_angle_gamma 90.000000
_cell_volume 2615.976909
_symmetry_space_group_name_H-M "C 2/M"
_symmetry_group_IT_number 12
_symmetry_cell_setting 'monoclinic'
loop_
_space_group_symop_operation_xyz
x,y,z
-x,y,-z
-x,-y,-z
x,-y,z
1/2+x,1/2+y,z
1/2-x,1/2+y,-z
1/2-x,1/2-y,-z
1/2+x,1/2-y,z
loop_
_atom_site_type_symbol
_atom_site_label
_atom_site_fract_x
_atom_site_fract_y
_atom_site_fract_z
Si Si1 0.803466 0.675011 0.886393
Si Si2 0.276520 0.821805 0.180643
Si Si3 0.252572 0.322854 0.618519
Si Si4 0.563419 0.674546 0.007338
Si Si5 0.969613 0.673215 0.805456
Si Si6 0.865396 0.674933 0.406505
O O1 0.782743 0.500000 0.902887
O O2 0.788082 0.748042 0.816281
O O3 0.893492 0.704103 0.823263
O O4 0.750000 0.750000 0.000000
O O5 0.262145 0.760808 0.281119
O O6 0.269647 0.000000 0.181034
O O7 0.361425 0.775059 0.075199
O O8 0.258989 0.500000 0.615283
O O9 0.181105 0.269485 0.628531
O O10 0.333633 0.258912 0.511927
O O11 0.586808 0.500000 0.985491
O O12 0.527477 0.718528 0.122905
O O13 0.500000 0.713121 0.000000
O O14 0.973579 0.500000 0.830100
O O15 0.043887 0.713490 0.684970
O O16 0.850834 0.500000 0.432670
#
# Coordination Sequence:
#
# PCOD8106868 Si02
#       6
#     8   8   8   8   8   8
#     4  11  22  37  57  81 110 147 190 231 278 330
#     4  11  22  37  57  80 110 149 188 227 276 333
#     4   9  19  35  56  82 110 142 181 225 277 332
#     4  11  23  35  52  82 114 142 178 228 281 332
#     4  10  21  37  57  80 108 146 186 225 276 335
#     4   9  18  35  58  82 108 141 182 226 275 333
#
# _framework density 18.348786
#
# number of rings (size 3 to 8) (size 9 to 14) (size 15 to 20)
#    0.000    1.833    1.667    2.500    0.000    5.333 
#    0.000    4.167    0.000    5.000    0.000    0.000 
#    0.000    0.000    0.000    0.000    0.000    0.000 
#
# Total GULP energy -297700.065946 kJ/mol
# GULP energy per Si atom -12404.169414 kJ/mol
# Density = 1.830702 g / cm^3
# Si number density = 18.348786 Si / 1000 Ang^3
#
#
#
# Elastic Constant Matrix: (Units=GPa)
#
#
# Indices 1 2 3 4 5 6 
#
# 1 95.0934 33.3627 35.3596 0.0001 -11.5711 0.0006
# 2 33.3627 52.1250 18.8603 0.0046 -2.4222 -0.0044
# 3 35.3596 18.8603 93.3028 0.0003 -14.1064 -0.0001
# 4 0.0001 0.0046 0.0003 32.9064 -0.0009 2.0015
# 5 -11.5711 -2.4222 -14.1064 -0.0009 30.8211 0.0009
# 6 0.0006 -0.0044 -0.0001 2.0015 0.0009 27.3313
#
#
#
# Elastic Compliance Matrix: (Units=1/GPa)
#
#
# Indices 1 2 3 4 5 6 
#
# 1 0.015148 -0.008250 -0.003558 0.000001 0.003410 -0.000002
# 2 -0.008250 0.025194 -0.002294 -0.000004 -0.002167 0.000005
# 3 -0.003558 -0.002294 0.013215 0.000000 0.004532 0.000000
# 4 0.000001 -0.000004 0.000000 0.030525 0.000001 -0.002235
# 5 0.003410 -0.002167 0.004532 0.000001 0.035630 -0.000002
# 6 -0.000002 0.000005 0.000000 -0.002235 -0.000002 0.036752
#
#
# Mechanical properties :
#
#
# Convention : Reuss Voigt Hill
#
# Bulk Modulus (GPa) = 39.44043 46.18740 42.81391
# Shear Modulus (GPa) = 25.89080 28.40766 27.14923
#
# Velocity S-wave (km/s) = 3.76045 3.93899 3.85076
# Velocity P-wave (km/s) = 6.35580 6.77599 6.56926
#
# Compressibility (1/GPa) = 0.02535469
#
# Stress axis : x y z
#
# Youngs Moduli (GPa) = 66.01426 39.69145 75.67171
#
# Poissons Ratio (x) = 0.32745 0.26921
# Poissons Ratio (y) = 0.54461 0.17359
# Poissons Ratio (z) = 0.23485 0.09105
#
# Static dielectric constant tensor:
#      x y z
#    x 3.586130 0.000000 0.019660 
#    y 0.000000 3.379120 0.000000 
#    z 0.019660 0.000000 3.438950 
# 
# 
# High freq. dielectric constant tensor:
#      x y z
#    x 1.711640 0.000000 -0.001460 
#    y 0.000000 1.714260 0.000000 
#    z -0.001460 0.000000 1.711410 
# 
# From -- ./inp_files/281807.got.cif
#   From: 2010.06.25/outbox.cif.g09.slc.cpg/sg12_141_cif.got.tgz:281807.got - 2010.06.28 00:19:55.
