data_PCOD8106592
_publ_section_title
;
Structure prediction by ZEFSAII (Michael W. Deem and Ramdas Pophale) SiO2 
 PCOD8106592
Probable space group: C 2/M
;
_chemical_formula_sum "Si O2"
_cell_formula_units_Z 48
_cell_length_a 14.444833
_cell_length_b 14.730316
_cell_length_c 30.005506
_cell_angle_alpha 90.000000
_cell_angle_beta 23.176536
_cell_angle_gamma 90.000000
_cell_volume 2512.710937
_symmetry_space_group_name_H-M "C 2/M"
_symmetry_group_IT_number 12
_symmetry_cell_setting 'monoclinic'
loop_
_space_group_symop_operation_xyz
x,y,z
-x,y,-z
-x,-y,-z
x,-y,z
1/2+x,1/2+y,z
1/2-x,1/2+y,-z
1/2-x,1/2-y,-z
1/2+x,1/2-y,z
loop_
_atom_site_type_symbol
_atom_site_label
_atom_site_fract_x
_atom_site_fract_y
_atom_site_fract_z
Si Si1 0.003480 0.752319 0.444972
Si Si2 0.415730 0.743314 0.967964
Si Si3 0.503394 0.698248 0.200782
Si Si4 0.175090 0.102446 0.806087
Si Si5 0.172539 0.607330 0.545406
Si Si6 0.185643 0.402236 0.878138
O O1 0.883805 0.661944 0.475823
O O2 0.885226 0.843849 0.477738
O O3 0.000000 0.746680 0.500000
O O4 0.277378 0.759933 0.310099
O O5 0.587070 0.656367 0.888901
O O6 0.584400 0.830682 0.888083
O O7 0.250000 0.750000 0.000000
O O8 0.244957 0.741648 0.087198
O O9 0.466269 0.635533 0.174416
O O10 0.558851 0.631516 0.217502
O O11 0.452495 0.115194 0.676094
O O12 0.105342 0.000000 0.845823
O O13 0.227525 0.500000 0.510965
O O14 0.221585 0.500000 0.838847
O O15 0.000000 0.411143 0.000000
#
# Coordination Sequence:
#
# PCOD8106592 Si02
#       6
#     8   8   8   8   8   8
#     4  10  21  36  61  84 114 153 193 238 288 333
#     4   9  18  30  50  77 107 138 175 216 268 331
#     4   9  18  33  52  79 112 138 174 225 280 329
#     4   9  17  32  56  77 104 144 182 217 271 334
#     4   9  20  39  59  83 114 151 196 238 280 340
#     4   9  17  30  51  77 103 133 171 216 267 323
#
# _framework density 19.102872999999999
#
# number of rings (size 3 to 8) (size 9 to 14) (size 15 to 20)
#    0.000    2.833    0.000    0.500    2.333    5.333 
#    0.000    0.833    0.000    4.500    0.000    0.000 
#    0.000    0.000    0.000    0.000    0.000    0.000 
#
# Total GULP energy -297320.271368 kJ/mol
# GULP energy per Si atom -12388.344640 kJ/mol
# Density = 1.905939 g / cm^3
# Si number density = 19.102873 Si / 1000 Ang^3
#
#
#
# Elastic Constant Matrix: (Units=GPa)
#
#
# Indices 1 2 3 4 5 6 
#
# 1 81.0389 59.0820 37.8129 0.0067 -10.3784 -0.0045
# 2 59.0820 160.3291 71.1200 0.0246 -5.5940 -0.0056
# 3 37.8129 71.1200 95.3699 -0.1465 -13.7613 -0.0146
# 4 0.0067 0.0246 -0.1465 25.7731 -0.0347 0.2140
# 5 -10.3784 -5.5940 -13.7613 -0.0347 28.1493 -0.0008
# 6 -0.0045 -0.0056 -0.0146 0.2140 -0.0008 27.4460
#
#
#
# Elastic Compliance Matrix: (Units=1/GPa)
#
#
# Indices 1 2 3 4 5 6 
#
# 1 0.017971 -0.005362 -0.002501 -0.000008 0.004338 0.000001
# 2 -0.005362 0.010993 -0.006501 -0.000050 -0.002970 -0.000002
# 3 -0.002501 -0.006501 0.017220 0.000113 0.006205 0.000007
# 4 -0.000008 -0.000050 0.000113 0.038804 0.000090 -0.000303
# 5 0.004338 -0.002970 0.006205 0.000090 0.039567 0.000004
# 6 0.000001 -0.000002 0.000007 -0.000303 0.000004 0.036438
#
#
# Mechanical properties :
#
#
# Convention : Reuss Voigt Hill
#
# Bulk Modulus (GPa) = 57.28128 74.75197 66.01663
# Shear Modulus (GPa) = 25.57039 27.52187 26.54613
#
# Velocity S-wave (km/s) = 3.66261 3.79980 3.73183
# Velocity P-wave (km/s) = 6.92366 7.64640 7.29399
#
# Compressibility (1/GPa) = 0.01745771
#
# Stress axis : x y z
#
# Youngs Moduli (GPa) = 55.64438 90.96767 58.07114
#
# Poissons Ratio (x) = 0.48774 0.14524
# Poissons Ratio (y) = 0.29835 0.37749
# Poissons Ratio (z) = 0.13917 0.59134
#
# Static dielectric constant tensor:
#      x y z
#    x 3.463150 0.000090 -0.058660 
#    y 0.000090 3.943480 0.000040 
#    z -0.058660 0.000040 3.932380 
# 
# 
# High freq. dielectric constant tensor:
#      x y z
#    x 1.730490 0.000000 -0.023780 
#    y 0.000000 1.733410 0.000000 
#    z -0.023780 0.000000 1.736820 
# 
# From -- ./inp_files/310603.got.cif
#   From: 2010.06.25/outbox.cif.g09.slc.cpg/sg12_156_cif.got.tgz:310603.got - 2010.06.28 00:19:55.
