data_PCOD8106048
_publ_section_title
;
Structure prediction by ZEFSAII (Michael W. Deem and Ramdas Pophale) SiO2 
 PCOD8106048
Probable space group: C 2/M
;
_chemical_formula_sum "Si O2"
_cell_formula_units_Z 40
_cell_length_a 17.788011
_cell_length_b 18.354835
_cell_length_c 8.848277
_cell_angle_alpha 90.000000
_cell_angle_beta 133.074691
_cell_angle_gamma 90.000000
_cell_volume 2110.257323
_symmetry_space_group_name_H-M "C 2/M"
_symmetry_group_IT_number 12
_symmetry_cell_setting 'monoclinic'
loop_
_space_group_symop_operation_xyz
x,y,z
-x,y,-z
-x,-y,-z
x,-y,z
1/2+x,1/2+y,z
1/2-x,1/2+y,-z
1/2-x,1/2-y,-z
1/2+x,1/2-y,z
loop_
_atom_site_type_symbol
_atom_site_label
_atom_site_fract_x
_atom_site_fract_y
_atom_site_fract_z
Si Si1 0.382009 0.852758 0.814385
Si Si2 0.313532 0.287217 0.864944
Si Si3 0.390257 0.282542 0.297723
Si Si4 0.764499 0.917385 0.602476
Si Si5 0.691863 0.419111 0.666913
O O1 0.360290 0.766274 0.801282
O O2 0.345209 0.880742 0.598102
O O3 0.312160 0.893528 0.846622
O O4 0.500000 0.873416 0.000000
O O5 0.196613 0.267299 0.746075
O O6 0.316179 0.369399 0.804667
O O7 0.385481 0.281265 0.110185
O O8 0.500000 0.250861 0.500000
O O9 0.381264 0.366057 0.340020
O O10 0.837060 0.917359 0.552072
O O11 0.747898 0.000000 0.638794
O O12 0.679350 0.500000 0.717104
#
# Coordination Sequence:
#
# PCOD8106048 Si02
#       5
#     8   8   8   8   8
#     4   9  18  31  59  84 104 140 179 227 273 319
#     4  10  21  36  54  84 107 141 183 227 265 320
#     4  10  22  35  55  77 109 147 184 220 266 320
#     4   9  19  35  56  78 110 140 174 226 275 318
#     4   8  18  34  51  77 111 140 174 222 265 317
#
# _framework density 18.955034000000001
#
# number of rings (size 3 to 8) (size 9 to 14) (size 15 to 20)
#    1.200    1.600    0.000    0.600    2.800    2.800 
#    0.000    0.000    0.000    3.600    0.000    0.000 
#    0.000    0.000    0.000    0.000    0.000    0.000 
#
# Total GULP energy -247828.071582 kJ/mol
# GULP energy per Si atom -12391.403579 kJ/mol
# Density = 1.891189 g / cm^3
# Si number density = 18.955034 Si / 1000 Ang^3
#
#
#
# Elastic Constant Matrix: (Units=GPa)
#
#
# Indices 1 2 3 4 5 6 
#
# 1 30.4325 16.6469 16.9169 0.0000 2.2592 0.0000
# 2 16.6469 130.8929 31.1514 0.0000 -19.5615 0.0000
# 3 16.9169 31.1514 92.2939 0.0000 4.3063 0.0000
# 4 0.0000 0.0000 0.0000 20.3830 0.0000 -10.2358
# 5 2.2592 -19.5615 4.3063 0.0000 19.8130 0.0000
# 6 0.0000 0.0000 0.0000 -10.2358 0.0000 17.4554
#
#
#
# Elastic Compliance Matrix: (Units=1/GPa)
#
#
# Indices 1 2 3 4 5 6 
#
# 1 0.039029 -0.004990 -0.005084 0.000000 -0.008272 0.000000
# 2 -0.004990 0.010857 -0.003310 0.000000 0.012007 0.000000
# 3 -0.005084 -0.003310 0.013143 0.000000 -0.005545 0.000000
# 4 0.000000 0.000000 0.000000 0.069537 0.000000 0.040776
# 5 -0.008272 0.012007 -0.005545 0.000000 0.064475 0.000000
# 6 0.000000 0.000000 0.000000 0.040776 0.000000 0.081200
#
#
# Mechanical properties :
#
#
# Convention : Reuss Voigt Hill
#
# Bulk Modulus (GPa) = 27.57768 42.56108 35.06938
# Shear Modulus (GPa) = 15.76813 24.12388 19.94600
#
# Velocity S-wave (km/s) = 2.88735 3.57135 3.24741
# Velocity P-wave (km/s) = 5.06915 6.28558 5.70985
#
# Compressibility (1/GPa) = 0.03626121
#
# Stress axis : x y z
#
# Youngs Moduli (GPa) = 25.62188 92.10936 76.08814
#
# Poissons Ratio (x) = 0.45963 0.38680
# Poissons Ratio (y) = 0.12786 0.25185
# Poissons Ratio (z) = 0.13025 0.30488
#
# Static dielectric constant tensor:
#      x y z
#    x 3.142480 0.000000 -0.032280 
#    y 0.000000 3.408020 0.000000 
#    z -0.032280 0.000000 3.206190 
# 
# 
# High freq. dielectric constant tensor:
#      x y z
#    x 1.707960 0.000000 -0.001150 
#    y 0.000000 1.737770 0.000000 
#    z -0.001150 0.000000 1.713570 
# 
# From -- ./inp_files/77760.got.cif
#   From: 2010.06.25/outbox.cif.g09.slc.cpg/sg12_39_cif.got.tgz:77760.got - 2010.06.28 00:19:55.
