data_PCOD8106108
_publ_section_title
;
Structure prediction by ZEFSAII (Michael W. Deem and Ramdas Pophale) SiO2 
 PCOD8106108
Probable space group: C 2/M
;
_chemical_formula_sum "Si O2"
_cell_formula_units_Z 48
_cell_length_a 10.138408
_cell_length_b 9.077884
_cell_length_c 30.605573
_cell_angle_alpha 90.000000
_cell_angle_beta 60.199196
_cell_angle_gamma 90.000000
_cell_volume 2444.295873
_symmetry_space_group_name_H-M "C 2/M"
_symmetry_group_IT_number 12
_symmetry_cell_setting 'monoclinic'
loop_
_space_group_symop_operation_xyz
x,y,z
-x,y,-z
-x,-y,-z
x,-y,z
1/2+x,1/2+y,z
1/2-x,1/2+y,-z
1/2-x,1/2-y,-z
1/2+x,1/2-y,z
loop_
_atom_site_type_symbol
_atom_site_label
_atom_site_fract_x
_atom_site_fract_y
_atom_site_fract_z
Si Si1 0.067681 0.673533 0.857688
Si Si2 0.383184 0.827744 0.804322
Si Si3 0.050136 0.828739 0.365950
Si Si4 0.089897 0.673253 0.028126
Si Si5 0.598495 0.830029 0.689617
Si Si6 0.909962 0.670490 0.470236
O O1 0.092597 0.500000 0.853254
O O2 0.227823 0.745213 0.820727
O O3 0.949162 0.722783 0.840096
O O4 0.003856 0.729657 0.914535
O O5 0.502182 0.782317 0.747508
O O6 0.349747 0.000000 0.809375
O O7 0.226825 0.802110 0.326526
O O8 0.948161 0.770237 0.343241
O O9 0.010988 0.742542 0.416180
O O10 0.012359 0.000000 0.378922
O O11 0.116663 0.500000 0.026201
O O12 0.250000 0.750000 0.000000
O O13 0.000000 0.721275 0.000000
O O14 0.570221 0.000000 0.681679
O O15 0.882115 0.500000 0.463736
O O16 0.750000 0.750000 0.500000
O O17 0.000000 0.691429 0.500000
#
# Coordination Sequence:
#
# PCOD8106108 Si02
#       6
#     8   8   8   8   8   8
#     4  10  21  37  56  81 113 146 185 234 282 333
#     4  10  21  37  57  82 111 146 188 231 279 335
#     4  11  23  39  61  87 116 152 190 231 282 334
#     4  10  21  36  55  81 112 146 186 231 280 336
#     4  10  22  39  58  83 115 148 186 233 281 333
#     4  11  24  41  62  89 119 152 192 235 280 333
#
# _framework density 19.637556
#
# number of rings (size 3 to 8) (size 9 to 14) (size 15 to 20)
#    0.000    1.667    0.000    4.000    0.000    9.000 
#    0.000    0.000    0.000    0.000    0.000    0.000 
#    0.000    0.000    0.000    0.000    0.000    0.000 
#
# Total GULP energy -297748.724506 kJ/mol
# GULP energy per Si atom -12406.196854 kJ/mol
# Density = 1.959286 g / cm^3
# Si number density = 19.637556 Si / 1000 Ang^3
#
#
#
# Elastic Constant Matrix: (Units=GPa)
#
#
# Indices 1 2 3 4 5 6 
#
# 1 87.7669 41.3363 18.1332 0.0000 -6.0192 0.0000
# 2 41.3363 71.4437 37.5568 0.0000 -0.1127 0.0000
# 3 18.1332 37.5568 108.5587 0.0000 -0.8284 0.0000
# 4 0.0000 0.0000 0.0000 18.6944 0.0000 -16.2493
# 5 -6.0192 -0.1127 -0.8284 0.0000 42.7437 0.0000
# 6 0.0000 0.0000 0.0000 -16.2493 0.0000 28.6090
#
#
#
# Elastic Compliance Matrix: (Units=1/GPa)
#
#
# Indices 1 2 3 4 5 6 
#
# 1 0.015907 -0.009549 0.000663 0.000000 0.002228 0.000000
# 2 -0.009549 0.022841 -0.006318 0.000000 -0.001407 0.000000
# 3 0.000663 -0.006318 0.011289 0.000000 0.000296 0.000000
# 4 0.000000 0.000000 0.000000 0.105650 0.000000 0.060007
# 5 0.002228 -0.001407 0.000296 0.000000 0.023711 0.000000
# 6 0.000000 0.000000 0.000000 0.060007 0.000000 0.069036
#
#
# Mechanical properties :
#
#
# Convention : Reuss Voigt Hill
#
# Bulk Modulus (GPa) = 50.94169 51.31353 51.12761
# Shear Modulus (GPa) = 17.52035 29.39231 23.45633
#
# Velocity S-wave (km/s) = 2.99019 3.87297 3.45985
# Velocity P-wave (km/s) = 6.15783 6.79609 6.48482
#
# Compressibility (1/GPa) = 0.01963029
#
# Stress axis : x y z
#
# Youngs Moduli (GPa) = 62.86652 43.78172 88.58426
#
# Poissons Ratio (x) = 0.41806 -0.05877
# Poissons Ratio (y) = 0.60029 0.55965
# Poissons Ratio (z) = -0.04171 0.27660
#
# Static dielectric constant tensor:
#      x y z
#    x 3.555520 0.000000 0.023350 
#    y 0.000000 3.337650 0.000000 
#    z 0.023350 0.000000 3.920590 
# 
# 
# High freq. dielectric constant tensor:
#      x y z
#    x 1.778330 0.000000 0.000210 
#    y 0.000000 1.762870 0.000000 
#    z 0.000210 0.000000 1.784220 
# 
# From -- ./inp_files/357336.got.cif
#   From: 2010.06.25/outbox.cif.g09.slc.cpg/sg12_179_cif.got.tgz:357336.got - 2010.06.28 00:19:55.
