data_PCOD8106200
_publ_section_title
;
Structure prediction by ZEFSAII (Michael W. Deem and Ramdas Pophale) SiO2 
 PCOD8106200
Probable space group: C 2/M
;
_chemical_formula_sum "Si O2"
_cell_formula_units_Z 56
_cell_length_a 8.964688
_cell_length_b 19.238881
_cell_length_c 19.509081
_cell_angle_alpha 90.000000
_cell_angle_beta 62.644323
_cell_angle_gamma 90.000000
_cell_volume 2988.466886
_symmetry_space_group_name_H-M "C 2/M"
_symmetry_group_IT_number 12
_symmetry_cell_setting 'monoclinic'
loop_
_space_group_symop_operation_xyz
x,y,z
-x,y,-z
-x,-y,-z
x,-y,z
1/2+x,1/2+y,z
1/2-x,1/2+y,-z
1/2-x,1/2-y,-z
1/2+x,1/2-y,z
loop_
_atom_site_type_symbol
_atom_site_label
_atom_site_fract_x
_atom_site_fract_y
_atom_site_fract_z
Si Si1 0.126257 0.680056 0.700680
Si Si2 0.675614 0.581796 1.000000
Si Si3 0.972382 0.180056 0.700679
Si Si4 0.756680 0.918519 0.413106
Si Si5 0.582889 0.918519 0.586895
Si Si6 0.445576 0.822297 0.877859
Si Si7 0.798708 0.822297 0.877858
O O1 0.308208 0.692339 0.691792
O O2 0.131177 0.616595 0.647579
O O3 0.078993 0.750000 0.671007
O O4 0.994846 0.663424 0.788812
O O5 0.708812 0.500000 0.999999
O O6 0.826575 0.614516 0.924378
O O7 0.500000 0.597426 0.000000
O O8 0.675330 0.614515 0.075623
O O9 0.927531 0.163423 0.788811
O O10 0.073664 0.116595 0.647577
O O11 0.709735 0.894479 0.500001
O O12 0.606301 0.898106 0.393700
O O13 0.788481 0.000000 0.405160
O O14 0.598798 0.000000 0.594841
O O15 0.606841 0.818921 0.893160
O O16 0.344461 0.749999 0.905540
#
# Coordination Sequence:
#
# PCOD8106200 Si02
#       7
#     8   8   8   8   8   8   8
#     4  10  21  36  56  82 109 140 179 222 268 317
#     4  11  24  39  56  81 111 143 180 219 262 315
#     4  10  21  36  56  82 109 140 179 222 268 317
#     4   9  19  36  56  78 107 144 182 220 267 321
#     4   9  19  36  56  78 107 144 182 220 267 321
#     4  10  21  38  59  81 108 142 179 220 267 319
#     4  10  21  38  59  81 108 142 179 220 267 319
#
# _framework density 18.738706000000001
#
# number of rings (size 3 to 8) (size 9 to 14) (size 15 to 20)
#    0.000    2.143    0.000    3.429    0.000    7.429 
#    0.000    7.143    0.000    0.000    0.000    0.000 
#    0.000    0.000    0.000    0.000    0.000    0.000 
#
# Total GULP energy -347294.462898 kJ/mol
# GULP energy per Si atom -12403.373675 kJ/mol
# Density = 1.869606 g / cm^3
# Si number density = 18.738706 Si / 1000 Ang^3
#
#
#
# Elastic Constant Matrix: (Units=GPa)
#
#
# Indices 1 2 3 4 5 6 
#
# 1 93.5673 54.6529 51.3685 0.0000 -2.2633 0.0000
# 2 54.6529 99.8437 60.5848 0.0000 -0.4955 0.0000
# 3 51.3685 60.5848 101.8502 0.0000 1.5710 0.0000
# 4 0.0000 0.0000 0.0000 32.3522 0.0000 0.5023
# 5 -2.2633 -0.4955 1.5710 0.0000 34.3378 0.0000
# 6 0.0000 0.0000 0.0000 0.5023 0.0000 38.3651
#
#
#
# Elastic Compliance Matrix: (Units=1/GPa)
#
#
# Indices 1 2 3 4 5 6 
#
# 1 0.017131 -0.006441 -0.004828 0.000000 0.001257 0.000000
# 2 -0.006441 0.018109 -0.007526 0.000000 0.000181 0.000000
# 3 -0.004828 -0.007526 0.016749 0.000000 -0.001193 0.000000
# 4 0.000000 0.000000 0.000000 0.030916 0.000000 -0.000405
# 5 0.001257 0.000181 -0.001193 0.000000 0.029262 0.000000
# 6 0.000000 0.000000 0.000000 -0.000405 0.000000 0.026071
#
#
# Mechanical properties :
#
#
# Convention : Reuss Voigt Hill
#
# Bulk Modulus (GPa) = 69.45459 69.83039 69.64249
# Shear Modulus (GPa) = 27.68119 29.58804 28.63462
#
# Velocity S-wave (km/s) = 3.84763 3.97795 3.91333
# Velocity P-wave (km/s) = 7.54217 7.64493 7.59372
#
# Compressibility (1/GPa) = 0.01439790
#
# Stress axis : x y z
#
# Youngs Moduli (GPa) = 58.37453 55.21987 59.70665
#
# Poissons Ratio (x) = 0.35570 0.28825
# Poissons Ratio (y) = 0.37602 0.44937
# Poissons Ratio (z) = 0.28181 0.41560
#
# Static dielectric constant tensor:
#      x y z
#    x 3.519380 0.000000 -0.001020 
#    y 0.000000 3.337820 0.000000 
#    z -0.001020 0.000000 3.531550 
# 
# 
# High freq. dielectric constant tensor:
#      x y z
#    x 1.737710 0.000000 0.000170 
#    y 0.000000 1.724040 0.000000 
#    z 0.000170 0.000000 1.735700 
# 
# From -- ./inp_files/257059.got.cif
#   From: 2010.06.25/outbox.cif.g09.slc.cpg/sg12_129_cif.got.tgz:257059.got - 2010.06.28 00:19:55.
