data_PCOD8106190
_publ_section_title
;
Structure prediction by ZEFSAII (Michael W. Deem and Ramdas Pophale) SiO2 
 PCOD8106190
Probable space group: C 2/M
;
_chemical_formula_sum "Si O2"
_cell_formula_units_Z 64
_cell_length_a 14.926219
_cell_length_b 9.124632
_cell_length_c 24.065183
_cell_angle_alpha 90.000000
_cell_angle_beta 89.137703
_cell_angle_gamma 90.000000
_cell_volume 3277.216633
_symmetry_space_group_name_H-M "C 2/M"
_symmetry_group_IT_number 12
_symmetry_cell_setting 'monoclinic'
loop_
_space_group_symop_operation_xyz
x,y,z
-x,y,-z
-x,-y,-z
x,-y,z
1/2+x,1/2+y,z
1/2-x,1/2+y,-z
1/2-x,1/2-y,-z
1/2+x,1/2-y,z
loop_
_atom_site_type_symbol
_atom_site_label
_atom_site_fract_x
_atom_site_fract_y
_atom_site_fract_z
Si Si1 0.722232 0.672104 0.205394
Si Si2 0.741329 0.671350 0.079853
Si Si3 0.405695 0.670691 0.399019
Si Si4 0.929922 0.336503 0.738141
Si Si5 0.103660 0.672489 0.005049
Si Si6 0.132765 0.326924 0.707557
Si Si7 0.340515 0.167812 0.502527
Si Si8 0.426837 0.837356 0.617734
O O1 0.714903 0.500000 0.210524
O O2 0.751898 0.719798 0.143574
O O3 0.623667 0.734437 0.219092
O O4 0.796805 0.731521 0.247601
O O5 0.721957 0.500000 0.073597
O O6 0.835940 0.712657 0.049590
O O7 0.654021 0.752689 0.056275
O O8 0.381442 0.500000 0.404884
O O9 0.345105 0.745039 0.351296
O O10 0.404838 0.750077 0.459075
O O11 0.507326 0.698859 0.380872
O O12 0.927528 0.500000 0.762936
O O13 0.879202 0.331431 0.678386
O O14 0.033347 0.286276 0.730470
O O15 0.102184 0.500000 0.016125
O O16 0.000000 0.728886 0.000000
O O17 0.141477 0.500000 0.697154
O O18 0.250000 0.250000 0.500000
O O19 0.361931 0.183279 0.567017
O O20 0.334141 0.000000 0.484214
O O21 0.474360 0.000000 0.612479
#
# Coordination Sequence:
#
# PCOD8106190 Si02
#       8
#     8   8   8   8   8   8   8   8
#     4  10  21  36  56  81 112 149 185 225 277 329
#     4   9  19  35  53  81 118 148 181 229 278 325
#     4  11  22  36  56  80 105 136 178 225 273 333
#     4   9  19  36  57  80 107 141 185 230 277 330
#     4   9  18  34  58  84 111 148 191 229 267 319
#     4   9  20  39  58  78 107 148 187 226 281 339
#     4  11  23  37  54  79 108 137 173 221 278 339
#     4   9  20  39  58  75 102 138 173 219 280 336
#
# _framework density 19.528767999999999
#
# number of rings (size 3 to 8) (size 9 to 14) (size 15 to 20)
#    0.000    2.375    0.000    2.625    1.750    6.750 
#    0.000    2.500    0.000    0.000    0.000    0.000 
#    0.000    0.000    0.000    0.000    0.000    0.000 
#
# Total GULP energy -396498.370098 kJ/mol
# GULP energy per Si atom -12390.574066 kJ/mol
# Density = 1.948432 g / cm^3
# Si number density = 19.528768 Si / 1000 Ang^3
#
#
#
# Elastic Constant Matrix: (Units=GPa)
#
#
# Indices 1 2 3 4 5 6 
#
# 1 82.1549 21.5276 23.1144 0.0000 1.7907 0.0000
# 2 21.5276 62.1196 29.6361 0.0000 2.1452 0.0000
# 3 23.1144 29.6361 80.3665 0.0000 -0.2334 0.0000
# 4 0.0000 0.0000 0.0000 29.1881 0.0000 -2.5684
# 5 1.7907 2.1452 -0.2334 0.0000 26.7639 0.0000
# 6 0.0000 0.0000 0.0000 -2.5684 0.0000 30.7515
#
#
#
# Elastic Compliance Matrix: (Units=1/GPa)
#
#
# Indices 1 2 3 4 5 6 
#
# 1 0.013862 -0.003492 -0.002701 0.000000 -0.000671 0.000000
# 2 -0.003492 0.020486 -0.006554 0.000000 -0.001466 0.000000
# 3 -0.002701 -0.006554 0.015639 0.000000 0.000842 0.000000
# 4 0.000000 0.000000 0.000000 0.034514 0.000000 0.002883
# 5 -0.000671 -0.001466 0.000842 0.000000 0.037534 0.000000
# 6 0.000000 0.000000 0.000000 0.002883 0.000000 0.032759
#
#
# Mechanical properties :
#
#
# Convention : Reuss Voigt Hill
#
# Bulk Modulus (GPa) = 40.82954 41.46635 41.14795
# Shear Modulus (GPa) = 26.53191 27.36490 26.94841
#
# Velocity S-wave (km/s) = 3.68993 3.74740 3.71878
# Velocity P-wave (km/s) = 6.25355 6.32484 6.28929
#
# Compressibility (1/GPa) = 0.02449207
#
# Stress axis : x y z
#
# Youngs Moduli (GPa) = 72.14107 48.81469 63.94172
#
# Poissons Ratio (x) = 0.17046 0.17271
# Poissons Ratio (y) = 0.25192 0.41909
# Poissons Ratio (z) = 0.19486 0.31994
#
# Static dielectric constant tensor:
#      x y z
#    x 3.416380 0.000000 0.160190 
#    y 0.000000 3.497770 0.000000 
#    z 0.160190 0.000000 3.228280 
# 
# 
# High freq. dielectric constant tensor:
#      x y z
#    x 1.749590 0.000000 0.000470 
#    y 0.000000 1.750930 0.000000 
#    z 0.000470 0.000000 1.765010 
# 
# From -- ./inp_files/338834.got.cif
#   From: 2010.06.25/outbox.cif.g09.slc.cpg/sg12_170_cif.got.tgz:338834.got - 2010.06.28 00:19:55.
