data_PCOD8106721
_publ_section_title
;
Structure prediction by ZEFSAII (Michael W. Deem and Ramdas Pophale) SiO2 
 PCOD8106721
Probable space group: C 2/M
;
_chemical_formula_sum "Si O2"
_cell_formula_units_Z 56
_cell_length_a 14.425075
_cell_length_b 8.880093
_cell_length_c 24.264833
_cell_angle_alpha 90.000000
_cell_angle_beta 105.347517
_cell_angle_gamma 90.000000
_cell_volume 2997.383371
_symmetry_space_group_name_H-M "C 2/M"
_symmetry_group_IT_number 12
_symmetry_cell_setting 'monoclinic'
loop_
_space_group_symop_operation_xyz
x,y,z
-x,y,-z
-x,-y,-z
x,-y,z
1/2+x,1/2+y,z
1/2-x,1/2+y,-z
1/2-x,1/2-y,-z
1/2+x,1/2-y,z
loop_
_atom_site_type_symbol
_atom_site_label
_atom_site_fract_x
_atom_site_fract_y
_atom_site_fract_z
Si Si1 0.358461 0.673091 0.572803
Si Si2 0.339815 0.327816 0.443838
Si Si3 0.641953 0.178375 0.760448
Si Si4 0.669447 0.678003 0.152368
Si Si5 0.277984 0.823302 0.061316
Si Si6 0.047527 0.677519 0.633444
Si Si7 0.968744 0.677433 0.151487
O O1 0.335724 0.500000 0.584599
O O2 0.382338 0.688406 0.511839
O O3 0.270398 0.778539 0.575107
O O4 0.448126 0.732366 0.621757
O O5 0.348428 0.500000 0.424664
O O6 0.398956 0.217649 0.414291
O O7 0.749503 0.236532 0.791479
O O8 0.611810 0.232763 0.695034
O O9 0.564784 0.236308 0.793494
O O10 0.643610 0.000000 0.764722
O O11 0.659477 0.500000 0.154128
O O12 0.703109 0.728760 0.096730
O O13 0.567921 0.748092 0.150485
O O14 0.386329 0.776018 0.094860
O O15 0.271930 0.000000 0.053129
O O16 0.250000 0.750000 0.000000
O O17 0.027113 0.500000 0.631971
O O18 0.984085 0.500000 0.154385
#
# Coordination Sequence:
#
# PCOD8106721 Si02
#       7
#     8   8   8   8   8   8   8
#     4  10  21  37  55  76 104 137 173 214 260 313
#     4  10  21  37  55  76 104 137 173 214 260 313
#     4   8  18  36  53  72 102 136 170 208 252 302
#     4   9  18  35  55  74 100 136 172 207 250 297
#     4   9  19  34  52  75 106 137 166 205 249 296
#     4  11  21  34  55  80 106 137 171 213 264 313
#     4   9  18  35  55  74 100 136 172 207 250 297
#
# _framework density 18.682963000000001
#
# number of rings (size 3 to 8) (size 9 to 14) (size 15 to 20)
#    0.000    2.571    0.000    3.429    0.000    6.286 
#    0.000   10.714    0.000    0.000    0.000    0.000 
#    0.000    0.000    0.000    0.000    0.000    0.000 
#
# Total GULP energy -347162.023104 kJ/mol
# GULP energy per Si atom -12398.643682 kJ/mol
# Density = 1.864044 g / cm^3
# Si number density = 18.682963 Si / 1000 Ang^3
#
#
#
# Elastic Constant Matrix: (Units=GPa)
#
#
# Indices 1 2 3 4 5 6 
#
# 1 118.6994 27.3502 40.7542 0.0000 12.6254 0.0000
# 2 27.3502 44.3874 36.9471 0.0000 4.3024 0.0000
# 3 40.7542 36.9471 74.8293 0.0000 18.8510 0.0000
# 4 0.0000 0.0000 0.0000 26.2522 0.0000 1.2908
# 5 12.6254 4.3024 18.8510 0.0000 19.4529 0.0000
# 6 0.0000 0.0000 0.0000 1.2908 0.0000 36.2819
#
#
#
# Elastic Compliance Matrix: (Units=1/GPa)
#
#
# Indices 1 2 3 4 5 6 
#
# 1 0.010697 -0.003515 -0.003357 0.000000 -0.002912 0.000000
# 2 -0.003515 0.042070 -0.022608 0.000000 0.014885 0.000000
# 3 -0.003357 -0.022608 0.032474 0.000000 -0.024290 0.000000
# 4 0.000000 0.000000 0.000000 0.038159 0.000000 -0.001358
# 5 -0.002912 0.014885 -0.024290 0.000000 0.073543 0.000000
# 6 0.000000 0.000000 0.000000 -0.001358 0.000000 0.027610
#
#
# Mechanical properties :
#
#
# Convention : Reuss Voigt Hill
#
# Bulk Modulus (GPa) = 38.04850 49.77991 43.91420
# Shear Modulus (GPa) = 17.10740 25.25504 21.18122
#
# Velocity S-wave (km/s) = 3.02928 3.68063 3.37073
# Velocity P-wave (km/s) = 5.71358 6.69067 6.22134
#
# Compressibility (1/GPa) = 0.02628225
#
# Stress axis : x y z
#
# Youngs Moduli (GPa) = 93.48658 23.76993 30.79418
#
# Poissons Ratio (x) = 0.08354 0.10337
# Poissons Ratio (y) = 0.32857 0.69618
# Poissons Ratio (z) = 0.31381 0.53738
#
# Static dielectric constant tensor:
#      x y z
#    x 3.870800 0.000000 -1.922850 
#    y 0.000000 3.239410 0.000000 
#    z -1.922850 0.000000 19.112850 
# 
# 
# High freq. dielectric constant tensor:
#      x y z
#    x 1.732070 0.000000 0.006480 
#    y 0.000000 1.712280 0.000000 
#    z 0.006480 0.000000 1.724910 
# 
# From -- ./inp_files/338173.got.cif
#   From: 2010.06.25/outbox.cif.g09.slc.cpg/sg12_170_cif.got.tgz:338173.got - 2010.06.28 00:19:55.
