data_PCOD8106611
_publ_section_title
;
Structure prediction by ZEFSAII (Michael W. Deem and Ramdas Pophale) SiO2 
 PCOD8106611
Probable space group: C 2/M
;
_chemical_formula_sum "Si O2"
_cell_formula_units_Z 48
_cell_length_a 8.481852
_cell_length_b 30.265645
_cell_length_c 15.661003
_cell_angle_alpha 90.000000
_cell_angle_beta 34.517453
_cell_angle_gamma 90.000000
_cell_volume 2278.141240
_symmetry_space_group_name_H-M "C 2/M"
_symmetry_group_IT_number 12
_symmetry_cell_setting 'monoclinic'
loop_
_space_group_symop_operation_xyz
x,y,z
-x,y,-z
-x,-y,-z
x,-y,z
1/2+x,1/2+y,z
1/2-x,1/2+y,-z
1/2-x,1/2-y,-z
1/2+x,1/2-y,z
loop_
_atom_site_type_symbol
_atom_site_label
_atom_site_fract_x
_atom_site_fract_y
_atom_site_fract_z
Si Si1 0.366876 0.048866 0.919723
Si Si2 0.244828 0.626929 0.731000
Si Si3 0.377254 0.127438 0.410223
Si Si4 0.338929 0.784778 0.652439
Si Si5 0.238045 0.213266 0.171464
Si Si6 0.751728 0.048893 0.226922
O O1 0.599433 0.084822 0.840986
O O2 0.322329 0.048390 0.839064
O O3 0.467133 0.000000 0.904549
O O4 0.076008 0.061101 0.095366
O O5 0.572139 0.618150 0.582592
O O6 0.121639 0.634356 0.691809
O O7 0.169091 0.669833 0.819291
O O8 0.497942 0.170814 0.399010
O O9 0.563497 0.085754 0.356608
O O10 0.500000 0.762955 0.500000
O O11 0.359571 0.751130 0.720818
O O12 0.018943 0.796462 0.776375
O O13 0.500000 0.230234 0.000000
O O14 0.689507 0.000000 0.292817
#
# Coordination Sequence:
#
# PCOD8106611 Si02
#       6
#     8   8   8   8   8   8
#     4   8  15  30  54  85 122 161 199 246 298 350
#     4  10  21  37  59  90 125 158 203 251 301 354
#     4  10  21  36  61  91 120 162 204 249 299 357
#     4  12  25  45  67  88 121 164 203 248 310 370
#     4  12  27  44  64  92 123 157 204 256 306 365
#     4   8  15  30  54  86 121 158 202 248 295 349
#
# _framework density 21.069807999999998
#
# number of rings (size 3 to 8) (size 9 to 14) (size 15 to 20)
#    0.000    2.000    1.667    3.000    4.667    0.667 
#    3.000    3.333    0.000    2.000    0.000    0.000 
#    0.000    0.000    0.000    0.000    0.000    0.000 
#
# Total GULP energy -297634.771036 kJ/mol
# GULP energy per Si atom -12401.448793 kJ/mol
# Density = 2.102185 g / cm^3
# Si number density = 21.069808 Si / 1000 Ang^3
#
#
#
# Elastic Constant Matrix: (Units=GPa)
#
#
# Indices 1 2 3 4 5 6 
#
# 1 55.9728 35.6382 35.0336 0.0000 -18.4124 0.0000
# 2 35.6382 145.2729 58.0838 0.0000 -13.4883 0.0000
# 3 35.0336 58.0838 116.3196 0.0000 -14.6752 0.0000
# 4 0.0000 0.0000 0.0000 39.3270 0.0000 -13.0487
# 5 -18.4124 -13.4883 -14.6752 0.0000 30.7409 0.0000
# 6 0.0000 0.0000 0.0000 -13.0487 0.0000 31.6852
#
#
#
# Elastic Compliance Matrix: (Units=1/GPa)
#
#
# Indices 1 2 3 4 5 6 
#
# 1 0.027289 -0.003599 -0.004851 0.000000 0.012450 0.000000
# 2 -0.003599 0.009174 -0.003470 0.000000 0.000213 0.000000
# 3 -0.004851 -0.003470 0.011952 0.000000 0.001278 0.000000
# 4 0.000000 0.000000 0.000000 0.029452 0.000000 0.012129
# 5 0.012450 0.000213 0.001278 0.000000 0.040690 0.000000
# 6 0.000000 0.000000 0.000000 0.012129 0.000000 0.036556
#
#
# Mechanical properties :
#
#
# Convention : Reuss Voigt Hill
#
# Bulk Modulus (GPa) = 40.69263 63.89735 52.29499
# Shear Modulus (GPa) = 26.71730 32.93794 29.82762
#
# Velocity S-wave (km/s) = 3.56481 3.95812 3.76660
# Velocity P-wave (km/s) = 6.02487 7.16109 6.61741
#
# Compressibility (1/GPa) = 0.02457447
#
# Stress axis : x y z
#
# Youngs Moduli (GPa) = 36.64464 109.00767 83.66787
#
# Poissons Ratio (x) = 0.39231 0.40589
# Poissons Ratio (y) = 0.13188 0.29033
# Poissons Ratio (z) = 0.17777 0.37826
#
# Static dielectric constant tensor:
#      x y z
#    x 3.683750 0.000000 -0.124610 
#    y 0.000000 4.106530 0.000000 
#    z -0.124610 0.000000 3.902030 
# 
# 
# High freq. dielectric constant tensor:
#      x y z
#    x 1.808990 0.000000 -0.013140 
#    y 0.000000 1.831910 0.000000 
#    z -0.013140 0.000000 1.827500 
# 
# From -- ./inp_files/260230.got.cif
#   From: 2010.06.25/outbox.cif.g09.slc.cpg/sg12_131_cif.got.tgz:260230.got - 2010.06.28 00:19:55.
