data_PCOD8106294
_publ_section_title
;
Structure prediction by ZEFSAII (Michael W. Deem and Ramdas Pophale) SiO2 
 PCOD8106294
Probable space group: C 2/M
;
_chemical_formula_sum "Si O2"
_cell_formula_units_Z 56
_cell_length_a 19.108117
_cell_length_b 9.043448
_cell_length_c 26.522415
_cell_angle_alpha 90.000000
_cell_angle_beta 39.029351
_cell_angle_gamma 90.000000
_cell_volume 2886.100165
_symmetry_space_group_name_H-M "C 2/M"
_symmetry_group_IT_number 12
_symmetry_cell_setting 'monoclinic'
loop_
_space_group_symop_operation_xyz
x,y,z
-x,y,-z
-x,-y,-z
x,-y,z
1/2+x,1/2+y,z
1/2-x,1/2+y,-z
1/2-x,1/2-y,-z
1/2+x,1/2-y,z
loop_
_atom_site_type_symbol
_atom_site_label
_atom_site_fract_x
_atom_site_fract_y
_atom_site_fract_z
Si Si1 0.826604 0.167640 0.821178
Si Si2 0.432869 0.170403 0.487383
Si Si3 0.149250 0.326518 0.784599
Si Si4 0.886416 0.171014 0.092794
Si Si5 0.968836 0.673570 0.252228
Si Si6 0.228851 0.674080 0.565311
Si Si7 0.105816 0.834703 0.330829
O O1 0.709587 0.252098 0.886571
O O2 0.879329 0.172941 0.736785
O O3 0.913635 0.243785 0.810283
O O4 0.805876 0.000000 0.850691
O O5 0.500000 0.202668 0.500000
O O6 0.321763 0.267239 0.551949
O O7 0.509485 0.219341 0.397845
O O8 0.400886 0.000000 0.498032
O O9 0.134986 0.500000 0.803612
O O10 0.098392 0.240232 0.860403
O O11 0.088296 0.275660 0.767890
O O12 0.279735 0.288357 0.705703
O O13 0.855170 0.000000 0.116385
O O14 0.000000 0.195316 0.000000
O O15 0.991538 0.500000 0.238890
O O16 0.889791 0.715602 0.343827
O O17 0.241209 0.500000 0.551534
O O18 0.250000 0.750000 0.500000
O O19 0.070258 0.000000 0.367478
#
# Coordination Sequence:
#
# PCOD8106294 Si02
#       7
#     8   8   8   8   8   8   8
#     4  10  21  36  57  83 109 141 179 218 263 319
#     4  11  23  35  49  74 106 140 182 231 278 323
#     4   9  19  36  58  83 110 143 182 224 272 323
#     4  10  21  38  61  88 115 142 175 216 263 319
#     4  10  21  37  56  80 111 145 183 228 275 323
#     4  11  23  38  56  77 106 146 188 232 281 327
#     4   9  18  34  54  75 101 138 185 229 271 323
#
# _framework density 19.403345999999999
#
# number of rings (size 3 to 8) (size 9 to 14) (size 15 to 20)
#    0.000    2.000    0.000    4.286    0.000   10.286 
#    0.000    0.714    0.000    0.000    0.000    0.000 
#    0.000    0.000    0.000    0.000    0.000    0.000 
#
# Total GULP energy -347266.351969 kJ/mol
# GULP energy per Si atom -12402.369713 kJ/mol
# Density = 1.935918 g / cm^3
# Si number density = 19.403346 Si / 1000 Ang^3
#
#
#
# Elastic Constant Matrix: (Units=GPa)
#
#
# Indices 1 2 3 4 5 6 
#
# 1 113.0630 45.4598 26.1030 -0.0001 -16.1370 0.0003
# 2 45.4598 89.2632 41.6301 -0.0001 -9.7512 0.0008
# 3 26.1030 41.6301 67.5781 0.0001 -10.4286 0.0002
# 4 -0.0001 -0.0001 0.0001 28.9576 -0.0001 -2.4987
# 5 -16.1370 -9.7512 -10.4286 -0.0001 23.8816 -0.0001
# 6 0.0003 0.0008 0.0002 -2.4987 -0.0001 36.8296
#
#
#
# Elastic Compliance Matrix: (Units=1/GPa)
#
#
# Indices 1 2 3 4 5 6 
#
# 1 0.011855 -0.005178 -0.000514 0.000000 0.005672 0.000000
# 2 -0.005178 0.018104 -0.009170 0.000000 -0.000111 0.000000
# 3 -0.000514 -0.009170 0.021460 0.000000 0.005280 0.000000
# 4 0.000000 0.000000 0.000000 0.034737 0.000000 0.002357
# 5 0.005672 -0.000111 0.005280 0.000000 0.047966 0.000000
# 6 0.000000 0.000000 0.000000 0.002357 0.000000 0.027312
#
#
# Mechanical properties :
#
#
# Convention : Reuss Voigt Hill
#
# Bulk Modulus (GPa) = 46.09319 55.14335 50.61827
# Shear Modulus (GPa) = 25.20304 28.38118 26.79211
#
# Velocity S-wave (km/s) = 3.60794 3.82867 3.71994
# Velocity P-wave (km/s) = 6.41585 6.93009 6.67792
#
# Compressibility (1/GPa) = 0.02169518
#
# Stress axis : x y z
#
# Youngs Moduli (GPa) = 84.35440 55.23526 46.59864
#
# Poissons Ratio (x) = 0.28601 0.02395
# Poissons Ratio (y) = 0.43679 0.42730
# Poissons Ratio (z) = 0.04336 0.50650
#
# Static dielectric constant tensor:
#      x y z
#    x 3.727200 0.000000 -0.145050 
#    y 0.000000 3.613660 0.000000 
#    z -0.145050 0.000000 3.351580 
# 
# 
# High freq. dielectric constant tensor:
#      x y z
#    x 1.764020 0.000000 -0.009910 
#    y 0.000000 1.760320 0.000000 
#    z -0.009910 0.000000 1.738610 
# 
# From -- ./inp_files/362976.got.cif
#   From: 2010.06.25/outbox.cif.g09.slc.cpg/sg12_182_cif.got.tgz:362976.got - 2010.06.28 00:19:55.
