data_PCOD8106995
_publ_section_title
;
Structure prediction by ZEFSAII (Michael W. Deem and Ramdas Pophale) SiO2 
 PCOD8106995
Probable space group: C 2/M
;
_chemical_formula_sum "Si O2"
_cell_formula_units_Z 64
_cell_length_a 8.843308
_cell_length_b 28.336462
_cell_length_c 15.477077
_cell_angle_alpha 90.000000
_cell_angle_beta 55.153351
_cell_angle_gamma 90.000000
_cell_volume 3182.917857
_symmetry_space_group_name_H-M "C 2/M"
_symmetry_group_IT_number 12
_symmetry_cell_setting 'monoclinic'
loop_
_space_group_symop_operation_xyz
x,y,z
-x,y,-z
-x,-y,-z
x,-y,z
1/2+x,1/2+y,z
1/2-x,1/2+y,-z
1/2-x,1/2-y,-z
1/2+x,1/2-y,z
loop_
_atom_site_type_symbol
_atom_site_label
_atom_site_fract_x
_atom_site_fract_y
_atom_site_fract_z
Si Si1 0.482024 0.646709 0.693614
Si Si2 0.333065 0.556000 0.999999
Si Si3 0.055709 0.199310 0.119537
Si Si4 0.294781 0.199310 0.880461
Si Si5 0.535620 0.947631 0.789763
Si Si6 0.821767 0.698495 0.500001
Si Si7 0.884859 0.052369 0.789760
Si Si8 0.869252 0.353291 0.306387
O O1 0.425977 0.664841 0.805869
O O2 0.671019 0.669505 0.601884
O O3 0.505729 0.589736 0.694889
O O4 0.323488 0.659494 0.676512
O O5 0.336176 0.500000 1.000000
O O6 0.147076 0.573173 0.106125
O O7 0.500000 0.578232 0.000000
O O8 0.359337 0.573173 0.893871
O O9 0.119125 0.250000 0.130878
O O10 0.846053 0.202326 0.153949
O O11 0.190282 0.180401 0.999999
O O12 0.462284 0.164843 0.805865
O O13 0.681487 0.951163 0.818514
O O14 0.604490 0.910265 0.694891
O O15 0.507030 0.000000 0.757175
O O16 0.750000 0.750000 0.500000
O O17 0.874776 0.669502 0.398123
O O18 0.000000 0.704654 0.500000
O O19 0.978625 0.000000 0.757171
#
# Coordination Sequence:
#
# PCOD8106995 Si02
#       8
#     8   8   8   8   8   8   8   8
#     4  11  23  39  62  89 118 154 200 247 296 352
#     4   9  17  29  49  79 116 157 198 243 291 339
#     4  10  21  37  57  84 119 156 193 239 295 359
#     4  10  21  37  57  84 119 156 193 239 295 359
#     4   9  19  36  57  83 118 160 203 244 288 344
#     4  12  26  46  69  90 117 151 194 247 301 360
#     4   9  19  36  57  83 118 160 203 244 288 344
#     4  11  23  39  62  89 118 154 200 247 296 352
#
# _framework density 20.107336
#
# number of rings (size 3 to 8) (size 9 to 14) (size 15 to 20)
#    0.000    1.875    0.000    3.750    1.750    5.000 
#    0.000    0.625    0.000    3.750    0.000    0.000 
#    0.000    0.000    0.000    0.000    0.000    0.000 
#
# Total GULP energy -396748.711024 kJ/mol
# GULP energy per Si atom -12398.397220 kJ/mol
# Density = 2.006157 g / cm^3
# Si number density = 20.107336 Si / 1000 Ang^3
#
#
#
# Elastic Constant Matrix: (Units=GPa)
#
#
# Indices 1 2 3 4 5 6 
#
# 1 121.5982 51.1636 48.5488 0.0000 0.0072 0.0000
# 2 51.1636 106.3230 67.7742 0.0000 0.4382 0.0000
# 3 48.5488 67.7742 97.8208 0.0000 -0.6296 0.0000
# 4 0.0000 0.0000 0.0000 29.5524 0.0000 0.1313
# 5 0.0072 0.4382 -0.6296 0.0000 36.6123 0.0000
# 6 0.0000 0.0000 0.0000 0.1313 0.0000 24.5719
#
#
#
# Elastic Compliance Matrix: (Units=1/GPa)
#
#
# Indices 1 2 3 4 5 6 
#
# 1 0.010831 -0.003197 -0.003160 0.000000 -0.000018 0.000000
# 2 -0.003197 0.017794 -0.010744 0.000000 -0.000397 0.000000
# 3 -0.003160 -0.010744 0.019238 0.000000 0.000460 0.000000
# 4 0.000000 0.000000 0.000000 0.033839 0.000000 -0.000181
# 5 -0.000018 -0.000397 0.000460 0.000000 0.027326 0.000000
# 6 0.000000 0.000000 0.000000 -0.000181 0.000000 0.040698
#
#
# Mechanical properties :
#
#
# Convention : Reuss Voigt Hill
#
# Bulk Modulus (GPa) = 73.20856 73.41279 73.31067
# Shear Modulus (GPa) = 26.52752 28.69768 27.61260
#
# Velocity S-wave (km/s) = 3.63615 3.78196 3.70977
# Velocity P-wave (km/s) = 7.35641 7.46061 7.40869
#
# Compressibility (1/GPa) = 0.01365961
#
# Stress axis : x y z
#
# Youngs Moduli (GPa) = 92.32856 56.19750 51.97965
#
# Poissons Ratio (x) = 0.17968 0.16427
# Poissons Ratio (y) = 0.29521 0.55849
# Poissons Ratio (z) = 0.29178 0.60381
#
# Static dielectric constant tensor:
#      x y z
#    x 3.804570 0.000000 0.009170 
#    y 0.000000 3.387820 0.000000 
#    z 0.009170 0.000000 4.156470 
# 
# 
# High freq. dielectric constant tensor:
#      x y z
#    x 1.793400 0.000000 -0.000770 
#    y 0.000000 1.799050 0.000000 
#    z -0.000770 0.000000 1.764030 
# 
# From -- ./inp_files/201250.got.cif
#   From: 2010.06.25/outbox.cif.g09.slc.cpg/sg12_101_cif.got.tgz:201250.got - 2010.06.28 00:19:55.
