data_PCOD8106745
_publ_section_title
;
Structure prediction by ZEFSAII (Michael W. Deem and Ramdas Pophale) SiO2 
 PCOD8106745
Probable space group: C 2/M
;
_chemical_formula_sum "Si O2"
_cell_formula_units_Z 48
_cell_length_a 15.285380
_cell_length_b 8.834471
_cell_length_c 21.880378
_cell_angle_alpha 90.000000
_cell_angle_beta 59.248040
_cell_angle_gamma 90.000000
_cell_volume 2539.226023
_symmetry_space_group_name_H-M "C 2/M"
_symmetry_group_IT_number 12
_symmetry_cell_setting 'monoclinic'
loop_
_space_group_symop_operation_xyz
x,y,z
-x,y,-z
-x,-y,-z
x,-y,z
1/2+x,1/2+y,z
1/2-x,1/2+y,-z
1/2-x,1/2-y,-z
1/2+x,1/2-y,z
loop_
_atom_site_type_symbol
_atom_site_label
_atom_site_fract_x
_atom_site_fract_y
_atom_site_fract_z
Si Si1 0.829772 0.179690 0.424796
Si Si2 0.874303 0.821290 0.175514
Si Si3 0.472283 0.679019 0.576103
Si Si4 0.894643 0.178242 0.915411
Si Si5 0.256097 0.820855 0.327589
Si Si6 0.289584 0.678071 0.075575
O O1 0.750000 0.250000 0.500000
O O2 0.813028 0.241337 0.363179
O O3 0.943433 0.229797 0.404588
O O4 0.817237 0.000000 0.430310
O O5 0.809801 0.726641 0.246364
O O6 0.838558 0.770279 0.121386
O O7 0.991182 0.771370 0.140164
O O8 0.859591 0.000000 0.191605
O O9 0.500000 0.748954 0.500000
O O10 0.471117 0.500000 0.571238
O O11 0.360573 0.736854 0.635196
O O12 0.822242 0.250102 0.890015
O O13 0.883927 0.000000 0.915839
O O14 0.861985 0.235781 0.994599
O O15 0.262010 0.000000 0.334955
O O16 0.277441 0.500000 0.077268
#
# Coordination Sequence:
#
# PCOD8106745 Si02
#       6
#     8   8   8   8   8   8
#     4  11  21  37  61  85 110 141 180 225 275 329
#     4  10  21  37  55  78 113 150 184 224 277 334
#     4   9  18  36  59  79 105 141 177 216 270 330
#     4   9  18  34  57  82 110 147 187 225 275 332
#     4  11  23  39  57  81 111 146 187 229 276 329
#     4   9  18  34  57  83 110 144 188 233 270 319
#
# _framework density 18.903400000000001
#
# number of rings (size 3 to 8) (size 9 to 14) (size 15 to 20)
#    0.000    2.167    1.667    1.500    0.000    4.667 
#    0.000    9.167    0.000    5.000    0.000    0.000 
#    0.000    0.000    0.000    0.000    0.000    0.000 
#
# Total GULP energy -297623.545538 kJ/mol
# GULP energy per Si atom -12400.981064 kJ/mol
# Density = 1.886037 g / cm^3
# Si number density = 18.903400 Si / 1000 Ang^3
#
#
#
# Elastic Constant Matrix: (Units=GPa)
#
#
# Indices 1 2 3 4 5 6 
#
# 1 150.4243 37.5598 46.7603 0.0000 -17.6669 0.0000
# 2 37.5598 41.5472 25.4461 0.0000 -1.9506 0.0001
# 3 46.7603 25.4461 75.2008 0.0000 -24.0998 0.0000
# 4 0.0000 0.0000 0.0000 32.7756 0.0000 0.4648
# 5 -17.6669 -1.9506 -24.0998 0.0000 23.5966 0.0000
# 6 0.0000 0.0001 0.0000 0.4648 0.0000 30.1503
#
#
#
# Elastic Compliance Matrix: (Units=1/GPa)
#
#
# Indices 1 2 3 4 5 6 
#
# 1 0.009626 -0.007189 -0.002132 0.000000 0.004436 0.000000
# 2 -0.007189 0.038142 -0.013603 0.000000 -0.016122 0.000000
# 3 -0.002132 -0.013603 0.027285 0.000000 0.025146 0.000000
# 4 0.000000 0.000000 0.000000 0.030517 0.000000 -0.000470
# 5 0.004436 -0.016122 0.025146 0.000000 0.070050 0.000000
# 6 0.000000 0.000000 0.000000 -0.000470 0.000000 0.033174
#
#
# Mechanical properties :
#
#
# Convention : Reuss Voigt Hill
#
# Bulk Modulus (GPa) = 34.23913 54.07830 44.15871
# Shear Modulus (GPa) = 18.91232 27.79825 23.35529
#
# Velocity S-wave (km/s) = 3.16646 3.83893 3.51879
# Velocity P-wave (km/s) = 5.61432 6.95123 6.31824
#
# Compressibility (1/GPa) = 0.02920635
#
# Stress axis : x y z
#
# Youngs Moduli (GPa) = 103.88013 26.21761 36.65027
#
# Poissons Ratio (x) = 0.18847 0.07813
# Poissons Ratio (y) = 0.74677 0.49856
# Poissons Ratio (z) = 0.22144 0.35664
#
# Static dielectric constant tensor:
#      x y z
#    x 3.821650 0.000000 -0.003680 
#    y 0.000000 3.271030 0.000000 
#    z -0.003680 0.000000 3.497870 
# 
# 
# High freq. dielectric constant tensor:
#      x y z
#    x 1.751740 0.000000 0.000120 
#    y 0.000000 1.716040 0.000000 
#    z 0.000120 0.000000 1.732550 
# 
# From -- ./inp_files/308259.got.cif
#   From: 2010.06.25/outbox.cif.g09.slc.cpg/sg12_155_cif.got.tgz:308259.got - 2010.06.28 00:19:55.
