data_PCOD8106526
_publ_section_title
;
Structure prediction by ZEFSAII (Michael W. Deem and Ramdas Pophale) SiO2 
 PCOD8106526
Probable space group: C 2/M
;
_chemical_formula_sum "Si O2"
_cell_formula_units_Z 64
_cell_length_a 25.402068
_cell_length_b 14.354322
_cell_length_c 18.481048
_cell_angle_alpha 90.000000
_cell_angle_beta 26.634533
_cell_angle_gamma 90.000000
_cell_volume 3020.960755
_symmetry_space_group_name_H-M "C 2/M"
_symmetry_group_IT_number 12
_symmetry_cell_setting 'monoclinic'
loop_
_space_group_symop_operation_xyz
x,y,z
-x,y,-z
-x,-y,-z
x,-y,z
1/2+x,1/2+y,z
1/2-x,1/2+y,-z
1/2-x,1/2-y,-z
1/2+x,1/2-y,z
loop_
_atom_site_type_symbol
_atom_site_label
_atom_site_fract_x
_atom_site_fract_y
_atom_site_fract_z
Si Si1 0.118361 0.702057 0.401787
Si Si2 0.157433 0.792829 0.959370
Si Si3 0.048989 0.897934 0.519444
Si Si4 0.647006 0.604744 0.120315
Si Si5 0.269904 0.107884 0.611460
Si Si6 0.937231 0.756678 0.146231
Si Si7 0.847210 0.601448 0.980016
Si Si8 0.110561 0.603567 0.681538
O O1 0.227681 0.664446 0.219254
O O2 0.135846 0.808867 0.409575
O O3 0.121811 0.636894 0.468812
O O4 0.000000 0.689932 0.500000
O O5 0.136624 0.825323 0.066729
O O6 0.183469 0.681645 0.925152
O O7 0.035661 0.815229 0.068858
O O8 0.000000 0.910120 0.500000
O O9 0.945516 0.871077 0.702759
O O10 0.104971 0.000000 0.472519
O O11 0.626407 0.500000 0.116984
O O12 0.778190 0.616704 0.990083
O O13 0.157534 0.170909 0.768161
O O14 0.297107 0.128554 0.494151
O O15 0.240245 0.000000 0.660204
O O16 0.877589 0.676301 0.267689
O O17 0.000000 0.708780 0.000000
O O18 0.811641 0.500000 0.056775
O O19 0.985541 0.606257 0.794591
O O20 0.134746 0.500000 0.683164
#
# Coordination Sequence:
#
# PCOD8106526 Si02
#       8
#     8   8   8   8   8   8   8   8
#     4  11  24  39  62  95 130 166 203 252 310 367
#     4  11  23  38  61  92 123 164 211 252 301 362
#     4   9  19  37  60  89 128 167 204 248 304 366
#     4  10  21  36  59  91 126 167 210 249 296 360
#     4  11  25  45  66  88 122 168 211 251 309 367
#     4  11  23  45  67  90 121 160 212 259 308 364
#     4   9  18  33  58  90 125 161 197 244 306 365
#     4   9  21  40  66  96 123 159 201 255 318 375
#
# _framework density 21.185312
#
# number of rings (size 3 to 8) (size 9 to 14) (size 15 to 20)
#    0.000    1.875    1.250    2.250    5.250    3.250 
#    0.000    0.625    0.000    0.000    0.000    0.000 
#    0.000    0.000    0.000    0.000    0.000    0.000 
#
# Total GULP energy -396558.655022 kJ/mol
# GULP energy per Si atom -12392.457969 kJ/mol
# Density = 2.113709 g / cm^3
# Si number density = 21.185312 Si / 1000 Ang^3
#
#
#
# Elastic Constant Matrix: (Units=GPa)
#
#
# Indices 1 2 3 4 5 6 
#
# 1 94.1820 51.3649 28.7742 0.0000 3.2684 0.0000
# 2 51.3649 103.5774 41.2233 0.0000 11.4839 0.0000
# 3 28.7742 41.2233 76.1135 0.0000 15.3738 0.0000
# 4 0.0000 0.0000 0.0000 27.9309 0.0000 -3.1824
# 5 3.2684 11.4839 15.3738 0.0000 36.1743 0.0000
# 6 0.0000 0.0000 0.0000 -3.1824 0.0000 25.8926
#
#
#
# Elastic Compliance Matrix: (Units=1/GPa)
#
#
# Indices 1 2 3 4 5 6 
#
# 1 0.014908 -0.006634 -0.002402 0.000000 0.001780 0.000000
# 2 -0.006634 0.015306 -0.005383 0.000000 -0.001972 0.000000
# 3 -0.002402 -0.005383 0.018129 0.000000 -0.005779 0.000000
# 4 0.000000 0.000000 0.000000 0.036311 0.000000 0.004463
# 5 0.001780 -0.001972 -0.005779 0.000000 0.030565 0.000000
# 6 0.000000 0.000000 0.000000 0.004463 0.000000 0.039170
#
#
# Mechanical properties :
#
#
# Convention : Reuss Voigt Hill
#
# Bulk Modulus (GPa) = 51.27344 57.39973 54.33658
# Shear Modulus (GPa) = 26.35323 28.16692 27.26008
#
# Velocity S-wave (km/s) = 3.53078 3.65025 3.59101
# Velocity P-wave (km/s) = 6.39349 6.70214 6.54964
#
# Compressibility (1/GPa) = 0.01950327
#
# Stress axis : x y z
#
# Youngs Moduli (GPa) = 67.07745 65.33477 55.15927
#
# Poissons Ratio (x) = 0.43345 0.13251
# Poissons Ratio (y) = 0.44501 0.29694
# Poissons Ratio (z) = 0.16114 0.35172
#
# Static dielectric constant tensor:
#      x y z
#    x 3.651480 0.000000 0.014880 
#    y 0.000000 4.058180 0.000000 
#    z 0.014880 0.000000 3.701830 
# 
# 
# High freq. dielectric constant tensor:
#      x y z
#    x 1.818220 0.000000 0.007310 
#    y 0.000000 1.831020 0.000000 
#    z 0.007310 0.000000 1.824790 
# 
# From -- ./inp_files/290114.got.cif
#   From: 2010.06.25/outbox.cif.g09.slc.cpg/sg12_146_cif.got.tgz:290114.got - 2010.06.28 00:19:55.
