data_PCOD8106671
_publ_section_title
;
Structure prediction by ZEFSAII (Michael W. Deem and Ramdas Pophale) SiO2 
 PCOD8106671
Probable space group: C 2/M
;
_chemical_formula_sum "Si O2"
_cell_formula_units_Z 64
_cell_length_a 32.154417
_cell_length_b 9.092970
_cell_length_c 15.965610
_cell_angle_alpha 90.000000
_cell_angle_beta 133.136993
_cell_angle_gamma 90.000000
_cell_volume 3406.345851
_symmetry_space_group_name_H-M "C 2/M"
_symmetry_group_IT_number 12
_symmetry_cell_setting 'monoclinic'
loop_
_space_group_symop_operation_xyz
x,y,z
-x,y,-z
-x,-y,-z
x,-y,z
1/2+x,1/2+y,z
1/2-x,1/2+y,-z
1/2-x,1/2-y,-z
1/2+x,1/2-y,z
loop_
_atom_site_type_symbol
_atom_site_label
_atom_site_fract_x
_atom_site_fract_y
_atom_site_fract_z
Si Si1 0.375157 0.169930 0.756178
Si Si2 0.324414 0.173082 0.866185
Si Si3 0.414316 0.830487 0.432644
Si Si4 0.082680 0.172826 0.900858
Si Si5 0.802188 0.827216 0.529110
Si Si6 0.303879 0.326945 0.341449
Si Si7 0.982055 0.158285 0.884157
Si Si8 0.968834 0.329636 0.328542
O O1 0.348199 0.219731 0.807468
O O2 0.356241 0.276418 0.655427
O O3 0.441791 0.200784 0.841288
O O4 0.360835 0.000000 0.718651
O O5 0.257830 0.218861 0.780943
O O6 0.332654 0.000000 0.889795
O O7 0.358200 0.254678 0.986790
O O8 0.355754 0.743008 0.362276
O O9 0.434665 0.804199 0.366619
O O10 0.465023 0.779921 0.566165
O O11 0.401010 0.000000 0.431007
O O12 0.062527 0.232930 0.783851
O O13 0.034484 0.214808 0.901127
O O14 0.093149 0.000000 0.907786
O O15 0.750000 0.750000 0.500000
O O16 0.807921 0.771610 0.442259
O O17 0.792626 0.000000 0.518993
O O18 0.311364 0.500000 0.346623
O O19 0.957987 0.000000 0.813655
O O20 0.000000 0.112925 0.000000
O O21 0.967089 0.500000 0.299408
#
# Coordination Sequence:
#
# PCOD8106671 Si02
#       8
#     8   8   8   8   8   8   8   8
#     4  11  22  36  54  78 110 153 200 238 282 338
#     4  10  21  39  57  78 115 156 194 236 284 334
#     4   9  20  40  65  90 114 145 186 230 285 348
#     4  11  23  37  58  87 115 150 196 237 284 342
#     4  11  22  37  55  80 116 154 194 238 283 333
#     4  10  22  39  58  84 117 151 190 238 288 335
#     4  10  21  37  53  77 115 152 189 237 286 330
#     4   9  20  41  64  87 118 148 179 232 291 341
#
# _framework density 18.788461999999999
#
# number of rings (size 3 to 8) (size 9 to 14) (size 15 to 20)
#    0.000    1.875    2.500    1.875    1.750    4.250 
#    0.000    1.875    0.000    0.000    0.000    0.000 
#    0.000    0.000    0.000    0.000    0.000    0.000 
#
# Total GULP energy -396619.607272 kJ/mol
# GULP energy per Si atom -12394.362727 kJ/mol
# Density = 1.874570 g / cm^3
# Si number density = 18.788462 Si / 1000 Ang^3
#
#
#
# Elastic Constant Matrix: (Units=GPa)
#
#
# Indices 1 2 3 4 5 6 
#
# 1 96.1093 39.8656 52.0955 0.0000 20.5691 0.0000
# 2 39.8656 63.3564 50.9976 0.0000 6.9240 0.0000
# 3 52.0955 50.9976 133.2763 0.0000 8.5844 0.0000
# 4 0.0000 0.0000 0.0000 35.5300 0.0000 2.4472
# 5 20.5691 6.9240 8.5844 0.0000 29.0541 0.0000
# 6 0.0000 0.0000 0.0000 2.4472 0.0000 38.0945
#
#
#
# Elastic Compliance Matrix: (Units=1/GPa)
#
#
# Indices 1 2 3 4 5 6 
#
# 1 0.017212 -0.007036 -0.003424 0.000000 -0.009497 0.000000
# 2 -0.007036 0.025930 -0.007232 0.000000 0.000939 0.000000
# 3 -0.003424 -0.007232 0.011562 0.000000 0.000731 0.000000
# 4 0.000000 0.000000 0.000000 0.028270 0.000000 -0.001816
# 5 -0.009497 0.000939 0.000731 0.000000 0.040702 0.000000
# 6 0.000000 0.000000 0.000000 -0.001816 0.000000 0.026367
#
#
# Mechanical properties :
#
#
# Convention : Reuss Voigt Hill
#
# Bulk Modulus (GPa) = 51.76218 64.29548 58.02883
# Shear Modulus (GPa) = 26.05977 30.52129 28.29053
#
# Velocity S-wave (km/s) = 3.72830 4.03484 3.88460
# Velocity P-wave (km/s) = 6.79289 7.48342 7.14650
#
# Compressibility (1/GPa) = 0.01931913
#
# Stress axis : x y z
#
# Youngs Moduli (GPa) = 58.09994 38.56549 86.49290
#
# Poissons Ratio (x) = 0.27136 0.29612
# Poissons Ratio (y) = 0.40882 0.62552
# Poissons Ratio (z) = 0.19891 0.27891
#
# Static dielectric constant tensor:
#      x y z
#    x 3.257650 0.000000 0.008910 
#    y 0.000000 3.327920 0.000000 
#    z 0.008910 0.000000 2.869780 
# 
# 
# High freq. dielectric constant tensor:
#      x y z
#    x 1.722220 0.000000 0.008020 
#    y 0.000000 1.730250 0.000000 
#    z 0.008020 0.000000 1.733080 
# 
# From -- ./inp_files/249954.got.cif
#   From: 2010.06.25/outbox.cif.g09.slc.cpg/sg12_125_cif.got.tgz:249954.got - 2010.06.28 00:19:55.
