data_PCOD8106068
_publ_section_title
;
Structure prediction by ZEFSAII (Michael W. Deem and Ramdas Pophale) SiO2 
 PCOD8106068
Probable space group: C 2/M
;
_chemical_formula_sum "Si O2"
_cell_formula_units_Z 64
_cell_length_a 20.366225
_cell_length_b 9.325447
_cell_length_c 30.165573
_cell_angle_alpha 90.000000
_cell_angle_beta 143.807806
_cell_angle_gamma 90.000000
_cell_volume 3383.050885
_symmetry_space_group_name_H-M "C 2/M"
_symmetry_group_IT_number 12
_symmetry_cell_setting 'monoclinic'
loop_
_space_group_symop_operation_xyz
x,y,z
-x,y,-z
-x,-y,-z
x,-y,z
1/2+x,1/2+y,z
1/2-x,1/2+y,-z
1/2-x,1/2-y,-z
1/2+x,1/2-y,z
loop_
_atom_site_type_symbol
_atom_site_label
_atom_site_fract_x
_atom_site_fract_y
_atom_site_fract_z
Si Si1 0.633546 0.833318 0.737603
Si Si2 0.506630 0.163312 0.166478
Si Si3 0.083329 0.834090 0.394272
Si Si4 0.182205 0.334004 0.999637
Si Si5 0.126680 0.336515 0.573645
Si Si6 0.221171 0.161039 0.263061
Si Si7 0.177257 0.332096 0.863051
Si Si8 0.242282 0.165486 0.562829
O O1 0.537499 0.733061 0.666186
O O2 0.742836 0.799232 0.767567
O O3 0.656190 0.793435 0.800728
O O4 0.599399 0.000000 0.713897
O O5 0.622281 0.244667 0.228306
O O6 0.427615 0.217979 0.163824
O O7 0.536653 0.000000 0.192627
O O8 0.446463 0.179673 0.085571
O O9 0.145236 0.813096 0.474385
O O10 0.146837 0.748982 0.390430
O O11 0.075360 0.000000 0.376399
O O12 0.218392 0.500000 0.021226
O O13 0.211731 0.256608 0.062219
O O14 0.250000 0.250000 0.000000
O O15 0.138058 0.500000 0.562290
O O16 0.168027 0.322926 0.646644
O O17 0.203192 0.230730 0.587477
O O18 0.000000 0.284629 0.500000
O O19 0.175533 0.000000 0.239831
O O20 0.200928 0.500000 0.883235
O O21 0.274026 0.000000 0.586611
#
# Coordination Sequence:
#
# PCOD8106068 Si02
#       8
#     8   8   8   8   8   8   8   8
#     4  10  21  38  57  79 112 149 186 226 278 333
#     4   9  19  35  55  81 112 143 179 227 277 327
#     4  10  21  36  55  80 108 139 181 229 279 333
#     4   9  17  32  55  83 112 144 182 225 275 328
#     4  10  21  37  56  78 108 145 188 235 282 331
#     4  10  22  37  55  81 111 148 188 229 279 333
#     4   9  19  35  57  84 111 144 185 226 274 331
#     4  10  21  36  55  79 106 140 183 230 281 334
#
# _framework density 18.917836000000001
#
# number of rings (size 3 to 8) (size 9 to 14) (size 15 to 20)
#    0.000    2.375    0.000    2.625    1.750    6.750 
#    0.000    0.625    0.000    3.750    0.000    0.000 
#    0.000    0.000    0.000    0.000    0.000    0.000 
#
# Total GULP energy -396758.588740 kJ/mol
# GULP energy per Si atom -12398.705898 kJ/mol
# Density = 1.887478 g / cm^3
# Si number density = 18.917836 Si / 1000 Ang^3
#
#
#
# Elastic Constant Matrix: (Units=GPa)
#
#
# Indices 1 2 3 4 5 6 
#
# 1 98.3991 34.4613 32.8291 0.0000 -5.8687 -0.0001
# 2 34.4613 80.1326 32.1102 0.0000 -1.3951 0.0000
# 3 32.8291 32.1102 72.7130 0.0000 1.5167 0.0000
# 4 0.0000 0.0000 0.0000 36.0645 0.0000 2.4609
# 5 -5.8687 -1.3951 1.5167 0.0000 20.1065 0.0000
# 6 -0.0001 0.0000 0.0000 2.4609 0.0000 26.4727
#
#
#
# Elastic Compliance Matrix: (Units=1/GPa)
#
#
# Indices 1 2 3 4 5 6 
#
# 1 0.013197 -0.003872 -0.004330 0.000000 0.003910 0.000000
# 2 -0.003872 0.016348 -0.005480 0.000000 0.000417 0.000000
# 3 -0.004330 -0.005480 0.018190 0.000000 -0.003016 0.000000
# 4 0.000000 0.000000 0.000000 0.027905 0.000000 -0.002594
# 5 0.003910 0.000417 -0.003016 0.000000 0.051133 0.000000
# 6 0.000000 0.000000 0.000000 -0.002594 0.000000 0.038016
#
#
# Mechanical properties :
#
#
# Convention : Reuss Voigt Hill
#
# Bulk Modulus (GPa) = 49.08835 50.00508 49.54672
# Shear Modulus (GPa) = 25.13302 26.65168 25.89235
#
# Velocity S-wave (km/s) = 3.64886 3.75749 3.70357
# Velocity P-wave (km/s) = 6.61489 6.73165 6.67353
#
# Compressibility (1/GPa) = 0.02037143
#
# Stress axis : x y z
#
# Youngs Moduli (GPa) = 75.77763 61.17114 54.97468
#
# Poissons Ratio (x) = 0.23687 0.23802
# Poissons Ratio (y) = 0.29342 0.30124
# Poissons Ratio (z) = 0.32809 0.33519
#
# Static dielectric constant tensor:
#      x y z
#    x 3.344200 0.000000 -0.183790 
#    y 0.000000 3.549780 0.000000 
#    z -0.183790 0.000000 3.691100 
# 
# 
# High freq. dielectric constant tensor:
#      x y z
#    x 1.719110 0.000000 -0.008520 
#    y 0.000000 1.737860 0.000000 
#    z -0.008520 0.000000 1.733790 
# 
# From -- ./inp_files/378501.got.cif
#   From: 2010.06.25/outbox.cif.g09.slc.cpg/sg12_190_cif.got.tgz:378501.got - 2010.06.28 00:19:55.
