data_PCOD8106081
_publ_section_title
;
Structure prediction by ZEFSAII (Michael W. Deem and Ramdas Pophale) SiO2 
 PCOD8106081
Probable space group: C 2/M
;
_chemical_formula_sum "Si O2"
_cell_formula_units_Z 64
_cell_length_a 14.582913
_cell_length_b 9.209828
_cell_length_c 26.881177
_cell_angle_alpha 90.000000
_cell_angle_beta 107.382747
_cell_angle_gamma 90.000000
_cell_volume 3445.425096
_symmetry_space_group_name_H-M "C 2/M"
_symmetry_group_IT_number 12
_symmetry_cell_setting 'monoclinic'
loop_
_space_group_symop_operation_xyz
x,y,z
-x,y,-z
-x,-y,-z
x,-y,z
1/2+x,1/2+y,z
1/2-x,1/2+y,-z
1/2-x,1/2-y,-z
1/2+x,1/2-y,z
loop_
_atom_site_type_symbol
_atom_site_label
_atom_site_fract_x
_atom_site_fract_y
_atom_site_fract_z
Si Si1 0.656060 0.833859 0.818769
Si Si2 0.658448 0.833282 0.004048
Si Si3 0.357777 0.331598 0.898822
Si Si4 0.583247 0.669732 0.371411
Si Si5 0.385685 0.329912 0.287194
Si Si6 0.021304 0.337203 0.889306
Si Si7 0.786091 0.670037 0.357810
Si Si8 0.016177 0.330587 0.558587
O O1 0.759630 0.792583 0.856082
O O2 0.627990 0.726969 0.770324
O O3 0.586300 0.804791 0.852902
O O4 0.651800 0.000000 0.799271
O O5 0.622783 0.762493 0.049073
O O6 0.685547 0.000000 0.018124
O O7 0.750000 0.750000 0.000000
O O8 0.577350 0.818485 0.949739
O O9 0.363941 0.500000 0.914008
O O10 0.438888 0.283814 0.872961
O O11 0.589782 0.500000 0.384097
O O12 0.495556 0.706239 0.320010
O O13 0.684641 0.724366 0.364606
O O14 0.561639 0.749700 0.419710
O O15 0.365282 0.500000 0.286030
O O16 0.307513 0.253619 0.310108
O O17 0.978606 0.500000 0.879381
O O18 0.780092 0.500000 0.344476
O O19 0.873368 0.705316 0.409629
O O20 0.994565 0.500000 0.560656
O O21 0.000000 0.275964 0.500000
#
# Coordination Sequence:
#
# PCOD8106081 Si02
#       8
#     8   8   8   8   8   8   8   8
#     4  10  22  41  58  76 110 145 175 217 275 330
#     4  11  21  37  60  83 112 146 180 219 267 321
#     4  11  23  39  58  84 111 141 181 221 266 326
#     4   9  19  35  54  77 106 141 182 224 267 318
#     4  10  21  36  55  80 105 132 179 231 269 315
#     4  10  22  40  58  81 112 145 178 218 270 325
#     4   9  18  35  56  76 106 147 181 216 272 323
#     4   9  18  32  51  79 113 146 182 221 262 315
#
# _framework density 18.575357
#
# number of rings (size 3 to 8) (size 9 to 14) (size 15 to 20)
#    0.000    2.125    1.250    1.500    0.000    6.750 
#    0.000    3.750    0.000    0.000    0.000    0.000 
#    0.000    0.000    0.000    0.000    0.000    0.000 
#
# Total GULP energy -396836.477792 kJ/mol
# GULP energy per Si atom -12401.139931 kJ/mol
# Density = 1.853308 g / cm^3
# Si number density = 18.575357 Si / 1000 Ang^3
#
#
#
# Elastic Constant Matrix: (Units=GPa)
#
#
# Indices 1 2 3 4 5 6 
#
# 1 140.4842 50.3788 54.2999 0.0000 -4.5982 0.0000
# 2 50.3788 72.9684 56.1944 0.0000 0.4517 0.0000
# 3 54.2999 56.1944 123.0070 0.0000 -15.7244 0.0000
# 4 0.0000 0.0000 0.0000 32.3474 0.0000 -5.4984
# 5 -4.5982 0.4517 -15.7244 0.0000 19.8285 0.0000
# 6 0.0000 0.0000 0.0000 -5.4984 0.0000 35.0632
#
#
#
# Elastic Compliance Matrix: (Units=1/GPa)
#
#
# Indices 1 2 3 4 5 6 
#
# 1 0.009757 -0.005445 -0.001685 0.000000 0.001050 0.000000
# 2 -0.005445 0.025753 -0.010681 0.000000 -0.010319 0.000000
# 3 -0.001685 -0.010681 0.015283 0.000000 0.011973 0.000000
# 4 0.000000 0.000000 0.000000 0.031761 0.000000 0.004981
# 5 0.001050 -0.010319 0.011973 0.000000 0.060405 0.000000
# 6 0.000000 0.000000 0.000000 0.004981 0.000000 0.029301
#
#
# Mechanical properties :
#
#
# Convention : Reuss Voigt Hill
#
# Bulk Modulus (GPa) = 65.91254 73.13399 69.52326
# Shear Modulus (GPa) = 23.48095 29.15359 26.31727
#
# Velocity S-wave (km/s) = 3.55926 3.96596 3.76810
# Velocity P-wave (km/s) = 7.24238 7.77359 7.51268
#
# Compressibility (1/GPa) = 0.01517162
#
# Stress axis : x y z
#
# Youngs Moduli (GPa) = 102.49537 38.83055 65.43062
#
# Poissons Ratio (x) = 0.21142 0.11027
# Poissons Ratio (y) = 0.55806 0.69884
# Poissons Ratio (z) = 0.17274 0.41473
#
# Static dielectric constant tensor:
#      x y z
#    x 4.894290 0.000000 -1.099080 
#    y 0.000000 3.434200 0.000000 
#    z -1.099080 0.000000 4.224030 
# 
# 
# High freq. dielectric constant tensor:
#      x y z
#    x 1.730610 0.000000 -0.003850 
#    y 0.000000 1.722440 0.000000 
#    z -0.003850 0.000000 1.716700 
# 
# From -- ./inp_files/359937.got.cif
#   From: 2010.06.25/outbox.cif.g09.slc.cpg/sg12_180_cif.got.tgz:359937.got - 2010.06.28 00:19:55.
