data_PCOD8106751
_publ_section_title
;
Structure prediction by ZEFSAII (Michael W. Deem and Ramdas Pophale) SiO2 
 PCOD8106751
Probable space group: C 2/M
;
_chemical_formula_sum "Si O2"
_cell_formula_units_Z 64
_cell_length_a 20.351172
_cell_length_b 9.143984
_cell_length_c 24.257457
_cell_angle_alpha 90.000000
_cell_angle_beta 52.558196
_cell_angle_gamma 90.000000
_cell_volume 3584.057207
_symmetry_space_group_name_H-M "C 2/M"
_symmetry_group_IT_number 12
_symmetry_cell_setting 'monoclinic'
loop_
_space_group_symop_operation_xyz
x,y,z
-x,y,-z
-x,-y,-z
x,-y,z
1/2+x,1/2+y,z
1/2-x,1/2+y,-z
1/2-x,1/2-y,-z
1/2+x,1/2-y,z
loop_
_atom_site_type_symbol
_atom_site_label
_atom_site_fract_x
_atom_site_fract_y
_atom_site_fract_z
Si Si1 0.175592 0.331882 0.371372
Si Si2 0.574606 0.665287 0.504798
Si Si3 0.108143 0.330756 0.209101
Si Si4 0.495717 0.171313 0.845753
Si Si5 0.722897 0.826761 0.856791
Si Si6 0.930583 0.327614 0.995126
Si Si7 0.163930 0.171697 0.776407
Si Si8 0.467797 0.831210 0.638167
O O1 0.162048 0.500000 0.393510
O O2 0.155107 0.240684 0.436932
O O3 0.268895 0.298813 0.305520
O O4 0.115768 0.286458 0.351434
O O5 0.500000 0.679556 0.500000
O O6 0.598046 0.500000 0.506589
O O7 0.546923 0.741702 0.575769
O O8 0.136008 0.500000 0.198444
O O9 0.187937 0.229478 0.171102
O O10 0.046172 0.293318 0.290760
O O11 0.061648 0.293906 0.176711
O O12 0.578871 0.263827 0.797000
O O13 0.518393 0.000000 0.837825
O O14 0.445938 0.226720 0.925057
O O15 0.660330 0.781780 0.937901
O O16 0.691133 0.753028 0.817563
O O17 0.725451 0.000000 0.846054
O O18 0.939993 0.500000 0.992137
O O19 0.000000 0.257610 0.000000
O O20 0.155927 0.000000 0.793216
O O21 0.488676 0.000000 0.618339
#
# Coordination Sequence:
#
# PCOD8106751 Si02
#       8
#     8   8   8   8   8   8   8   8
#     4   9  17  30  49  72 102 138 171 212 266 318
#     4   9  17  27  43  74 107 132 168 217 260 303
#     4  10  21  37  55  79 111 144 181 224 268 321
#     4  10  21  38  58  78 106 146 184 220 271 327
#     4  11  21  34  57  81 106 143 184 222 269 323
#     4   9  17  33  55  79 107 140 179 222 271 324
#     4  11  21  35  55  81 111 139 180 228 270 317
#     4   9  16  30  49  70 102 142 174 206 262 322
#
# _framework density 17.856857999999999
#
# number of rings (size 3 to 8) (size 9 to 14) (size 15 to 20)
#    0.000    2.250    2.500    1.125    0.000    4.000 
#    0.000    1.875    0.000    0.750    0.000    0.000 
#    0.000    0.000    0.000    0.000    0.000    0.000 
#
# Total GULP energy -396814.212601 kJ/mol
# GULP energy per Si atom -12400.444144 kJ/mol
# Density = 1.781622 g / cm^3
# Si number density = 17.856858 Si / 1000 Ang^3
#
#
#
# Elastic Constant Matrix: (Units=GPa)
#
#
# Indices 1 2 3 4 5 6 
#
# 1 57.1056 31.5735 27.9998 0.0000 3.5099 -0.0003
# 2 31.5735 78.7990 49.6544 -0.0001 -6.9558 -0.0009
# 3 27.9998 49.6544 116.7524 0.0002 0.8677 0.0002
# 4 0.0000 -0.0001 0.0002 27.8310 0.0000 -6.1971
# 5 3.5099 -6.9558 0.8677 0.0000 23.7057 -0.0001
# 6 -0.0003 -0.0009 0.0002 -6.1971 -0.0001 21.3790
#
#
#
# Elastic Compliance Matrix: (Units=1/GPa)
#
#
# Indices 1 2 3 4 5 6 
#
# 1 0.023692 -0.008843 -0.001876 0.000000 -0.006034 0.000000
# 2 -0.008843 0.021346 -0.007016 0.000000 0.007830 0.000001
# 3 -0.001876 -0.007016 0.012015 0.000000 -0.002221 -0.000001
# 4 0.000000 0.000000 0.000000 0.038410 0.000000 0.011134
# 5 -0.006034 0.007830 -0.002221 0.000000 0.045456 0.000000
# 6 0.000000 0.000001 -0.000001 0.011134 0.000000 0.050002
#
#
# Mechanical properties :
#
#
# Convention : Reuss Voigt Hill
#
# Bulk Modulus (GPa) = 46.33312 52.34581 49.33947
# Shear Modulus (GPa) = 21.40542 24.14508 22.77525
#
# Velocity S-wave (km/s) = 3.46601 3.68114 3.57520
# Velocity P-wave (km/s) = 6.48236 6.88807 6.68829
#
# Compressibility (1/GPa) = 0.02158283
#
# Stress axis : x y z
#
# Youngs Moduli (GPa) = 42.20910 46.84726 83.22754
#
# Poissons Ratio (x) = 0.41429 0.15612
# Poissons Ratio (y) = 0.37327 0.58390
# Poissons Ratio (z) = 0.07918 0.32867
#
# Static dielectric constant tensor:
#      x y z
#    x 3.082700 0.000000 -0.050950 
#    y 0.000000 3.247710 0.000000 
#    z -0.050950 0.000000 3.595090 
# 
# 
# High freq. dielectric constant tensor:
#      x y z
#    x 1.656770 0.000000 -0.003970 
#    y 0.000000 1.682710 0.000000 
#    z -0.003970 0.000000 1.708940 
# 
# From -- ./inp_files/320100.got.cif
#   From: 2010.06.25/outbox.cif.g09.slc.cpg/sg12_161_cif.got.tgz:320100.got - 2010.06.28 00:19:55.
