data_PCOD8106857
_publ_section_title
;
Structure prediction by ZEFSAII (Michael W. Deem and Ramdas Pophale) SiO2 
 PCOD8106857
Probable space group: C 2/M
;
_chemical_formula_sum "Si O2"
_cell_formula_units_Z 56
_cell_length_a 20.310439
_cell_length_b 17.725256
_cell_length_c 19.864657
_cell_angle_alpha 90.000000
_cell_angle_beta 21.930991
_cell_angle_gamma 90.000000
_cell_volume 2670.984692
_symmetry_space_group_name_H-M "C 2/M"
_symmetry_group_IT_number 12
_symmetry_cell_setting 'monoclinic'
loop_
_space_group_symop_operation_xyz
x,y,z
-x,y,-z
-x,-y,-z
x,-y,z
1/2+x,1/2+y,z
1/2-x,1/2+y,-z
1/2-x,1/2-y,-z
1/2+x,1/2-y,z
loop_
_atom_site_type_symbol
_atom_site_label
_atom_site_fract_x
_atom_site_fract_y
_atom_site_fract_z
Si Si1 0.007905 0.916564 0.886973
Si Si2 0.534857 0.762348 0.387924
Si Si3 0.017801 0.306114 0.771648
Si Si4 0.685881 0.415341 0.070210
Si Si5 0.074963 0.755903 0.998108
Si Si6 0.425984 0.080514 0.495163
Si Si7 0.405353 0.328186 0.399259
O O1 0.217591 0.908213 0.688328
O O2 0.926535 0.907138 0.890720
O O3 0.933457 0.847401 0.001046
O O4 0.955785 0.000000 0.965827
O O5 0.500000 0.762919 0.500000
O O6 0.513526 0.847063 0.376590
O O7 0.399320 0.706699 0.480064
O O8 0.723940 0.730798 0.188967
O O9 0.201167 0.349526 0.578972
O O10 0.009422 0.232218 0.733428
O O11 0.022600 0.278363 0.844711
O O12 0.853753 0.360203 0.912020
O O13 0.756648 0.500000 0.014107
O O14 0.540343 0.398143 0.266534
O O15 0.000000 0.721090 0.000000
O O16 0.500000 0.077951 0.500000
O O17 0.476809 0.000000 0.411746
#
# Coordination Sequence:
#
# PCOD8106857 Si02
#       7
#     8   8   8   8   8   8   8
#     4  10  21  37  56  86 126 165 208 252 305 376
#     4  11  22  36  58  92 122 160 213 261 313 378
#     4  11  23  41  64  96 126 165 212 263 318 376
#     4  11  23  42  65  92 128 167 212 262 321 380
#     4  12  22  37  62  90 125 164 211 259 315 378
#     4   9  18  34  53  79 123 167 206 248 298 367
#     4  11  22  40  68  91 129 163 208 266 318 376
#
# _framework density 20.966049999999999
#
# number of rings (size 3 to 8) (size 9 to 14) (size 15 to 20)
#    0.000    1.286    2.857    4.714    2.000    1.429 
#    0.000    0.714    0.000    0.857    0.000    0.000 
#    0.000    0.000    0.000    0.000    0.000    0.000 
#
# Total GULP energy -346954.534635 kJ/mol
# GULP energy per Si atom -12391.233380 kJ/mol
# Density = 2.091833 g / cm^3
# Si number density = 20.966050 Si / 1000 Ang^3
#
#
#
# Elastic Constant Matrix: (Units=GPa)
#
#
# Indices 1 2 3 4 5 6 
#
# 1 100.8966 33.2606 31.2442 -0.0036 -9.4462 -0.0002
# 2 33.2606 61.7334 36.7229 -0.0192 -8.4988 0.0029
# 3 31.2442 36.7229 124.4797 -0.0371 -20.9480 -0.0005
# 4 -0.0036 -0.0192 -0.0371 34.4338 0.0068 -4.1970
# 5 -9.4462 -8.4988 -20.9480 0.0068 36.6633 0.0016
# 6 -0.0002 0.0029 -0.0005 -4.1970 0.0016 20.4082
#
#
#
# Elastic Compliance Matrix: (Units=1/GPa)
#
#
# Indices 1 2 3 4 5 6 
#
# 1 0.012284 -0.005750 -0.001193 -0.000003 0.001150 0.000000
# 2 -0.005750 0.022401 -0.005024 0.000006 0.000841 -0.000002
# 3 -0.001193 -0.005024 0.010585 0.000008 0.004576 0.000002
# 4 -0.000003 0.000006 0.000008 0.029788 -0.000001 0.006126
# 5 0.001150 0.000841 0.004576 -0.000001 0.030381 -0.000003
# 6 0.000000 -0.000002 0.000002 0.006126 -0.000003 0.050260
#
#
# Mechanical properties :
#
#
# Convention : Reuss Voigt Hill
#
# Bulk Modulus (GPa) = 46.87020 54.39615 50.63317
# Shear Modulus (GPa) = 26.77452 30.69319 28.73386
#
# Velocity S-wave (km/s) = 3.57745 3.83031 3.70604
# Velocity P-wave (km/s) = 6.28236 6.75003 6.52039
#
# Compressibility (1/GPa) = 0.02133552
#
# Stress axis : x y z
#
# Youngs Moduli (GPa) = 81.40758 44.64104 94.47251
#
# Poissons Ratio (x) = 0.25669 0.11274
# Poissons Ratio (y) = 0.46810 0.47461
# Poissons Ratio (z) = 0.09715 0.22427
#
# Static dielectric constant tensor:
#      x y z
#    x 3.808710 -0.000030 -0.208930 
#    y -0.000030 3.971660 0.000120 
#    z -0.208930 0.000120 3.797400 
# 
# 
# High freq. dielectric constant tensor:
#      x y z
#    x 1.821080 0.000000 -0.022890 
#    y 0.000000 1.793600 0.000010 
#    z -0.022890 0.000010 1.829840 
# 
# From -- ./inp_files/322672.got.cif
#   From: 2010.06.25/outbox.cif.g09.slc.cpg/sg12_162_cif.got.tgz:322672.got - 2010.06.28 00:19:55.
