data_PCOD8106709
_publ_section_title
;
Structure prediction by ZEFSAII (Michael W. Deem and Ramdas Pophale) SiO2 
 PCOD8106709
Probable space group: C 2/M
;
_chemical_formula_sum "Si O2"
_cell_formula_units_Z 36
_cell_length_a 11.844856
_cell_length_b 27.194905
_cell_length_c 5.271032
_cell_angle_alpha 90.000000
_cell_angle_beta 105.187962
_cell_angle_gamma 90.000000
_cell_volume 1638.598306
_symmetry_space_group_name_H-M "C 2/M"
_symmetry_group_IT_number 12
_symmetry_cell_setting 'monoclinic'
loop_
_space_group_symop_operation_xyz
x,y,z
-x,y,-z
-x,-y,-z
x,-y,z
1/2+x,1/2+y,z
1/2-x,1/2+y,-z
1/2-x,1/2-y,-z
1/2+x,1/2-y,z
loop_
_atom_site_type_symbol
_atom_site_label
_atom_site_fract_x
_atom_site_fract_y
_atom_site_fract_z
Si Si1 0.077374 0.000000 0.795031
Si Si2 0.629832 0.886124 0.576320
Si Si3 0.772935 0.903563 0.170909
Si Si4 0.608993 0.690744 0.885393
Si Si5 0.323361 0.779538 0.343958
O O1 0.157486 0.952428 0.846368
O O2 0.000000 0.000000 0.500000
O O3 0.000000 0.000000 0.000000
O O4 0.500000 0.909280 0.500000
O O5 0.703254 0.910617 0.392623
O O6 0.615044 0.827642 0.504302
O O7 0.686661 0.895415 0.883057
O O8 0.865969 0.858488 0.264032
O O9 0.581084 0.740563 0.710535
O O10 0.500000 0.679505 0.000000
O O11 0.732815 0.700085 0.086889
O O12 0.250000 0.750000 0.500000
#
# Coordination Sequence:
#
# PCOD8106709 Si02
#       5
#     4   8   8   8   8
#     4  12  26  48  77 102 133 174 212 284 358 392
#     4  11  24  42  69  94 138 181 220 272 337 385
#     4  11  24  46  65 101 132 167 231 277 327 418
#     4  10  22  36  59  87 129 172 216 271 330 387
#     4  10  21  37  54  90 128 171 224 262 313 397
#
# _framework density 21.969999000000001
#
# number of rings (size 3 to 8) (size 9 to 14) (size 15 to 20)
#    0.000    1.333    2.222    2.667    3.111    1.778 
#    0.000    3.333    0.000    0.000    0.000    0.000 
#    0.000    0.000    0.000    0.000    0.000    0.000 
#
# Total GULP energy -223112.666675 kJ/mol
# GULP energy per Si atom -12395.148149 kJ/mol
# Density = 2.191999 g / cm^3
# Si number density = 21.969999 Si / 1000 Ang^3
#
#
#
# Elastic Constant Matrix: (Units=GPa)
#
#
# Indices 1 2 3 4 5 6 
#
# 1 128.0849 29.8112 15.6424 0.0000 -17.8115 0.0000
# 2 29.8112 116.2666 2.2551 0.0000 6.3553 0.0000
# 3 15.6424 2.2551 85.1824 0.0000 -7.7636 0.0000
# 4 0.0000 0.0000 0.0000 24.0313 0.0000 -14.2358
# 5 -17.8115 6.3553 -7.7636 0.0000 36.9557 0.0000
# 6 0.0000 0.0000 0.0000 -14.2358 0.0000 19.1083
#
#
#
# Elastic Compliance Matrix: (Units=1/GPa)
#
#
# Indices 1 2 3 4 5 6 
#
# 1 0.009200 -0.002589 -0.001199 0.000000 0.004627 0.000000
# 2 -0.002589 0.009423 -0.000036 0.000000 -0.002876 0.000000
# 3 -0.001199 -0.000036 0.012141 0.000000 0.001979 0.000000
# 4 0.000000 0.000000 0.000000 0.074485 0.000000 0.055492
# 5 0.004627 -0.002876 0.001979 0.000000 0.030200 0.000000
# 6 0.000000 0.000000 0.000000 0.055492 0.000000 0.093675
#
#
# Mechanical properties :
#
#
# Convention : Reuss Voigt Hill
#
# Bulk Modulus (GPa) = 43.26086 47.21681 45.23884
# Shear Modulus (GPa) = 20.45194 34.80740 27.62967
#
# Velocity S-wave (km/s) = 3.05438 3.98466 3.55013
# Velocity P-wave (km/s) = 5.67209 6.53515 6.11886
#
# Compressibility (1/GPa) = 0.02311558
#
# Stress axis : x y z
#
# Youngs Moduli (GPa) = 108.69929 106.12880 82.36538
#
# Poissons Ratio (x) = 0.27472 0.09877
# Poissons Ratio (y) = 0.28137 0.00298
# Poissons Ratio (z) = 0.13034 0.00384
#
# Static dielectric constant tensor:
#      x y z
#    x 3.870050 0.000000 -0.121500 
#    y 0.000000 16.701430 0.000000 
#    z -0.121500 0.000000 3.996970 
# 
# 
# High freq. dielectric constant tensor:
#      x y z
#    x 1.872090 0.000000 -0.004810 
#    y 0.000000 1.863830 0.000000 
#    z -0.004810 0.000000 1.863030 
# 
# From -- ./inp_files/7787.got.cif
#   From: 2010.06.25/outbox.cif.g09.slc.cpg/sg12_4_cif.got.tgz:7787.got - 2010.06.28 00:19:55.
