data_PCOD8106574
_publ_section_title
;
Structure prediction by ZEFSAII (Michael W. Deem and Ramdas Pophale) SiO2 
 PCOD8106574
Probable space group: C 2/M
;
_chemical_formula_sum "Si O2"
_cell_formula_units_Z 64
_cell_length_a 9.539142
_cell_length_b 26.887536
_cell_length_c 19.029907
_cell_angle_alpha 90.000000
_cell_angle_beta 40.598707
_cell_angle_gamma 90.000000
_cell_volume 3176.258849
_symmetry_space_group_name_H-M "C 2/M"
_symmetry_group_IT_number 12
_symmetry_cell_setting 'monoclinic'
loop_
_space_group_symop_operation_xyz
x,y,z
-x,y,-z
-x,-y,-z
x,-y,z
1/2+x,1/2+y,z
1/2-x,1/2+y,-z
1/2-x,1/2-y,-z
1/2+x,1/2-y,z
loop_
_atom_site_type_symbol
_atom_site_label
_atom_site_fract_x
_atom_site_fract_y
_atom_site_fract_z
Si Si1 0.556264 0.765672 0.126423
Si Si2 0.853860 0.945748 0.259835
Si Si3 0.368065 0.306041 0.779399
Si Si4 0.768201 0.397184 0.084533
Si Si5 0.257925 0.130896 0.583391
Si Si6 0.098677 0.555690 0.223847
Si Si7 0.735728 0.634210 0.940366
Si Si8 0.204197 0.941608 0.470543
O O1 0.527228 0.724497 0.197020
O O2 0.313487 0.771386 0.187889
O O3 0.625988 0.817773 0.133527
O O4 0.750000 0.750000 0.000000
O O5 0.745059 0.902912 0.345976
O O6 0.804559 0.939919 0.196054
O O7 0.110352 0.941302 0.166705
O O8 0.778907 0.000000 0.315882
O O9 0.237285 0.353618 0.855867
O O10 0.573159 0.325820 0.654485
O O11 0.712631 0.372219 0.031873
O O12 0.000000 0.422288 0.000000
O O13 0.500000 0.154021 0.500000
O O14 0.212326 0.094874 0.534441
O O15 0.060910 0.500000 0.210499
O O16 0.134699 0.588073 0.141276
O O17 0.900484 0.573553 0.346312
O O18 0.500000 0.640842 0.000000
O O19 0.000000 0.930931 0.500000
O O20 0.214665 0.000000 0.490339
#
# Coordination Sequence:
#
# PCOD8106574 Si02
#       8
#     8   8   8   8   8   8   8   8
#     4  12  23  43  68  94 123 161 205 259 317 379
#     4  10  21  36  60  92 126 167 217 258 302 376
#     4  11  25  42  66  97 123 157 210 270 309 388
#     4  11  21  39  57  90 133 159 205 260 321 372
#     4  11  23  42  68  92 125 167 212 264 325 366
#     4  10  22  38  58  93 128 164 215 257 302 377
#     4  12  23  36  63  91 122 173 203 252 319 374
#     4  10  22  40  64  94 128 168 217 267 311 368
#
# _framework density 20.149491999999999
#
# number of rings (size 3 to 8) (size 9 to 14) (size 15 to 20)
#    0.000    1.125    5.000    1.500    1.750    1.500 
#    0.000    1.875    0.000    0.000    0.000    0.000 
#    0.000    0.000    0.000    0.000    0.000    0.000 
#
# Total GULP energy -396594.072490 kJ/mol
# GULP energy per Si atom -12393.564765 kJ/mol
# Density = 2.010363 g / cm^3
# Si number density = 20.149492 Si / 1000 Ang^3
#
#
#
# Elastic Constant Matrix: (Units=GPa)
#
#
# Indices 1 2 3 4 5 6 
#
# 1 95.1363 23.8919 42.3342 0.0000 -24.6527 0.0000
# 2 23.8919 72.0211 35.3286 0.0000 -6.0297 0.0000
# 3 42.3342 35.3286 97.8409 -0.0002 -20.8673 -0.0001
# 4 0.0000 0.0000 -0.0002 39.4148 0.0001 11.3340
# 5 -24.6527 -6.0297 -20.8673 0.0001 32.8553 0.0001
# 6 0.0000 0.0000 -0.0001 11.3340 0.0001 42.1787
#
#
#
# Elastic Compliance Matrix: (Units=1/GPa)
#
#
# Indices 1 2 3 4 5 6 
#
# 1 0.014988 -0.002389 -0.003837 0.000000 0.008370 0.000000
# 2 -0.002389 0.017277 -0.005680 0.000000 -0.002229 0.000000
# 3 -0.003837 -0.005680 0.015147 0.000000 0.005699 0.000000
# 4 0.000000 0.000000 0.000000 0.027496 0.000000 -0.007389
# 5 0.008370 -0.002229 0.005699 0.000000 0.039927 0.000000
# 6 0.000000 0.000000 0.000000 -0.007389 0.000000 0.025694
#
#
# Mechanical properties :
#
#
# Convention : Reuss Voigt Hill
#
# Bulk Modulus (GPa) = 42.37378 52.01197 47.19287
# Shear Modulus (GPa) = 29.03458 33.78600 31.41029
#
# Velocity S-wave (km/s) = 3.80011 4.09928 3.95253
# Velocity P-wave (km/s) = 6.35058 6.94799 6.65599
#
# Compressibility (1/GPa) = 0.02359950
#
# Stress axis : x y z
#
# Youngs Moduli (GPa) = 66.72167 57.88041 66.01783
#
# Poissons Ratio (x) = 0.13827 0.25332
# Poissons Ratio (y) = 0.15939 0.37500
# Poissons Ratio (z) = 0.25602 0.32878
#
# Static dielectric constant tensor:
#      x y z
#    x 3.085150 0.000000 -0.216360 
#    y 0.000000 3.657920 0.000000 
#    z -0.216360 0.000000 3.726140 
# 
# 
# High freq. dielectric constant tensor:
#      x y z
#    x 1.795440 0.000000 -0.014050 
#    y 0.000000 1.776790 0.000000 
#    z -0.014050 0.000000 1.783430 
# 
# From -- ./inp_files/260336.got.cif
#   From: 2010.06.25/outbox.cif.g09.slc.cpg/sg12_131_cif.got.tgz:260336.got - 2010.06.28 00:19:55.
