data_PCOD8106988
_publ_section_title
;
Structure prediction by ZEFSAII (Michael W. Deem and Ramdas Pophale) SiO2 
 PCOD8106988
Probable space group: C 2/M
;
_chemical_formula_sum "Si O2"
_cell_formula_units_Z 56
_cell_length_a 16.944672
_cell_length_b 9.391192
_cell_length_c 27.576093
_cell_angle_alpha 90.000000
_cell_angle_beta 38.342264
_cell_angle_gamma 90.000000
_cell_volume 2722.255185
_symmetry_space_group_name_H-M "C 2/M"
_symmetry_group_IT_number 12
_symmetry_cell_setting 'monoclinic'
loop_
_space_group_symop_operation_xyz
x,y,z
-x,y,-z
-x,-y,-z
x,-y,z
1/2+x,1/2+y,z
1/2-x,1/2+y,-z
1/2-x,1/2-y,-z
1/2+x,1/2-y,z
loop_
_atom_site_type_symbol
_atom_site_label
_atom_site_fract_x
_atom_site_fract_y
_atom_site_fract_z
Si Si1 0.430198 0.159846 0.791202
Si Si2 0.460521 0.345024 0.586576
Si Si3 0.198659 0.663196 0.478527
Si Si4 0.349181 0.665726 0.919862
Si Si5 0.160313 0.839519 0.252432
Si Si6 0.204086 0.249153 0.667702
Si Si7 0.364708 0.653941 0.197755
O O1 0.354181 0.257258 0.865693
O O2 0.408377 0.233305 0.750517
O O3 0.581688 0.147375 0.727257
O O4 0.374378 0.000000 0.819318
O O5 0.520771 0.500000 0.545992
O O6 0.562191 0.222292 0.526655
O O7 0.428351 0.338498 0.658304
O O8 0.335808 0.331800 0.613122
O O9 0.184849 0.500000 0.501466
O O10 0.250000 0.750000 0.500000
O O11 0.290959 0.671049 0.387045
O O12 0.309777 0.500000 0.932380
O O13 0.485601 0.679601 0.879524
O O14 0.250000 0.750000 0.000000
O O15 0.299328 0.780339 0.199406
O O16 0.175480 0.000000 0.224446
O O17 0.180958 0.143308 0.724032
O O18 0.329396 0.500000 0.192069
#
# Coordination Sequence:
#
# PCOD8106988 Si02
#       7
#     8   8   8   8   8   8   8
#     4  11  22  37  61  89 116 150 191 233 280 337
#     4  10  22  39  59  83 113 148 188 237 289 342
#     4  12  26  40  56  80 112 151 193 240 292 342
#     4  10  21  38  61  89 121 154 189 231 279 333
#     4  10  21  37  57  84 117 151 189 235 286 337
#     4  10  22  38  60  84 111 146 191 237 286 341
#     4   9  19  37  61  85 111 147 188 232 281 336
#
# _framework density 20.571179999999998
#
# number of rings (size 3 to 8) (size 9 to 14) (size 15 to 20)
#    0.000    1.714    0.000    3.857    0.000   14.857 
#    0.000    0.714    0.000    4.286    0.000    0.000 
#    0.000    0.000    0.000    0.000    0.000    0.000 
#
# Total GULP energy -347099.975536 kJ/mol
# GULP energy per Si atom -12396.427698 kJ/mol
# Density = 2.052436 g / cm^3
# Si number density = 20.571180 Si / 1000 Ang^3
#
#
#
# Elastic Constant Matrix: (Units=GPa)
#
#
# Indices 1 2 3 4 5 6 
#
# 1 93.6089 47.5938 39.6054 0.0000 7.2802 0.0001
# 2 47.5938 176.3330 49.7743 0.0000 -2.0511 0.0004
# 3 39.6054 49.7743 93.2836 0.0000 -5.5396 0.0000
# 4 0.0000 0.0000 0.0000 24.3721 0.0000 -2.3035
# 5 7.2802 -2.0511 -5.5396 0.0000 23.5930 0.0000
# 6 0.0001 0.0004 0.0000 -2.3035 0.0000 22.5434
#
#
#
# Elastic Compliance Matrix: (Units=1/GPa)
#
#
# Indices 1 2 3 4 5 6 
#
# 1 0.014650 -0.002552 -0.005212 0.000000 -0.005966 0.000000
# 2 -0.002552 0.007123 -0.002671 0.000000 0.000780 0.000000
# 3 -0.005212 -0.002671 0.014644 0.000000 0.004815 0.000000
# 4 0.000000 0.000000 0.000000 0.041431 0.000000 0.004233
# 5 -0.005966 0.000780 0.004815 0.000000 0.045425 0.000000
# 6 0.000000 0.000000 0.000000 0.004233 0.000000 0.044792
#
#
# Mechanical properties :
#
#
# Convention : Reuss Voigt Hill
#
# Bulk Modulus (GPa) = 64.32511 70.79696 67.56104
# Shear Modulus (GPa) = 25.75779 29.18514 27.47147
#
# Velocity S-wave (km/s) = 3.54238 3.77070 3.65832
# Velocity P-wave (km/s) = 6.93316 7.31081 7.12449
#
# Compressibility (1/GPa) = 0.01554603
#
# Stress axis : x y z
#
# Youngs Moduli (GPa) = 68.26087 140.39224 68.28743
#
# Poissons Ratio (x) = 0.35830 0.35594
# Poissons Ratio (y) = 0.17421 0.18238
# Poissons Ratio (z) = 0.35580 0.37495
#
# Static dielectric constant tensor:
#      x y z
#    x 3.749430 0.000000 0.038490 
#    y 0.000000 3.830720 0.000000 
#    z 0.038490 0.000000 3.624830 
# 
# 
# High freq. dielectric constant tensor:
#      x y z
#    x 1.804470 0.000000 0.001290 
#    y 0.000000 1.812080 0.000000 
#    z 0.001290 0.000000 1.791540 
# 
# From -- ./inp_files/362886.got.cif
#   From: 2010.06.25/outbox.cif.g09.slc.cpg/sg12_182_cif.got.tgz:362886.got - 2010.06.28 00:19:55.
