data_PCOD8106018
_publ_section_title
;
Structure prediction by ZEFSAII (Michael W. Deem and Ramdas Pophale) SiO2 
 PCOD8106018
Probable space group: C 2/M
;
_chemical_formula_sum "Si O2"
_cell_formula_units_Z 48
_cell_length_a 18.697036
_cell_length_b 9.027222
_cell_length_c 15.201805
_cell_angle_alpha 90.000000
_cell_angle_beta 91.345719
_cell_angle_gamma 90.000000
_cell_volume 2565.087854
_symmetry_space_group_name_H-M "C 2/M"
_symmetry_group_IT_number 12
_symmetry_cell_setting 'monoclinic'
loop_
_space_group_symop_operation_xyz
x,y,z
-x,y,-z
-x,-y,-z
x,-y,z
1/2+x,1/2+y,z
1/2-x,1/2+y,-z
1/2-x,1/2-y,-z
1/2+x,1/2-y,z
loop_
_atom_site_type_symbol
_atom_site_label
_atom_site_fract_x
_atom_site_fract_y
_atom_site_fract_z
Si Si1 0.459295 0.326727 0.746759
Si Si2 0.709832 0.324411 0.579544
Si Si3 0.699928 0.671826 0.067701
Si Si4 0.546591 0.324125 0.581605
Si Si5 0.206159 0.830488 0.268549
Si Si6 0.945301 0.667699 0.919559
O O1 0.469423 0.500000 0.767152
O O2 0.510821 0.269332 0.671011
O O3 0.377228 0.294213 0.718122
O O4 0.481728 0.235599 0.833627
O O5 0.713648 0.500000 0.568996
O O6 0.750000 0.250000 0.500000
O O7 0.627947 0.267482 0.577643
O O8 0.746392 0.278315 0.671743
O O9 0.697279 0.500000 0.045087
O O10 0.727474 0.698438 0.167843
O O11 0.621381 0.735211 0.053321
O O12 0.750000 0.750000 0.000000
O O13 0.500000 0.257914 0.500000
O O14 0.544403 0.500000 0.577894
O O15 0.221850 0.000000 0.296099
O O16 0.920843 0.500000 0.899100
O O17 0.000000 0.673478 0.000000
#
# Coordination Sequence:
#
# PCOD8106018 Si02
#       6
#     8   8   8   8   8   8
#     4   9  18  35  58  79 101 137 183 225 266 315
#     4  11  22  35  55  81 107 139 177 219 267 320
#     4  10  21  37  58  82 110 146 186 228 275 328
#     4   9  18  34  55  77 102 134 174 216 258 310
#     4   9  19  36  56  78 106 139 174 218 270 320
#     4  10  21  36  54  79 112 147 182 224 275 326
#
# _framework density 18.712810000000001
#
# number of rings (size 3 to 8) (size 9 to 14) (size 15 to 20)
#    0.000    2.333    0.000    3.500    0.000    8.667 
#    0.000    5.000    0.000    3.500    0.000    0.000 
#    0.000    0.000    0.000    0.000    0.000    0.000 
#
# Total GULP energy -297641.720216 kJ/mol
# GULP energy per Si atom -12401.738342 kJ/mol
# Density = 1.867022 g / cm^3
# Si number density = 18.712810 Si / 1000 Ang^3
#
#
#
# Elastic Constant Matrix: (Units=GPa)
#
#
# Indices 1 2 3 4 5 6 
#
# 1 118.5273 52.4484 84.6417 0.0000 -16.7976 0.0000
# 2 52.4484 94.2532 64.5978 0.0000 -2.8111 0.0000
# 3 84.6417 64.5978 137.4129 0.0000 -18.0460 0.0000
# 4 0.0000 0.0000 0.0000 35.2074 0.0000 2.2949
# 5 -16.7976 -2.8111 -18.0460 0.0000 39.1735 0.0000
# 6 0.0000 0.0000 0.0000 2.2949 0.0000 27.5065
#
#
#
# Elastic Compliance Matrix: (Units=1/GPa)
#
#
# Indices 1 2 3 4 5 6 
#
# 1 0.015973 -0.003431 -0.007833 0.000000 0.002995 0.000000
# 2 -0.003431 0.016607 -0.006099 0.000000 -0.003089 0.000000
# 3 -0.007833 -0.006099 0.015403 0.000000 0.003299 0.000000
# 4 0.000000 0.000000 0.000000 0.028558 0.000000 -0.002383
# 5 0.002995 -0.003089 0.003299 0.000000 0.028110 0.000000
# 6 0.000000 0.000000 0.000000 -0.002383 0.000000 0.036554
#
#
# Mechanical properties :
#
#
# Convention : Reuss Voigt Hill
#
# Bulk Modulus (GPa) = 75.43313 83.72991 79.58152
# Shear Modulus (GPa) = 27.72408 30.27784 29.00096
#
# Velocity S-wave (km/s) = 3.85327 4.02683 3.94101
# Velocity P-wave (km/s) = 7.75857 8.15245 7.95795
#
# Compressibility (1/GPa) = 0.01325678
#
# Stress axis : x y z
#
# Youngs Moduli (GPa) = 62.60675 60.21559 64.92429
#
# Poissons Ratio (x) = 0.20658 0.50852
# Poissons Ratio (y) = 0.21479 0.39600
# Poissons Ratio (z) = 0.49037 0.36728
#
# Static dielectric constant tensor:
#      x y z
#    x 3.281300 0.000000 -0.113420 
#    y 0.000000 3.404030 0.000000 
#    z -0.113420 0.000000 3.503880 
# 
# 
# High freq. dielectric constant tensor:
#      x y z
#    x 1.724690 0.000000 -0.005200 
#    y 0.000000 1.716770 0.000000 
#    z -0.005200 0.000000 1.739480 
# 
# From -- ./inp_files/221544.got.cif
#   From: 2010.06.25/outbox.cif.g09.slc.cpg/sg12_111_cif.got.tgz:221544.got - 2010.06.28 00:19:55.
