data_PCOD8106032
_publ_section_title
;
Structure prediction by ZEFSAII (Michael W. Deem and Ramdas Pophale) SiO2 
 PCOD8106032
Probable space group: C 2/M
;
_chemical_formula_sum "Si O2"
_cell_formula_units_Z 56
_cell_length_a 9.570097
_cell_length_b 15.795153
_cell_length_c 25.490000
_cell_angle_alpha 90.000000
_cell_angle_beta 46.944675
_cell_angle_gamma 90.000000
_cell_volume 2815.438475
_symmetry_space_group_name_H-M "C 2/M"
_symmetry_group_IT_number 12
_symmetry_cell_setting 'monoclinic'
loop_
_space_group_symop_operation_xyz
x,y,z
-x,y,-z
-x,-y,-z
x,-y,z
1/2+x,1/2+y,z
1/2-x,1/2+y,-z
1/2-x,1/2-y,-z
1/2+x,1/2-y,z
loop_
_atom_site_type_symbol
_atom_site_label
_atom_site_fract_x
_atom_site_fract_y
_atom_site_fract_z
Si Si1 0.296622 0.594720 0.190312
Si Si2 0.528098 0.757411 0.552394
Si Si3 0.191291 0.158056 0.070285
Si Si4 0.515033 0.096565 0.805167
Si Si5 0.565006 0.097427 0.345509
Si Si6 0.984484 0.677749 0.084965
Si Si7 0.711455 0.594969 0.360324
O O1 0.212579 0.500000 0.213094
O O2 0.526026 0.590408 0.125423
O O3 0.232956 0.631621 0.263117
O O4 0.178859 0.636811 0.171703
O O5 0.500000 0.779159 0.500000
O O6 0.750000 0.750000 0.500000
O O7 0.435022 0.836357 0.607061
O O8 0.445676 0.666948 0.591800
O O9 0.295589 0.185526 0.097363
O O10 0.069837 0.230543 0.073180
O O11 0.350941 0.123828 0.988246
O O12 0.570983 0.140289 0.845132
O O13 0.691768 0.109147 0.720920
O O14 0.479004 0.000000 0.829392
O O15 0.364043 0.103389 0.367469
O O16 0.601549 0.000000 0.355451
O O17 0.619948 0.500000 0.385782
#
# Coordination Sequence:
#
# PCOD8106032 Si02
#       7
#     8   8   8   8   8   8   8
#     4   9  19  37  60  84 112 152 194 234 290 350
#     4  12  24  40  63  95 121 150 200 245 294 358
#     4  10  21  36  54  80 115 154 193 239 292 340
#     4   9  19  37  60  85 112 149 196 239 285 346
#     4   9  20  41  64  87 123 162 196 243 299 355
#     4  10  21  36  54  80 115 153 194 241 289 339
#     4   9  20  41  65  87 120 164 201 238 294 362
#
# _framework density 19.890331
#
# number of rings (size 3 to 8) (size 9 to 14) (size 15 to 20)
#    0.000    2.286    1.429    2.571    2.000    4.000 
#    2.571    2.857    0.000    0.000    0.000    0.000 
#    0.000    0.000    0.000    0.000    0.000    0.000 
#
# Total GULP energy -346912.413348 kJ/mol
# GULP energy per Si atom -12389.729048 kJ/mol
# Density = 1.984506 g / cm^3
# Si number density = 19.890331 Si / 1000 Ang^3
#
#
#
# Elastic Constant Matrix: (Units=GPa)
#
#
# Indices 1 2 3 4 5 6 
#
# 1 104.8106 23.8377 49.6545 -0.0001 8.7177 0.0008
# 2 23.8377 83.1973 44.7648 -0.0003 6.1394 0.0005
# 3 49.6545 44.7648 103.4075 0.0007 12.1715 0.0004
# 4 -0.0001 -0.0003 0.0007 28.6175 -0.0001 -6.2826
# 5 8.7177 6.1394 12.1715 -0.0001 40.5569 -0.0006
# 6 0.0008 0.0005 0.0004 -6.2826 -0.0006 23.7395
#
#
#
# Elastic Compliance Matrix: (Units=1/GPa)
#
#
# Indices 1 2 3 4 5 6 
#
# 1 0.012395 -0.000443 -0.005654 0.000000 -0.000900 0.000000
# 2 -0.000443 0.015690 -0.006542 0.000000 -0.000317 0.000000
# 3 -0.005654 -0.006542 0.015506 -0.000001 -0.002448 0.000000
# 4 0.000000 0.000000 -0.000001 0.037099 0.000000 0.009818
# 5 -0.000900 -0.000317 -0.002448 0.000000 0.025633 0.000001
# 6 0.000000 0.000000 0.000000 0.009818 0.000001 0.044722
#
#
# Mechanical properties :
#
#
# Convention : Reuss Voigt Hill
#
# Bulk Modulus (GPa) = 54.60782 58.65880 56.63331
# Shear Modulus (GPa) = 27.40804 30.12668 28.76736
#
# Velocity S-wave (km/s) = 3.71611 3.89606 3.80715
# Velocity P-wave (km/s) = 6.77693 7.05650 6.91812
#
# Compressibility (1/GPa) = 0.01831240
#
# Stress axis : x y z
#
# Youngs Moduli (GPa) = 80.67498 63.73513 64.49166
#
# Poissons Ratio (x) = 0.02821 0.36466
# Poissons Ratio (y) = 0.03571 0.42192
# Poissons Ratio (z) = 0.45617 0.41697
#
# Static dielectric constant tensor:
#      x y z
#    x 3.485540 0.000000 0.025850 
#    y 0.000000 3.525650 0.000000 
#    z 0.025850 0.000000 3.885360 
# 
# 
# High freq. dielectric constant tensor:
#      x y z
#    x 1.769360 0.000000 0.004160 
#    y 0.000000 1.761760 0.000000 
#    z 0.004160 0.000000 1.786490 
# 
# From -- ./inp_files/333312.got.cif
#   From: 2010.06.25/outbox.cif.g09.slc.cpg/sg12_167_cif.got.tgz:333312.got - 2010.06.28 00:19:55.
