data_PCOD8106270
_publ_section_title
;
Structure prediction by ZEFSAII (Michael W. Deem and Ramdas Pophale) SiO2 
 PCOD8106270
Probable space group: C 2/M
;
_chemical_formula_sum "Si O2"
_cell_formula_units_Z 64
_cell_length_a 30.331499
_cell_length_b 8.611037
_cell_length_c 18.915109
_cell_angle_alpha 90.000000
_cell_angle_beta 141.054962
_cell_angle_gamma 90.000000
_cell_volume 3105.381865
_symmetry_space_group_name_H-M "C 2/M"
_symmetry_group_IT_number 12
_symmetry_cell_setting 'monoclinic'
loop_
_space_group_symop_operation_xyz
x,y,z
-x,y,-z
-x,-y,-z
x,-y,z
1/2+x,1/2+y,z
1/2-x,1/2+y,-z
1/2-x,1/2-y,-z
1/2+x,1/2-y,z
loop_
_atom_site_type_symbol
_atom_site_label
_atom_site_fract_x
_atom_site_fract_y
_atom_site_fract_z
Si Si1 0.854946 0.679840 0.403609
Si Si2 0.878088 0.182932 0.028956
Si Si3 0.351645 0.320615 0.668420
Si Si4 0.501894 0.676748 0.419648
Si Si5 0.283291 0.323720 0.437788
Si Si6 0.278149 0.815450 0.169390
Si Si7 0.116236 0.679536 0.814710
Si Si8 0.501000 0.684399 0.081974
O O1 0.875358 0.500000 0.422227
O O2 0.920713 0.781776 0.510425
O O3 0.797189 0.704060 0.391936
O O4 0.825082 0.746568 0.292534
O O5 0.800227 0.254397 0.920252
O O6 0.876465 0.000000 0.017530
O O7 0.899741 0.221251 0.135818
O O8 0.934059 0.252167 0.042275
O O9 0.339267 0.500000 0.674690
O O10 0.341653 0.299592 0.571873
O O11 0.295024 0.211353 0.634571
O O12 0.428459 0.263455 0.789117
O O13 0.500000 0.705908 0.500000
O O14 0.483435 0.500000 0.375856
O O15 0.448257 0.796036 0.318233
O O16 0.285687 0.500000 0.413211
O O17 0.313241 0.763771 0.138646
O O18 0.274770 0.000000 0.169085
O O19 0.122149 0.500000 0.842866
O O20 0.496428 0.500000 0.074797
O O21 0.500000 0.749093 0.000000
#
# Coordination Sequence:
#
# PCOD8106270 Si02
#       8
#     8   8   8   8   8   8   8   8
#     4  11  22  37  60  88 119 157 196 239 294 357
#     4  10  21  38  61  89 116 153 202 248 298 352
#     4   9  19  37  59  83 113 150 193 242 296 353
#     4  11  23  39  59  86 119 155 196 243 294 347
#     4  10  21  36  56  86 119 151 192 243 294 351
#     4   9  20  37  59  86 118 155 201 249 292 349
#     4  11  22  39  60  86 121 159 199 246 298 353
#     4   9  19  35  60  88 113 147 195 248 295 351
#
# _framework density 20.609382
#
# number of rings (size 3 to 8) (size 9 to 14) (size 15 to 20)
#    0.000    2.000    1.250    1.875    3.500    1.000 
#    0.000    2.500    0.000    0.750    0.000    0.000 
#    0.000    0.000    0.000    0.000    0.000    0.000 
#
# Total GULP energy -396792.439614 kJ/mol
# GULP energy per Si atom -12399.763738 kJ/mol
# Density = 2.056247 g / cm^3
# Si number density = 20.609382 Si / 1000 Ang^3
#
#
#
# Elastic Constant Matrix: (Units=GPa)
#
#
# Indices 1 2 3 4 5 6 
#
# 1 145.6032 16.8934 59.7351 0.0000 0.7844 0.0000
# 2 16.8934 24.9347 15.3797 0.0000 -0.6671 0.0000
# 3 59.7351 15.3797 112.2397 0.0000 14.1053 0.0000
# 4 0.0000 0.0000 0.0000 16.3821 0.0000 2.5540
# 5 0.7844 -0.6671 14.1053 0.0000 32.3362 0.0000
# 6 0.0000 0.0000 0.0000 2.5540 0.0000 25.5392
#
#
#
# Elastic Compliance Matrix: (Units=1/GPa)
#
#
# Indices 1 2 3 4 5 6 
#
# 1 0.009140 -0.003290 -0.004631 0.000000 0.001731 0.000000
# 2 -0.003290 0.045420 -0.004867 0.000000 0.003140 0.000000
# 3 -0.004631 -0.004867 0.012738 0.000000 -0.005545 0.000000
# 4 0.000000 0.000000 0.000000 0.062009 0.000000 -0.006201
# 5 0.001731 0.003140 -0.005545 0.000000 0.033366 0.000000
# 6 0.000000 0.000000 0.000000 -0.006201 0.000000 0.039776
#
#
# Mechanical properties :
#
#
# Convention : Reuss Voigt Hill
#
# Bulk Modulus (GPa) = 23.96857 51.86599 37.91728
# Shear Modulus (GPa) = 20.66684 27.56946 24.11815
#
# Velocity S-wave (km/s) = 3.17012 3.66145 3.42460
# Velocity P-wave (km/s) = 5.00547 6.56473 5.83740
#
# Compressibility (1/GPa) = 0.04172130
#
# Stress axis : x y z
#
# Youngs Moduli (GPa) = 109.40454 22.01679 78.50474
#
# Poissons Ratio (x) = 0.07243 0.36358
# Poissons Ratio (y) = 0.35992 0.38212
# Poissons Ratio (z) = 0.50669 0.10717
#
# Static dielectric constant tensor:
#      x y z
#    x 3.893520 0.000000 0.096490 
#    y 0.000000 3.338190 0.000000 
#    z 0.096490 0.000000 3.822090 
# 
# 
# High freq. dielectric constant tensor:
#      x y z
#    x 1.814520 0.000000 0.002950 
#    y 0.000000 1.774230 0.000000 
#    z 0.002950 0.000000 1.810120 
# 
# From -- ./inp_files/295834.got.cif
#   From: 2010.06.25/outbox.cif.g09.slc.cpg/sg12_148_cif.got.tgz:295834.got - 2010.06.28 00:19:55.
