data_PCOD8106521
_publ_section_title
;
Structure prediction by ZEFSAII (Michael W. Deem and Ramdas Pophale) SiO2 
 PCOD8106521
Probable space group: C 2/M
;
_chemical_formula_sum "Si O2"
_cell_formula_units_Z 64
_cell_length_a 23.561199
_cell_length_b 9.128497
_cell_length_c 14.963759
_cell_angle_alpha 90.000000
_cell_angle_beta 91.758200
_cell_angle_gamma 90.000000
_cell_volume 3216.865181
_symmetry_space_group_name_H-M "C 2/M"
_symmetry_group_IT_number 12
_symmetry_cell_setting 'monoclinic'
loop_
_space_group_symop_operation_xyz
x,y,z
-x,y,-z
-x,-y,-z
x,-y,z
1/2+x,1/2+y,z
1/2-x,1/2+y,-z
1/2-x,1/2-y,-z
1/2+x,1/2-y,z
loop_
_atom_site_type_symbol
_atom_site_label
_atom_site_fract_x
_atom_site_fract_y
_atom_site_fract_z
Si Si1 0.958986 0.173967 0.919579
Si Si2 0.587926 0.168998 0.419850
Si Si3 0.009414 0.173558 0.277359
Si Si4 0.220114 0.670572 0.417611
Si Si5 0.169593 0.167731 0.060127
Si Si6 0.917341 0.667324 0.378824
Si Si7 0.775986 0.167052 0.128431
Si Si8 0.797096 0.668338 0.295255
O O1 0.980456 0.229229 0.823582
O O2 0.894391 0.228710 0.931687
O O3 0.960228 0.000000 0.924095
O O4 0.000000 0.237475 0.000000
O O5 0.557933 0.268009 0.345101
O O6 0.653918 0.201182 0.416140
O O7 0.566728 0.210464 0.518749
O O8 0.573799 0.000000 0.399339
O O9 0.948927 0.230534 0.309294
O O10 0.009834 0.000000 0.280743
O O11 0.234580 0.500000 0.423987
O O12 0.250000 0.750000 0.500000
O O13 0.243723 0.739606 0.327914
O O14 0.212448 0.267816 0.118480
O O15 0.174160 0.000000 0.094200
O O16 0.187187 0.179239 0.958438
O O17 0.935263 0.500000 0.360806
O O18 0.850044 0.686266 0.364266
O O19 0.812085 0.262649 0.200202
O O20 0.770208 0.000000 0.159931
O O21 0.779511 0.500000 0.284158
#
# Coordination Sequence:
#
# PCOD8106521 Si02
#       8
#     8   8   8   8   8   8   8   8
#     4   9  20  39  61  85 117 156 195 242 300 358
#     4  10  22  42  63  84 120 163 198 238 299 365
#     4  11  24  38  61  94 118 150 205 256 297 346
#     4  11  22  39  61  89 122 159 199 241 296 354
#     4   9  19  38  62  85 116 157 197 241 301 365
#     4  10  22  42  62  83 118 165 203 241 302 362
#     4  10  21  36  59  91 120 152 197 247 300 357
#     4  11  23  39  60  87 121 160 203 245 298 363
#
# _framework density 19.895146
#
# number of rings (size 3 to 8) (size 9 to 14) (size 15 to 20)
#    0.000    1.875    1.250    1.875    3.500    4.500 
#    0.000    0.625    0.000    1.875    0.000    0.000 
#    0.000    0.000    0.000    0.000    0.000    0.000 
#
# Total GULP energy -396844.617644 kJ/mol
# GULP energy per Si atom -12401.394301 kJ/mol
# Density = 1.984986 g / cm^3
# Si number density = 19.895146 Si / 1000 Ang^3
#
#
#
# Elastic Constant Matrix: (Units=GPa)
#
#
# Indices 1 2 3 4 5 6 
#
# 1 101.1554 45.7768 49.7412 0.0000 -13.1740 0.0000
# 2 45.7768 81.2345 42.6715 0.0000 -4.2961 0.0000
# 3 49.7412 42.6715 120.6011 0.0000 1.1167 0.0000
# 4 0.0000 0.0000 0.0000 32.8212 0.0000 1.2415
# 5 -13.1740 -4.2961 1.1167 0.0000 29.9322 0.0000
# 6 0.0000 0.0000 0.0000 1.2415 0.0000 32.0490
#
#
#
# Elastic Compliance Matrix: (Units=1/GPa)
#
#
# Indices 1 2 3 4 5 6 
#
# 1 0.015611 -0.006215 -0.004296 0.000000 0.006139 0.000000
# 2 -0.006215 0.017765 -0.003722 0.000000 -0.000047 0.000000
# 3 -0.004296 -0.003722 0.011407 0.000000 -0.002851 0.000000
# 4 0.000000 0.000000 0.000000 0.030513 0.000000 -0.001182
# 5 0.006139 -0.000047 -0.002851 0.000000 0.036210 0.000000
# 6 0.000000 0.000000 0.000000 -0.001182 0.000000 0.031248
#
#
# Mechanical properties :
#
#
# Convention : Reuss Voigt Hill
#
# Bulk Modulus (GPa) = 61.28985 64.37444 62.83214
# Shear Modulus (GPa) = 28.30315 29.94725 29.12520
#
# Velocity S-wave (km/s) = 3.77585 3.88397 3.83029
# Velocity P-wave (km/s) = 7.06277 7.24850 7.15624
#
# Compressibility (1/GPa) = 0.01631592
#
# Stress axis : x y z
#
# Youngs Moduli (GPa) = 64.05943 56.29048 87.66585
#
# Poissons Ratio (x) = 0.34987 0.37663
# Poissons Ratio (y) = 0.39815 0.32627
# Poissons Ratio (z) = 0.27521 0.20950
#
# Static dielectric constant tensor:
#      x y z
#    x 3.778090 0.000000 -0.215000 
#    y 0.000000 3.557540 0.000000 
#    z -0.215000 0.000000 3.922360 
# 
# 
# High freq. dielectric constant tensor:
#      x y z
#    x 1.782120 0.000000 -0.001420 
#    y 0.000000 1.763930 0.000000 
#    z -0.001420 0.000000 1.786360 
# 
# From -- ./inp_files/238770.got.cif
#   From: 2010.06.25/outbox.cif.g09.slc.cpg/sg12_120_cif.got.tgz:238770.got - 2010.06.28 00:19:55.
