data_PCOD8106571
_publ_section_title
;
Structure prediction by ZEFSAII (Michael W. Deem and Ramdas Pophale) SiO2 
 PCOD8106571
Probable space group: C 2/M
;
_chemical_formula_sum "Si O2"
_cell_formula_units_Z 56
_cell_length_a 19.627170
_cell_length_b 8.491841
_cell_length_c 29.417149
_cell_angle_alpha 90.000000
_cell_angle_beta 33.848346
_cell_angle_gamma 90.000000
_cell_volume 2730.943166
_symmetry_space_group_name_H-M "C 2/M"
_symmetry_group_IT_number 12
_symmetry_cell_setting 'monoclinic'
loop_
_space_group_symop_operation_xyz
x,y,z
-x,y,-z
-x,-y,-z
x,-y,z
1/2+x,1/2+y,z
1/2-x,1/2+y,-z
1/2-x,1/2-y,-z
1/2+x,1/2-y,z
loop_
_atom_site_type_symbol
_atom_site_label
_atom_site_fract_x
_atom_site_fract_y
_atom_site_fract_z
Si Si1 0.961557 0.319645 0.926129
Si Si2 0.745385 0.820493 0.100188
Si Si3 0.103870 0.312738 0.355038
Si Si4 0.484316 0.682698 0.817096
Si Si5 0.202808 0.816949 0.825908
Si Si6 0.170595 0.312805 0.502314
Si Si7 0.750794 0.313151 0.639597
O O1 0.963888 0.500000 0.908737
O O2 0.962012 0.205565 0.882730
O O3 0.078350 0.281368 0.892236
O O4 0.839843 0.292914 0.022657
O O5 0.609260 0.787613 0.159108
O O6 0.742433 0.786934 0.155121
O O7 0.782616 0.000000 0.069099
O O8 0.101386 0.500000 0.356064
O O9 0.199306 0.251105 0.264532
O O10 0.147503 0.251713 0.380617
O O11 0.968834 0.249158 0.417484
O O12 0.467047 0.500000 0.814420
O O13 0.618485 0.744819 0.729503
O O14 0.173540 0.000000 0.832970
O O15 0.174379 0.500000 0.501488
O O16 0.250000 0.250000 0.500000
O O17 0.223831 0.247679 0.425007
O O18 0.755835 0.500000 0.636154
#
# Coordination Sequence:
#
# PCOD8106571 Si02
#       7
#     8   8   8   8   8   8   8
#     4  12  24  40  61  87 118 154 200 249 301 357
#     4  11  24  39  59  87 121 157 199 247 299 356
#     4   9  17  35  62  87 113 151 199 240 279 339
#     4  11  22  39  62  86 119 158 201 249 297 351
#     4  10  21  39  62  87 117 157 201 244 295 351
#     4  10  21  36  60  92 122 154 189 236 290 346
#     4   9  18  35  61  88 114 151 200 243 283 340
#
# _framework density 20.505735000000001
#
# number of rings (size 3 to 8) (size 9 to 14) (size 15 to 20)
#    0.000    1.714    1.429    3.429    2.000    4.571 
#    0.000    1.429    0.000    0.857    0.000    0.000 
#    0.000    0.000    0.000    0.000    0.000    0.000 
#
# Total GULP energy -347280.377522 kJ/mol
# GULP energy per Si atom -12402.870626 kJ/mol
# Density = 2.045906 g / cm^3
# Si number density = 20.505735 Si / 1000 Ang^3
#
#
#
# Elastic Constant Matrix: (Units=GPa)
#
#
# Indices 1 2 3 4 5 6 
#
# 1 164.0797 15.5912 76.6040 -0.0007 -10.2031 -0.0253
# 2 15.5912 30.3243 17.4946 0.0027 -1.7314 -0.0069
# 3 76.6040 17.4946 118.9145 0.0022 -6.5077 0.0114
# 4 -0.0007 0.0027 0.0022 17.8325 0.0007 -4.6193
# 5 -10.2031 -1.7314 -6.5077 0.0007 37.6186 0.0014
# 6 -0.0253 -0.0069 0.0114 -4.6193 0.0014 29.3276
#
#
#
# Elastic Compliance Matrix: (Units=1/GPa)
#
#
# Indices 1 2 3 4 5 6 
#
# 1 0.008840 -0.001338 -0.005421 0.000004 0.001398 0.000010
# 2 -0.001338 0.036259 -0.004443 -0.000003 0.000537 0.000009
# 3 -0.005421 -0.004443 0.012583 -0.000004 0.000502 -0.000011
# 4 0.000004 -0.000003 -0.000004 0.058463 -0.000001 0.009208
# 5 0.001398 0.000537 0.000502 -0.000001 0.027073 0.000000
# 6 0.000010 0.000009 -0.000011 0.009208 0.000000 0.035548
#
#
# Mechanical properties :
#
#
# Convention : Reuss Voigt Hill
#
# Bulk Modulus (GPa) = 28.34693 59.18869 43.76781
# Shear Modulus (GPa) = 23.48209 30.53098 27.00653
#
# Velocity S-wave (km/s) = 3.38767 3.86281 3.63302
# Velocity P-wave (km/s) = 5.39960 6.98729 6.24411
#
# Compressibility (1/GPa) = 0.03527719
#
# Stress axis : x y z
#
# Youngs Moduli (GPa) = 113.12717 27.57960 79.47335
#
# Poissons Ratio (x) = 0.03689 0.43084
# Poissons Ratio (y) = 0.15131 0.35313
# Poissons Ratio (z) = 0.61328 0.12254
#
# Static dielectric constant tensor:
#      x y z
#    x 3.875340 -0.000010 -0.020380 
#    y -0.000010 3.326700 0.000000 
#    z -0.020380 0.000000 3.903920 
# 
# 
# High freq. dielectric constant tensor:
#      x y z
#    x 1.816740 0.000000 -0.001540 
#    y 0.000000 1.765870 0.000000 
#    z -0.001540 0.000000 1.812160 
# 
# From -- ./inp_files/380606.got.cif
#   From: 2010.06.25/outbox.cif.g09.slc.cpg/sg12_191_cif.got.tgz:380606.got - 2010.06.28 00:19:55.
