data_PCOD8106661
_publ_section_title
;
Structure prediction by ZEFSAII (Michael W. Deem and Ramdas Pophale) SiO2 
 PCOD8106661
Probable space group: C 2/M
;
_chemical_formula_sum "Si O2"
_cell_formula_units_Z 40
_cell_length_a 12.104456
_cell_length_b 32.158252
_cell_length_c 5.282827
_cell_angle_alpha 90.000000
_cell_angle_beta 75.553030
_cell_angle_gamma 90.000000
_cell_volume 1991.358471
_symmetry_space_group_name_H-M "C 2/M"
_symmetry_group_IT_number 12
_symmetry_cell_setting 'monoclinic'
loop_
_space_group_symop_operation_xyz
x,y,z
-x,y,-z
-x,-y,-z
x,-y,z
1/2+x,1/2+y,z
1/2-x,1/2+y,-z
1/2-x,1/2-y,-z
1/2+x,1/2-y,z
loop_
_atom_site_type_symbol
_atom_site_label
_atom_site_fract_x
_atom_site_fract_y
_atom_site_fract_z
Si Si1 0.873742 0.863214 0.080086
Si Si2 0.236440 0.620620 0.666256
Si Si3 0.889387 0.698622 0.394217
Si Si4 0.928701 0.452276 0.291608
Si Si5 0.321902 0.273904 0.160797
O O1 0.799379 0.883023 0.899037
O O2 0.822392 0.871151 0.386203
O O3 0.887086 0.813729 0.012222
O O4 0.000000 0.882866 0.000000
O O5 0.137241 0.656286 0.746602
O O6 0.182812 0.575900 0.644730
O O7 0.769541 0.707624 0.593689
O O8 0.913555 0.740394 0.217581
O O9 0.000000 0.690047 0.500000
O O10 0.888231 0.500000 0.320718
O O11 0.000000 0.441034 0.500000
O O12 0.000000 0.442472 0.000000
O O13 0.250000 0.250000 0.000000
#
# Coordination Sequence:
#
# PCOD8106661 Si02
#       5
#     8   8   8   8   8
#     4  11  24  39  62  81 118 164 206 250 298 347
#     4  11  22  41  59  90 121 150 203 249 293 361
#     4  10  22  34  54  78 112 152 194 248 299 347
#     4  10  21  39  66  97 127 158 187 232 308 375
#     4  10  21  37  49  77 110 151 204 243 290 349
#
# _framework density 20.086787999999999
#
# number of rings (size 3 to 8) (size 9 to 14) (size 15 to 20)
#    0.000    1.600    2.000    2.400    2.800    1.600 
#    0.000    0.000    0.000    3.600    0.000    0.000 
#    0.000    0.000    0.000    0.000    0.000    0.000 
#
# Total GULP energy -247894.985808 kJ/mol
# GULP energy per Si atom -12394.749290 kJ/mol
# Density = 2.004107 g / cm^3
# Si number density = 20.086788 Si / 1000 Ang^3
#
#
#
# Elastic Constant Matrix: (Units=GPa)
#
#
# Indices 1 2 3 4 5 6 
#
# 1 105.7660 35.2367 8.1408 0.0000 11.3092 0.0000
# 2 35.2367 88.8145 8.6168 0.0000 -4.3332 0.0000
# 3 8.1408 8.6168 71.9171 0.0000 11.0079 0.0000
# 4 0.0000 0.0000 0.0000 39.5854 0.0000 14.2549
# 5 11.3092 -4.3332 11.0079 0.0000 29.6788 0.0000
# 6 0.0000 0.0000 0.0000 14.2549 0.0000 28.1852
#
#
#
# Elastic Compliance Matrix: (Units=1/GPa)
#
#
# Indices 1 2 3 4 5 6 
#
# 1 0.011625 -0.004869 0.000058 0.000000 -0.005162 0.000000
# 2 -0.004869 0.013582 -0.001764 0.000000 0.004493 0.000000
# 3 0.000058 -0.001764 0.015004 0.000000 -0.005845 0.000000
# 4 0.000000 0.000000 0.000000 0.030887 0.000000 -0.015621
# 5 -0.005162 0.004493 -0.005845 0.000000 0.038485 0.000000
# 6 0.000000 0.000000 0.000000 -0.015621 0.000000 0.043380
#
#
# Mechanical properties :
#
#
# Convention : Reuss Voigt Hill
#
# Bulk Modulus (GPa) = 36.95559 41.16514 39.06036
# Shear Modulus (GPa) = 28.54958 33.79008 31.16983
#
# Velocity S-wave (km/s) = 3.77412 4.10592 3.94351
# Velocity P-wave (km/s) = 6.11799 6.55867 6.34216
#
# Compressibility (1/GPa) = 0.02705950
#
# Stress axis : x y z
#
# Youngs Moduli (GPa) = 86.02412 73.62863 66.64764
#
# Poissons Ratio (x) = 0.35853 -0.00384
# Poissons Ratio (y) = 0.41889 0.11755
# Poissons Ratio (z) = -0.00496 0.12986
#
# Static dielectric constant tensor:
#      x y z
#    x 3.440540 0.000000 0.038800 
#    y 0.000000 3.892690 0.000000 
#    z 0.038800 0.000000 3.262660 
# 
# 
# High freq. dielectric constant tensor:
#      x y z
#    x 1.782270 0.000000 0.010030 
#    y 0.000000 1.774120 0.000000 
#    z 0.010030 0.000000 1.787200 
# 
# From -- ./inp_files/7683.got.cif
#   From: 2010.06.25/outbox.cif.g09.slc.cpg/sg12_4_cif.got.tgz:7683.got - 2010.06.28 00:19:55.
