data_PCOD8106396
_publ_section_title
;
Structure prediction by ZEFSAII (Michael W. Deem and Ramdas Pophale) SiO2 
 PCOD8106396
Probable space group: C 2/M
;
_chemical_formula_sum "Si O2"
_cell_formula_units_Z 64
_cell_length_a 15.539442
_cell_length_b 8.965646
_cell_length_c 30.589215
_cell_angle_alpha 90.000000
_cell_angle_beta 50.412126
_cell_angle_gamma 90.000000
_cell_volume 3284.289769
_symmetry_space_group_name_H-M "C 2/M"
_symmetry_group_IT_number 12
_symmetry_cell_setting 'monoclinic'
loop_
_space_group_symop_operation_xyz
x,y,z
-x,y,-z
-x,-y,-z
x,-y,z
1/2+x,1/2+y,z
1/2-x,1/2+y,-z
1/2-x,1/2-y,-z
1/2+x,1/2-y,z
loop_
_atom_site_type_symbol
_atom_site_label
_atom_site_fract_x
_atom_site_fract_y
_atom_site_fract_z
Si Si1 0.669772 0.177100 0.364657
Si Si2 0.678344 0.825083 0.756429
Si Si3 0.418679 0.824305 0.435075
Si Si4 0.252779 0.324576 0.828975
Si Si5 0.078133 0.323636 0.169049
Si Si6 0.153953 0.172631 0.058393
Si Si7 0.551627 0.328536 0.937580
Si Si8 0.244150 0.675695 0.435094
O O1 0.748787 0.237326 0.301689
O O2 0.544494 0.236544 0.397456
O O3 0.712674 0.236554 0.397495
O O4 0.671073 0.000000 0.363632
O O5 0.718737 0.776786 0.791279
O O6 0.550636 0.775519 0.791348
O O7 0.693295 0.000000 0.743963
O O8 0.360202 0.749985 0.412135
O O9 0.355065 0.777410 0.499988
O O10 0.415813 0.000000 0.429228
O O11 0.270658 0.500000 0.827236
O O12 0.368175 0.240972 0.803762
O O13 0.157136 0.274435 0.893554
O O14 0.091802 0.500000 0.162602
O O15 0.146703 0.252188 0.107208
O O16 0.037132 0.193305 0.071922
O O17 0.184105 0.000000 0.055282
O O18 0.250000 0.250000 0.000000
O O19 0.591358 0.500000 0.928254
O O20 0.500000 0.274364 0.000000
O O21 0.261690 0.500000 0.429235
#
# Coordination Sequence:
#
# PCOD8106396 Si02
#       8
#     8   8   8   8   8   8   8   8
#     4  10  21  36  58  84 113 153 199 241 288 348
#     4  10  24  43  60  82 117 156 195 246 297 348
#     4   9  18  34  56  84 118 154 193 239 292 347
#     4  11  23  41  63  87 113 149 195 241 294 350
#     4  11  23  42  63  84 115 154 194 240 296 351
#     4  11  22  36  59  90 123 155 190 235 288 349
#     4  10  21  37  58  87 120 151 185 231 286 347
#     4   9  18  34  56  84 118 154 193 240 291 344
#
# _framework density 19.486709000000001
#
# number of rings (size 3 to 8) (size 9 to 14) (size 15 to 20)
#    0.000    1.875    1.250    2.250    0.000    7.250 
#    0.000    5.000    0.000    3.750    0.000    0.000 
#    0.000    0.000    0.000    0.000    0.000    0.000 
#
# Total GULP energy -396949.263633 kJ/mol
# GULP energy per Si atom -12404.664489 kJ/mol
# Density = 1.944236 g / cm^3
# Si number density = 19.486709 Si / 1000 Ang^3
#
#
#
# Elastic Constant Matrix: (Units=GPa)
#
#
# Indices 1 2 3 4 5 6 
#
# 1 172.9515 55.4822 78.2755 -0.0001 -1.0911 0.0000
# 2 55.4822 62.5202 42.3703 -0.0003 -2.4639 0.0000
# 3 78.2755 42.3703 117.6360 0.0000 -1.3192 0.0000
# 4 -0.0001 -0.0003 0.0000 34.9382 0.0000 -0.2034
# 5 -1.0911 -2.4639 -1.3192 0.0000 22.4678 0.0000
# 6 0.0000 0.0000 0.0000 -0.2034 0.0000 34.6384
#
#
#
# Elastic Compliance Matrix: (Units=1/GPa)
#
#
# Indices 1 2 3 4 5 6 
#
# 1 0.009517 -0.005512 -0.004352 0.000000 -0.000398 0.000000
# 2 -0.005512 0.024432 -0.005108 0.000000 0.002112 0.000000
# 3 -0.004352 -0.005108 0.013237 0.000000 0.000006 0.000000
# 4 0.000000 0.000000 0.000000 0.028623 0.000000 0.000168
# 5 -0.000398 0.002112 0.000006 0.000000 0.044721 0.000000
# 6 0.000000 0.000000 0.000000 0.000168 0.000000 0.028871
#
#
# Mechanical properties :
#
#
# Convention : Reuss Voigt Hill
#
# Bulk Modulus (GPa) = 58.00243 78.37372 68.18808
# Shear Modulus (GPa) = 27.01357 30.20753 28.61055
#
# Velocity S-wave (km/s) = 3.72729 3.94148 3.83588
# Velocity P-wave (km/s) = 6.95365 7.81153 7.39504
#
# Compressibility (1/GPa) = 0.01724066
#
# Stress axis : x y z
#
# Youngs Moduli (GPa) = 105.07023 40.93027 75.54830
#
# Poissons Ratio (x) = 0.22562 0.32878
# Poissons Ratio (y) = 0.57919 0.38592
# Poissons Ratio (z) = 0.45726 0.20908
#
# Static dielectric constant tensor:
#      x y z
#    x 3.911390 0.000000 0.011600 
#    y 0.000000 3.482200 0.000000 
#    z 0.011600 0.000000 3.440800 
# 
# 
# High freq. dielectric constant tensor:
#      x y z
#    x 1.778430 0.000000 0.000830 
#    y 0.000000 1.753340 0.000000 
#    z 0.000830 0.000000 1.753110 
# 
# From -- ./inp_files/375495.got.cif
#   From: 2010.06.25/outbox.cif.g09.slc.cpg/sg12_188_cif.got.tgz:375495.got - 2010.06.28 00:19:55.
