data_PCOD8106443
_publ_section_title
;
Structure prediction by ZEFSAII (Michael W. Deem and Ramdas Pophale) SiO2 
 PCOD8106443
Probable space group: C 2/M
;
_chemical_formula_sum "Si O2"
_cell_formula_units_Z 48
_cell_length_a 21.544596
_cell_length_b 14.212399
_cell_length_c 12.182089
_cell_angle_alpha 90.000000
_cell_angle_beta 140.373084
_cell_angle_gamma 90.000000
_cell_volume 2379.043692
_symmetry_space_group_name_H-M "C 2/M"
_symmetry_group_IT_number 12
_symmetry_cell_setting 'monoclinic'
loop_
_space_group_symop_operation_xyz
x,y,z
-x,y,-z
-x,-y,-z
x,-y,z
1/2+x,1/2+y,z
1/2-x,1/2+y,-z
1/2-x,1/2-y,-z
1/2+x,1/2-y,z
loop_
_atom_site_type_symbol
_atom_site_label
_atom_site_fract_x
_atom_site_fract_y
_atom_site_fract_z
Si Si1 0.626490 0.395681 0.574218
Si Si2 0.220826 0.829260 0.046803
Si Si3 0.484981 0.605669 0.184938
Si Si4 0.905956 0.604398 0.210580
Si Si5 0.500000 0.740710 0.000000
Si Si6 0.000000 0.256238 0.500000
Si Si7 0.670864 0.823155 0.125526
O O1 0.602102 0.500000 0.588629
O O2 0.575714 0.381761 0.388662
O O3 0.592414 0.312948 0.609793
O O4 0.743061 0.391037 0.717531
O O5 0.307743 0.904319 0.152045
O O6 0.216760 0.779954 0.160718
O O7 0.250000 0.750000 0.000000
O O8 0.114393 0.874613 0.881648
O O9 0.479989 0.500000 0.130557
O O10 0.504486 0.677367 0.113860
O O11 0.952741 0.500000 0.272410
O O12 0.980648 0.678546 0.367271
O O13 0.883897 0.636455 0.056595
O O14 0.406179 0.809188 0.880975
#
# Coordination Sequence:
#
# PCOD8106443 Si02
#       7
#     8   8   8   8   4   4   8
#     4  11  23  37  58  90 121 151 193 246 298 354
#     4   9  17  34  55  83 118 155 190 230 291 349
#     4  10  21  36  58  89 117 151 201 250 293 348
#     4  11  22  37  59  87 122 159 195 240 290 353
#     4  10  21  40  65  78 110 166 198 244 298 342
#     4  12  22  38  58  86 126 158 194 234 294 364
#     4  10  21  39  59  87 115 154 199 241 290 348
#
# _framework density 20.176172999999999
#
# number of rings (size 3 to 8) (size 9 to 14) (size 15 to 20)
#    0.000    1.667    1.667    4.750    2.333    0.667 
#    0.000    1.667    0.000    2.000    0.000    0.000 
#    0.000    0.000    0.000    0.000    0.000    0.000 
#
# Total GULP energy -297429.585032 kJ/mol
# GULP energy per Si atom -12392.899376 kJ/mol
# Density = 2.013025 g / cm^3
# Si number density = 20.176173 Si / 1000 Ang^3
#
#
#
# Elastic Constant Matrix: (Units=GPa)
#
#
# Indices 1 2 3 4 5 6 
#
# 1 104.3569 37.6568 29.6124 0.0000 16.3126 0.0000
# 2 37.6568 126.9943 42.5074 0.0000 4.9058 0.0000
# 3 29.6124 42.5074 103.4944 0.0000 10.9474 0.0000
# 4 0.0000 0.0000 0.0000 27.1649 0.0000 3.5779
# 5 16.3126 4.9058 10.9474 0.0000 22.2562 0.0000
# 6 0.0000 0.0000 0.0000 3.5779 0.0000 22.3163
#
#
#
# Elastic Compliance Matrix: (Units=1/GPa)
#
#
# Indices 1 2 3 4 5 6 
#
# 1 0.012220 -0.002816 -0.001538 0.000000 -0.007579 0.000000
# 2 -0.002816 0.009779 -0.003377 0.000000 0.001569 0.000000
# 3 -0.001538 -0.003377 0.011911 0.000000 -0.003987 0.000000
# 4 0.000000 0.000000 0.000000 0.037606 0.000000 -0.006029
# 5 -0.007579 0.001569 -0.003987 0.000000 0.052102 0.000000
# 6 0.000000 0.000000 0.000000 -0.006029 0.000000 0.045777
#
#
# Mechanical properties :
#
#
# Convention : Reuss Voigt Hill
#
# Bulk Modulus (GPa) = 54.20524 61.59985 57.90255
# Shear Modulus (GPa) = 26.17720 29.35207 27.76463
#
# Velocity S-wave (km/s) = 3.60590 3.81831 3.71362
# Velocity P-wave (km/s) = 6.65289 7.07365 6.86649
#
# Compressibility (1/GPa) = 0.01844840
#
# Stress axis : x y z
#
# Youngs Moduli (GPa) = 81.83450 102.26029 83.95518
#
# Poissons Ratio (x) = 0.28795 0.12914
# Poissons Ratio (y) = 0.23043 0.28350
# Poissons Ratio (z) = 0.12588 0.34531
#
# Static dielectric constant tensor:
#      x y z
#    x 3.760940 0.000000 0.305920 
#    y 0.000000 3.939440 0.000000 
#    z 0.305920 0.000000 3.595020 
# 
# 
# High freq. dielectric constant tensor:
#      x y z
#    x 1.761520 0.000000 0.013010 
#    y 0.000000 1.797930 0.000000 
#    z 0.013010 0.000000 1.778800 
# 
# From -- ./inp_files/167656.got.cif
#   From: 2010.06.25/outbox.cif.g09.slc.cpg/sg12_84_cif.got.tgz:167656.got - 2010.06.28 00:19:55.
