data_PCOD8106785
_publ_section_title
;
Structure prediction by ZEFSAII (Michael W. Deem and Ramdas Pophale) SiO2 
 PCOD8106785
Probable space group: C 2/M
;
_chemical_formula_sum "Si O2"
_cell_formula_units_Z 56
_cell_length_a 19.533527
_cell_length_b 8.777979
_cell_length_c 27.476014
_cell_angle_alpha 90.000000
_cell_angle_beta 38.300589
_cell_angle_gamma 90.000000
_cell_volume 2919.923450
_symmetry_space_group_name_H-M "C 2/M"
_symmetry_group_IT_number 12
_symmetry_cell_setting 'monoclinic'
loop_
_space_group_symop_operation_xyz
x,y,z
-x,y,-z
-x,-y,-z
x,-y,z
1/2+x,1/2+y,z
1/2-x,1/2+y,-z
1/2-x,1/2-y,-z
1/2+x,1/2-y,z
loop_
_atom_site_type_symbol
_atom_site_label
_atom_site_fract_x
_atom_site_fract_y
_atom_site_fract_z
Si Si1 0.598426 0.322076 0.480543
Si Si2 0.302020 0.324056 0.314988
Si Si3 0.228204 0.682444 0.152104
Si Si4 0.061812 0.834502 0.016021
Si Si5 0.130063 0.320993 0.562302
Si Si6 0.995347 0.824594 0.279819
Si Si7 0.650128 0.318256 0.819332
O O1 0.500000 0.275695 0.500000
O O2 0.600704 0.500000 0.490877
O O3 0.714906 0.276378 0.392620
O O4 0.574323 0.232167 0.543447
O O5 0.264114 0.500000 0.337474
O O6 0.420994 0.303656 0.273444
O O7 0.308527 0.260951 0.256194
O O8 0.217140 0.500000 0.155290
O O9 0.115897 0.763394 0.199490
O O10 0.262604 0.732137 0.187894
O O11 0.320508 0.745265 0.061838
O O12 0.973720 0.748671 0.100693
O O13 0.089156 0.000000 0.023427
O O14 0.000000 0.859019 0.000000
O O15 0.143958 0.500000 0.554390
O O16 0.250000 0.250000 0.500000
O O17 0.052074 0.273111 0.649631
O O18 0.000216 0.000000 0.293276
O O19 0.638200 0.500000 0.826357
#
# Coordination Sequence:
#
# PCOD8106785 Si02
#       7
#     8   8   8   8   8   8   8
#     4  11  25  42  60  85 116 147 182 231 283 331
#     4  10  21  37  56  78 108 149 190 229 275 329
#     4   9  17  31  55  84 107 138 184 235 280 326
#     4   7  11  24  49  79 108 134 174 231 281 324
#     4  12  24  41  64  85 109 147 190 231 277 333
#     4  11  23  37  53  78 114 151 184 227 277 330
#     4   8  15  30  54  82 106 137 185 234 279 329
#
# _framework density 19.178583
#
# number of rings (size 3 to 8) (size 9 to 14) (size 15 to 20)
#    0.000    2.286    1.429    3.857    2.000    1.714 
#    0.000    0.714    0.000    4.714    0.000    0.000 
#    0.000    0.000    0.000    0.000    0.000    0.000 
#
# Total GULP energy -347045.691876 kJ/mol
# GULP energy per Si atom -12394.488996 kJ/mol
# Density = 1.913493 g / cm^3
# Si number density = 19.178583 Si / 1000 Ang^3
#
#
#
# Elastic Constant Matrix: (Units=GPa)
#
#
# Indices 1 2 3 4 5 6 
#
# 1 70.6739 27.4236 12.7670 -0.0001 -12.0528 0.0003
# 2 27.4236 67.7324 6.8564 -0.0003 -8.1284 0.0008
# 3 12.7670 6.8564 54.3299 0.0000 -16.2620 0.0002
# 4 -0.0001 -0.0003 0.0000 12.7643 0.0000 -3.7765
# 5 -12.0528 -8.1284 -16.2620 0.0000 36.3582 -0.0001
# 6 0.0003 0.0008 0.0002 -3.7765 -0.0001 22.5327
#
#
#
# Elastic Compliance Matrix: (Units=1/GPa)
#
#
# Indices 1 2 3 4 5 6 
#
# 1 0.017671 -0.006516 -0.002324 0.000000 0.003362 0.000000
# 2 -0.006516 0.017625 -0.000185 0.000000 0.001697 0.000000
# 3 -0.002324 -0.000185 0.021628 0.000000 0.008862 0.000000
# 4 0.000000 0.000000 0.000000 0.082431 0.000000 0.013816
# 5 0.003362 0.001697 0.008862 0.000000 0.032962 0.000000
# 6 0.000000 0.000000 0.000000 0.013816 0.000000 0.046695
#
#
# Mechanical properties :
#
#
# Convention : Reuss Voigt Hill
#
# Bulk Modulus (GPa) = 25.72419 31.87002 28.79711
# Shear Modulus (GPa) = 19.99844 24.04366 22.02105
#
# Velocity S-wave (km/s) = 3.23266 3.54456 3.39220
# Velocity P-wave (km/s) = 5.23217 5.77975 5.51276
#
# Compressibility (1/GPa) = 0.03887391
#
# Stress axis : x y z
#
# Youngs Moduli (GPa) = 56.58979 56.73880 46.23631
#
# Poissons Ratio (x) = 0.36971 0.10745
# Poissons Ratio (y) = 0.36874 0.00855
# Poissons Ratio (z) = 0.13151 0.01049
#
# Static dielectric constant tensor:
#      x y z
#    x 3.530730 0.000000 0.085950 
#    y 0.000000 3.213540 0.000000 
#    z 0.085950 0.000000 3.864460 
# 
# 
# High freq. dielectric constant tensor:
#      x y z
#    x 1.735890 0.000000 -0.004320 
#    y 0.000000 1.714780 0.000000 
#    z -0.004320 0.000000 1.760490 
# 
# From -- ./inp_files/362931.got.cif
#   From: 2010.06.25/outbox.cif.g09.slc.cpg/sg12_182_cif.got.tgz:362931.got - 2010.06.28 00:19:55.
