data_PCOD8106047
_publ_section_title
;
Structure prediction by ZEFSAII (Michael W. Deem and Ramdas Pophale) SiO2 
 PCOD8106047
Probable space group: C 2/M
;
_chemical_formula_sum "Si O2"
_cell_formula_units_Z 64
_cell_length_a 16.900391
_cell_length_b 21.834599
_cell_length_c 18.816479
_cell_angle_alpha 90.000000
_cell_angle_beta 27.766477
_cell_angle_gamma 90.000000
_cell_volume 3234.775529
_symmetry_space_group_name_H-M "C 2/M"
_symmetry_group_IT_number 12
_symmetry_cell_setting 'monoclinic'
loop_
_space_group_symop_operation_xyz
x,y,z
-x,y,-z
-x,-y,-z
x,-y,z
1/2+x,1/2+y,z
1/2-x,1/2+y,-z
1/2-x,1/2-y,-z
1/2+x,1/2-y,z
loop_
_atom_site_type_symbol
_atom_site_label
_atom_site_fract_x
_atom_site_fract_y
_atom_site_fract_z
Si Si1 0.730517 0.623072 0.355956
Si Si2 0.484815 0.351425 0.160904
Si Si3 0.028684 0.281056 0.893126
Si Si4 0.268335 0.569588 0.127195
Si Si5 0.758608 0.872882 0.924799
Si Si6 0.491677 0.931619 0.775603
Si Si7 0.692761 0.070383 0.348790
Si Si8 0.894866 0.929976 0.675004
O O1 0.736896 0.572690 0.286852
O O2 0.542485 0.619889 0.539461
O O3 0.792306 0.685895 0.269117
O O4 0.854661 0.611337 0.323498
O O5 0.454304 0.283631 0.157956
O O6 0.573695 0.349152 0.167561
O O7 0.305456 0.387449 0.311485
O O8 0.597397 0.384814 0.012613
O O9 0.866681 0.316372 0.989907
O O10 0.000000 0.274603 0.000000
O O11 0.317583 0.500000 0.066639
O O12 0.078130 0.584036 0.248003
O O13 0.272088 0.577681 0.207946
O O14 0.803401 0.908029 0.817833
O O15 0.667693 0.923697 0.045131
O O16 0.561886 0.000000 0.723655
O O17 0.500000 0.094394 0.500000
O O18 0.698407 0.000000 0.370848
O O19 0.961458 0.000000 0.630205
#
# Coordination Sequence:
#
# PCOD8106047 Si02
#       8
#     8   8   8   8   8   8   8   8
#     4  10  21  36  54  83 118 154 197 239 286 351
#     4  11  22  38  61  86 113 156 203 240 297 355
#     4  11  21  40  60  82 115 160 200 247 295 341
#     4   9  18  34  56  83 112 144 189 247 298 347
#     4  10  22  37  56  88 117 145 196 248 290 344
#     4   9  17  31  53  80 110 143 184 235 291 347
#     4  10  21  37  56  84 119 150 192 250 302 356
#     4  11  21  37  59  84 119 158 191 236 301 357
#
# _framework density 19.784988999999999
#
# number of rings (size 3 to 8) (size 9 to 14) (size 15 to 20)
#    0.000    1.875    1.250    3.750    0.000    3.500 
#    2.250    3.750    0.000    0.000    0.000    0.000 
#    0.000    0.000    0.000    0.000    0.000    0.000 
#
# Total GULP energy -396615.861328 kJ/mol
# GULP energy per Si atom -12394.245666 kJ/mol
# Density = 1.973996 g / cm^3
# Si number density = 19.784989 Si / 1000 Ang^3
#
#
#
# Elastic Constant Matrix: (Units=GPa)
#
#
# Indices 1 2 3 4 5 6 
#
# 1 76.1347 18.7635 5.1960 0.2093 -23.1950 0.0196
# 2 18.7635 88.9174 28.0096 0.2629 -13.4811 0.0133
# 3 5.1960 28.0096 52.8882 0.3234 -17.2691 0.0552
# 4 0.2093 0.2629 0.3234 -1.6155 -0.0490 -12.2585
# 5 -23.1950 -13.4811 -17.2691 -0.0490 29.6115 -0.0108
# 6 0.0196 0.0133 0.0552 -12.2585 -0.0108 22.7377
#
#
#
# Elastic Compliance Matrix: (Units=1/GPa)
#
#
# Indices 1 2 3 4 5 6 
#
# 1 0.018401 -0.003044 0.005009 0.000501 0.015950 0.000251
# 2 -0.003044 0.014146 -0.007249 0.000073 -0.000172 0.000051
# 3 0.005009 -0.007249 0.027734 0.000975 0.016799 0.000466
# 4 0.000501 0.000073 0.000975 -0.121536 0.000769 -0.065526
# 5 0.015950 -0.000172 0.016799 0.000769 0.055984 0.000387
# 6 0.000251 0.000051 0.000466 -0.065526 0.000387 0.008652
#
#
# Mechanical properties :
#
#
# Convention : Reuss Voigt Hill
#
# Bulk Modulus (GPa) = 20.11602 35.76429 27.94015
# Shear Modulus (GPa) = 163.82994 21.21149 92.52071
#
# Velocity S-wave (km/s) = 9.10961 3.27785 6.84577
# Velocity P-wave (km/s) = 10.99254 5.69574 8.75435
#
# Compressibility (1/GPa) = 0.04971162
#
# Stress axis : x y z
#
# Youngs Moduli (GPa) = 54.34562 70.69105 36.05719
#
# Poissons Ratio (x) = 0.21519 -0.18061
# Poissons Ratio (y) = 0.16544 0.26139
# Poissons Ratio (z) = -0.27222 0.51246
#
# Static dielectric constant tensor:
#      x y z
#    x 3.947890 -0.000090 -0.176260 
#    y -0.000090 3.458890 0.000230 
#    z -0.176260 0.000230 3.448880 
# 
# 
# High freq. dielectric constant tensor:
#      x y z
#    x 1.788580 -0.000010 -0.010500 
#    y -0.000010 1.754330 0.000020 
#    z -0.010500 0.000020 1.756910 
# 
# From -- ./inp_files/272831.got.cif
#   From: 2010.06.25/outbox.cif.g09.slc.cpg/sg12_137_cif.got.tgz:272831.got - 2010.06.28 00:19:55.
