data_PCOD8106786
_publ_section_title
;
Structure prediction by ZEFSAII (Michael W. Deem and Ramdas Pophale) SiO2 
 PCOD8106786
Probable space group: C 2/M
;
_chemical_formula_sum "Si O2"
_cell_formula_units_Z 48
_cell_length_a 9.002226
_cell_length_b 12.731742
_cell_length_c 19.541905
_cell_angle_alpha 90.000000
_cell_angle_beta 77.612728
_cell_angle_gamma 90.000000
_cell_volume 2187.634180
_symmetry_space_group_name_H-M "C 2/M"
_symmetry_group_IT_number 12
_symmetry_cell_setting 'monoclinic'
loop_
_space_group_symop_operation_xyz
x,y,z
-x,y,-z
-x,-y,-z
x,-y,z
1/2+x,1/2+y,z
1/2-x,1/2+y,-z
1/2-x,1/2-y,-z
1/2+x,1/2-y,z
loop_
_atom_site_type_symbol
_atom_site_label
_atom_site_fract_x
_atom_site_fract_y
_atom_site_fract_z
Si Si1 0.877436 0.803991 0.753130
Si Si2 0.330265 0.375513 0.015437
Si Si3 0.535658 0.878640 0.417484
Si Si4 0.100506 0.621976 0.154581
Si Si5 0.305473 0.119620 0.109237
Si Si6 0.328472 0.259442 0.341402
O O1 0.882898 0.680947 0.774964
O O2 0.835597 0.873351 0.823547
O O3 0.750177 0.816167 0.707166
O O4 0.043274 0.833650 0.707056
O O5 0.336246 0.500000 0.001097
O O6 0.250404 0.352489 0.095634
O O7 0.500000 0.328915 0.000000
O O8 0.237513 0.325202 0.959340
O O9 0.500000 0.863741 0.500000
O O10 0.408014 0.815227 0.388781
O O11 0.704513 0.834421 0.388079
O O12 0.529579 0.000000 0.396068
O O13 0.079836 0.500000 0.173173
O O14 0.956187 0.669817 0.127498
O O15 0.344957 0.000000 0.089542
#
# Coordination Sequence:
#
# PCOD8106786 Si02
#       6
#     8   8   8   8   8   8
#     4  11  22  38  57  89 125 162 205 252 315 382
#     4   9  19  34  54  82 109 146 206 274 327 372
#     4  10  22  44  74 102 132 175 216 255 313 374
#     4  10  21  38  59  78 110 160 210 262 321 385
#     4  10  21  37  56  78 113 157 205 259 320 382
#     4  10  23  40  63  97 138 166 207 266 310 378
#
# _framework density 21.941510000000001
#
# number of rings (size 3 to 8) (size 9 to 14) (size 15 to 20)
#    0.000    2.000    1.667    1.000    2.333    6.667 
#    0.000    2.500    0.000    9.000    0.000    0.000 
#    0.000    0.000    0.000    0.000    0.000    0.000 
#
# Total GULP energy -297624.547016 kJ/mol
# GULP energy per Si atom -12401.022792 kJ/mol
# Density = 2.189157 g / cm^3
# Si number density = 21.941510 Si / 1000 Ang^3
#
#
#
# Elastic Constant Matrix: (Units=GPa)
#
#
# Indices 1 2 3 4 5 6 
#
# 1 150.2766 26.9918 48.7290 0.0000 -1.4534 0.0000
# 2 26.9918 57.3075 24.4929 0.0000 8.1104 0.0000
# 3 48.7290 24.4929 100.3647 0.0000 -0.6664 0.0000
# 4 0.0000 0.0000 0.0000 30.4226 0.0000 -3.0383
# 5 -1.4534 8.1104 -0.6664 0.0000 35.8523 0.0000
# 6 0.0000 0.0000 0.0000 -3.0383 0.0000 25.1983
#
#
#
# Elastic Compliance Matrix: (Units=1/GPa)
#
#
# Indices 1 2 3 4 5 6 
#
# 1 0.008210 -0.002552 -0.003358 0.000000 0.000848 0.000000
# 2 -0.002552 0.021027 -0.003925 0.000000 -0.004933 0.000000
# 3 -0.003358 -0.003925 0.012558 0.000000 0.000985 0.000000
# 4 0.000000 0.000000 0.000000 0.033271 0.000000 0.004012
# 5 0.000848 -0.004933 0.000985 0.000000 0.029061 0.000000
# 6 0.000000 0.000000 0.000000 0.004012 0.000000 0.040169
#
#
# Mechanical properties :
#
#
# Convention : Reuss Voigt Hill
#
# Bulk Modulus (GPa) = 45.19555 56.48623 50.84089
# Shear Modulus (GPa) = 29.18160 32.14364 30.66262
#
# Velocity S-wave (km/s) = 3.65084 3.83164 3.74233
# Velocity P-wave (km/s) = 6.19793 6.73611 6.47262
#
# Compressibility (1/GPa) = 0.02212607
#
# Stress axis : x y z
#
# Youngs Moduli (GPa) = 121.80776 47.55700 79.62836
#
# Poissons Ratio (x) = 0.12135 0.26736
# Poissons Ratio (y) = 0.31081 0.31257
# Poissons Ratio (z) = 0.40898 0.18668
#
# Static dielectric constant tensor:
#      x y z
#    x 4.177370 0.000000 0.046160 
#    y 0.000000 3.781210 0.000000 
#    z 0.046160 0.000000 4.010940 
# 
# 
# High freq. dielectric constant tensor:
#      x y z
#    x 1.877240 0.000000 -0.000940 
#    y 0.000000 1.852800 0.000000 
#    z -0.000940 0.000000 1.865740 
# 
# From -- ./inp_files/255779.got.cif
#   From: 2010.06.25/outbox.cif.g09.slc.cpg/sg12_128_cif.got.tgz:255779.got - 2010.06.28 00:19:55.
