data_PCOD8106537
_publ_section_title
;
Structure prediction by ZEFSAII (Michael W. Deem and Ramdas Pophale) SiO2 
 PCOD8106537
Probable space group: C 2/M
;
_chemical_formula_sum "Si O2"
_cell_formula_units_Z 56
_cell_length_a 7.430068
_cell_length_b 22.047306
_cell_length_c 19.405950
_cell_angle_alpha 90.000000
_cell_angle_beta 58.350388
_cell_angle_gamma 90.000000
_cell_volume 2706.151049
_symmetry_space_group_name_H-M "C 2/M"
_symmetry_group_IT_number 12
_symmetry_cell_setting 'monoclinic'
loop_
_space_group_symop_operation_xyz
x,y,z
-x,y,-z
-x,-y,-z
x,-y,z
1/2+x,1/2+y,z
1/2-x,1/2+y,-z
1/2-x,1/2-y,-z
1/2+x,1/2-y,z
loop_
_atom_site_type_symbol
_atom_site_label
_atom_site_fract_x
_atom_site_fract_y
_atom_site_fract_z
Si Si1 0.163451 0.932006 0.666981
Si Si2 0.691432 0.704189 0.909962
Si Si3 0.090315 0.662594 0.911413
Si Si4 0.716290 0.801658 0.606693
Si Si5 0.813916 0.432453 0.212467
Si Si6 0.855721 0.632839 0.757227
Si Si7 0.829097 0.828628 0.434337
O O1 0.227292 0.908140 0.729533
O O2 0.250844 0.888093 0.589802
O O3 0.912251 0.933096 0.705783
O O4 0.255637 0.000000 0.638900
O O5 0.903605 0.681350 0.899698
O O6 0.725704 0.776575 0.897206
O O7 0.680789 0.669410 0.838478
O O8 0.500000 0.687776 0.000000
O O9 0.218669 0.609971 0.847963
O O10 0.000000 0.635230 0.000000
O O11 0.502302 0.818053 0.689271
O O12 0.709329 0.829639 0.531357
O O13 0.742039 0.729147 0.596720
O O14 0.917499 0.827380 0.607408
O O15 0.876017 0.500000 0.175284
O O16 0.995731 0.410637 0.227588
#
# Coordination Sequence:
#
# PCOD8106537 Si02
#       7
#     8   8   8   8   8   8   8
#     4  11  24  40  63  88 123 166 204 246 292 362
#     4  10  22  36  57  92 121 152 191 251 306 359
#     4  10  21  36  60  83 118 155 193 248 306 357
#     4  10  21  38  64  93 121 160 189 264 297 365
#     4  10  23  41  58  85 121 158 207 247 290 356
#     4  11  23  39  66  88 119 159 204 249 305 350
#     4  10  21  40  61  91 130 151 204 242 314 351
#
# _framework density 20.693597
#
# number of rings (size 3 to 8) (size 9 to 14) (size 15 to 20)
#    0.000    1.714    1.429    3.000    6.000    3.143 
#    0.000    3.571    0.000    2.143    0.000    0.000 
#    0.000    0.000    0.000    0.000    0.000    0.000 
#
# Total GULP energy -347166.705181 kJ/mol
# GULP energy per Si atom -12398.810899 kJ/mol
# Density = 2.064650 g / cm^3
# Si number density = 20.693597 Si / 1000 Ang^3
#
#
#
# Elastic Constant Matrix: (Units=GPa)
#
#
# Indices 1 2 3 4 5 6 
#
# 1 46.4433 30.1224 24.0938 0.0000 7.9432 0.0000
# 2 30.1224 127.5582 68.9721 0.0000 20.1022 0.0000
# 3 24.0938 68.9721 114.6439 0.0000 9.0951 0.0000
# 4 0.0000 0.0000 0.0000 24.3148 0.0000 -1.2697
# 5 7.9432 20.1022 9.0951 0.0000 31.8229 0.0000
# 6 0.0000 0.0000 0.0000 -1.2697 0.0000 27.8401
#
#
#
# Elastic Compliance Matrix: (Units=1/GPa)
#
#
# Indices 1 2 3 4 5 6 
#
# 1 0.026216 -0.004235 -0.002717 0.000000 -0.003092 0.000000
# 2 -0.004235 0.013313 -0.006688 0.000000 -0.005441 0.000000
# 3 -0.002717 -0.006688 0.013228 0.000000 0.001122 0.000000
# 4 0.000000 0.000000 0.000000 0.041225 0.000000 0.001880
# 5 -0.003092 -0.005441 0.001122 0.000000 0.035312 0.000000
# 6 0.000000 0.000000 0.000000 0.001880 0.000000 0.036005
#
#
# Mechanical properties :
#
#
# Convention : Reuss Voigt Hill
#
# Bulk Modulus (GPa) = 39.24746 59.44690 49.34718
# Shear Modulus (GPa) = 24.86665 27.82602 26.34633
#
# Velocity S-wave (km/s) = 3.47026 3.67095 3.57201
# Velocity P-wave (km/s) = 5.92149 6.83794 6.39615
#
# Compressibility (1/GPa) = 0.02547936
#
# Stress axis : x y z
#
# Youngs Moduli (GPa) = 38.14408 75.11279 75.59616
#
# Poissons Ratio (x) = 0.31807 0.20537
# Poissons Ratio (y) = 0.16153 0.50558
# Poissons Ratio (z) = 0.10363 0.50235
#
# Static dielectric constant tensor:
#      x y z
#    x 3.731310 0.000000 0.137540 
#    y 0.000000 4.320740 0.000000 
#    z 0.137540 0.000000 3.557380 
# 
# 
# High freq. dielectric constant tensor:
#      x y z
#    x 1.819790 0.000000 0.007000 
#    y 0.000000 1.801460 0.000000 
#    z 0.007000 0.000000 1.805400 
# 
# From -- ./inp_files/301649.got.cif
#   From: 2010.06.25/outbox.cif.g09.slc.cpg/sg12_151_cif.got.tgz:301649.got - 2010.06.28 00:19:55.
