data_PCOD8106331
_publ_section_title
;
Structure prediction by ZEFSAII (Michael W. Deem and Ramdas Pophale) SiO2 
 PCOD8106331
Probable space group: C 2/M
;
_chemical_formula_sum "Si O2"
_cell_formula_units_Z 56
_cell_length_a 26.755763
_cell_length_b 9.007584
_cell_length_c 11.801502
_cell_angle_alpha 90.000000
_cell_angle_beta 76.564168
_cell_angle_gamma 90.000000
_cell_volume 2766.374317
_symmetry_space_group_name_H-M "C 2/M"
_symmetry_group_IT_number 12
_symmetry_cell_setting 'monoclinic'
loop_
_space_group_symop_operation_xyz
x,y,z
-x,y,-z
-x,-y,-z
x,-y,z
1/2+x,1/2+y,z
1/2-x,1/2+y,-z
1/2-x,1/2-y,-z
1/2+x,1/2-y,z
loop_
_atom_site_type_symbol
_atom_site_label
_atom_site_fract_x
_atom_site_fract_y
_atom_site_fract_z
Si Si1 0.902173 0.670577 0.301767
Si Si2 0.409963 0.324339 0.822954
Si Si3 0.119732 0.327355 0.939097
Si Si4 0.005693 0.824213 0.624450
Si Si5 0.725579 0.669323 0.907138
Si Si6 0.804130 0.672987 0.487568
Si Si7 0.173811 0.667949 0.276131
O O1 0.911952 0.500000 0.330054
O O2 0.910016 0.695344 0.163584
O O3 0.941721 0.770287 0.348952
O O4 0.844136 0.716613 0.367518
O O5 0.410442 0.500000 0.837917
O O6 0.457954 0.266453 0.724224
O O7 0.357587 0.277364 0.788490
O O8 0.413311 0.249588 0.944734
O O9 0.127098 0.500000 0.964476
O O10 0.175004 0.253995 0.895656
O O11 0.000000 0.760862 0.500000
O O12 0.006617 0.000000 0.621577
O O13 0.711658 0.500000 0.946623
O O14 0.765840 0.676231 0.783568
O O15 0.750000 0.750000 0.000000
O O16 0.791995 0.500000 0.495323
O O17 0.750000 0.750000 0.500000
O O18 0.831307 0.720145 0.591389
O O19 0.153222 0.500000 0.268934
#
# Coordination Sequence:
#
# PCOD8106331 Si02
#       7
#     8   8   8   8   8   8   8
#     4  10  23  41  62  88 119 158 199 241 292 350
#     4  11  23  38  60  88 115 150 196 243 295 354
#     4  11  23  39  58  85 122 159 199 245 293 350
#     4  10  23  43  65  90 118 149 192 245 301 358
#     4  11  21  34  55  85 120 160 200 240 291 348
#     4  10  21  38  59  87 119 153 195 239 288 348
#     4  10  21  36  57  85 118 153 193 243 294 347
#
# _framework density 20.243103000000001
#
# number of rings (size 3 to 8) (size 9 to 14) (size 15 to 20)
#    0.000    1.571    1.429    3.000    0.000    4.857 
#    0.000    2.857    0.000    0.000    0.000    0.000 
#    0.000    0.000    0.000    0.000    0.000    0.000 
#
# Total GULP energy -347301.143694 kJ/mol
# GULP energy per Si atom -12403.612275 kJ/mol
# Density = 2.019703 g / cm^3
# Si number density = 20.243103 Si / 1000 Ang^3
#
#
#
# Elastic Constant Matrix: (Units=GPa)
#
#
# Indices 1 2 3 4 5 6 
#
# 1 95.1616 31.6134 45.1077 0.0000 -1.7457 0.0000
# 2 31.6134 74.5787 44.6564 0.0000 2.5292 0.0000
# 3 45.1077 44.6564 148.5344 0.0000 -2.4529 0.0000
# 4 0.0000 0.0000 0.0000 28.6187 0.0000 0.1212
# 5 -1.7457 2.5292 -2.4529 0.0000 32.6181 0.0000
# 6 0.0000 0.0000 0.0000 0.1212 0.0000 35.6078
#
#
#
# Elastic Compliance Matrix: (Units=1/GPa)
#
#
# Indices 1 2 3 4 5 6 
#
# 1 0.013155 -0.003926 -0.002802 0.000000 0.000798 0.000000
# 2 -0.003926 0.017612 -0.004134 0.000000 -0.001887 0.000000
# 3 -0.002802 -0.004134 0.008840 0.000000 0.000835 0.000000
# 4 0.000000 0.000000 0.000000 0.034943 0.000000 -0.000119
# 5 0.000798 -0.001887 0.000835 0.000000 0.030910 0.000000
# 6 0.000000 0.000000 0.000000 -0.000119 0.000000 0.028084
#
#
# Mechanical properties :
#
#
# Convention : Reuss Voigt Hill
#
# Bulk Modulus (GPa) = 55.91465 62.33663 59.12564
# Shear Modulus (GPa) = 31.01196 32.49541 31.75369
#
# Velocity S-wave (km/s) = 3.91829 4.01091 3.96487
# Velocity P-wave (km/s) = 6.93918 7.23262 7.08742
#
# Compressibility (1/GPa) = 0.01788440
#
# Stress axis : x y z
#
# Youngs Moduli (GPa) = 76.01506 56.77897 113.12355
#
# Poissons Ratio (x) = 0.22291 0.31692
# Poissons Ratio (y) = 0.29843 0.46765
# Poissons Ratio (z) = 0.21296 0.23472
#
# Static dielectric constant tensor:
#      x y z
#    x 3.468550 0.000000 -0.144000 
#    y 0.000000 3.701560 0.000000 
#    z -0.144000 0.000000 4.068210 
# 
# 
# High freq. dielectric constant tensor:
#      x y z
#    x 1.781900 0.000000 -0.002310 
#    y 0.000000 1.788510 0.000000 
#    z -0.002310 0.000000 1.810540 
# 
# From -- ./inp_files/180832.got.cif
#   From: 2010.06.25/outbox.cif.g09.slc.cpg/sg12_91_cif.got.tgz:180832.got - 2010.06.28 00:19:55.
