data_PCOD8106576
_publ_section_title
;
Structure prediction by ZEFSAII (Michael W. Deem and Ramdas Pophale) SiO2 
 PCOD8106576
Probable space group: C 2/M
;
_chemical_formula_sum "Si O2"
_cell_formula_units_Z 64
_cell_length_a 14.649680
_cell_length_b 15.887807
_cell_length_c 16.987541
_cell_angle_alpha 90.000000
_cell_angle_beta 130.880386
_cell_angle_gamma 90.000000
_cell_volume 2989.433942
_symmetry_space_group_name_H-M "C 2/M"
_symmetry_group_IT_number 12
_symmetry_cell_setting 'monoclinic'
loop_
_space_group_symop_operation_xyz
x,y,z
-x,y,-z
-x,-y,-z
x,-y,z
1/2+x,1/2+y,z
1/2-x,1/2+y,-z
1/2-x,1/2-y,-z
1/2+x,1/2-y,z
loop_
_atom_site_type_symbol
_atom_site_label
_atom_site_fract_x
_atom_site_fract_y
_atom_site_fract_z
Si Si1 0.522879 0.594827 0.292498
Si Si2 0.737473 0.653204 0.507648
Si Si3 0.972223 0.596520 0.567533
Si Si4 0.681327 0.721386 0.073209
Si Si5 0.746242 0.094361 0.161474
Si Si6 0.364127 0.868924 0.737229
Si Si7 0.546471 0.696469 0.153440
Si Si8 0.894316 0.595400 0.204557
O O1 0.560779 0.500000 0.312808
O O2 0.601360 0.635408 0.405805
O O3 0.387540 0.611669 0.243551
O O4 0.549097 0.622159 0.217711
O O5 0.750000 0.750000 0.500000
O O6 0.764049 0.624629 0.612020
O O7 0.830892 0.604886 0.504275
O O8 0.009148 0.500000 0.582320
O O9 0.056315 0.633463 0.684662
O O10 0.000000 0.642421 0.500000
O O11 0.692893 0.823546 0.086806
O O12 0.626428 0.679075 0.120971
O O13 0.800548 0.666358 0.120511
O O14 0.592305 0.711129 0.949418
O O15 0.691941 0.088182 0.217885
O O16 0.720608 0.000000 0.108409
O O17 0.394646 0.772454 0.766897
O O18 0.490066 0.914198 0.787175
O O19 0.838194 0.500000 0.178815
#
# Coordination Sequence:
#
# PCOD8106576 Si02
#       8
#     8   8   8   8   8   8   8   8
#     4  11  24  40  62  92 129 166 208 255 310 379
#     4  11  22  38  59  91 123 163 207 250 306 370
#     4   9  20  36  56  84 120 158 200 250 301 359
#     4  10  23  41  67  90 127 160 205 264 313 380
#     4  10  23  42  64  92 124 167 212 257 309 368
#     4  10  21  41  64  86 125 164 211 259 303 365
#     4  10  22  43  62  92 120 165 205 254 321 369
#     4  10  21  36  60  93 122 159 206 254 310 368
#
# _framework density 21.408736000000001
#
# number of rings (size 3 to 8) (size 9 to 14) (size 15 to 20)
#    0.000    1.875    1.250    1.500    3.500    5.000 
#    0.000    9.375    0.000    0.000    0.000    0.000 
#    0.000    0.000    0.000    0.000    0.000    0.000 
#
# Total GULP energy -396553.291171 kJ/mol
# GULP energy per Si atom -12392.290349 kJ/mol
# Density = 2.136001 g / cm^3
# Si number density = 21.408736 Si / 1000 Ang^3
#
#
#
# Elastic Constant Matrix: (Units=GPa)
#
#
# Indices 1 2 3 4 5 6 
#
# 1 73.3922 19.4021 31.8721 0.0000 0.8783 0.0000
# 2 19.4021 89.9826 21.8835 0.0000 4.4204 0.0000
# 3 31.8721 21.8835 101.2294 0.0000 9.0554 0.0000
# 4 0.0000 0.0000 0.0000 -43.7858 0.0000 10.1288
# 5 0.8783 4.4204 9.0554 0.0000 27.0781 0.0000
# 6 0.0000 0.0000 0.0000 10.1288 0.0000 26.1561
#
#
#
# Elastic Compliance Matrix: (Units=1/GPa)
#
#
# Indices 1 2 3 4 5 6 
#
# 1 0.016310 -0.002436 -0.004739 0.000000 0.001453 0.000000
# 2 -0.002436 0.012126 -0.001736 0.000000 -0.001320 0.000000
# 3 -0.004739 -0.001736 0.012068 0.000000 -0.003599 0.000000
# 4 0.000000 0.000000 0.000000 -0.020961 0.000000 0.008117
# 5 0.001453 -0.001320 -0.003599 0.000000 0.038302 0.000000
# 6 0.000000 0.000000 0.000000 0.008117 0.000000 0.035089
#
#
# Mechanical properties :
#
#
# Convention : Reuss Voigt Hill
#
# Bulk Modulus (GPa) = 44.08814 45.65772 44.87293
# Shear Modulus (GPa) = 42.26010 14.65277 28.45643
#
# Velocity S-wave (km/s) = 4.44775 2.61900 3.64977
# Velocity P-wave (km/s) = 6.85674 5.52436 6.22629
#
# Compressibility (1/GPa) = 0.02268184
#
# Stress axis : x y z
#
# Youngs Moduli (GPa) = 61.31293 82.47043 82.86541
#
# Poissons Ratio (x) = 0.20087 0.39267
# Poissons Ratio (y) = 0.14934 0.14388
# Poissons Ratio (z) = 0.29054 0.14320
#
# Static dielectric constant tensor:
#      x y z
#    x 3.921020 0.000000 -0.050860 
#    y 0.000000 3.890570 0.000000 
#    z -0.050860 0.000000 3.745000 
# 
# 
# High freq. dielectric constant tensor:
#      x y z
#    x 1.841200 0.000000 -0.001200 
#    y 0.000000 1.841500 0.000000 
#    z -0.001200 0.000000 1.839580 
# 
# From -- ./inp_files/270718.got.cif
#   From: 2010.06.25/outbox.cif.g09.slc.cpg/sg12_136_cif.got.tgz:270718.got - 2010.06.28 00:19:55.
