data_PCOD8106476
_publ_section_title
;
Structure prediction by ZEFSAII (Michael W. Deem and Ramdas Pophale) SiO2 
 PCOD8106476
Probable space group: C 2/M
;
_chemical_formula_sum "Si O2"
_cell_formula_units_Z 52
_cell_length_a 10.810962
_cell_length_b 17.662252
_cell_length_c 24.404135
_cell_angle_alpha 90.000000
_cell_angle_beta 144.134192
_cell_angle_gamma 90.000000
_cell_volume 2730.166096
_symmetry_space_group_name_H-M "C 2/M"
_symmetry_group_IT_number 12
_symmetry_cell_setting 'monoclinic'
loop_
_space_group_symop_operation_xyz
x,y,z
-x,y,-z
-x,-y,-z
x,-y,z
1/2+x,1/2+y,z
1/2-x,1/2+y,-z
1/2-x,1/2-y,-z
1/2+x,1/2-y,z
loop_
_atom_site_type_symbol
_atom_site_label
_atom_site_fract_x
_atom_site_fract_y
_atom_site_fract_z
Si Si1 0.797418 0.201169 0.390145
Si Si2 0.098509 0.775190 0.699789
Si Si3 0.741404 0.087253 0.034814
Si Si4 0.994526 0.418113 0.755938
Si Si5 0.623318 0.324361 0.130470
Si Si6 0.000000 0.295568 0.000000
Si Si7 0.329274 0.918292 0.815881
O O1 0.877343 0.222338 0.357454
O O2 0.639090 0.260445 0.363375
O O3 0.671446 0.122132 0.344113
O O4 0.000000 0.191133 0.500000
O O5 0.265966 0.709789 0.775942
O O6 0.157262 0.851748 0.754282
O O7 0.704167 0.147329 0.071221
O O8 0.958363 0.109431 0.084239
O O9 0.750768 0.000000 0.058153
O O10 0.542250 0.103224 0.924351
O O11 0.055732 0.500000 0.752116
O O12 0.197527 0.365715 0.840607
O O13 0.887527 0.431167 0.774625
O O14 0.512793 0.257044 0.057654
O O15 0.239317 0.000000 0.805382
#
# Coordination Sequence:
#
# PCOD8106476 Si02
#       7
#     8   8   8   8   8   4   8
#     4  10  21  37  60  86 109 141 182 235 294 350
#     4  10  21  36  59  82 113 146 187 236 284 342
#     4  11  23  36  52  77 115 155 193 236 280 329
#     4   9  19  35  55  81 110 140 182 232 284 339
#     4  11  22  33  56  79 113 151 196 232 281 326
#     4  12  23  34  53  80 114 154 200 242 269 332
#     4   9  18  34  53  77 110 151 190 226 276 331
#
# _framework density 19.046461000000001
#
# number of rings (size 3 to 8) (size 9 to 14) (size 15 to 20)
#    0.000    1.846    1.538    2.538    6.462    0.308 
#    0.000    3.077    0.000    1.385    0.000    0.000 
#    0.000    0.000    0.000    0.000    0.000    0.000 
#
# Total GULP energy -322102.418325 kJ/mol
# GULP energy per Si atom -12388.554551 kJ/mol
# Density = 1.900311 g / cm^3
# Si number density = 19.046461 Si / 1000 Ang^3
#
#
#
# Elastic Constant Matrix: (Units=GPa)
#
#
# Indices 1 2 3 4 5 6 
#
# 1 60.3471 24.7562 24.3942 -0.0002 7.9298 -0.0001
# 2 24.7562 122.4207 25.8359 -0.0001 14.6035 0.0000
# 3 24.3942 25.8359 71.1316 -0.0006 5.7070 -0.0005
# 4 -0.0002 -0.0001 -0.0006 18.3530 -0.0003 7.8214
# 5 7.9298 14.6035 5.7070 -0.0003 26.9514 -0.0002
# 6 -0.0001 0.0000 -0.0005 7.8214 -0.0002 34.8779
#
#
#
# Elastic Compliance Matrix: (Units=1/GPa)
#
#
# Indices 1 2 3 4 5 6 
#
# 1 0.020392 -0.002488 -0.005815 0.000000 -0.003420 0.000000
# 2 -0.002488 0.009640 -0.002327 0.000000 -0.003998 0.000000
# 3 -0.005815 -0.002327 0.016947 0.000000 -0.000617 0.000000
# 4 0.000000 0.000000 0.000000 0.060244 0.000001 -0.013510
# 5 -0.003420 -0.003998 -0.000617 0.000001 0.040407 0.000000
# 6 0.000000 0.000000 0.000000 -0.013510 0.000000 0.031701
#
#
# Mechanical properties :
#
#
# Convention : Reuss Voigt Hill
#
# Bulk Modulus (GPa) = 38.88361 44.87468 41.87914
# Shear Modulus (GPa) = 23.90453 27.96399 25.93426
#
# Velocity S-wave (km/s) = 3.54653 3.83587 3.69403
# Velocity P-wave (km/s) = 6.10164 6.57497 6.34272
#
# Compressibility (1/GPa) = 0.02571778
#
# Stress axis : x y z
#
# Youngs Moduli (GPa) = 49.03966 103.73593 59.00607
#
# Poissons Ratio (x) = 0.25814 0.34312
# Poissons Ratio (y) = 0.12203 0.13731
# Poissons Ratio (z) = 0.28517 0.24141
#
# Static dielectric constant tensor:
#      x y z
#    x 3.556620 0.000000 0.019640 
#    y 0.000000 6.801950 0.000000 
#    z 0.019640 0.000000 3.302550 
# 
# 
# High freq. dielectric constant tensor:
#      x y z
#    x 1.735330 0.000000 -0.000780 
#    y 0.000000 1.757990 0.000000 
#    z -0.000780 0.000000 1.716960 
# 
# From -- ./inp_files/306154.got.cif
#   From: 2010.06.25/outbox.cif.g09.slc.cpg/sg12_154_cif.got.tgz:306154.got - 2010.06.28 00:19:55.
