data_PCOD8106772
_publ_section_title
;
Structure prediction by ZEFSAII (Michael W. Deem and Ramdas Pophale) SiO2 
 PCOD8106772
Probable space group: C 2/M
;
_chemical_formula_sum "Si O2"
_cell_formula_units_Z 64
_cell_length_a 18.054941
_cell_length_b 8.957248
_cell_length_c 34.305653
_cell_angle_alpha 90.000000
_cell_angle_beta 142.541757
_cell_angle_gamma 90.000000
_cell_volume 3374.198997
_symmetry_space_group_name_H-M "C 2/M"
_symmetry_group_IT_number 12
_symmetry_cell_setting 'monoclinic'
loop_
_space_group_symop_operation_xyz
x,y,z
-x,y,-z
-x,-y,-z
x,-y,z
1/2+x,1/2+y,z
1/2-x,1/2+y,-z
1/2-x,1/2-y,-z
1/2+x,1/2-y,z
loop_
_atom_site_type_symbol
_atom_site_label
_atom_site_fract_x
_atom_site_fract_y
_atom_site_fract_z
Si Si1 0.692656 0.822316 0.236140
Si Si2 0.964588 0.823921 0.357691
Si Si3 0.911536 0.676898 0.889789
Si Si4 0.541072 0.177268 0.244990
Si Si5 0.863200 0.675768 0.633595
Si Si6 0.266339 0.828257 0.125461
Si Si7 0.170729 0.172067 0.999712
Si Si8 0.166135 0.827055 0.495811
O O1 0.828300 0.758994 0.300321
O O2 0.644979 0.766162 0.174526
O O3 0.605122 0.756070 0.233189
O O4 0.693499 0.000000 0.238100
O O5 0.040176 0.751984 0.354390
O O6 0.026062 0.785435 0.426117
O O7 0.962595 0.000000 0.349479
O O8 0.927000 0.500000 0.896753
O O9 0.825094 0.725395 0.888808
O O10 0.041547 0.750179 0.950263
O O11 0.615983 0.234713 0.313941
O O12 0.402265 0.232527 0.190091
O O13 0.542578 0.000000 0.242717
O O14 0.887999 0.500000 0.642068
O O15 0.721812 0.714156 0.561820
O O16 0.250369 0.000000 0.132148
O O17 0.242592 0.811621 0.069908
O O18 0.151538 0.000000 0.980440
O O19 0.250000 0.250000 0.000000
O O20 0.250000 0.750000 0.500000
O O21 0.184319 0.000000 0.496476
#
# Coordination Sequence:
#
# PCOD8106772 Si02
#       8
#     8   8   8   8   8   8   8   8
#     4   9  18  32  49  71  99 132 167 203 249 301
#     4   9  16  28  47  68  94 127 161 200 245 293
#     4  11  22  36  56  80 105 134 172 214 252 296
#     4   9  17  31  50  70  96 130 164 201 249 300
#     4   9  16  27  46  70  94 122 160 203 244 291
#     4  10  21  37  56  77 102 134 171 209 251 301
#     4  11  23  39  59  82 109 139 170 205 249 301
#     4   8  14  24  40  66  94 120 155 198 243 289
#
# _framework density 18.967465000000001
#
# number of rings (size 3 to 8) (size 9 to 14) (size 15 to 20)
#    0.000    2.500    0.000    2.625    0.000    4.500 
#    0.000    1.250    0.000    6.750    0.000    0.000 
#    0.000   10.000    0.000    0.000    0.000    0.000 
#
# Total GULP energy -396567.508204 kJ/mol
# GULP energy per Si atom -12392.734631 kJ/mol
# Density = 1.892429 g / cm^3
# Si number density = 18.967465 Si / 1000 Ang^3
#
#
#
# Elastic Constant Matrix: (Units=GPa)
#
#
# Indices 1 2 3 4 5 6 
#
# 1 82.1173 22.2745 21.7833 0.0000 -13.0982 0.0001
# 2 22.2745 41.2793 26.4632 0.0000 -5.1025 0.0001
# 3 21.7833 26.4632 115.2761 0.0000 -7.9821 -0.0001
# 4 0.0000 0.0000 0.0000 19.6947 0.0000 -0.9973
# 5 -13.0982 -5.1025 -7.9821 0.0000 22.7127 -0.0001
# 6 0.0001 0.0001 -0.0001 -0.9973 -0.0001 22.2401
#
#
#
# Elastic Compliance Matrix: (Units=1/GPa)
#
#
# Indices 1 2 3 4 5 6 
#
# 1 0.015393 -0.006900 -0.000838 0.000000 0.007033 0.000000
# 2 -0.006900 0.031893 -0.005942 0.000000 0.001098 0.000000
# 3 -0.000838 -0.005942 0.010322 0.000000 0.001810 0.000000
# 4 0.000000 0.000000 0.000000 0.050891 0.000000 0.002282
# 5 0.007033 0.001098 0.001810 0.000000 0.048966 0.000000
# 6 0.000000 0.000000 0.000000 0.002282 0.000000 0.045066
#
#
# Mechanical properties :
#
#
# Convention : Reuss Voigt Hill
#
# Bulk Modulus (GPa) = 33.05769 42.19050 37.62410
# Shear Modulus (GPa) = 20.83556 24.13963 22.48759
#
# Velocity S-wave (km/s) = 3.31794 3.57134 3.44697
# Velocity P-wave (km/s) = 5.66964 6.26880 5.97673
#
# Compressibility (1/GPa) = 0.03025015
#
# Stress axis : x y z
#
# Youngs Moduli (GPa) = 64.96326 31.35466 96.87625
#
# Poissons Ratio (x) = 0.21634 0.08117
# Poissons Ratio (y) = 0.44824 0.57561
# Poissons Ratio (z) = 0.05443 0.18630
#
# Static dielectric constant tensor:
#      x y z
#    x 2.608310 0.000000 -0.402440 
#    y 0.000000 3.277520 0.000000 
#    z -0.402440 0.000000 3.915520 
# 
# 
# High freq. dielectric constant tensor:
#      x y z
#    x 1.720380 0.000000 0.002610 
#    y 0.000000 1.708780 0.000000 
#    z 0.002610 0.000000 1.767270 
# 
# From -- ./inp_files/378483.got.cif
#   From: 2010.06.25/outbox.cif.g09.slc.cpg/sg12_190_cif.got.tgz:378483.got - 2010.06.28 00:19:55.
