data_PCOD8106570
_publ_section_title
;
Structure prediction by ZEFSAII (Michael W. Deem and Ramdas Pophale) SiO2 
 PCOD8106570
Probable space group: C 2/M
;
_chemical_formula_sum "Si O2"
_cell_formula_units_Z 56
_cell_length_a 20.741436
_cell_length_b 31.682611
_cell_length_c 9.831220
_cell_angle_alpha 90.000000
_cell_angle_beta 153.436239
_cell_angle_gamma 90.000000
_cell_volume 2889.100431
_symmetry_space_group_name_H-M "C 2/M"
_symmetry_group_IT_number 12
_symmetry_cell_setting 'monoclinic'
loop_
_space_group_symop_operation_xyz
x,y,z
-x,y,-z
-x,-y,-z
x,-y,z
1/2+x,1/2+y,z
1/2-x,1/2+y,-z
1/2-x,1/2-y,-z
1/2+x,1/2-y,z
loop_
_atom_site_type_symbol
_atom_site_label
_atom_site_fract_x
_atom_site_fract_y
_atom_site_fract_z
Si Si1 0.113764 0.547212 0.818170
Si Si2 0.839200 0.885942 0.198273
Si Si3 0.641088 0.235683 0.680919
Si Si4 0.125587 0.178782 0.500637
Si Si5 0.326252 0.134249 0.672334
Si Si6 0.632449 0.954566 0.152993
Si Si7 0.701953 0.342202 0.151231
O O1 0.150206 0.500000 0.835726
O O2 0.000000 0.568208 0.500000
O O3 0.257273 0.573987 0.099083
O O4 0.055378 0.548317 0.860879
O O5 0.827366 0.845592 0.274162
O O6 0.000000 0.902452 0.500000
O O7 0.779437 0.874677 0.937175
O O8 0.500000 0.221894 0.500000
O O9 0.613675 0.272430 0.519281
O O10 0.704742 0.198635 0.709263
O O11 0.750000 0.250000 0.000000
O O12 0.246973 0.169892 0.614608
O O13 0.967905 0.166509 0.147123
O O14 0.278694 0.088001 0.642183
O O15 0.267884 0.136965 0.409708
O O16 0.500000 0.140780 0.000000
O O17 0.720189 0.000000 0.327988
O O18 0.500000 0.957016 0.000000
#
# Coordination Sequence:
#
# PCOD8106570 Si02
#       7
#     8   8   8   8   8   8   8
#     4  10  21  36  60  92 121 157 205 260 314 361
#     4  10  21  38  61  87 120 164 203 247 310 369
#     4  12  23  42  68  95 122 161 210 253 310 376
#     4  11  22  44  63  88 127 163 201 255 314 370
#     4  11  25  39  62  97 122 163 213 255 309 366
#     4   9  19  38  60  86 126 164 200 253 311 365
#     4  11  25  41  63  91 126 166 201 257 312 368
#
# _framework density 19.383196999999999
#
# number of rings (size 3 to 8) (size 9 to 14) (size 15 to 20)
#    0.000    1.429    4.286    0.857    6.000    1.429 
#    0.000    0.000    0.000    2.571    0.000    0.000 
#    0.000    0.000    0.000    0.000    0.000    0.000 
#
# Total GULP energy -347004.894364 kJ/mol
# GULP energy per Si atom -12393.031942 kJ/mol
# Density = 1.933908 g / cm^3
# Si number density = 19.383197 Si / 1000 Ang^3
#
#
#
# Elastic Constant Matrix: (Units=GPa)
#
#
# Indices 1 2 3 4 5 6 
#
# 1 112.8578 36.8480 49.9315 0.0000 -3.6490 0.0000
# 2 36.8480 92.6625 38.3273 0.0000 -1.4517 0.0000
# 3 49.9315 38.3273 114.5029 0.0000 -16.9844 0.0000
# 4 0.0000 0.0000 0.0000 18.8854 0.0000 1.7242
# 5 -3.6490 -1.4517 -16.9844 0.0000 40.0864 0.0000
# 6 0.0000 0.0000 0.0000 1.7242 0.0000 35.8779
#
#
#
# Elastic Compliance Matrix: (Units=1/GPa)
#
#
# Indices 1 2 3 4 5 6 
#
# 1 0.011653 -0.002895 -0.004237 0.000000 -0.000839 0.000000
# 2 -0.002895 0.013320 -0.003376 0.000000 -0.001212 0.000000
# 3 -0.004237 -0.003376 0.012416 0.000000 0.004753 0.000000
# 4 0.000000 0.000000 0.000000 0.053184 0.000000 -0.002556
# 5 -0.000839 -0.001212 0.004753 0.000000 0.026840 0.000000
# 6 0.000000 0.000000 0.000000 -0.002556 0.000000 0.027995
#
#
# Mechanical properties :
#
#
# Convention : Reuss Voigt Hill
#
# Bulk Modulus (GPa) = 61.07284 63.35963 62.21623
# Shear Modulus (GPa) = 29.08955 31.96436 30.52695
#
# Velocity S-wave (km/s) = 3.87817 4.06529 3.97283
# Velocity P-wave (km/s) = 7.18541 7.40232 7.29467
#
# Compressibility (1/GPa) = 0.01637389
#
# Stress axis : x y z
#
# Youngs Moduli (GPa) = 85.81225 75.07303 80.53959
#
# Poissons Ratio (x) = 0.21730 0.34127
# Poissons Ratio (y) = 0.24839 0.27192
# Poissons Ratio (z) = 0.36361 0.25346
#
# Static dielectric constant tensor:
#      x y z
#    x 3.631350 0.000000 -0.056720 
#    y 0.000000 4.448310 0.000000 
#    z -0.056720 0.000000 3.389770 
# 
# 
# High freq. dielectric constant tensor:
#      x y z
#    x 1.763460 0.000000 -0.012110 
#    y 0.000000 1.758220 0.000000 
#    z -0.012110 0.000000 1.745630 
# 
# From -- ./inp_files/91644.got.cif
#   From: 2010.06.25/outbox.cif.g09.slc.cpg/sg12_46_cif.got.tgz:91644.got - 2010.06.28 00:19:55.
