data_PCOD8106440
_publ_section_title
;
Structure prediction by ZEFSAII (Michael W. Deem and Ramdas Pophale) SiO2 
 PCOD8106440
Probable space group: C 2/M
;
_chemical_formula_sum "Si O2"
_cell_formula_units_Z 48
_cell_length_a 14.656135
_cell_length_b 9.190628
_cell_length_c 18.442026
_cell_angle_alpha 90.000000
_cell_angle_beta 89.017440
_cell_angle_gamma 90.000000
_cell_volume 2483.758759
_symmetry_space_group_name_H-M "C 2/M"
_symmetry_group_IT_number 12
_symmetry_cell_setting 'monoclinic'
loop_
_space_group_symop_operation_xyz
x,y,z
-x,y,-z
-x,-y,-z
x,-y,z
1/2+x,1/2+y,z
1/2-x,1/2+y,-z
1/2-x,1/2-y,-z
1/2+x,1/2-y,z
loop_
_atom_site_type_symbol
_atom_site_label
_atom_site_fract_x
_atom_site_fract_y
_atom_site_fract_z
Si Si1 0.605168 0.829903 0.990816
Si Si2 0.091968 0.836191 0.356524
Si Si3 0.157153 0.167536 0.513654
Si Si4 0.745939 0.669931 0.892765
Si Si5 0.257025 0.834689 0.252370
Si Si6 0.421606 0.168135 0.349885
O O1 0.662588 0.795188 0.062684
O O2 0.606513 0.000000 0.971962
O O3 0.500000 0.775868 0.000000
O O4 0.655154 0.747223 0.924627
O O5 0.096101 0.816602 0.442832
O O6 0.189793 0.803463 0.320130
O O7 0.021503 0.720585 0.323776
O O8 0.060271 0.000000 0.337874
O O9 0.250000 0.250000 0.500000
O O10 0.104044 0.235134 0.581231
O O11 0.178784 0.000000 0.530248
O O12 0.725335 0.500000 0.891765
O O13 0.765530 0.726140 0.812162
O O14 0.357498 0.804688 0.281762
O O15 0.247610 0.000000 0.224155
O O16 0.420749 0.000000 0.373123
#
# Coordination Sequence:
#
# PCOD8106440 Si02
#       6
#     8   8   8   8   8   8
#     4   9  19  38  62  86 116 151 184 223 276 332
#     4  10  22  40  58  81 113 151 191 237 294 345
#     4  11  21  37  60  83 112 148 191 242 294 344
#     4  10  21  36  58  89 117 145 189 232 272 329
#     4  10  22  41  58  77 117 158 187 228 286 341
#     4  11  23  39  58  84 112 148 196 240 289 347
#
# _framework density 19.32555
#
# number of rings (size 3 to 8) (size 9 to 14) (size 15 to 20)
#    0.000    1.833    1.667    2.000    0.000    7.667 
#    0.000    5.000    0.000    0.000    0.000    0.000 
#    0.000    0.000    0.000    0.000    0.000    0.000 
#
# Total GULP energy -297667.810782 kJ/mol
# GULP energy per Si atom -12402.825449 kJ/mol
# Density = 1.928156 g / cm^3
# Si number density = 19.325550 Si / 1000 Ang^3
#
#
#
# Elastic Constant Matrix: (Units=GPa)
#
#
# Indices 1 2 3 4 5 6 
#
# 1 110.8748 47.9074 18.2735 0.0000 9.9764 0.0000
# 2 47.9074 95.7269 42.4721 0.0000 8.3807 0.0000
# 3 18.2735 42.4721 84.8128 0.0000 4.3874 0.0000
# 4 0.0000 0.0000 0.0000 37.1097 0.0000 -2.9590
# 5 9.9764 8.3807 4.3874 0.0000 17.3668 0.0000
# 6 0.0000 0.0000 0.0000 -2.9590 0.0000 37.5288
#
#
#
# Elastic Compliance Matrix: (Units=1/GPa)
#
#
# Indices 1 2 3 4 5 6 
#
# 1 0.011802 -0.005800 0.000575 0.000000 -0.004126 0.000000
# 2 -0.005800 0.016696 -0.006958 0.000000 -0.002967 0.000000
# 3 0.000575 -0.006958 0.015193 0.000000 -0.000811 0.000000
# 4 0.000000 0.000000 0.000000 0.027118 0.000000 0.002138
# 5 -0.004126 -0.002967 -0.000811 0.000000 0.061588 0.000000
# 6 0.000000 0.000000 0.000000 0.002138 0.000000 0.026815
#
#
# Mechanical properties :
#
#
# Convention : Reuss Voigt Hill
#
# Bulk Modulus (GPa) = 51.74577 56.52450 54.13513
# Shear Modulus (GPa) = 26.31319 30.58514 28.44917
#
# Velocity S-wave (km/s) = 3.69396 3.98254 3.84096
# Velocity P-wave (km/s) = 6.71027 7.10349 6.90968
#
# Compressibility (1/GPa) = 0.01932525
#
# Stress axis : x y z
#
# Youngs Moduli (GPa) = 84.73235 59.89452 65.82011
#
# Poissons Ratio (x) = 0.34741 -0.03787
# Poissons Ratio (y) = 0.49148 0.45796
# Poissons Ratio (z) = -0.04875 0.41673
#
# Static dielectric constant tensor:
#      x y z
#    x 3.850750 0.000000 -0.090230 
#    y 0.000000 3.523920 0.000000 
#    z -0.090230 0.000000 3.478170 
# 
# 
# High freq. dielectric constant tensor:
#      x y z
#    x 1.760110 0.000000 0.000610 
#    y 0.000000 1.756800 0.000000 
#    z 0.000610 0.000000 1.742520 
# 
# From -- ./inp_files/267628.got.cif
#   From: 2010.06.25/outbox.cif.g09.slc.cpg/sg12_134_cif.got.tgz:267628.got - 2010.06.28 00:19:55.
