data_PCOD8106498
_publ_section_title
;
Structure prediction by ZEFSAII (Michael W. Deem and Ramdas Pophale) SiO2 
 PCOD8106498
Probable space group: C 2/M
;
_chemical_formula_sum "Si O2"
_cell_formula_units_Z 56
_cell_length_a 18.270219
_cell_length_b 13.761965
_cell_length_c 20.493517
_cell_angle_alpha 90.000000
_cell_angle_beta 147.280468
_cell_angle_gamma 90.000000
_cell_volume 2785.211746
_symmetry_space_group_name_H-M "C 2/M"
_symmetry_group_IT_number 12
_symmetry_cell_setting 'monoclinic'
loop_
_space_group_symop_operation_xyz
x,y,z
-x,y,-z
-x,-y,-z
x,-y,z
1/2+x,1/2+y,z
1/2-x,1/2+y,-z
1/2-x,1/2-y,-z
1/2+x,1/2-y,z
loop_
_atom_site_type_symbol
_atom_site_label
_atom_site_fract_x
_atom_site_fract_y
_atom_site_fract_z
Si Si1 0.538962 0.795786 0.322826
Si Si2 0.358612 0.889542 0.930109
Si Si3 0.133750 0.385550 0.915443
Si Si4 0.813049 0.111576 0.734057
Si Si5 0.715653 0.213297 0.782009
Si Si6 0.118205 0.886530 0.986458
Si Si7 0.202804 0.888802 0.426117
O O1 0.481917 0.827707 0.210050
O O2 0.428782 0.814051 0.296348
O O3 0.666997 0.864031 0.433045
O O4 0.579325 0.682173 0.352563
O O5 0.243275 0.828837 0.805862
O O6 0.307799 0.000000 0.892395
O O7 0.500000 0.878019 0.000000
O O8 0.372018 0.849845 0.014209
O O9 0.103895 0.500000 0.887371
O O10 0.281266 0.358294 0.997436
O O11 0.719234 0.176559 0.710500
O O12 0.758147 0.127065 0.620069
O O13 0.799992 0.000000 0.746186
O O14 0.968570 0.146704 0.854129
O O15 0.838653 0.163904 0.913921
O O16 0.125245 0.000000 0.005526
O O17 0.156383 0.000000 0.403926
#
# Coordination Sequence:
#
# PCOD8106498 Si02
#       7
#     8   8   8   8   8   8   8
#     4  10  23  39  61  87 111 151 197 236 292 343
#     4  10  22  36  52  83 120 159 196 232 283 339
#     4   9  19  35  58  84 116 152 191 240 286 340
#     4  10  21  36  59  87 119 153 186 235 295 347
#     4  11  22  34  57  85 119 153 186 235 284 350
#     4   9  18  32  53  86 118 147 185 230 292 353
#     4  10  23  42  62  86 114 149 196 246 289 339
#
# _framework density 20.106190999999999
#
# number of rings (size 3 to 8) (size 9 to 14) (size 15 to 20)
#    0.000    2.143    0.000    2.143    6.000    5.143 
#    0.000    1.429    0.000    0.000    0.000    3.000 
#    0.000    0.000    0.000    0.000    0.000    0.000 
#
# Total GULP energy -347330.052092 kJ/mol
# GULP energy per Si atom -12404.644718 kJ/mol
# Density = 2.006043 g / cm^3
# Si number density = 20.106191 Si / 1000 Ang^3
#
#
#
# Elastic Constant Matrix: (Units=GPa)
#
#
# Indices 1 2 3 4 5 6 
#
# 1 97.5968 32.5632 24.0323 -0.0004 -7.6757 0.0000
# 2 32.5632 72.4227 29.5592 -0.0011 -3.2677 -0.0003
# 3 24.0323 29.5592 54.5289 -0.0039 1.0037 -0.0012
# 4 -0.0004 -0.0011 -0.0039 21.3494 -0.0008 -2.7860
# 5 -7.6757 -3.2677 1.0037 -0.0008 20.8099 -0.0002
# 6 0.0000 -0.0003 -0.0012 -2.7860 -0.0002 31.7590
#
#
#
# Elastic Compliance Matrix: (Units=1/GPa)
#
#
# Indices 1 2 3 4 5 6 
#
# 1 0.012822 -0.004155 -0.003477 0.000000 0.004245 0.000000
# 2 -0.004155 0.019299 -0.008666 -0.000001 0.001916 0.000000
# 3 -0.003477 -0.008666 0.024640 0.000004 -0.003832 0.000001
# 4 0.000000 -0.000001 0.000004 0.047382 0.000001 0.004157
# 5 0.004245 0.001916 -0.003832 0.000001 0.050105 0.000000
# 6 0.000000 0.000000 0.000001 0.004157 0.000000 0.031852
#
#
# Mechanical properties :
#
#
# Convention : Reuss Voigt Hill
#
# Bulk Modulus (GPa) = 41.38091 44.09532 42.73811
# Shear Modulus (GPa) = 22.05053 24.00991 23.03022
#
# Velocity S-wave (km/s) = 3.31524 3.45940 3.38809
# Velocity P-wave (km/s) = 5.93972 6.15918 6.05045
#
# Compressibility (1/GPa) = 0.02416573
#
# Stress axis : x y z
#
# Youngs Moduli (GPa) = 77.98793 51.81521 40.58494
#
# Poissons Ratio (x) = 0.21527 0.14112
# Poissons Ratio (y) = 0.32401 0.35171
# Poissons Ratio (z) = 0.27118 0.44904
#
# Static dielectric constant tensor:
#      x y z
#    x 3.628200 0.000000 -0.038630 
#    y 0.000000 3.807170 0.000000 
#    z -0.038630 0.000000 3.440660 
# 
# 
# High freq. dielectric constant tensor:
#      x y z
#    x 1.783670 0.000000 -0.000790 
#    y 0.000000 1.798440 0.000000 
#    z -0.000790 0.000000 1.763290 
# 
# From -- ./inp_files/316753.got.cif
#   From: 2010.06.25/outbox.cif.g09.slc.cpg/sg12_159_cif.got.tgz:316753.got - 2010.06.28 00:19:55.
