data_PCOD8106827
_publ_section_title
;
Structure prediction by ZEFSAII (Michael W. Deem and Ramdas Pophale) SiO2 
 PCOD8106827
Probable space group: C 2/M
;
_chemical_formula_sum "Si O2"
_cell_formula_units_Z 64
_cell_length_a 14.575808
_cell_length_b 8.600676
_cell_length_c 26.716498
_cell_angle_alpha 90.000000
_cell_angle_beta 106.032558
_cell_angle_gamma 90.000000
_cell_volume 3218.959801
_symmetry_space_group_name_H-M "C 2/M"
_symmetry_group_IT_number 12
_symmetry_cell_setting 'monoclinic'
loop_
_space_group_symop_operation_xyz
x,y,z
-x,y,-z
-x,-y,-z
x,-y,z
1/2+x,1/2+y,z
1/2-x,1/2+y,-z
1/2-x,1/2-y,-z
1/2+x,1/2-y,z
loop_
_atom_site_type_symbol
_atom_site_label
_atom_site_fract_x
_atom_site_fract_y
_atom_site_fract_z
Si Si1 0.707569 0.316342 0.421854
Si Si2 0.207947 0.820637 0.765721
Si Si3 0.198177 0.817845 0.944309
Si Si4 0.494822 0.320709 0.220927
Si Si5 0.187841 0.181131 0.127977
Si Si6 0.101384 0.683915 0.495440
Si Si7 0.508827 0.819712 0.887633
Si Si8 0.812376 0.182547 0.694205
O O1 0.698776 0.500000 0.424271
O O2 0.812543 0.259875 0.455420
O O3 0.623439 0.244755 0.443051
O O4 0.691631 0.256964 0.363144
O O5 0.097220 0.787619 0.759031
O O6 0.274311 0.714604 0.810787
O O7 0.230175 0.772893 0.712201
O O8 0.233583 0.000000 0.779652
O O9 0.233732 0.734764 0.899579
O O10 0.086121 0.780940 0.929820
O O11 0.216845 0.000000 0.943777
O O12 0.250000 0.750000 0.000000
O O13 0.499647 0.500000 0.204291
O O14 0.491034 0.216042 0.171222
O O15 0.584820 0.273654 0.267917
O O16 0.091886 0.276487 0.102945
O O17 0.166148 0.000000 0.119205
O O18 0.095708 0.500000 0.492723
O O19 0.000000 0.751674 0.500000
O O20 0.530934 0.000000 0.899246
O O21 0.791565 0.000000 0.693955
#
# Coordination Sequence:
#
# PCOD8106827 Si02
#       8
#     8   8   8   8   8   8   8   8
#     4   9  19  35  54  80 113 151 196 245 297 357
#     4  11  22  36  57  86 117 153 198 243 292 357
#     4  12  26  46  68  95 127 160 202 254 307 363
#     4  10  21  37  57  82 117 157 195 241 298 356
#     4  12  24  41  65  92 123 161 202 249 302 358
#     4   9  18  34  56  80 110 150 195 245 302 357
#     4  12  24  40  65  94 122 159 203 247 300 363
#     4  10  21  37  56  81 118 157 195 243 302 359
#
# _framework density 19.882200000000001
#
# number of rings (size 3 to 8) (size 9 to 14) (size 15 to 20)
#    0.000    1.375    2.500    3.750    0.000    2.750 
#    0.000    2.500    0.000    0.000    0.000    0.000 
#    0.000    0.000    0.000    0.000    0.000    0.000 
#
# Total GULP energy -396974.877965 kJ/mol
# GULP energy per Si atom -12405.464936 kJ/mol
# Density = 1.983695 g / cm^3
# Si number density = 19.882200 Si / 1000 Ang^3
#
#
#
# Elastic Constant Matrix: (Units=GPa)
#
#
# Indices 1 2 3 4 5 6 
#
# 1 97.6385 23.8569 6.3074 0.0000 1.4029 0.0000
# 2 23.8569 66.1774 28.6942 0.0000 -4.3103 0.0000
# 3 6.3074 28.6942 76.1602 0.0000 3.2282 0.0000
# 4 0.0000 0.0000 0.0000 30.7246 0.0000 -5.2711
# 5 1.4029 -4.3103 3.2282 0.0000 25.3732 0.0000
# 6 0.0000 0.0000 0.0000 -5.2711 0.0000 31.1340
#
#
#
# Elastic Compliance Matrix: (Units=1/GPa)
#
#
# Indices 1 2 3 4 5 6 
#
# 1 0.011319 -0.004542 0.000837 0.000000 -0.001504 0.000000
# 2 -0.004542 0.020287 -0.007464 0.000000 0.004647 0.000000
# 3 0.000837 -0.007464 0.016015 0.000000 -0.003352 0.000000
# 4 0.000000 0.000000 0.000000 0.033521 0.000000 0.005675
# 5 -0.001504 0.004647 -0.003352 0.000000 0.040711 0.000000
# 6 0.000000 0.000000 0.000000 0.005675 0.000000 0.033080
#
#
# Mechanical properties :
#
#
# Convention : Reuss Voigt Hill
#
# Bulk Modulus (GPa) = 39.54970 39.74365 39.64667
# Shear Modulus (GPa) = 26.92541 29.52088 28.22314
#
# Velocity S-wave (km/s) = 3.68400 3.85748 3.77174
# Velocity P-wave (km/s) = 6.16693 6.31452 6.24116
#
# Compressibility (1/GPa) = 0.02528464
#
# Stress axis : x y z
#
# Youngs Moduli (GPa) = 88.34662 49.29196 62.44070
#
# Poissons Ratio (x) = 0.22386 -0.05229
# Poissons Ratio (y) = 0.40123 0.46608
# Poissons Ratio (z) = -0.07398 0.36793
#
# Static dielectric constant tensor:
#      x y z
#    x 3.873390 0.000000 0.033090 
#    y 0.000000 3.528580 0.000000 
#    z 0.033090 0.000000 3.621010 
# 
# 
# High freq. dielectric constant tensor:
#      x y z
#    x 1.789160 0.000000 -0.000570 
#    y 0.000000 1.773420 0.000000 
#    z -0.000570 0.000000 1.768460 
# 
# From -- ./inp_files/359988.got.cif
#   From: 2010.06.25/outbox.cif.g09.slc.cpg/sg12_180_cif.got.tgz:359988.got - 2010.06.28 00:19:55.
