data_PCOD8106749
_publ_section_title
;
Structure prediction by ZEFSAII (Michael W. Deem and Ramdas Pophale) SiO2 
 PCOD8106749
Probable space group: C 2/M
;
_chemical_formula_sum "Si O2"
_cell_formula_units_Z 56
_cell_length_a 21.589944
_cell_length_b 8.892541
_cell_length_c 14.204954
_cell_angle_alpha 90.000000
_cell_angle_beta 80.696512
_cell_angle_gamma 90.000000
_cell_volume 2691.327534
_symmetry_space_group_name_H-M "C 2/M"
_symmetry_group_IT_number 12
_symmetry_cell_setting 'monoclinic'
loop_
_space_group_symop_operation_xyz
x,y,z
-x,y,-z
-x,-y,-z
x,-y,z
1/2+x,1/2+y,z
1/2-x,1/2+y,-z
1/2-x,1/2-y,-z
1/2+x,1/2-y,z
loop_
_atom_site_type_symbol
_atom_site_label
_atom_site_fract_x
_atom_site_fract_y
_atom_site_fract_z
Si Si1 0.147979 0.328323 0.793841
Si Si2 0.608418 0.171926 0.600839
Si Si3 0.198145 0.177237 0.447539
Si Si4 0.012815 0.177539 0.389667
Si Si5 0.907637 0.678333 0.775298
Si Si6 0.784570 0.821326 0.770851
Si Si7 0.015219 0.678915 0.891211
O O1 0.143483 0.500000 0.826926
O O2 0.155014 0.318115 0.678612
O O3 0.214262 0.264644 0.818706
O O4 0.083811 0.250163 0.847167
O O5 0.631602 0.267460 0.505425
O O6 0.543841 0.245113 0.654195
O O7 0.598259 0.000000 0.572383
O O8 0.250000 0.250000 0.500000
O O9 0.204860 0.229904 0.339201
O O10 0.202678 0.000000 0.455626
O O11 0.075982 0.248485 0.330636
O O12 0.000000 0.225412 0.500000
O O13 0.014943 0.000000 0.375665
O O14 0.906359 0.500000 0.768815
O O15 0.838003 0.738810 0.820152
O O16 0.958703 0.737459 0.838561
O O17 0.790744 0.000000 0.781051
O O18 0.017959 0.500000 0.881176
O O19 0.000000 0.732379 0.000000
#
# Coordination Sequence:
#
# PCOD8106749 Si02
#       7
#     8   8   8   8   8   8   8
#     4   9  17  34  57  81 110 147 188 229 281 345
#     4  11  20  34  54  79 110 147 198 247 285 337
#     4  11  21  33  50  76 113 159 205 245 287 341
#     4  11  23  37  53  78 115 158 198 236 288 351
#     4  11  22  37  59  88 118 149 194 248 294 344
#     4  10  21  37  55  78 117 161 193 231 290 353
#     4   9  18  36  64  92 114 143 190 245 298 354
#
# _framework density 20.807576000000001
#
# number of rings (size 3 to 8) (size 9 to 14) (size 15 to 20)
#    0.000    1.714    2.857    2.571    0.000    5.714 
#    0.000    0.714    0.000    1.714    0.000    0.000 
#    0.000    0.000    0.000    0.000    0.000    0.000 
#
# Total GULP energy -347048.106446 kJ/mol
# GULP energy per Si atom -12394.575230 kJ/mol
# Density = 2.076022 g / cm^3
# Si number density = 20.807576 Si / 1000 Ang^3
#
#
#
# Elastic Constant Matrix: (Units=GPa)
#
#
# Indices 1 2 3 4 5 6 
#
# 1 182.5153 34.0287 48.8183 0.0000 0.2151 0.0000
# 2 34.0287 53.3720 22.1287 0.0000 1.2574 0.0000
# 3 48.8183 22.1287 76.2435 0.0000 -4.8528 0.0000
# 4 0.0000 0.0000 0.0000 12.3340 0.0000 2.0143
# 5 0.2151 1.2574 -4.8528 0.0000 22.4643 0.0000
# 6 0.0000 0.0000 0.0000 2.0143 0.0000 35.7311
#
#
#
# Elastic Compliance Matrix: (Units=1/GPa)
#
#
# Indices 1 2 3 4 5 6 
#
# 1 0.007011 -0.002926 -0.003684 0.000000 -0.000699 0.000000
# 2 -0.002926 0.022667 -0.004851 0.000000 -0.002289 0.000000
# 3 -0.003684 -0.004851 0.017138 0.000000 0.004009 0.000000
# 4 0.000000 0.000000 0.000000 0.081830 0.000000 -0.004613
# 5 -0.000699 -0.002289 0.004009 0.000000 0.045516 0.000000
# 6 0.000000 0.000000 0.000000 -0.004613 0.000000 0.028247
#
#
# Mechanical properties :
#
#
# Convention : Reuss Voigt Hill
#
# Bulk Modulus (GPa) = 41.85248 58.00914 49.93081
# Shear Modulus (GPa) = 21.43200 27.91621 24.67411
#
# Velocity S-wave (km/s) = 3.21286 3.66681 3.44731
# Velocity P-wave (km/s) = 5.82417 6.77250 6.31616
#
# Compressibility (1/GPa) = 0.02389345
#
# Stress axis : x y z
#
# Youngs Moduli (GPa) = 142.63757 44.11669 58.34976
#
# Poissons Ratio (x) = 0.12908 0.21498
# Poissons Ratio (y) = 0.41734 0.28306
# Poissons Ratio (z) = 0.52551 0.21401
#
# Static dielectric constant tensor:
#      x y z
#    x 4.316480 0.000000 -0.074890 
#    y 0.000000 3.447300 0.000000 
#    z -0.074890 0.000000 3.500990 
# 
# 
# High freq. dielectric constant tensor:
#      x y z
#    x 1.844980 0.000000 -0.001570 
#    y 0.000000 1.778370 0.000000 
#    z -0.001570 0.000000 1.780690 
# 
# From -- ./inp_files/231024.got.cif
#   From: 2010.06.25/outbox.cif.g09.slc.cpg/sg12_116_cif.got.tgz:231024.got - 2010.06.28 00:19:55.
