data_PCOD8106166
_publ_section_title
;
Structure prediction by ZEFSAII (Michael W. Deem and Ramdas Pophale) SiO2 
 PCOD8106166
Probable space group: C 2/M
;
_chemical_formula_sum "Si O2"
_cell_formula_units_Z 44
_cell_length_a 31.632149
_cell_length_b 9.153220
_cell_length_c 26.015423
_cell_angle_alpha 90.000000
_cell_angle_beta 16.517118
_cell_angle_gamma 90.000000
_cell_volume 2141.475405
_symmetry_space_group_name_H-M "C 2/M"
_symmetry_group_IT_number 12
_symmetry_cell_setting 'monoclinic'
loop_
_space_group_symop_operation_xyz
x,y,z
-x,y,-z
-x,-y,-z
x,-y,z
1/2+x,1/2+y,z
1/2-x,1/2+y,-z
1/2-x,1/2-y,-z
1/2+x,1/2-y,z
loop_
_atom_site_type_symbol
_atom_site_label
_atom_site_fract_x
_atom_site_fract_y
_atom_site_fract_z
Si Si1 0.749429 0.326833 0.555122
Si Si2 0.430300 0.670553 0.970900
Si Si3 0.581133 0.326092 0.556826
Si Si4 0.272685 0.839851 0.238315
Si Si5 0.000000 0.252011 0.500000
Si Si6 0.338417 0.838640 0.782892
O O1 0.772838 0.500000 0.521989
O O2 0.750000 0.250000 0.500000
O O3 0.595822 0.287796 0.762281
O O4 0.882681 0.255950 0.432431
O O5 0.405630 0.500000 0.007089
O O6 0.397103 0.740085 0.065822
O O7 0.320201 0.723608 0.053012
O O8 0.575790 0.500000 0.570629
O O9 0.710443 0.279789 0.365387
O O10 0.416212 0.272861 0.732010
O O11 0.131870 0.853357 0.364638
O O12 0.342766 0.000000 0.163951
O O13 0.054374 0.357184 0.391196
O O14 0.320033 0.000000 0.829512
#
# Coordination Sequence:
#
# PCOD8106166 Si02
#       6
#     8   8   8   8   4   8
#     4  11  24  43  62  79 103 141 186 233 281 329
#     4   9  20  36  56  83 114 145 181 224 272 325
#     4  10  21  36  55  84 117 148 182 222 266 320
#     4   9  17  29  50  80 115 149 181 217 262 316
#     4   8  14  24  44  76 114 150 180 214 258 316
#     4   9  16  30  53  81 111 144 180 220 267 321
#
# _framework density 20.546582000000001
#
# number of rings (size 3 to 8) (size 9 to 14) (size 15 to 20)
#    0.000    2.545    0.000    1.636    0.000   11.636 
#    0.000    4.545    0.000    0.000    0.000    0.000 
#    0.000    0.000    0.000    0.000    0.000    0.000 
#
# Total GULP energy -272643.683248 kJ/mol
# GULP energy per Si atom -12392.894693 kJ/mol
# Density = 2.049982 g / cm^3
# Si number density = 20.546582 Si / 1000 Ang^3
#
#
#
# Elastic Constant Matrix: (Units=GPa)
#
#
# Indices 1 2 3 4 5 6 
#
# 1 98.0451 37.3360 -5.1008 -0.0235 -1.7289 0.0082
# 2 37.3360 85.4514 10.1202 -0.0310 0.7064 0.0151
# 3 -5.1008 10.1202 14.0337 -0.0395 -5.3977 0.0179
# 4 -0.0235 -0.0310 -0.0395 21.2344 0.0091 5.2310
# 5 -1.7289 0.7064 -5.3977 0.0091 24.7254 -0.0038
# 6 0.0082 0.0151 0.0179 5.2310 -0.0038 28.7016
#
#
#
# Elastic Compliance Matrix: (Units=1/GPa)
#
#
# Indices 1 2 3 4 5 6 
#
# 1 0.013698 -0.007409 0.011759 0.000028 0.003736 -0.000012
# 2 -0.007409 0.016957 -0.016710 -0.000014 -0.004650 0.000006
# 3 0.011759 -0.016710 0.096155 0.000179 0.022291 -0.000084
# 4 0.000028 -0.000014 0.000179 0.049307 0.000022 -0.008987
# 5 0.003736 -0.004650 0.022291 0.000022 0.045704 -0.000010
# 6 -0.000012 0.000006 -0.000084 -0.008987 -0.000010 0.036479
#
#
# Mechanical properties :
#
#
# Convention : Reuss Voigt Hill
#
# Bulk Modulus (GPa) = 9.79514 31.36011 20.57762
# Shear Modulus (GPa) = 15.77031 25.27728 20.52379
#
# Velocity S-wave (km/s) = 2.77346 3.51129 3.16395
# Velocity P-wave (km/s) = 3.87733 5.63337 4.83573
#
# Compressibility (1/GPa) = 0.10209143
#
# Stress axis : x y z
#
# Youngs Moduli (GPa) = 73.00179 58.97265 10.39983
#
# Poissons Ratio (x) = 0.43691 -0.12229
# Poissons Ratio (y) = 0.54084 0.17378
# Poissons Ratio (z) = -0.85842 0.98542
#
# Static dielectric constant tensor:
#      x y z
#    x 3.701080 -0.000020 -0.157510 
#    y -0.000020 3.521650 0.000040 
#    z -0.157510 0.000040 3.649720 
# 
# 
# High freq. dielectric constant tensor:
#      x y z
#    x 1.798570 0.000000 -0.017210 
#    y 0.000000 1.796070 0.000000 
#    z -0.017210 0.000000 1.781240 
# 
# From -- ./inp_files/353189.got.cif
#   From: 2010.06.25/outbox.cif.g09.slc.cpg/sg12_177_cif.got.tgz:353189.got - 2010.06.28 00:19:55.
