data_PCOD8106996
_publ_section_title
;
Structure prediction by ZEFSAII (Michael W. Deem and Ramdas Pophale) SiO2 
 PCOD8106996
Probable space group: C 2/M
;
_chemical_formula_sum "Si O2"
_cell_formula_units_Z 44
_cell_length_a 9.253195
_cell_length_b 17.094087
_cell_length_c 24.149754
_cell_angle_alpha 90.000000
_cell_angle_beta 36.253560
_cell_angle_gamma 90.000000
_cell_volume 2258.926502
_symmetry_space_group_name_H-M "C 2/M"
_symmetry_group_IT_number 12
_symmetry_cell_setting 'monoclinic'
loop_
_space_group_symop_operation_xyz
x,y,z
-x,y,-z
-x,-y,-z
x,-y,z
1/2+x,1/2+y,z
1/2-x,1/2+y,-z
1/2-x,1/2-y,-z
1/2+x,1/2-y,z
loop_
_atom_site_type_symbol
_atom_site_label
_atom_site_fract_x
_atom_site_fract_y
_atom_site_fract_z
Si Si1 0.481905 0.085785 0.623004
Si Si2 0.500000 0.859996 0.500000
Si Si3 0.265401 0.299191 0.939855
Si Si4 0.816174 0.913065 0.180665
Si Si5 0.451611 0.744380 0.366582
Si Si6 0.477488 0.786762 0.240030
O O1 0.413063 0.088052 0.579039
O O2 0.239726 0.088350 0.736058
O O3 0.625884 0.165079 0.595520
O O4 0.612823 0.000000 0.593376
O O5 0.279917 0.806989 0.545569
O O6 0.418236 0.375537 0.909043
O O7 0.408680 0.250923 0.849329
O O8 0.250000 0.250000 0.000000
O O9 0.000000 0.324088 0.000000
O O10 0.601936 0.871155 0.211356
O O11 0.829285 0.000000 0.152629
O O12 0.530635 0.734876 0.278042
O O13 0.682754 0.710596 0.328786
#
# Coordination Sequence:
#
# PCOD8106996 Si02
#       6
#     8   4   8   8   8   8
#     4  10  21  37  57  84 120 158 193 246 303 345
#     4  12  21  36  61  90 118 158 210 252 285 352
#     4  12  21  36  64  94 117 156 204 247 295 359
#     4  10  22  41  61  86 125 159 196 249 306 352
#     4  11  21  37  64  84 117 158 211 240 293 359
#     4  11  20  40  61  86 116 162 200 242 299 362
#
# _framework density 19.478279000000001
#
# number of rings (size 3 to 8) (size 9 to 14) (size 15 to 20)
#    0.000    1.091    7.273    0.818    0.000    0.364 
#    0.000    4.091    0.000    2.182    0.000    0.000 
#    0.000    0.000    0.000    0.000    0.000    0.000 
#
# Total GULP energy -272584.875002 kJ/mol
# GULP energy per Si atom -12390.221591 kJ/mol
# Density = 1.943395 g / cm^3
# Si number density = 19.478279 Si / 1000 Ang^3
#
#
#
# Elastic Constant Matrix: (Units=GPa)
#
#
# Indices 1 2 3 4 5 6 
#
# 1 99.2764 48.7993 32.9486 -0.0043 -16.4643 -0.0122
# 2 48.7993 134.0163 47.3105 -0.0150 -17.9260 -0.0078
# 3 32.9486 47.3105 71.5660 0.0115 -6.4949 -0.0242
# 4 -0.0043 -0.0150 0.0115 14.9445 -0.0059 -3.9435
# 5 -16.4643 -17.9260 -6.4949 -0.0059 47.8333 0.0169
# 6 -0.0122 -0.0078 -0.0242 -3.9435 0.0169 18.1348
#
#
#
# Elastic Compliance Matrix: (Units=1/GPa)
#
#
# Indices 1 2 3 4 5 6 
#
# 1 0.013360 -0.003127 -0.003820 0.000005 0.002908 0.000001
# 2 -0.003127 0.010853 -0.005531 0.000014 0.002240 -0.000004
# 3 -0.003820 -0.005531 0.019319 -0.000017 -0.000765 0.000018
# 4 0.000005 0.000014 -0.000017 0.070988 0.000008 0.015437
# 5 0.002908 0.002240 -0.000765 0.000008 0.022642 -0.000017
# 6 0.000001 -0.000004 0.000018 0.015437 -0.000017 0.058499
#
#
# Mechanical properties :
#
#
# Convention : Reuss Voigt Hill
#
# Bulk Modulus (GPa) = 53.83571 62.55283 58.19427
# Shear Modulus (GPa) = 22.04486 27.90252 24.97369
#
# Velocity S-wave (km/s) = 3.36782 3.78894 3.58457
# Velocity P-wave (km/s) = 6.54384 7.16416 6.86102
#
# Compressibility (1/GPa) = 0.01857503
#
# Stress axis : x y z
#
# Youngs Moduli (GPa) = 74.84963 92.14155 51.76271
#
# Poissons Ratio (x) = 0.28817 0.19771
# Poissons Ratio (y) = 0.23409 0.28632
# Poissons Ratio (z) = 0.28589 0.50967
#
# Static dielectric constant tensor:
#      x y z
#    x 3.794510 -0.000190 0.184760 
#    y -0.000190 3.724490 -0.000180 
#    z 0.184760 -0.000180 3.778770 
# 
# 
# High freq. dielectric constant tensor:
#      x y z
#    x 1.752730 0.000000 0.020880 
#    y 0.000000 1.746690 0.000000 
#    z 0.020880 0.000000 1.765640 
# 
# From -- ./inp_files/333273.got.cif
#   From: 2010.06.25/outbox.cif.g09.slc.cpg/sg12_167_cif.got.tgz:333273.got - 2010.06.28 00:19:55.
