data_PCOD8106250
_publ_section_title
;
Structure prediction by ZEFSAII (Michael W. Deem and Ramdas Pophale) SiO2 
 PCOD8106250
Probable space group: C 2/M
;
_chemical_formula_sum "Si O2"
_cell_formula_units_Z 56
_cell_length_a 12.703796
_cell_length_b 13.922470
_cell_length_c 17.254627
_cell_angle_alpha 90.000000
_cell_angle_beta 118.950091
_cell_angle_gamma 90.000000
_cell_volume 2670.447952
_symmetry_space_group_name_H-M "C 2/M"
_symmetry_group_IT_number 12
_symmetry_cell_setting 'monoclinic'
loop_
_space_group_symop_operation_xyz
x,y,z
-x,y,-z
-x,-y,-z
x,-y,z
1/2+x,1/2+y,z
1/2-x,1/2+y,-z
1/2-x,1/2-y,-z
1/2+x,1/2-y,z
loop_
_atom_site_type_symbol
_atom_site_label
_atom_site_fract_x
_atom_site_fract_y
_atom_site_fract_z
Si Si1 0.996899 0.747257 0.782837
Si Si2 0.459887 0.390363 0.899302
Si Si3 0.387816 0.105732 0.418058
Si Si4 0.179665 0.611366 0.773894
Si Si5 0.777971 0.859986 0.505305
Si Si6 0.782548 0.606817 0.685646
Si Si7 0.476906 0.608930 0.345556
O O1 0.106979 0.674289 0.809976
O O2 0.980171 0.819982 0.706189
O O3 0.025183 0.812677 0.867794
O O4 0.876610 0.684160 0.751380
O O5 0.495911 0.500000 0.889624
O O6 0.318489 0.375238 0.840955
O O7 0.500000 0.366558 0.000000
O O8 0.500000 0.161687 0.500000
O O9 0.349070 0.153270 0.322731
O O10 0.275548 0.094373 0.435585
O O11 0.434850 0.000000 0.412577
O O12 0.142100 0.500000 0.769394
O O13 0.750000 0.750000 0.500000
O O14 0.713292 0.900648 0.406058
O O15 0.919689 0.884592 0.551801
O O16 0.812478 0.500000 0.728743
O O17 0.650508 0.641688 0.664796
O O18 0.467497 0.500000 0.310485
#
# Coordination Sequence:
#
# PCOD8106250 Si02
#       7
#     8   8   8   8   8   8   8
#     4  12  22  39  66  93 120 154 201 251 311 376
#     4  10  23  44  68  95 125 158 200 252 311 377
#     4  10  21  36  56  84 119 160 206 254 299 348
#     4  10  22  40  64  92 126 164 206 256 309 365
#     4  12  23  36  56  81 116 167 220 262 299 359
#     4  11  24  41  59  86 124 166 208 258 313 368
#     4  11  24  40  58  83 120 163 208 258 311 362
#
# _framework density 20.970265000000001
#
# number of rings (size 3 to 8) (size 9 to 14) (size 15 to 20)
#    0.000    1.143    1.429    5.143    2.000    4.000 
#    0.000    0.000    0.000    1.714    0.000    0.000 
#    0.000    0.000    0.000    0.000    0.000    0.000 
#
# Total GULP energy -347168.959085 kJ/mol
# GULP energy per Si atom -12398.891396 kJ/mol
# Density = 2.092254 g / cm^3
# Si number density = 20.970265 Si / 1000 Ang^3
#
#
#
# Elastic Constant Matrix: (Units=GPa)
#
#
# Indices 1 2 3 4 5 6 
#
# 1 101.7306 40.1017 37.9938 0.0000 -5.6665 0.0000
# 2 40.1017 115.6620 37.5249 0.0000 -8.6648 0.0000
# 3 37.9938 37.5249 123.8264 0.0000 -8.0813 0.0000
# 4 0.0000 0.0000 0.0000 24.4213 0.0000 -3.9023
# 5 -5.6665 -8.6648 -8.0813 0.0000 20.5044 0.0000
# 6 0.0000 0.0000 0.0000 -3.9023 0.0000 36.0907
#
#
#
# Elastic Compliance Matrix: (Units=1/GPa)
#
#
# Indices 1 2 3 4 5 6 
#
# 1 0.012177 -0.003283 -0.002681 0.000000 0.000921 0.000000
# 2 -0.003283 0.010655 -0.002039 0.000000 0.002792 0.000000
# 3 -0.002681 -0.002039 0.009660 0.000000 0.002205 0.000000
# 4 0.000000 0.000000 0.000000 0.041668 0.000000 0.004505
# 5 0.000921 0.002792 0.002205 0.000000 0.051073 0.000000
# 6 0.000000 0.000000 0.000000 0.004505 0.000000 0.028195
#
#
# Mechanical properties :
#
#
# Convention : Reuss Voigt Hill
#
# Bulk Modulus (GPa) = 60.66166 63.60664 62.13415
# Shear Modulus (GPa) = 28.58283 31.24318 29.91300
#
# Velocity S-wave (km/s) = 3.69591 3.86408 3.78093
# Velocity P-wave (km/s) = 6.87046 7.09266 6.98245
#
# Compressibility (1/GPa) = 0.01648488
#
# Stress axis : x y z
#
# Youngs Moduli (GPa) = 82.12422 93.85340 103.51522
#
# Poissons Ratio (x) = 0.30812 0.27754
# Poissons Ratio (y) = 0.26961 0.21111
# Poissons Ratio (z) = 0.22019 0.19141
#
# Static dielectric constant tensor:
#      x y z
#    x 5.527640 0.000000 -0.476120 
#    y 0.000000 5.042890 0.000000 
#    z -0.476120 0.000000 3.775020 
# 
# 
# High freq. dielectric constant tensor:
#      x y z
#    x 1.822660 0.000000 0.007680 
#    y 0.000000 1.842090 0.000000 
#    z 0.007680 0.000000 1.783440 
# 
# From -- ./inp_files/263234.got.cif
#   From: 2010.06.25/outbox.cif.g09.slc.cpg/sg12_132_cif.got.tgz:263234.got - 2010.06.28 00:19:55.
