data_PCOD8106494
_publ_section_title
;
Structure prediction by ZEFSAII (Michael W. Deem and Ramdas Pophale) SiO2 
 PCOD8106494
Probable space group: C 2/M
;
_chemical_formula_sum "Si O2"
_cell_formula_units_Z 56
_cell_length_a 22.329880
_cell_length_b 9.029274
_cell_length_c 14.312767
_cell_angle_alpha 90.000000
_cell_angle_beta 76.851810
_cell_angle_gamma 90.000000
_cell_volume 2810.126690
_symmetry_space_group_name_H-M "C 2/M"
_symmetry_group_IT_number 12
_symmetry_cell_setting 'monoclinic'
loop_
_space_group_symop_operation_xyz
x,y,z
-x,y,-z
-x,-y,-z
x,-y,z
1/2+x,1/2+y,z
1/2-x,1/2+y,-z
1/2-x,1/2-y,-z
1/2+x,1/2-y,z
loop_
_atom_site_type_symbol
_atom_site_label
_atom_site_fract_x
_atom_site_fract_y
_atom_site_fract_z
Si Si1 0.536261 0.170858 0.781268
Si Si2 0.362051 0.674792 0.614823
Si Si3 0.364179 0.670219 0.142892
Si Si4 0.881065 0.329469 0.420234
Si Si5 0.185744 0.827995 0.039422
Si Si6 0.899266 0.325580 0.784187
Si Si7 0.721937 0.827957 0.687343
O O1 0.570599 0.262253 0.849471
O O2 0.563465 0.208820 0.669729
O O3 0.464516 0.209875 0.809000
O O4 0.548862 0.000000 0.799223
O O5 0.369872 0.500000 0.623924
O O6 0.389093 0.723741 0.505872
O O7 0.400537 0.758890 0.680115
O O8 0.291151 0.725675 0.646369
O O9 0.363633 0.500000 0.171607
O O10 0.357876 0.693499 0.034582
O O11 0.306088 0.744278 0.214081
O O12 0.883464 0.500000 0.451914
O O13 0.816619 0.293098 0.392277
O O14 0.197035 0.000000 0.057860
O O15 0.250000 0.750000 0.000000
O O16 0.154210 0.753020 0.139266
O O17 0.886726 0.500000 0.783968
O O18 0.718502 0.000000 0.713343
#
# Coordination Sequence:
#
# PCOD8106494 Si02
#       7
#     8   8   8   8   8   8   8
#     4   9  21  41  61  82 111 149 193 233 278 337
#     4  11  22  35  54  83 116 151 190 236 287 337
#     4  10  21  36  59  87 114 145 183 232 285 331
#     4   9  18  35  57  80 109 147 190 236 281 335
#     4  11  24  41  61  89 120 150 185 228 280 337
#     4  11  24  41  60  82 111 151 194 236 280 333
#     4   9  19  35  55  81 115 151 187 228 279 339
#
# _framework density 19.927925999999999
#
# number of rings (size 3 to 8) (size 9 to 14) (size 15 to 20)
#    0.000    2.000    0.000    3.857    0.000   10.286 
#    0.000    5.714    0.000    0.000    0.000    0.000 
#    0.000    0.000    0.000    0.000    0.000    0.000 
#
# Total GULP energy -347339.724798 kJ/mol
# GULP energy per Si atom -12404.990171 kJ/mol
# Density = 1.988257 g / cm^3
# Si number density = 19.927926 Si / 1000 Ang^3
#
#
#
# Elastic Constant Matrix: (Units=GPa)
#
#
# Indices 1 2 3 4 5 6 
#
# 1 78.4394 43.0200 20.6911 0.0000 -2.6535 0.0000
# 2 43.0200 97.6912 37.8015 0.0000 8.9185 0.0000
# 3 20.6911 37.8015 66.1710 0.0000 11.5455 0.0000
# 4 0.0000 0.0000 0.0000 37.5482 0.0000 2.5806
# 5 -2.6535 8.9185 11.5455 0.0000 26.3341 0.0000
# 6 0.0000 0.0000 0.0000 2.5806 0.0000 31.6124
#
#
#
# Elastic Compliance Matrix: (Units=1/GPa)
#
#
# Indices 1 2 3 4 5 6 
#
# 1 0.017535 -0.007349 -0.002195 0.000000 0.005218 0.000000
# 2 -0.007349 0.016259 -0.006389 0.000000 -0.003446 0.000000
# 3 -0.002195 -0.006389 0.020693 0.000000 -0.007130 0.000000
# 4 0.000000 0.000000 0.000000 0.026783 0.000000 -0.002186
# 5 0.005218 -0.003446 -0.007130 0.000000 0.042792 0.000000
# 6 0.000000 0.000000 0.000000 -0.002186 0.000000 0.031812
#
#
# Mechanical properties :
#
#
# Convention : Reuss Voigt Hill
#
# Bulk Modulus (GPa) = 44.20837 49.48074 46.84455
# Shear Modulus (GPa) = 25.60425 28.48487 27.04456
#
# Velocity S-wave (km/s) = 3.58836 3.78484 3.68791
# Velocity P-wave (km/s) = 6.27700 6.63202 6.45695
#
# Compressibility (1/GPa) = 0.02262015
#
# Stress axis : x y z
#
# Youngs Moduli (GPa) = 57.03006 61.50309 48.32572
#
# Poissons Ratio (x) = 0.45196 0.10609
# Poissons Ratio (y) = 0.41909 0.30877
# Poissons Ratio (z) = 0.12520 0.39297
#
# Static dielectric constant tensor:
#      x y z
#    x 3.727650 0.000000 0.024040 
#    y 0.000000 3.614000 0.000000 
#    z 0.024040 0.000000 3.538450 
# 
# 
# High freq. dielectric constant tensor:
#      x y z
#    x 1.779610 0.000000 0.004770 
#    y 0.000000 1.781170 0.000000 
#    z 0.004770 0.000000 1.776980 
# 
# From -- ./inp_files/237461.got.cif
#   From: 2010.06.25/outbox.cif.g09.slc.cpg/sg12_119_cif.got.tgz:237461.got - 2010.06.28 00:19:55.
