data_PCOD8106967
_publ_section_title
;
Structure prediction by ZEFSAII (Michael W. Deem and Ramdas Pophale) SiO2 
 PCOD8106967
Probable space group: C 2/M
;
_chemical_formula_sum "Si O2"
_cell_formula_units_Z 64
_cell_length_a 20.586384
_cell_length_b 8.822044
_cell_length_c 24.329840
_cell_angle_alpha 90.000000
_cell_angle_beta 128.832383
_cell_angle_gamma 90.000000
_cell_volume 3442.047876
_symmetry_space_group_name_H-M "C 2/M"
_symmetry_group_IT_number 12
_symmetry_cell_setting 'monoclinic'
loop_
_space_group_symop_operation_xyz
x,y,z
-x,y,-z
-x,-y,-z
x,-y,z
1/2+x,1/2+y,z
1/2-x,1/2+y,-z
1/2-x,1/2-y,-z
1/2+x,1/2-y,z
loop_
_atom_site_type_symbol
_atom_site_label
_atom_site_fract_x
_atom_site_fract_y
_atom_site_fract_z
Si Si1 0.902793 0.173917 0.303233
Si Si2 0.804605 0.179384 0.076245
Si Si3 0.159281 0.821014 0.451560
Si Si4 0.456994 0.327409 0.709022
Si Si5 0.258977 0.819910 0.841440
Si Si6 0.017833 0.677897 0.844055
Si Si7 0.943070 0.679974 0.920208
Si Si8 0.020293 0.322357 0.449085
O O1 0.808436 0.228480 0.240679
O O2 0.954221 0.189571 0.274013
O O3 0.940183 0.279951 0.370092
O O4 0.906700 0.000000 0.325794
O O5 0.768513 0.243822 0.114143
O O6 0.899380 0.227335 0.120458
O O7 0.798065 0.000000 0.069888
O O8 0.750000 0.250000 0.000000
O O9 0.250000 0.750000 0.500000
O O10 0.115945 0.775485 0.371086
O O11 0.103880 0.760429 0.472699
O O12 0.165494 0.000000 0.461265
O O13 0.443087 0.500000 0.720719
O O14 0.454365 0.219491 0.761005
O O15 0.349675 0.752604 0.875188
O O16 0.261356 0.000000 0.845326
O O17 0.037021 0.500000 0.854209
O O18 0.979222 0.731632 0.881130
O O19 0.939767 0.500000 0.922696
O O20 0.000000 0.745032 0.000000
O O21 0.036782 0.500000 0.454123
O O22 0.000000 0.270021 0.500000
#
# Coordination Sequence:
#
# PCOD8106967 Si02
#       8
#     8   8   8   8   8   8   8   8
#     4   9  17  33  57  81 105 142 189 230 276 326
#     4  11  21  35  56  81 107 137 178 227 276 323
#     4  10  21  38  61  86 115 151 192 232 280 336
#     4   9  18  35  56  80 111 146 178 223 279 327
#     4   9  17  33  55  76 104 140 181 228 271 317
#     4  11  21  33  54  83 110 140 181 224 272 329
#     4   9  18  33  52  75 106 142 181 224 269 318
#     4  10  21  37  57  83 118 152 184 230 285 332
#
# _framework density 18.593582999999999
#
# number of rings (size 3 to 8) (size 9 to 14) (size 15 to 20)
#    0.000    2.250    1.250    3.000    0.000    5.500 
#    2.250    0.000    0.000    9.000    0.000    0.000 
#    0.000    0.000    0.000    0.000    0.000    0.000 
#
# Total GULP energy -396811.447058 kJ/mol
# GULP energy per Si atom -12400.357721 kJ/mol
# Density = 1.855126 g / cm^3
# Si number density = 18.593583 Si / 1000 Ang^3
#
#
#
# Elastic Constant Matrix: (Units=GPa)
#
#
# Indices 1 2 3 4 5 6 
#
# 1 135.2736 34.8712 81.5203 0.0000 2.6030 0.0000
# 2 34.8712 51.6776 34.0454 0.0000 -5.2417 0.0000
# 3 81.5203 34.0454 129.8720 0.0000 2.3530 0.0000
# 4 0.0000 0.0000 0.0000 33.5973 0.0000 -0.9411
# 5 2.6030 -5.2417 2.3530 0.0000 39.5573 0.0000
# 6 0.0000 0.0000 0.0000 -0.9411 0.0000 23.9423
#
#
#
# Elastic Compliance Matrix: (Units=1/GPa)
#
#
# Indices 1 2 3 4 5 6 
#
# 1 0.012561 -0.004099 -0.006792 0.000000 -0.000966 0.000000
# 2 -0.004099 0.025213 -0.004106 0.000000 0.003855 0.000000
# 3 -0.006792 -0.004106 0.013056 0.000000 -0.000874 0.000000
# 4 0.000000 0.000000 0.000000 0.029797 0.000000 0.001171
# 5 -0.000966 0.003855 -0.000874 0.000000 0.025906 0.000000
# 6 0.000000 0.000000 0.000000 0.001171 0.000000 0.041813
#
#
# Mechanical properties :
#
#
# Convention : Reuss Voigt Hill
#
# Bulk Modulus (GPa) = 47.99829 68.63301 58.31565
# Shear Modulus (GPa) = 26.98522 30.51181 28.74851
#
# Velocity S-wave (km/s) = 3.81375 4.05530 3.93638
# Velocity P-wave (km/s) = 6.72781 7.67591 7.21745
#
# Compressibility (1/GPa) = 0.02083407
#
# Stress axis : x y z
#
# Youngs Moduli (GPa) = 79.61127 39.66208 76.59413
#
# Poissons Ratio (x) = 0.16257 0.52027
# Poissons Ratio (y) = 0.32633 0.31453
# Poissons Ratio (z) = 0.54076 0.16287
#
# Static dielectric constant tensor:
#      x y z
#    x 3.502430 0.000000 -0.006330 
#    y 0.000000 3.146090 0.000000 
#    z -0.006330 0.000000 3.487570 
# 
# 
# High freq. dielectric constant tensor:
#      x y z
#    x 1.715130 0.000000 0.002730 
#    y 0.000000 1.700550 0.000000 
#    z 0.002730 0.000000 1.734810 
# 
# From -- ./inp_files/346288.got.cif
#   From: 2010.06.25/outbox.cif.g09.slc.cpg/sg12_174_cif.got.tgz:346288.got - 2010.06.28 00:19:55.
