data_PCOD8106317
_publ_section_title
;
Structure prediction by ZEFSAII (Michael W. Deem and Ramdas Pophale) SiO2 
 PCOD8106317
Probable space group: C 2/M
;
_chemical_formula_sum "Si O2"
_cell_formula_units_Z 60
_cell_length_a 21.913327
_cell_length_b 25.894224
_cell_length_c 9.694612
_cell_angle_alpha 90.000000
_cell_angle_beta 143.478293
_cell_angle_gamma 90.000000
_cell_volume 3273.795290
_symmetry_space_group_name_H-M "C 2/M"
_symmetry_group_IT_number 12
_symmetry_cell_setting 'monoclinic'
loop_
_space_group_symop_operation_xyz
x,y,z
-x,y,-z
-x,-y,-z
x,-y,z
1/2+x,1/2+y,z
1/2-x,1/2+y,-z
1/2-x,1/2-y,-z
1/2+x,1/2-y,z
loop_
_atom_site_type_symbol
_atom_site_label
_atom_site_fract_x
_atom_site_fract_y
_atom_site_fract_z
Si Si1 0.218188 0.855267 0.407169
Si Si2 0.094407 0.942378 0.774001
Si Si3 0.826529 0.169336 0.111824
Si Si4 0.170290 0.295930 0.609253
Si Si5 0.459644 0.753937 0.205790
Si Si6 0.500000 0.299110 0.000000
Si Si7 0.905417 0.942217 0.908631
Si Si8 0.762375 0.307601 0.766253
O O1 0.311324 0.837656 0.477206
O O2 0.107026 0.829673 0.177590
O O3 0.199938 0.914123 0.326493
O O4 0.255896 0.850342 0.633795
O O5 0.167094 0.892769 0.889531
O O6 0.000000 0.934501 0.500000
O O7 0.144372 0.000000 0.836413
O O8 0.060601 0.939988 0.870754
O O9 0.921231 0.203682 0.223562
O O10 0.816999 0.178873 0.256664
O O11 0.724411 0.187774 0.849616
O O12 0.225225 0.246761 0.638030
O O13 0.054496 0.284275 0.448071
O O14 0.507679 0.735994 0.148650
O O15 0.376097 0.798976 0.031716
O O16 0.887997 0.000000 0.825374
O O17 0.000000 0.916023 0.000000
#
# Coordination Sequence:
#
# PCOD8106317 Si02
#       8
#     8   8   8   8   8   4   8   8
#     4  12  21  36  56  82 111 155 187 226 279 339
#     4  10  22  39  59  84 112 147 187 231 285 342
#     4  11  24  38  54  85 117 150 187 228 287 335
#     4  11  21  38  56  78 110 154 196 222 276 341
#     4  11  22  36  56  81 114 155 189 235 271 328
#     4  12  18  32  57  76 110 148 187 226 276 322
#     4  10  21  36  57  85 110 141 187 236 285 337
#     4  11  24  35  52  83 115 147 193 227 275 340
#
# _framework density 18.327352999999999
#
# number of rings (size 3 to 8) (size 9 to 14) (size 15 to 20)
#    0.000    1.067    6.000    2.800    3.733    1.600 
#    0.000    0.000    0.000    0.000    0.000    5.600 
#    0.000    0.000    0.000    0.000    0.000    0.000 
#
# Total GULP energy -371710.547319 kJ/mol
# GULP energy per Si atom -12390.351577 kJ/mol
# Density = 1.828564 g / cm^3
# Si number density = 18.327353 Si / 1000 Ang^3
#
#
#
# Elastic Constant Matrix: (Units=GPa)
#
#
# Indices 1 2 3 4 5 6 
#
# 1 72.7993 32.0160 30.1913 0.0000 -5.5754 0.0000
# 2 32.0160 97.3209 46.0148 0.0000 5.4045 0.0000
# 3 30.1913 46.0148 89.7620 0.0000 4.3647 0.0000
# 4 0.0000 0.0000 0.0000 16.7998 0.0000 -3.1574
# 5 -5.5754 5.4045 4.3647 0.0000 39.7556 0.0000
# 6 0.0000 0.0000 0.0000 -3.1574 0.0000 17.9964
#
#
#
# Elastic Compliance Matrix: (Units=1/GPa)
#
#
# Indices 1 2 3 4 5 6 
#
# 1 0.017419 -0.004054 -0.003947 0.000000 0.003427 0.000000
# 2 -0.004054 0.014553 -0.006005 0.000000 -0.001888 0.000000
# 3 -0.003947 -0.006005 0.015617 0.000000 -0.001452 0.000000
# 4 0.000000 0.000000 0.000000 0.061554 0.000000 0.010800
# 5 0.003427 -0.001888 -0.001452 0.000000 0.026050 0.000000
# 6 0.000000 0.000000 0.000000 0.010800 0.000000 0.057461
#
#
# Mechanical properties :
#
#
# Convention : Reuss Voigt Hill
#
# Bulk Modulus (GPa) = 51.08219 52.92516 52.00368
# Shear Modulus (GPa) = 22.00769 25.02102 23.51436
#
# Velocity S-wave (km/s) = 3.46903 3.69891 3.58581
# Velocity P-wave (km/s) = 6.63161 6.86898 6.75134
#
# Compressibility (1/GPa) = 0.01957629
#
# Stress axis : x y z
#
# Youngs Moduli (GPa) = 57.40894 68.71370 64.03260
#
# Poissons Ratio (x) = 0.27860 0.25274
# Poissons Ratio (y) = 0.23276 0.38451
# Poissons Ratio (z) = 0.22659 0.41262
#
# Static dielectric constant tensor:
#      x y z
#    x 3.360860 0.000000 -0.096070 
#    y 0.000000 3.516170 0.000000 
#    z -0.096070 0.000000 3.401210 
# 
# 
# High freq. dielectric constant tensor:
#      x y z
#    x 1.708420 0.000000 -0.022260 
#    y 0.000000 1.692480 0.000000 
#    z -0.022260 0.000000 1.705580 
# 
# From -- ./inp_files/91258.got.cif
#   From: 2010.06.25/outbox.cif.g09.slc.cpg/sg12_46_cif.got.tgz:91258.got - 2010.06.28 00:19:55.
