data_PCOD8106768
_publ_section_title
;
Structure prediction by ZEFSAII (Michael W. Deem and Ramdas Pophale) SiO2 
 PCOD8106768
Probable space group: C 2/M
;
_chemical_formula_sum "Si O2"
_cell_formula_units_Z 64
_cell_length_a 11.391727
_cell_length_b 19.263549
_cell_length_c 20.943155
_cell_angle_alpha 90.000000
_cell_angle_beta 137.066395
_cell_angle_gamma 90.000000
_cell_volume 3130.480439
_symmetry_space_group_name_H-M "C 2/M"
_symmetry_group_IT_number 12
_symmetry_cell_setting 'monoclinic'
loop_
_space_group_symop_operation_xyz
x,y,z
-x,y,-z
-x,-y,-z
x,-y,z
1/2+x,1/2+y,z
1/2-x,1/2+y,-z
1/2-x,1/2-y,-z
1/2+x,1/2-y,z
loop_
_atom_site_type_symbol
_atom_site_label
_atom_site_fract_x
_atom_site_fract_y
_atom_site_fract_z
Si Si1 0.948276 0.315820 0.117955
Si Si2 0.945077 0.827469 0.050947
Si Si3 0.637711 0.619370 0.601257
Si Si4 0.401168 0.705185 0.589646
Si Si5 0.492193 0.826034 0.709668
Si Si6 0.291063 0.419049 0.774599
Si Si7 0.896769 0.079484 0.674016
Si Si8 0.268864 0.924721 0.785091
O O1 0.998725 0.241386 0.110336
O O2 0.960635 0.314350 0.198512
O O3 0.084686 0.369052 0.142283
O O4 0.758316 0.340460 0.022417
O O5 0.042841 0.892363 0.120693
O O6 0.000000 0.817833 0.000000
O O7 0.500000 0.579918 0.500000
O O8 0.538483 0.686611 0.589711
O O9 0.799146 0.644724 0.623578
O O10 0.704166 0.572317 0.685656
O O11 0.250000 0.750000 0.500000
O O12 0.507237 0.751277 0.682572
O O13 0.326953 0.635007 0.594144
O O14 0.619708 0.880949 0.729015
O O15 0.271875 0.500000 0.782266
O O16 0.310573 0.404853 0.707329
O O17 0.103237 0.090180 0.763389
O O18 0.856208 0.000000 0.635675
O O19 0.348045 0.000000 0.832192
#
# Coordination Sequence:
#
# PCOD8106768 Si02
#       8
#     8   8   8   8   8   8   8   8
#     4  10  23  39  63  94 127 164 208 265 325 378
#     4  11  23  41  62  95 129 163 212 263 320 378
#     4  10  21  37  55  92 123 157 205 259 321 358
#     4  11  22  37  66  95 121 165 216 263 314 375
#     4  11  23  38  61  93 126 165 212 262 309 379
#     4  11  25  43  65  93 127 175 215 255 321 388
#     4   9  21  42  65  91 128 171 211 258 320 382
#     4   9  20  38  63  89 117 163 208 254 316 375
#
# _framework density 20.444146
#
# number of rings (size 3 to 8) (size 9 to 14) (size 15 to 20)
#    0.000    1.750    2.500    0.750    7.000    5.000 
#    0.000    0.625    0.000    4.125    0.000    0.000 
#    0.000    0.000    0.000    0.000    0.000    0.000 
#
# Total GULP energy -396796.411350 kJ/mol
# GULP energy per Si atom -12399.887855 kJ/mol
# Density = 2.039761 g / cm^3
# Si number density = 20.444146 Si / 1000 Ang^3
#
#
#
# Elastic Constant Matrix: (Units=GPa)
#
#
# Indices 1 2 3 4 5 6 
#
# 1 94.7917 56.1455 33.0445 0.0000 -6.2911 0.0000
# 2 56.1455 140.9378 56.2989 0.0000 0.3540 0.0000
# 3 33.0445 56.2989 86.6913 0.0000 9.5743 0.0000
# 4 0.0000 0.0000 0.0000 25.9245 0.0000 -1.7979
# 5 -6.2911 0.3540 9.5743 0.0000 25.7682 0.0000
# 6 0.0000 0.0000 0.0000 -1.7979 0.0000 28.4821
#
#
#
# Elastic Compliance Matrix: (Units=1/GPa)
#
#
# Indices 1 2 3 4 5 6 
#
# 1 0.014695 -0.004613 -0.003138 0.000000 0.004817 0.000000
# 2 -0.004613 0.011158 -0.005575 0.000000 0.000792 0.000000
# 3 -0.003138 -0.005575 0.017131 0.000000 -0.007055 0.000000
# 4 0.000000 0.000000 0.000000 0.038743 0.000000 0.002446
# 5 0.004817 0.000792 -0.007055 0.000000 0.042594 0.000000
# 6 0.000000 0.000000 0.000000 0.002446 0.000000 0.035264
#
#
# Mechanical properties :
#
#
# Convention : Reuss Voigt Hill
#
# Bulk Modulus (GPa) = 61.22829 68.15539 64.69184
# Shear Modulus (GPa) = 26.08491 27.83042 26.95766
#
# Velocity S-wave (km/s) = 3.57586 3.69357 3.63519
# Velocity P-wave (km/s) = 6.86026 7.18329 7.02363
#
# Compressibility (1/GPa) = 0.01633232
#
# Stress axis : x y z
#
# Youngs Moduli (GPa) = 68.04978 89.62084 58.37320
#
# Poissons Ratio (x) = 0.41340 0.18316
# Poissons Ratio (y) = 0.31390 0.32546
# Poissons Ratio (z) = 0.21352 0.49968
#
# Static dielectric constant tensor:
#      x y z
#    x 3.885640 0.000000 0.035060 
#    y 0.000000 3.765990 0.000000 
#    z 0.035060 0.000000 3.674670 
# 
# 
# High freq. dielectric constant tensor:
#      x y z
#    x 1.811890 0.000000 0.000820 
#    y 0.000000 1.799460 0.000000 
#    z 0.000820 0.000000 1.790590 
# 
# From -- ./inp_files/306818.got.cif
#   From: 2010.06.25/outbox.cif.g09.slc.cpg/sg12_154_cif.got.tgz:306818.got - 2010.06.28 00:19:55.
