data_PCOD8106363
_publ_section_title
;
Structure prediction by ZEFSAII (Michael W. Deem and Ramdas Pophale) SiO2 
 PCOD8106363
Probable space group: C 2/M
;
_chemical_formula_sum "Si O2"
_cell_formula_units_Z 64
_cell_length_a 16.069787
_cell_length_b 17.280832
_cell_length_c 16.148825
_cell_angle_alpha 90.000000
_cell_angle_beta 133.764981
_cell_angle_gamma 90.000000
_cell_volume 3238.642683
_symmetry_space_group_name_H-M "C 2/M"
_symmetry_group_IT_number 12
_symmetry_cell_setting 'monoclinic'
loop_
_space_group_symop_operation_xyz
x,y,z
-x,y,-z
-x,-y,-z
x,-y,z
1/2+x,1/2+y,z
1/2-x,1/2+y,-z
1/2-x,1/2-y,-z
1/2+x,1/2-y,z
loop_
_atom_site_type_symbol
_atom_site_label
_atom_site_fract_x
_atom_site_fract_y
_atom_site_fract_z
Si Si1 0.542217 0.669119 0.117824
Si Si2 0.622019 0.219314 0.912246
Si Si3 0.127820 0.413353 0.621182
Si Si4 0.776617 0.302963 0.737879
Si Si5 0.154560 0.796323 0.481803
Si Si6 0.513039 0.086196 0.105591
Si Si7 0.157228 0.088223 0.338657
Si Si8 0.086906 0.730829 0.700563
O O1 0.435068 0.721734 0.064983
O O2 0.655632 0.722685 0.201831
O O3 0.563974 0.602338 0.200581
O O4 0.500000 0.634367 0.000000
O O5 0.594537 0.133245 0.928180
O O6 0.567296 0.224041 0.784352
O O7 0.750000 0.250000 0.000000
O O8 0.161394 0.500000 0.677192
O O9 0.214935 0.389520 0.606993
O O10 0.135922 0.350766 0.699988
O O11 0.000000 0.414706 0.500000
O O12 0.708906 0.316788 0.606557
O O13 0.862925 0.374595 0.797293
O O14 0.677852 0.299716 0.741226
O O15 0.250000 0.750000 0.500000
O O16 0.124286 0.867929 0.400636
O O17 0.038736 0.748758 0.423051
O O18 0.513675 0.000000 0.145634
O O19 0.500000 0.080225 0.000000
O O20 0.151163 0.000000 0.360383
#
# Coordination Sequence:
#
# PCOD8106363 Si02
#       8
#     8   8   8   8   8   8   8   8
#     4  11  21  40  62  88 120 161 212 253 304 368
#     4  11  22  37  63  93 122 157 207 260 306 368
#     4  10  21  36  57  87 123 157 192 246 306 361
#     4  11  21  37  64  91 119 159 211 253 309 374
#     4  12  21  38  60  90 126 162 204 251 305 376
#     4  10  22  42  63  88 124 164 211 267 315 362
#     4  11  23  41  61  89 126 163 203 249 309 372
#     4  12  21  36  61  92 122 159 210 253 301 374
#
# _framework density 19.761365000000001
#
# number of rings (size 3 to 8) (size 9 to 14) (size 15 to 20)
#    0.000    1.000    3.750    5.625    0.000    1.250 
#    0.000    2.500    0.000    1.500    0.000    0.000 
#    0.000    0.000    0.000    0.000    0.000    0.000 
#
# Total GULP energy -396519.019346 kJ/mol
# GULP energy per Si atom -12391.219355 kJ/mol
# Density = 1.971639 g / cm^3
# Si number density = 19.761365 Si / 1000 Ang^3
#
#
#
# Elastic Constant Matrix: (Units=GPa)
#
#
# Indices 1 2 3 4 5 6 
#
# 1 80.5090 41.9466 13.8381 0.0000 10.6297 0.0000
# 2 41.9466 96.1241 27.7370 0.0000 7.5432 0.0000
# 3 13.8381 27.7370 104.5553 0.0000 -4.6981 0.0000
# 4 0.0000 0.0000 0.0000 16.1356 0.0000 -13.5464
# 5 10.6297 7.5432 -4.6981 0.0000 42.8692 0.0000
# 6 0.0000 0.0000 0.0000 -13.5464 0.0000 10.4726
#
#
#
# Elastic Compliance Matrix: (Units=1/GPa)
#
#
# Indices 1 2 3 4 5 6 
#
# 1 0.016436 -0.006797 -0.000504 0.000000 -0.002935 0.000000
# 2 -0.006797 0.014311 -0.002949 0.000000 -0.001156 0.000000
# 3 -0.000504 -0.002949 0.010494 0.000000 0.001794 0.000000
# 4 0.000000 0.000000 0.000000 -0.721029 0.000000 -0.932662
# 5 -0.002935 -0.001156 0.001794 0.000000 0.024454 0.000000
# 6 0.000000 0.000000 0.000000 -0.932662 0.000000 -1.110923
#
#
# Mechanical properties :
#
#
# Convention : Reuss Voigt Hill
#
# Bulk Modulus (GPa) = 48.21226 49.80355 49.00791
# Shear Modulus (GPa) = -2.87547 27.07325 12.09889
#
# Velocity S-wave (km/s) = -1.20758 3.70538 2.47705
# Velocity P-wave (km/s) = 4.74403 6.60028 5.74759
#
# Compressibility (1/GPa) = 0.02074161
#
# Stress axis : x y z
#
# Youngs Moduli (GPa) = 60.84084 69.87742 95.29308
#
# Poissons Ratio (x) = 0.47494 0.04805
# Poissons Ratio (y) = 0.41352 0.28100
# Poissons Ratio (z) = 0.03068 0.20606
#
# Static dielectric constant tensor:
#      x y z
#    x 2.990460 0.000000 0.622840 
#    y 0.000000 3.754180 0.000000 
#    z 0.622840 0.000000 3.941140 
# 
# 
# High freq. dielectric constant tensor:
#      x y z
#    x 1.778660 0.000000 0.004500 
#    y 0.000000 1.753620 0.000000 
#    z 0.004500 0.000000 1.777470 
# 
# From -- ./inp_files/216834.got.cif
#   From: 2010.06.25/outbox.cif.g09.slc.cpg/sg12_109_cif.got.tgz:216834.got - 2010.06.28 00:19:55.
