data_PCOD8106252
_publ_section_title
;
Structure prediction by ZEFSAII (Michael W. Deem and Ramdas Pophale) SiO2 
 PCOD8106252
Probable space group: C 2/M
;
_chemical_formula_sum "Si O2"
_cell_formula_units_Z 56
_cell_length_a 17.796709
_cell_length_b 7.830623
_cell_length_c 29.777710
_cell_angle_alpha 90.000000
_cell_angle_beta 138.157173
_cell_angle_gamma 90.000000
_cell_volume 2768.288956
_symmetry_space_group_name_H-M "C 2/M"
_symmetry_group_IT_number 12
_symmetry_cell_setting 'monoclinic'
loop_
_space_group_symop_operation_xyz
x,y,z
-x,y,-z
-x,-y,-z
x,-y,z
1/2+x,1/2+y,z
1/2-x,1/2+y,-z
1/2-x,1/2-y,-z
1/2+x,1/2-y,z
loop_
_atom_site_type_symbol
_atom_site_label
_atom_site_fract_x
_atom_site_fract_y
_atom_site_fract_z
Si Si1 0.794028 0.701207 0.695285
Si Si2 0.876983 0.309081 0.561717
Si Si3 0.455254 0.306538 0.689806
Si Si4 0.798318 0.804480 0.171119
Si Si5 0.882911 0.694403 0.832431
Si Si6 0.316970 0.500000 0.923414
Si Si7 0.047868 0.194412 0.566675
Si Si8 0.001105 0.000000 0.073657
O O1 0.800264 0.500000 0.689825
O O2 0.869410 0.795733 0.692494
O O3 0.839378 0.748400 0.764397
O O4 0.667131 0.775985 0.634465
O O5 0.887167 0.500000 0.548082
O O6 0.750000 0.250000 0.500000
O O7 0.912850 0.305679 0.629536
O O8 0.959105 0.197478 0.567634
O O9 0.463315 0.500000 0.676144
O O10 0.577201 0.243501 0.760185
O O11 0.722482 0.788828 0.181429
O O12 0.756390 0.673273 0.114104
O O13 0.796500 0.000000 0.151730
O O14 0.930759 0.500000 0.854709
O O15 0.981221 0.827247 0.889534
O O16 0.412213 0.500000 0.928371
O O17 0.373900 0.500000 0.997960
O O18 0.000000 0.284649 0.500000
O O19 0.074269 0.000000 0.566356
#
# Coordination Sequence:
#
# PCOD8106252 Si02
#       8
#     8   8   8   8   8   4   8   4
#     4  10  21  36  56  85 115 152 192 237 292 346
#     4  12  25  40  60  84 115 153 193 240 288 341
#     4  11  23  38  58  85 114 150 193 240 287 345
#     4   9  19  35  56  84 115 151 190 237 294 346
#     4   9  18  34  55  81 116 151 189 240 291 348
#     4   9  18  32  56  86 118 146 184 243 285 349
#     4  10  21  39  61  84 116 152 189 239 291 343
#     4   9  18  32  54  88 115 146 191 231 293 349
#
# _framework density 20.229102999999999
#
# number of rings (size 3 to 8) (size 9 to 14) (size 15 to 20)
#    0.000    2.000    0.000    3.429    3.000    4.857 
#    2.571    2.857    0.000    0.857    0.000    0.000 
#    0.000    0.000    0.000    0.000    0.000    0.000 
#
# Total GULP energy -347215.794178 kJ/mol
# GULP energy per Si atom -12400.564078 kJ/mol
# Density = 2.018306 g / cm^3
# Si number density = 20.229103 Si / 1000 Ang^3
#
#
#
# Elastic Constant Matrix: (Units=GPa)
#
#
# Indices 1 2 3 4 5 6 
#
# 1 80.9222 18.4183 55.5957 0.0001 -0.5142 -0.0002
# 2 18.4183 87.0282 67.4441 0.0006 -2.1918 -0.0009
# 3 55.5957 67.4441 188.4911 0.0000 -1.8903 -0.0001
# 4 0.0001 0.0006 0.0000 29.0456 0.0000 -0.1554
# 5 -0.5142 -2.1918 -1.8903 0.0000 26.1502 0.0001
# 6 -0.0002 -0.0009 -0.0001 -0.1554 0.0001 22.4027
#
#
#
# Elastic Compliance Matrix: (Units=1/GPa)
#
#
# Indices 1 2 3 4 5 6 
#
# 1 0.015506 0.000363 -0.004704 0.000000 -0.000005 0.000000
# 2 0.000363 0.015930 -0.005798 0.000000 0.000923 0.000001
# 3 -0.004704 -0.005798 0.008768 0.000000 0.000055 0.000000
# 4 0.000000 0.000000 0.000000 0.034430 0.000000 0.000239
# 5 -0.000005 0.000923 0.000055 0.000000 0.038322 0.000000
# 6 0.000000 0.000001 0.000000 0.000239 0.000000 0.044639
#
#
# Mechanical properties :
#
#
# Convention : Reuss Voigt Hill
#
# Bulk Modulus (GPa) = 50.18112 71.03975 60.61043
# Shear Modulus (GPa) = 27.09823 29.85194 28.47508
#
# Velocity S-wave (km/s) = 3.66398 3.84564 3.75591
# Velocity P-wave (km/s) = 6.53911 7.41029 6.98829
#
# Compressibility (1/GPa) = 0.01992781
#
# Stress axis : x y z
#
# Youngs Moduli (GPa) = 64.48962 62.77457 114.05448
#
# Poissons Ratio (x) = -0.02281 0.53648
# Poissons Ratio (y) = -0.02343 0.66127
# Poissons Ratio (z) = 0.30334 0.36396
#
# Static dielectric constant tensor:
#      x y z
#    x 3.359700 0.000000 0.054580 
#    y 0.000000 3.718610 0.000000 
#    z 0.054580 0.000000 3.883530 
# 
# 
# High freq. dielectric constant tensor:
#      x y z
#    x 1.771610 0.000000 0.001080 
#    y 0.000000 1.792540 0.000000 
#    z 0.001080 0.000000 1.793690 
# 
# From -- ./inp_files/377782.got.cif
#   From: 2010.06.25/outbox.cif.g09.slc.cpg/sg12_189_cif.got.tgz:377782.got - 2010.06.28 00:19:55.
