data_PCOD8106540
_publ_section_title
;
Structure prediction by ZEFSAII (Michael W. Deem and Ramdas Pophale) SiO2 
 PCOD8106540
Probable space group: C 2/M
;
_chemical_formula_sum "Si O2"
_cell_formula_units_Z 52
_cell_length_a 18.548950
_cell_length_b 11.922210
_cell_length_c 19.737495
_cell_angle_alpha 90.000000
_cell_angle_beta 140.833048
_cell_angle_gamma 90.000000
_cell_volume 2756.754049
_symmetry_space_group_name_H-M "C 2/M"
_symmetry_group_IT_number 12
_symmetry_cell_setting 'monoclinic'
loop_
_space_group_symop_operation_xyz
x,y,z
-x,y,-z
-x,-y,-z
x,-y,z
1/2+x,1/2+y,z
1/2-x,1/2+y,-z
1/2-x,1/2-y,-z
1/2+x,1/2-y,z
loop_
_atom_site_type_symbol
_atom_site_label
_atom_site_fract_x
_atom_site_fract_y
_atom_site_fract_z
Si Si1 0.810803 0.251796 0.762126
Si Si2 0.572644 0.278368 0.800404
Si Si3 0.055077 0.000000 0.704912
Si Si4 0.687752 0.500000 0.539348
Si Si5 0.267908 0.500000 0.284792
Si Si6 0.813757 0.281365 0.614086
Si Si7 0.234720 0.628403 0.831950
Si Si8 0.544012 0.630041 0.922589
O O1 0.810269 0.387039 0.774461
O O2 0.777288 0.220948 0.659177
O O3 0.723622 0.192173 0.751341
O O4 0.935409 0.201325 0.867593
O O5 0.585679 0.391649 0.769000
O O6 0.447194 0.229642 0.699996
O O7 0.658355 0.185693 0.834077
O O8 0.599160 0.308560 0.897534
O O9 0.921028 0.000000 0.588590
O O10 0.138255 0.000000 0.703409
O O11 0.649101 0.500000 0.589191
O O12 0.780503 0.407218 0.595870
O O13 0.750000 0.250000 0.500000
O O14 0.194511 0.500000 0.793456
O O15 0.365612 0.633374 0.951043
O O16 0.510108 0.500000 0.881534
#
# Coordination Sequence:
#
# PCOD8106540 Si02
#       8
#     8   8   4   4   4   8   8   8
#     4  10  21  38  61  84 118 151 198 238 288 349
#     4  11  22  37  61  88 118 152 192 243 294 343
#     4  12  19  36  63  84 117 151 195 240 286 349
#     4  10  21  36  60  85 113 154 195 235 290 347
#     4  10  21  38  56  90 119 150 190 246 294 348
#     4  10  21  38  58  87 114 149 192 240 289 344
#     4  11  23  40  59  85 118 156 195 245 297 344
#     4  10  21  39  62  85 114 156 202 240 286 350
#
# _framework density 18.862763000000001
#
# number of rings (size 3 to 8) (size 9 to 14) (size 15 to 20)
#    0.000    1.538    3.846    1.615    1.077    1.231 
#    2.769    3.077    0.000    0.923    0.000    0.000 
#    0.000    0.000    0.000    0.000    0.000    0.000 
#
# Total GULP energy -322127.790635 kJ/mol
# GULP energy per Si atom -12389.530409 kJ/mol
# Density = 1.881983 g / cm^3
# Si number density = 18.862763 Si / 1000 Ang^3
#
#
#
# Elastic Constant Matrix: (Units=GPa)
#
#
# Indices 1 2 3 4 5 6 
#
# 1 129.6939 44.6816 32.8530 0.0000 -3.4239 0.0000
# 2 44.6816 123.6248 24.3024 0.0000 -1.9815 0.0000
# 3 32.8530 24.3024 73.1249 0.0000 -3.4810 0.0000
# 4 0.0000 0.0000 0.0000 31.9745 0.0000 2.7426
# 5 -3.4239 -1.9815 -3.4810 0.0000 30.4759 0.0000
# 6 0.0000 0.0000 0.0000 2.7426 0.0000 2.7964
#
#
#
# Elastic Compliance Matrix: (Units=1/GPa)
#
#
# Indices 1 2 3 4 5 6 
#
# 1 0.009525 -0.002780 -0.003331 0.000000 0.000509 0.000000
# 2 -0.002780 0.009467 -0.001893 0.000000 0.000087 0.000000
# 3 -0.003331 -0.001893 0.015864 0.000000 0.001315 0.000000
# 4 0.000000 0.000000 0.000000 0.034148 0.000000 -0.033491
# 5 0.000509 0.000087 0.001315 0.000000 0.033026 0.000000
# 6 0.000000 0.000000 0.000000 -0.033491 0.000000 0.390450
#
#
# Mechanical properties :
#
#
# Convention : Reuss Voigt Hill
#
# Bulk Modulus (GPa) = 53.05777 58.90196 55.97987
# Shear Modulus (GPa) = 9.71305 28.02313 18.86809
#
# Velocity S-wave (km/s) = 2.27167 3.85857 3.16616
# Velocity P-wave (km/s) = 5.92200 7.15163 6.56566
#
# Compressibility (1/GPa) = 0.01884738
#
# Stress axis : x y z
#
# Youngs Moduli (GPa) = 104.98181 105.62716 63.03662
#
# Poissons Ratio (x) = 0.29361 0.21001
# Poissons Ratio (y) = 0.29182 0.11935
# Poissons Ratio (z) = 0.34974 0.19999
#
# Static dielectric constant tensor:
#      x y z
#    x 4.607900 0.000000 -1.706850 
#    y 0.000000 3.561770 0.000000 
#    z -1.706850 0.000000 5.534740 
# 
# 
# High freq. dielectric constant tensor:
#      x y z
#    x 1.752940 0.000000 -0.016660 
#    y 0.000000 1.741340 0.000000 
#    z -0.016660 0.000000 1.716240 
# 
# From -- ./inp_files/188678.got.cif
#   From: 2010.06.25/outbox.cif.g09.slc.cpg/sg12_95_cif.got.tgz:188678.got - 2010.06.28 00:19:55.
