data_PCOD8106524
_publ_section_title
;
Structure prediction by ZEFSAII (Michael W. Deem and Ramdas Pophale) SiO2 
 PCOD8106524
Probable space group: C 2/M
;
_chemical_formula_sum "Si O2"
_cell_formula_units_Z 64
_cell_length_a 14.968609
_cell_length_b 9.072441
_cell_length_c 31.330493
_cell_angle_alpha 90.000000
_cell_angle_beta 132.226687
_cell_angle_gamma 90.000000
_cell_volume 3150.597964
_symmetry_space_group_name_H-M "C 2/M"
_symmetry_group_IT_number 12
_symmetry_cell_setting 'monoclinic'
loop_
_space_group_symop_operation_xyz
x,y,z
-x,y,-z
-x,-y,-z
x,-y,z
1/2+x,1/2+y,z
1/2-x,1/2+y,-z
1/2-x,1/2-y,-z
1/2+x,1/2-y,z
loop_
_atom_site_type_symbol
_atom_site_label
_atom_site_fract_x
_atom_site_fract_y
_atom_site_fract_z
Si Si1 0.861897 0.672611 0.583700
Si Si2 0.612307 0.826679 0.505976
Si Si3 0.400937 0.834561 0.875292
Si Si4 0.247680 0.172598 0.109445
Si Si5 0.842266 0.669954 0.999649
Si Si6 0.567044 0.668610 0.698692
Si Si7 0.167587 0.667435 0.241030
Si Si8 0.035157 0.168147 0.786990
O O1 0.840871 0.500000 0.581435
O O2 0.737609 0.749048 0.558916
O O3 0.907104 0.713093 0.550260
O O4 0.964963 0.723704 0.648865
O O5 0.500000 0.771454 0.500000
O O6 0.629249 0.000000 0.518275
O O7 0.311597 0.709937 0.864214
O O8 0.406316 0.813837 0.826568
O O9 0.351650 0.000000 0.870110
O O10 0.529592 0.810594 0.937587
O O11 0.162374 0.252038 0.047584
O O12 0.382925 0.236871 0.154094
O O13 0.253547 0.000000 0.101930
O O14 0.807328 0.500000 0.982815
O O15 0.750000 0.750000 0.000000
O O16 0.534500 0.500000 0.676453
O O17 0.693825 0.716755 0.718797
O O18 0.581430 0.686018 0.753837
O O19 0.161353 0.500000 0.255303
O O20 0.101922 0.771642 0.254298
O O21 0.038651 0.000000 0.803199
#
# Coordination Sequence:
#
# PCOD8106524 Si02
#       8
#     8   8   8   8   8   8   8   8
#     4  10  21  36  59  91 124 158 203 253 292 345
#     4   9  19  38  62  88 123 165 203 242 296 353
#     4  10  21  40  61  82 113 151 192 241 303 366
#     4  12  24  38  59  85 115 151 195 247 301 363
#     4  11  23  38  59  85 115 150 191 243 303 367
#     4  10  22  41  62  84 122 166 200 245 303 361
#     4  10  21  40  63  88 119 155 199 250 308 364
#     4  11  23  41  63  87 116 156 204 250 305 366
#
# _framework density 20.313604999999999
#
# number of rings (size 3 to 8) (size 9 to 14) (size 15 to 20)
#    0.000    1.625    1.250    3.375    0.000    7.250 
#    0.000    3.750    0.000    0.000    0.000    0.000 
#    0.000    0.000    0.000    0.000    0.000    0.000 
#
# Total GULP energy -396818.528548 kJ/mol
# GULP energy per Si atom -12400.579017 kJ/mol
# Density = 2.026737 g / cm^3
# Si number density = 20.313605 Si / 1000 Ang^3
#
#
#
# Elastic Constant Matrix: (Units=GPa)
#
#
# Indices 1 2 3 4 5 6 
#
# 1 107.6341 44.5775 8.2238 0.0000 18.1748 0.0000
# 2 44.5775 103.5192 35.2041 0.0000 15.8173 0.0000
# 3 8.2238 35.2041 74.7516 0.0000 19.6476 0.0000
# 4 0.0000 0.0000 0.0000 30.1626 0.0000 1.2605
# 5 18.1748 15.8173 19.6476 0.0000 22.8465 0.0000
# 6 0.0000 0.0000 0.0000 1.2605 0.0000 38.0527
#
#
#
# Elastic Compliance Matrix: (Units=1/GPa)
#
#
# Indices 1 2 3 4 5 6 
#
# 1 0.012832 -0.005278 0.003614 0.000000 -0.009661 0.000000
# 2 -0.005278 0.014005 -0.005905 0.000000 -0.000419 0.000000
# 3 0.003614 -0.005905 0.019952 0.000000 -0.015945 0.000000
# 4 0.000000 0.000000 0.000000 0.033200 0.000000 -0.001100
# 5 -0.009661 -0.000419 -0.015945 0.000000 0.065459 0.000000
# 6 0.000000 0.000000 0.000000 -0.001100 0.000000 0.026316
#
#
# Mechanical properties :
#
#
# Convention : Reuss Voigt Hill
#
# Bulk Modulus (GPa) = 31.59592 51.32397 41.45995
# Shear Modulus (GPa) = 25.32254 31.40567 28.36410
#
# Velocity S-wave (km/s) = 3.53453 3.93624 3.74078
# Velocity P-wave (km/s) = 5.67847 6.78080 6.25397
#
# Compressibility (1/GPa) = 0.03164965
#
# Stress axis : x y z
#
# Youngs Moduli (GPa) = 77.92933 71.40228 50.12054
#
# Poissons Ratio (x) = 0.37689 -0.18111
# Poissons Ratio (y) = 0.41134 0.29595
# Poissons Ratio (z) = -0.28160 0.42162
#
# Static dielectric constant tensor:
#      x y z
#    x 3.708530 0.000000 0.040960 
#    y 0.000000 3.666790 0.000000 
#    z 0.040960 0.000000 3.226540 
# 
# 
# High freq. dielectric constant tensor:
#      x y z
#    x 1.801720 0.000000 0.007350 
#    y 0.000000 1.791420 0.000000 
#    z 0.007350 0.000000 1.787250 
# 
# From -- ./inp_files/375586.got.cif
#   From: 2010.06.25/outbox.cif.g09.slc.cpg/sg12_188_cif.got.tgz:375586.got - 2010.06.28 00:19:55.
