data_PCOD8106052
_publ_section_title
;
Structure prediction by ZEFSAII (Michael W. Deem and Ramdas Pophale) SiO2 
 PCOD8106052
Probable space group: C 2/M
;
_chemical_formula_sum "Si O2"
_cell_formula_units_Z 36
_cell_length_a 20.986259
_cell_length_b 17.323333
_cell_length_c 5.418981
_cell_angle_alpha 90.000000
_cell_angle_beta 113.582974
_cell_angle_gamma 90.000000
_cell_volume 1805.543214
_symmetry_space_group_name_H-M "C 2/M"
_symmetry_group_IT_number 12
_symmetry_cell_setting 'monoclinic'
loop_
_space_group_symop_operation_xyz
x,y,z
-x,y,-z
-x,-y,-z
x,-y,z
1/2+x,1/2+y,z
1/2-x,1/2+y,-z
1/2-x,1/2-y,-z
1/2+x,1/2-y,z
loop_
_atom_site_type_symbol
_atom_site_label
_atom_site_fract_x
_atom_site_fract_y
_atom_site_fract_z
Si Si1 0.925017 0.774213 0.261785
Si Si2 0.500000 0.641891 0.000000
Si Si3 0.112892 0.915582 0.496258
Si Si4 0.702958 0.825431 0.925293
Si Si5 0.242616 0.412165 0.486787
O O1 0.939629 0.801549 0.006614
O O2 0.880395 0.845019 0.305921
O O3 0.878489 0.697949 0.198262
O O4 0.000000 0.758217 0.500000
O O5 0.464027 0.587646 0.742303
O O6 0.173539 0.907941 0.386137
O O7 0.119475 0.000000 0.637846
O O8 0.715962 0.871020 0.692173
O O9 0.750000 0.750000 0.000000
O O10 0.714914 0.875389 0.188935
O O11 0.215910 0.500000 0.453928
#
# Coordination Sequence:
#
# PCOD8106052 Si02
#       5
#     8   4   8   8   8
#     4  10  23  37  59  88 123 160 209 254 314 365
#     4  10  21  36  54  86 121 168 208 242 309 372
#     4  10  21  36  55  87 127 165 201 246 307 382
#     4  12  23  41  69  94 127 165 213 260 315 367
#     4  11  25  42  66  95 129 164 209 261 318 373
#
# _framework density 19.938596
#
# number of rings (size 3 to 8) (size 9 to 14) (size 15 to 20)
#    0.000    1.333    2.222    3.000    6.222    4.889 
#    0.000    0.000    0.000    4.000    0.000    0.000 
#    0.000    0.000    0.000    0.000    0.000    0.000 
#
# Total GULP energy -223085.593746 kJ/mol
# GULP energy per Si atom -12393.644097 kJ/mol
# Density = 1.989322 g / cm^3
# Si number density = 19.938596 Si / 1000 Ang^3
#
#
#
# Elastic Constant Matrix: (Units=GPa)
#
#
# Indices 1 2 3 4 5 6 
#
# 1 110.1849 69.7575 42.5680 0.0000 -9.5002 0.0000
# 2 69.7575 139.2512 62.8672 0.0000 -10.4900 0.0000
# 3 42.5680 62.8672 100.8924 0.0000 -21.3902 0.0000
# 4 0.0000 0.0000 0.0000 33.5405 0.0000 -4.9301
# 5 -9.5002 -10.4900 -21.3902 0.0000 37.7457 0.0000
# 6 0.0000 0.0000 0.0000 -4.9301 0.0000 36.5292
#
#
#
# Elastic Compliance Matrix: (Units=1/GPa)
#
#
# Indices 1 2 3 4 5 6 
#
# 1 0.013613 -0.005900 -0.001919 0.000000 0.000699 0.000000
# 2 -0.005900 0.012574 -0.005591 0.000000 -0.001159 0.000000
# 3 -0.001919 -0.005591 0.015654 0.000000 0.006834 0.000000
# 4 0.000000 0.000000 0.000000 0.030418 0.000000 0.004105
# 5 0.000699 -0.001159 0.006834 0.000000 0.030220 0.000000
# 6 0.000000 0.000000 0.000000 0.004105 0.000000 0.027929
#
#
# Mechanical properties :
#
#
# Convention : Reuss Voigt Hill
#
# Bulk Modulus (GPa) = 66.57740 77.85711 72.21726
# Shear Modulus (GPa) = 30.81947 33.23880 32.02913
#
# Velocity S-wave (km/s) = 3.93583 4.08739 4.01233
# Velocity P-wave (km/s) = 7.35650 7.83638 7.60023
#
# Compressibility (1/GPa) = 0.01502011
#
# Stress axis : x y z
#
# Youngs Moduli (GPa) = 73.46118 79.52910 63.88173
#
# Poissons Ratio (x) = 0.46925 0.12256
# Poissons Ratio (y) = 0.43345 0.35718
# Poissons Ratio (z) = 0.14094 0.44467
#
# Static dielectric constant tensor:
#      x y z
#    x 3.848020 0.000000 -0.052840 
#    y 0.000000 3.697750 0.000000 
#    z -0.052840 0.000000 3.579260 
# 
# 
# High freq. dielectric constant tensor:
#      x y z
#    x 1.784960 0.000000 -0.005830 
#    y 0.000000 1.767820 0.000000 
#    z -0.005830 0.000000 1.774610 
# 
# From -- ./inp_files/14931.got.cif
#   From: 2010.06.25/outbox.cif.g09.slc.cpg/sg12_8_cif.got.tgz:14931.got - 2010.06.28 00:19:55.
