data_PCOD8106796
_publ_section_title
;
Structure prediction by ZEFSAII (Michael W. Deem and Ramdas Pophale) SiO2 
 PCOD8106796
Probable space group: C 2/M
;
_chemical_formula_sum "Si O2"
_cell_formula_units_Z 48
_cell_length_a 24.624064
_cell_length_b 9.297834
_cell_length_c 11.366818
_cell_angle_alpha 90.000000
_cell_angle_beta 71.485163
_cell_angle_gamma 90.000000
_cell_volume 2467.739791
_symmetry_space_group_name_H-M "C 2/M"
_symmetry_group_IT_number 12
_symmetry_cell_setting 'monoclinic'
loop_
_space_group_symop_operation_xyz
x,y,z
-x,y,-z
-x,-y,-z
x,-y,z
1/2+x,1/2+y,z
1/2-x,1/2+y,-z
1/2-x,1/2-y,-z
1/2+x,1/2-y,z
loop_
_atom_site_type_symbol
_atom_site_label
_atom_site_fract_x
_atom_site_fract_y
_atom_site_fract_z
Si Si1 0.663671 0.667452 0.002323
Si Si2 0.218281 0.336234 0.174306
Si Si3 0.532130 0.659907 0.355456
Si Si4 0.125366 0.664358 0.408175
Si Si5 0.565279 0.165834 0.681947
Si Si6 0.565986 0.166089 0.944737
O O1 0.650916 0.500000 0.027031
O O2 0.713710 0.696439 0.870714
O O3 0.604651 0.741422 0.005511
O O4 0.685334 0.729496 0.110457
O O5 0.208339 0.500000 0.136898
O O6 0.192109 0.316622 0.324628
O O7 0.500000 0.652191 0.500000
O O8 0.545391 0.500000 0.298129
O O9 0.590824 0.744304 0.335381
O O10 0.492729 0.742755 0.289474
O O11 0.105394 0.500000 0.408383
O O12 0.113029 0.713515 0.551590
O O13 0.589389 0.192119 0.795917
O O14 0.548064 0.000000 0.676670
O O15 0.571715 0.000000 0.977471
O O16 0.500000 0.215526 0.000000
#
# Coordination Sequence:
#
# PCOD8106796 Si02
#       6
#     8   8   8   8   8   8
#     4  10  21  37  56  80 107 136 175 220 264 312
#     4   9  19  36  58  80 105 137 173 218 266 312
#     4   9  17  28  44  71 107 138 165 208 261 304
#     4   9  17  31  53  76 100 134 176 215 255 309
#     4   9  18  33  51  73 101 138 180 214 251 308
#     4  10  22  38  55  75 105 144 180 214 258 313
#
# _framework density 19.450997000000001
#
# number of rings (size 3 to 8) (size 9 to 14) (size 15 to 20)
#    0.000    2.667    0.000    1.000    2.333    4.333 
#    0.000    0.833    0.000    0.000    0.000    0.000 
#    0.000    0.000    0.000    0.000    0.000    0.000 
#
# Total GULP energy -297459.253886 kJ/mol
# GULP energy per Si atom -12394.135579 kJ/mol
# Density = 1.940673 g / cm^3
# Si number density = 19.450997 Si / 1000 Ang^3
#
#
#
# Elastic Constant Matrix: (Units=GPa)
#
#
# Indices 1 2 3 4 5 6 
#
# 1 90.1300 40.2179 28.3687 0.0000 -10.9443 0.0000
# 2 40.2179 80.0067 18.8524 0.0000 0.4177 0.0000
# 3 28.3687 18.8524 75.4291 0.0000 -21.4151 0.0000
# 4 0.0000 0.0000 0.0000 16.0634 0.0000 -3.2005
# 5 -10.9443 0.4177 -21.4151 0.0000 28.8349 0.0000
# 6 0.0000 0.0000 0.0000 -3.2005 0.0000 19.3965
#
#
#
# Elastic Compliance Matrix: (Units=1/GPa)
#
#
# Indices 1 2 3 4 5 6 
#
# 1 0.015732 -0.007215 -0.003027 0.000000 0.003828 0.000000
# 2 -0.007215 0.016853 -0.002972 0.000000 -0.005190 0.000000
# 3 -0.003027 -0.002972 0.018786 0.000000 0.012846 0.000000
# 4 0.000000 0.000000 0.000000 0.064370 0.000000 0.010621
# 5 0.003828 -0.005190 0.012846 0.000000 0.045749 0.000000
# 6 0.000000 0.000000 0.000000 0.010621 0.000000 0.053308
#
#
# Mechanical properties :
#
#
# Convention : Reuss Voigt Hill
#
# Bulk Modulus (GPa) = 40.09100 46.71597 43.40348
# Shear Modulus (GPa) = 20.03687 23.40074 21.71881
#
# Velocity S-wave (km/s) = 3.21303 3.47228 3.34517
# Velocity P-wave (km/s) = 5.86692 6.33601 6.10597
#
# Compressibility (1/GPa) = 0.02494325
#
# Stress axis : x y z
#
# Youngs Moduli (GPa) = 63.56458 59.33580 53.23161
#
# Poissons Ratio (x) = 0.42811 0.16112
# Poissons Ratio (y) = 0.45862 0.15821
# Poissons Ratio (z) = 0.19240 0.17636
#
# Static dielectric constant tensor:
#      x y z
#    x 3.310510 0.000000 -0.283140 
#    y 0.000000 3.671910 0.000000 
#    z -0.283140 0.000000 3.712360 
# 
# 
# High freq. dielectric constant tensor:
#      x y z
#    x 1.723900 0.000000 -0.023840 
#    y 0.000000 1.757070 0.000000 
#    z -0.023840 0.000000 1.763420 
# 
# From -- ./inp_files/172919.got.cif
#   From: 2010.06.25/outbox.cif.g09.slc.cpg/sg12_87_cif.got.tgz:172919.got - 2010.06.28 00:19:55.
