data_PCOD8106702
_publ_section_title
;
Structure prediction by ZEFSAII (Michael W. Deem and Ramdas Pophale) SiO2 
 PCOD8106702
Probable space group: C 2/M
;
_chemical_formula_sum "Si O2"
_cell_formula_units_Z 56
_cell_length_a 14.406084
_cell_length_b 8.882753
_cell_length_c 24.122887
_cell_angle_alpha 90.000000
_cell_angle_beta 79.291653
_cell_angle_gamma 90.000000
_cell_volume 3033.145663
_symmetry_space_group_name_H-M "C 2/M"
_symmetry_group_IT_number 12
_symmetry_cell_setting 'monoclinic'
loop_
_space_group_symop_operation_xyz
x,y,z
-x,y,-z
-x,-y,-z
x,-y,z
1/2+x,1/2+y,z
1/2-x,1/2+y,-z
1/2-x,1/2-y,-z
1/2+x,1/2-y,z
loop_
_atom_site_type_symbol
_atom_site_label
_atom_site_fract_x
_atom_site_fract_y
_atom_site_fract_z
Si Si1 0.063547 0.676980 0.265141
Si Si2 0.886361 0.676696 0.358512
Si Si3 0.680204 0.677269 0.344510
Si Si4 0.585598 0.678655 0.144276
Si Si5 0.039519 0.171490 0.939740
Si Si6 0.997064 0.823164 0.562803
Si Si7 0.747773 0.826533 0.059962
O O1 0.077362 0.500000 0.259289
O O2 0.150654 0.742435 0.290830
O O3 0.064122 0.747262 0.204873
O O4 0.963200 0.720821 0.303517
O O5 0.882537 0.500000 0.368795
O O6 0.783363 0.736844 0.351487
O O7 0.916382 0.750650 0.413169
O O8 0.682303 0.500000 0.333092
O O9 0.604473 0.720723 0.400223
O O10 0.586096 0.500000 0.151545
O O11 0.505986 0.740960 0.110565
O O12 0.684750 0.733332 0.109259
O O13 0.150742 0.183960 0.923010
O O14 0.003248 0.000000 0.946094
O O15 0.000000 0.252828 0.000000
O O16 0.000000 0.760328 0.500000
O O17 0.013530 0.000000 0.562213
O O18 0.715015 0.000000 0.057625
O O19 0.750000 0.750000 0.000000
#
# Coordination Sequence:
#
# PCOD8106702 Si02
#       7
#     8   8   8   8   8   8   8
#     4  10  21  37  54  77 106 134 174 226 272 317
#     4   9  19  35  55  77 105 142 182 227 271 313
#     4   9  18  35  56  77 106 145 182 220 269 319
#     4  11  22  38  58  79 105 140 177 216 266 322
#     4   9  18  35  56  77 105 139 171 205 255 318
#     4   9  18  32  51  79 114 148 183 221 264 320
#     4  11  21  36  57  81 108 138 173 213 259 313
#
# _framework density 18.462681
#
# number of rings (size 3 to 8) (size 9 to 14) (size 15 to 20)
#    0.000    2.286    1.429    1.286    0.000    3.143 
#    0.000    6.429    0.000    0.000    0.000    0.000 
#    0.000    0.000    0.000    0.000    0.000    0.000 
#
# Total GULP energy -347203.268091 kJ/mol
# GULP energy per Si atom -12400.116718 kJ/mol
# Density = 1.842066 g / cm^3
# Si number density = 18.462681 Si / 1000 Ang^3
#
#
#
# Elastic Constant Matrix: (Units=GPa)
#
#
# Indices 1 2 3 4 5 6 
#
# 1 134.2231 32.8154 71.5912 0.0000 23.5844 0.0000
# 2 32.8154 38.8734 43.9414 0.0000 8.4908 0.0000
# 3 71.5912 43.9414 175.0575 0.0000 20.4172 0.0000
# 4 0.0000 0.0000 0.0000 29.3265 0.0000 1.3224
# 5 23.5844 8.4908 20.4172 0.0000 25.6769 0.0000
# 6 0.0000 0.0000 0.0000 1.3224 0.0000 25.5556
#
#
#
# Elastic Compliance Matrix: (Units=1/GPa)
#
#
# Indices 1 2 3 4 5 6 
#
# 1 0.011218 -0.005185 -0.002518 0.000000 -0.006587 0.000000
# 2 -0.005185 0.038950 -0.007396 0.000000 -0.002237 0.000000
# 3 -0.002518 -0.007396 0.008866 0.000000 -0.002291 0.000000
# 4 0.000000 0.000000 0.000000 0.034179 0.000000 -0.001769
# 5 -0.006587 -0.002237 -0.002291 0.000000 0.047558 0.000000
# 6 0.000000 0.000000 0.000000 -0.001769 0.000000 0.039222
#
#
# Mechanical properties :
#
#
# Convention : Reuss Voigt Hill
#
# Bulk Modulus (GPa) = 34.67790 71.65000 53.16395
# Shear Modulus (GPa) = 22.74780 29.43222 26.09001
#
# Velocity S-wave (km/s) = 3.51393 3.99701 3.76323
# Velocity P-wave (km/s) = 5.94029 7.75846 6.90944
#
# Compressibility (1/GPa) = 0.02883681
#
# Stress axis : x y z
#
# Youngs Moduli (GPa) = 89.13853 25.67415 112.79296
#
# Poissons Ratio (x) = 0.13312 0.28402
# Poissons Ratio (y) = 0.46218 0.83416
# Poissons Ratio (z) = 0.22446 0.18987
#
# Static dielectric constant tensor:
#      x y z
#    x 3.475400 0.000000 0.108440 
#    y 0.000000 3.346360 0.000000 
#    z 0.108440 0.000000 3.478280 
# 
# 
# High freq. dielectric constant tensor:
#      x y z
#    x 1.721760 0.000000 0.005560 
#    y 0.000000 1.705630 0.000000 
#    z 0.005560 0.000000 1.720930 
# 
# From -- ./inp_files/308889.got.cif
#   From: 2010.06.25/outbox.cif.g09.slc.cpg/sg12_155_cif.got.tgz:308889.got - 2010.06.28 00:19:55.
