data_PCOD8106507
_publ_section_title
;
Structure prediction by ZEFSAII (Michael W. Deem and Ramdas Pophale) SiO2 
 PCOD8106507
Probable space group: C 2/M
;
_chemical_formula_sum "Si O2"
_cell_formula_units_Z 36
_cell_length_a 13.637467
_cell_length_b 14.099591
_cell_length_c 7.940644
_cell_angle_alpha 90.000000
_cell_angle_beta 75.398351
_cell_angle_gamma 90.000000
_cell_volume 1477.534241
_symmetry_space_group_name_H-M "C 2/M"
_symmetry_group_IT_number 12
_symmetry_cell_setting 'monoclinic'
loop_
_space_group_symop_operation_xyz
x,y,z
-x,y,-z
-x,-y,-z
x,-y,z
1/2+x,1/2+y,z
1/2-x,1/2+y,-z
1/2-x,1/2-y,-z
1/2+x,1/2-y,z
loop_
_atom_site_type_symbol
_atom_site_label
_atom_site_fract_x
_atom_site_fract_y
_atom_site_fract_z
Si Si1 0.160584 0.000000 0.509179
Si Si2 0.108203 0.796788 0.612770
Si Si3 0.111530 0.295452 0.292925
Si Si4 0.320612 0.000000 0.733068
Si Si5 0.717484 0.000000 0.874405
Si Si6 0.879329 0.699085 0.070139
O O1 0.094298 0.091801 0.585267
O O2 0.256479 0.000000 0.590473
O O3 0.188114 0.000000 0.297733
O O4 0.170930 0.749535 0.428499
O O5 0.159218 0.775090 0.772626
O O6 0.000922 0.745423 0.659855
O O7 0.106413 0.409154 0.304458
O O8 0.165890 0.267214 0.092446
O O9 0.253673 0.000000 0.937173
O O10 0.653260 0.093855 0.860916
O O11 0.000000 0.698208 0.000000
#
# Coordination Sequence:
#
# PCOD8106507 Si02
#       6
#     4   8   8   4   4   8
#     4  12  26  40  56  90 131 164 194 244 309 361
#     4  10  22  38  59  87 123 162 202 243 296 360
#     4   9  20  39  63  89 116 156 204 250 294 354
#     4  10  22  40  64  93 121 151 200 256 305 350
#     4  10  21  36  59  88 124 158 192 244 309 366
#     4   9  18  36  61  89 116 154 204 252 294 349
#
# _framework density 24.364919
#
# number of rings (size 3 to 8) (size 9 to 14) (size 15 to 20)
#    0.000    2.222    0.000    1.667    0.000   11.556 
#    0.000    9.444    0.000    0.000    0.000    0.000 
#    0.000    0.000    0.000    0.000    0.000    0.000 
#
# Total GULP energy -223016.267829 kJ/mol
# GULP energy per Si atom -12389.792657 kJ/mol
# Density = 2.430946 g / cm^3
# Si number density = 24.364919 Si / 1000 Ang^3
#
#
#
# Elastic Constant Matrix: (Units=GPa)
#
#
# Indices 1 2 3 4 5 6 
#
# 1 22.6550 9.4637 45.2120 0.0000 2.2539 0.0000
# 2 9.4637 183.5744 97.1668 0.0000 8.0532 0.0000
# 3 45.2120 97.1668 198.2742 0.0000 37.3165 0.0000
# 4 0.0000 0.0000 0.0000 44.6080 0.0000 1.5201
# 5 2.2539 8.0532 37.3165 0.0000 39.5630 0.0000
# 6 0.0000 0.0000 0.0000 1.5201 0.0000 16.1811
#
#
#
# Elastic Compliance Matrix: (Units=1/GPa)
#
#
# Indices 1 2 3 4 5 6 
#
# 1 0.105000 0.011597 -0.034112 0.000000 0.023832 0.000000
# 2 0.011597 0.008814 -0.007905 0.000000 0.005002 0.000000
# 3 -0.034112 -0.007905 0.019487 0.000000 -0.014828 0.000000
# 4 0.000000 0.000000 0.000000 0.022490 0.000000 -0.002113
# 5 0.023832 0.005002 -0.014828 0.000000 0.036886 0.000000
# 6 0.000000 0.000000 0.000000 -0.002113 0.000000 0.061999
#
#
# Mechanical properties :
#
#
# Convention : Reuss Voigt Hill
#
# Bulk Modulus (GPa) = 13.80044 78.68761 46.24403
# Shear Modulus (GPa) = 14.72018 36.91449 25.81733
#
# Velocity S-wave (km/s) = 2.46062 3.89661 3.25870
# Velocity P-wave (km/s) = 3.70800 7.25330 5.76019
#
# Compressibility (1/GPa) = 0.07246143
#
# Stress axis : x y z
#
# Youngs Moduli (GPa) = 9.52378 113.44960 51.31706
#
# Poissons Ratio (x) = -1.31566 1.75050
# Poissons Ratio (y) = -0.11045 0.40568
# Poissons Ratio (z) = 0.32487 0.89686
#
# Static dielectric constant tensor:
#      x y z
#    x 4.227800 0.000000 1.178800 
#    y 0.000000 4.531100 0.000000 
#    z 1.178800 0.000000 7.119290 
# 
# 
# High freq. dielectric constant tensor:
#      x y z
#    x 1.944700 0.000000 0.014450 
#    y 0.000000 1.966030 0.000000 
#    z 0.014450 0.000000 2.010900 
# 
# From -- ./inp_files/71154.got.cif
#   From: 2010.06.25/outbox.cif.g09.slc.cpg/sg12_36_cif.got.tgz:71154.got - 2010.06.28 00:19:55.
