data_PCOD8106179
_publ_section_title
;
Structure prediction by ZEFSAII (Michael W. Deem and Ramdas Pophale) SiO2 
 PCOD8106179
Probable space group: C 2/M
;
_chemical_formula_sum "Si O2"
_cell_formula_units_Z 56
_cell_length_a 14.707670
_cell_length_b 9.146245
_cell_length_c 24.544107
_cell_angle_alpha 90.000000
_cell_angle_beta 63.319058
_cell_angle_gamma 90.000000
_cell_volume 2950.112697
_symmetry_space_group_name_H-M "C 2/M"
_symmetry_group_IT_number 12
_symmetry_cell_setting 'monoclinic'
loop_
_space_group_symop_operation_xyz
x,y,z
-x,y,-z
-x,-y,-z
x,-y,z
1/2+x,1/2+y,z
1/2-x,1/2+y,-z
1/2-x,1/2-y,-z
1/2+x,1/2-y,z
loop_
_atom_site_type_symbol
_atom_site_label
_atom_site_fract_x
_atom_site_fract_y
_atom_site_fract_z
Si Si1 0.625466 0.829975 0.679642
Si Si2 0.405593 0.828030 0.773591
Si Si3 0.597056 0.335689 0.436853
Si Si4 0.676399 0.828330 0.089850
Si Si5 0.099539 0.171407 0.006851
Si Si6 0.729106 0.670658 0.561781
Si Si7 0.825136 0.163538 0.694754
O O1 0.522650 0.778259 0.736952
O O2 0.634765 0.739721 0.620524
O O3 0.718467 0.795888 0.694928
O O4 0.621124 0.000000 0.665140
O O5 0.361047 0.766266 0.842039
O O6 0.340538 0.770982 0.740513
O O7 0.394117 0.000000 0.776055
O O8 0.500000 0.310567 0.500000
O O9 0.641803 0.500000 0.437130
O O10 0.671139 0.202562 0.430010
O O11 0.582914 0.324126 0.375075
O O12 0.607062 0.751548 0.062795
O O13 0.657067 0.000000 0.089000
O O14 0.796573 0.791377 0.053613
O O15 0.089373 0.000000 0.021000
O O16 0.000000 0.226734 0.000000
O O17 0.709722 0.500000 0.557650
O O18 0.750000 0.750000 0.500000
O O19 0.821160 0.000000 0.719470
#
# Coordination Sequence:
#
# PCOD8106179 Si02
#       7
#     8   8   8   8   8   8   8
#     4   9  20  39  55  73 104 142 178 221 277 333
#     4  10  21  36  56  79 109 145 182 226 274 322
#     4   9  19  36  55  76 104 136 171 220 279 334
#     4   9  19  35  53  80 113 145 184 226 266 316
#     4   9  18  34  56  81 113 149 182 221 268 317
#     4  11  22  35  53  77 103 133 174 223 275 332
#     4   9  19  35  53  75 105 138 176 219 271 331
#
# _framework density 18.982326
#
# number of rings (size 3 to 8) (size 9 to 14) (size 15 to 20)
#    0.000    2.571    0.000    2.143    2.000    5.143 
#    0.000    0.000    0.000    0.000    0.000    0.000 
#    0.000    0.000    0.000    0.000    0.000    0.000 
#
# Total GULP energy -347004.070494 kJ/mol
# GULP energy per Si atom -12393.002518 kJ/mol
# Density = 1.893912 g / cm^3
# Si number density = 18.982326 Si / 1000 Ang^3
#
#
#
# Elastic Constant Matrix: (Units=GPa)
#
#
# Indices 1 2 3 4 5 6 
#
# 1 99.9069 34.6782 64.1436 0.0000 6.3221 0.0000
# 2 34.6782 58.8329 51.8508 0.0000 4.1270 0.0000
# 3 64.1436 51.8508 174.5418 0.0000 6.6191 0.0000
# 4 0.0000 0.0000 0.0000 28.8266 0.0000 7.5736
# 5 6.3221 4.1270 6.6191 0.0000 26.2265 0.0000
# 6 0.0000 0.0000 0.0000 7.5736 0.0000 30.3569
#
#
#
# Elastic Compliance Matrix: (Units=1/GPa)
#
#
# Indices 1 2 3 4 5 6 
#
# 1 0.014217 -0.005029 -0.003666 0.000000 -0.001710 0.000000
# 2 -0.005029 0.024900 -0.005499 0.000000 -0.001318 0.000000
# 3 -0.003666 -0.005499 0.008727 0.000000 -0.000454 0.000000
# 4 0.000000 0.000000 0.000000 0.037123 0.000000 -0.009262
# 5 -0.001710 -0.001318 -0.000454 0.000000 0.038864 0.000000
# 6 0.000000 0.000000 0.000000 -0.009262 0.000000 0.035252
#
#
# Mechanical properties :
#
#
# Convention : Reuss Voigt Hill
#
# Bulk Modulus (GPa) = 51.39612 70.51409 60.95511
# Shear Modulus (GPa) = 25.77894 29.25596 27.51745
#
# Velocity S-wave (km/s) = 3.68917 3.93010 3.81154
# Velocity P-wave (km/s) = 6.72913 7.60408 7.17995
#
# Compressibility (1/GPa) = 0.01945672
#
# Stress axis : x y z
#
# Youngs Moduli (GPa) = 70.33968 40.15989 114.58440
#
# Poissons Ratio (x) = 0.20197 0.42004
# Poissons Ratio (y) = 0.35375 0.63009
# Poissons Ratio (z) = 0.25785 0.22084
#
# Static dielectric constant tensor:
#      x y z
#    x 3.350250 0.000000 -0.095300 
#    y 0.000000 55.480950 0.000000 
#    z -0.095300 0.000000 3.826380 
# 
# 
# High freq. dielectric constant tensor:
#      x y z
#    x 1.726920 0.000000 -0.002690 
#    y 0.000000 1.726650 0.000000 
#    z -0.002690 0.000000 1.745950 
# 
# From -- ./inp_files/338582.got.cif
#   From: 2010.06.25/outbox.cif.g09.slc.cpg/sg12_170_cif.got.tgz:338582.got - 2010.06.28 00:19:55.
