data_PCOD8106504
_publ_section_title
;
Structure prediction by ZEFSAII (Michael W. Deem and Ramdas Pophale) SiO2 
 PCOD8106504
Probable space group: C 2/M
;
_chemical_formula_sum "Si O2"
_cell_formula_units_Z 56
_cell_length_a 28.306363
_cell_length_b 8.825553
_cell_length_c 19.358374
_cell_angle_alpha 90.000000
_cell_angle_beta 35.525264
_cell_angle_gamma 90.000000
_cell_volume 2810.070764
_symmetry_space_group_name_H-M "C 2/M"
_symmetry_group_IT_number 12
_symmetry_cell_setting 'monoclinic'
loop_
_space_group_symop_operation_xyz
x,y,z
-x,y,-z
-x,-y,-z
x,-y,z
1/2+x,1/2+y,z
1/2-x,1/2+y,-z
1/2-x,1/2-y,-z
1/2+x,1/2-y,z
loop_
_atom_site_type_symbol
_atom_site_label
_atom_site_fract_x
_atom_site_fract_y
_atom_site_fract_z
Si Si1 0.762082 0.822487 0.699878
Si Si2 0.057866 0.821090 0.493619
Si Si3 0.292917 0.820568 0.382812
Si Si4 0.462920 0.679817 0.198442
Si Si5 0.000979 0.673193 0.297050
Si Si6 0.321320 0.830076 0.953626
Si Si7 0.875595 0.318654 0.036146
O O1 0.848005 0.774777 0.632464
O O2 0.760041 0.776064 0.621735
O O3 0.684575 0.754192 0.833096
O O4 0.751849 0.000000 0.719308
O O5 0.033892 0.736909 0.591282
O O6 0.000000 0.765945 0.500000
O O7 0.048597 0.000000 0.516253
O O8 0.250000 0.750000 0.500000
O O9 0.381187 0.750649 0.265116
O O10 0.299329 0.000000 0.384987
O O11 0.459407 0.500000 0.198451
O O12 0.469922 0.728766 0.269816
O O13 0.535828 0.742166 0.063494
O O14 0.972574 0.500000 0.319355
O O15 0.097994 0.682756 0.188336
O O16 0.292201 0.000000 0.998813
O O17 0.250000 0.750000 0.000000
O O18 0.337001 0.760203 0.010314
O O19 0.887755 0.500000 0.022235
#
# Coordination Sequence:
#
# PCOD8106504 Si02
#       7
#     8   8   8   8   8   8   8
#     4   9  20  38  59  85 117 154 196 239 287 351
#     4  10  21  36  59  88 118 154 195 241 295 352
#     4  11  22  38  62  89 119 157 201 244 291 348
#     4  11  22  38  60  87 118 150 193 245 300 354
#     4  10  21  38  57  81 113 151 195 241 291 349
#     4   9  19  32  53  80 108 144 189 238 287 341
#     4   9  19  38  59  81 115 155 195 237 287 350
#
# _framework density 19.928325000000001
#
# number of rings (size 3 to 8) (size 9 to 14) (size 15 to 20)
#    0.000    2.143    0.000    3.857    2.000    4.857 
#    0.000    5.714    0.000    0.000    0.000    0.000 
#    0.000    0.000    0.000    0.000    0.000    0.000 
#
# Total GULP energy -347151.964108 kJ/mol
# GULP energy per Si atom -12398.284432 kJ/mol
# Density = 1.988297 g / cm^3
# Si number density = 19.928325 Si / 1000 Ang^3
#
#
#
# Elastic Constant Matrix: (Units=GPa)
#
#
# Indices 1 2 3 4 5 6 
#
# 1 98.8009 33.5264 63.9605 0.0056 -19.4254 -0.0006
# 2 33.5264 75.9319 38.1407 -0.0237 -7.0301 0.0039
# 3 63.9605 38.1407 145.6270 -0.0212 1.8159 0.0048
# 4 0.0056 -0.0237 -0.0212 33.6490 0.0056 -1.1524
# 5 -19.4254 -7.0301 1.8159 0.0056 35.6237 -0.0009
# 6 -0.0006 0.0039 0.0048 -1.1524 -0.0009 27.5816
#
#
#
# Elastic Compliance Matrix: (Units=1/GPa)
#
#
# Indices 1 2 3 4 5 6 
#
# 1 0.017609 -0.003423 -0.006953 -0.000011 0.009281 0.000002
# 2 -0.003423 0.016203 -0.002759 0.000010 0.001472 -0.000001
# 3 -0.006953 -0.002759 0.010704 0.000007 -0.004882 -0.000002
# 4 -0.000011 0.000010 0.000007 0.029761 -0.000009 0.001244
# 5 0.009281 0.001472 -0.004882 -0.000009 0.033671 0.000002
# 6 0.000002 -0.000001 -0.000002 0.001244 0.000002 0.036308
#
#
# Mechanical properties :
#
#
# Convention : Reuss Voigt Hill
#
# Bulk Modulus (GPa) = 54.80542 65.73500 60.27021
# Shear Modulus (GPa) = 28.31125 31.68636 29.99880
#
# Velocity S-wave (km/s) = 3.77324 3.99183 3.88407
# Velocity P-wave (km/s) = 6.82233 7.36910 7.10098
#
# Compressibility (1/GPa) = 0.01824637
#
# Stress axis : x y z
#
# Youngs Moduli (GPa) = 56.78927 61.71711 93.42199
#
# Poissons Ratio (x) = 0.21126 0.64958
# Poissons Ratio (y) = 0.19439 0.25771
# Poissons Ratio (z) = 0.39487 0.17025
#
# Static dielectric constant tensor:
#      x y z
#    x 3.460690 0.000020 -0.209230 
#    y 0.000020 3.481740 0.000060 
#    z -0.209230 0.000060 3.916910 
# 
# 
# High freq. dielectric constant tensor:
#      x y z
#    x 1.777980 0.000000 -0.006910 
#    y 0.000000 1.759580 0.000000 
#    z -0.006910 0.000000 1.790300 
# 
# From -- ./inp_files/292440.got.cif
#   From: 2010.06.25/outbox.cif.g09.slc.cpg/sg12_147_cif.got.tgz:292440.got - 2010.06.28 00:19:55.
