data_PCOD8106344
_publ_section_title
;
Structure prediction by ZEFSAII (Michael W. Deem and Ramdas Pophale) SiO2 
 PCOD8106344
Probable space group: C 2/M
;
_chemical_formula_sum "Si O2"
_cell_formula_units_Z 48
_cell_length_a 23.031210
_cell_length_b 8.802405
_cell_length_c 11.511872
_cell_angle_alpha 90.000000
_cell_angle_beta 78.537114
_cell_angle_gamma 90.000000
_cell_volume 2287.251393
_symmetry_space_group_name_H-M "C 2/M"
_symmetry_group_IT_number 12
_symmetry_cell_setting 'monoclinic'
loop_
_space_group_symop_operation_xyz
x,y,z
-x,y,-z
-x,-y,-z
x,-y,z
1/2+x,1/2+y,z
1/2-x,1/2+y,-z
1/2-x,1/2-y,-z
1/2+x,1/2-y,z
loop_
_atom_site_type_symbol
_atom_site_label
_atom_site_fract_x
_atom_site_fract_y
_atom_site_fract_z
Si Si1 0.396075 0.174109 0.758590
Si Si2 0.700814 0.329799 0.594839
Si Si3 0.915310 0.830449 0.512219
Si Si4 0.137871 0.321112 0.820428
Si Si5 0.527492 0.174363 0.713116
Si Si6 0.185222 0.821222 0.028088
O O1 0.400777 0.218042 0.622417
O O2 0.461326 0.195471 0.790054
O O3 0.347751 0.279460 0.839337
O O4 0.375252 0.000000 0.776693
O O5 0.721309 0.500000 0.619809
O O6 0.750000 0.250000 0.500000
O O7 0.641201 0.333382 0.546938
O O8 0.691147 0.234522 0.716453
O O9 0.968571 0.769288 0.409017
O O10 0.930792 0.000000 0.550806
O O11 0.143218 0.500000 0.836713
O O12 0.074270 0.272249 0.792292
O O13 0.144182 0.240721 0.941322
O O14 0.540807 0.000000 0.675241
O O15 0.191989 0.000000 0.015960
O O16 0.250000 0.750000 0.000000
#
# Coordination Sequence:
#
# PCOD8106344 Si02
#       6
#     8   8   8   8   8   8
#     4  11  23  40  63  91 124 165 208 249 300 363
#     4  10  21  36  57  86 120 160 205 251 306 363
#     4  10  21  36  57  90 128 162 202 253 305 358
#     4  10  21  41  65  89 121 158 201 253 304 359
#     4   9  20  39  64  93 125 162 203 248 303 364
#     4  12  27  46  65  88 120 160 206 253 306 364
#
# _framework density 20.985887000000002
#
# number of rings (size 3 to 8) (size 9 to 14) (size 15 to 20)
#    0.000    1.667    0.000    4.000    2.333    6.667 
#    0.000    3.333    0.000    0.000    0.000    0.000 
#    0.000    0.000    0.000    0.000    0.000    0.000 
#
# Total GULP energy -297688.878185 kJ/mol
# GULP energy per Si atom -12403.703258 kJ/mol
# Density = 2.093812 g / cm^3
# Si number density = 20.985887 Si / 1000 Ang^3
#
#
#
# Elastic Constant Matrix: (Units=GPa)
#
#
# Indices 1 2 3 4 5 6 
#
# 1 59.8668 39.8881 40.7060 0.0000 -7.9362 0.0000
# 2 39.8881 134.6100 38.8870 0.0000 -3.0076 0.0000
# 3 40.7060 38.8870 92.6819 0.0000 -7.2355 0.0000
# 4 0.0000 0.0000 0.0000 43.3965 0.0000 0.6237
# 5 -7.9362 -3.0076 -7.2355 0.0000 36.1023 0.0000
# 6 0.0000 0.0000 0.0000 0.6237 0.0000 30.3506
#
#
#
# Elastic Compliance Matrix: (Units=1/GPa)
#
#
# Indices 1 2 3 4 5 6 
#
# 1 0.027062 -0.005219 -0.009413 0.000000 0.003628 0.000000
# 2 -0.005219 0.009460 -0.001732 0.000000 -0.000706 0.000000
# 3 -0.009413 -0.001732 0.015724 0.000000 0.000938 0.000000
# 4 0.000000 0.000000 0.000000 0.023050 0.000000 -0.000474
# 5 0.003628 -0.000706 0.000938 0.000000 0.028626 0.000000
# 6 0.000000 0.000000 0.000000 -0.000474 0.000000 0.032958
#
#
# Mechanical properties :
#
#
# Convention : Reuss Voigt Hill
#
# Bulk Modulus (GPa) = 51.23455 58.45788 54.84622
# Shear Modulus (GPa) = 28.39085 33.14839 30.76962
#
# Velocity S-wave (km/s) = 3.68211 3.97867 3.83326
# Velocity P-wave (km/s) = 6.52258 7.00162 6.76634
#
# Compressibility (1/GPa) = 0.01951808
#
# Stress axis : x y z
#
# Youngs Moduli (GPa) = 36.95214 105.70877 63.59833
#
# Poissons Ratio (x) = 0.55168 0.59864
# Poissons Ratio (y) = 0.19285 0.11016
# Poissons Ratio (z) = 0.34782 0.18311
#
# Static dielectric constant tensor:
#      x y z
#    x 3.907660 0.000000 0.032040 
#    y 0.000000 3.811500 0.000000 
#    z 0.032040 0.000000 3.630960 
# 
# 
# High freq. dielectric constant tensor:
#      x y z
#    x 1.830850 0.000000 -0.002390 
#    y 0.000000 1.831720 0.000000 
#    z -0.002390 0.000000 1.815810 
# 
# From -- ./inp_files/179731.got.cif
#   From: 2010.06.25/outbox.cif.g09.slc.cpg/sg12_90_cif.got.tgz:179731.got - 2010.06.28 00:19:55.
