data_PCOD8106011
_publ_section_title
;
Structure prediction by ZEFSAII (Michael W. Deem and Ramdas Pophale) SiO2 
 PCOD8106011
Probable space group: C 2/M
;
_chemical_formula_sum "Si O2"
_cell_formula_units_Z 64
_cell_length_a 10.151847
_cell_length_b 9.147819
_cell_length_c 35.515485
_cell_angle_alpha 90.000000
_cell_angle_beta 90.103823
_cell_angle_gamma 90.000000
_cell_volume 3298.220325
_symmetry_space_group_name_H-M "C 2/M"
_symmetry_group_IT_number 12
_symmetry_cell_setting 'monoclinic'
loop_
_space_group_symop_operation_xyz
x,y,z
-x,y,-z
-x,-y,-z
x,-y,z
1/2+x,1/2+y,z
1/2-x,1/2+y,-z
1/2-x,1/2-y,-z
1/2+x,1/2-y,z
loop_
_atom_site_type_symbol
_atom_site_label
_atom_site_fract_x
_atom_site_fract_y
_atom_site_fract_z
Si Si1 0.853075 0.668756 0.106692
Si Si2 0.131459 0.671019 0.980086
Si Si3 0.360893 0.328657 0.353832
Si Si4 0.875586 0.329492 0.851016
Si Si5 0.610096 0.669802 0.731658
Si Si6 0.094882 0.328681 0.394135
Si Si7 0.657893 0.329458 0.226928
Si Si8 0.367360 0.828583 0.520710
O O1 0.810487 0.500000 0.110816
O O2 0.876008 0.712722 0.063616
O O3 0.739973 0.771254 0.122703
O O4 0.986708 0.700580 0.128843
O O5 0.149940 0.500000 0.986253
O O6 0.250000 0.750000 0.000000
O O7 0.000000 0.728204 0.000000
O O8 0.386332 0.500000 0.357506
O O9 0.377315 0.275020 0.311074
O O10 0.215155 0.285096 0.367105
O O11 0.464229 0.250175 0.380507
O O12 0.851599 0.500000 0.843446
O O13 0.879514 0.245099 0.811970
O O14 0.648732 0.500000 0.735589
O O15 0.460351 0.698557 0.743994
O O16 0.707625 0.762680 0.757391
O O17 0.066552 0.500000 0.393289
O O18 0.127147 0.275407 0.436206
O O19 0.681687 0.500000 0.219701
O O20 0.500000 0.781540 0.500000
O O21 0.250000 0.750000 0.500000
O O22 0.342214 0.000000 0.518175
#
# Coordination Sequence:
#
# PCOD8106011 Si02
#       8
#     8   8   8   8   8   8   8   8
#     4  10  22  39  59  85 116 150 189 232 278 330
#     4  10  21  38  59  85 117 150 188 233 278 329
#     4  10  21  37  57  82 111 143 182 226 273 328
#     4  11  23  39  60  84 112 148 187 229 278 328
#     4  10  22  39  58  83 113 144 182 227 273 327
#     4  10  21  36  55  81 111 144 184 228 275 329
#     4  11  23  38  58  84 112 144 183 225 273 329
#     4  10  21  36  54  79 110 144 185 230 275 327
#
# _framework density 19.404404
#
# number of rings (size 3 to 8) (size 9 to 14) (size 15 to 20)
#    0.000    1.750    0.000    3.750    0.000    7.500 
#    0.000    0.000    0.000    0.000    0.000    0.000 
#    0.000    0.000    0.000    0.000    0.000    0.000 
#
# Total GULP energy -396991.609213 kJ/mol
# GULP energy per Si atom -12405.987788 kJ/mol
# Density = 1.936024 g / cm^3
# Si number density = 19.404404 Si / 1000 Ang^3
#
#
#
# Elastic Constant Matrix: (Units=GPa)
#
#
# Indices 1 2 3 4 5 6 
#
# 1 98.3791 46.3188 33.6126 0.0000 4.2449 0.0000
# 2 46.3188 62.9004 37.2388 0.0000 4.6899 0.0000
# 3 33.6126 37.2388 120.6930 0.0000 -0.9633 0.0000
# 4 0.0000 0.0000 0.0000 23.4792 0.0000 9.0354
# 5 4.2449 4.6899 -0.9633 0.0000 42.7008 0.0000
# 6 0.0000 0.0000 0.0000 9.0354 0.0000 33.3172
#
#
#
# Elastic Compliance Matrix: (Units=1/GPa)
#
#
# Indices 1 2 3 4 5 6 
#
# 1 0.015660 -0.010913 -0.000997 0.000000 -0.000381 0.000000
# 2 -0.010913 0.027279 -0.005394 0.000000 -0.002033 0.000000
# 3 -0.000997 -0.005394 0.010235 0.000000 0.000922 0.000000
# 4 0.000000 0.000000 0.000000 0.047554 0.000000 -0.012896
# 5 -0.000381 -0.002033 0.000922 0.000000 0.023701 0.000000
# 6 0.000000 0.000000 0.000000 -0.012896 0.000000 0.033512
#
#
# Mechanical properties :
#
#
# Convention : Reuss Voigt Hill
#
# Bulk Modulus (GPa) = 53.86184 57.36810 55.61497
# Shear Modulus (GPa) = 25.15894 30.88625 28.02260
#
# Velocity S-wave (km/s) = 3.60468 3.99396 3.80430
# Velocity P-wave (km/s) = 6.71884 7.13425 6.92966
#
# Compressibility (1/GPa) = 0.01856602
#
# Stress axis : x y z
#
# Youngs Moduli (GPa) = 63.85724 36.65808 97.70634
#
# Poissons Ratio (x) = 0.40005 0.09743
# Poissons Ratio (y) = 0.69687 0.52700
# Poissons Ratio (z) = 0.06368 0.19772
#
# Static dielectric constant tensor:
#      x y z
#    x 3.571270 0.000000 -0.107700 
#    y 0.000000 3.495890 0.000000 
#    z -0.107700 0.000000 3.777780 
# 
# 
# High freq. dielectric constant tensor:
#      x y z
#    x 1.768940 0.000000 -0.003250 
#    y 0.000000 1.751660 0.000000 
#    z -0.003250 0.000000 1.775800 
# 
# From -- ./inp_files/373611.got.cif
#   From: 2010.06.25/outbox.cif.g09.slc.cpg/sg12_187_cif.got.tgz:373611.got - 2010.06.28 00:19:55.
