data_PCOD8106963
_publ_section_title
;
Structure prediction by ZEFSAII (Michael W. Deem and Ramdas Pophale) SiO2 
 PCOD8106963
Probable space group: C 2/M
;
_chemical_formula_sum "Si O2"
_cell_formula_units_Z 56
_cell_length_a 27.914528
_cell_length_b 13.587026
_cell_length_c 15.295321
_cell_angle_alpha 90.000000
_cell_angle_beta 151.648615
_cell_angle_gamma 90.000000
_cell_volume 2754.831457
_symmetry_space_group_name_H-M "C 2/M"
_symmetry_group_IT_number 12
_symmetry_cell_setting 'monoclinic'
loop_
_space_group_symop_operation_xyz
x,y,z
-x,y,-z
-x,-y,-z
x,-y,z
1/2+x,1/2+y,z
1/2-x,1/2+y,-z
1/2-x,1/2-y,-z
1/2+x,1/2-y,z
loop_
_atom_site_type_symbol
_atom_site_label
_atom_site_fract_x
_atom_site_fract_y
_atom_site_fract_z
Si Si1 0.258429 0.109921 0.987379
Si Si2 0.591516 0.196871 0.087876
Si Si3 0.435572 0.112459 0.141392
Si Si4 0.125916 0.715763 0.501929
Si Si5 0.693085 0.387357 0.297446
Si Si6 0.379488 0.233056 0.308968
Si Si7 0.200825 0.112279 0.515628
O O1 0.327364 0.118555 0.012399
O O2 0.324574 0.138494 0.178582
O O3 0.219514 0.000000 0.940131
O O4 0.158690 0.174938 0.810996
O O5 0.607878 0.314490 0.123096
O O6 0.688579 0.134639 0.270568
O O7 0.500000 0.160481 0.000000
O O8 0.563853 0.175560 0.944753
O O9 0.517501 0.164056 0.335331
O O10 0.466267 0.000000 0.171646
O O11 0.201177 0.637783 0.578317
O O12 0.159514 0.742529 0.654197
O O13 0.122098 0.815741 0.437986
O O14 0.662911 0.500000 0.228555
O O15 0.701461 0.367428 0.413842
O O16 0.500000 0.225861 0.500000
O O17 0.171320 0.000000 0.489861
#
# Coordination Sequence:
#
# PCOD8106963 Si02
#       7
#     8   8   8   8   8   8   8
#     4  10  23  42  65  92 123 162 210 258 309 371
#     4  11  21  34  54  84 118 153 196 252 305 355
#     4  11  22  37  59  87 118 156 204 254 306 364
#     4  11  21  38  63  87 120 158 202 249 309 366
#     4  10  21  37  57  83 116 157 202 246 303 370
#     4  11  23  42  65  93 128 164 205 259 314 368
#     4  10  21  38  59  85 117 156 200 246 304 371
#
# _framework density 20.327922999999998
#
# number of rings (size 3 to 8) (size 9 to 14) (size 15 to 20)
#    0.000    1.429    1.429    6.000    0.000    6.000 
#    0.000    0.714    0.000    0.000    0.000    0.000 
#    0.000    0.000    0.000    0.000    0.000    0.000 
#
# Total GULP energy -347256.284273 kJ/mol
# GULP energy per Si atom -12402.010153 kJ/mol
# Density = 2.028166 g / cm^3
# Si number density = 20.327923 Si / 1000 Ang^3
#
#
#
# Elastic Constant Matrix: (Units=GPa)
#
#
# Indices 1 2 3 4 5 6 
#
# 1 77.7977 30.5665 10.6426 0.0000 -23.8132 0.0000
# 2 30.5665 119.5440 29.5079 0.0000 -16.2143 0.0000
# 3 10.6426 29.5079 81.5285 0.0000 -15.3409 0.0000
# 4 0.0000 0.0000 0.0000 22.3005 0.0000 -2.2912
# 5 -23.8132 -16.2143 -15.3409 0.0000 25.8171 0.0000
# 6 0.0000 0.0000 0.0000 -2.2912 0.0000 25.0177
#
#
#
# Elastic Compliance Matrix: (Units=1/GPa)
#
#
# Indices 1 2 3 4 5 6 
#
# 1 0.018861 -0.003008 0.001739 0.000000 0.016541 0.000000
# 2 -0.003008 0.010104 -0.002919 0.000000 0.001837 0.000000
# 3 0.001739 -0.002919 0.014695 0.000000 0.008503 0.000000
# 4 0.000000 0.000000 0.000000 0.045268 0.000000 0.004146
# 5 0.016541 0.001837 0.008503 0.000000 0.060197 0.000000
# 6 0.000000 0.000000 0.000000 0.004146 0.000000 0.040351
#
#
# Mechanical properties :
#
#
# Convention : Reuss Voigt Hill
#
# Bulk Modulus (GPa) = 28.34132 46.70048 37.52090
# Shear Modulus (GPa) = 23.85342 28.50392 26.17867
#
# Velocity S-wave (km/s) = 3.42925 3.74867 3.59251
# Velocity P-wave (km/s) = 5.44537 6.46221 5.97546
#
# Compressibility (1/GPa) = 0.03528417
#
# Stress axis : x y z
#
# Youngs Moduli (GPa) = 53.01952 98.97199 68.05045
#
# Poissons Ratio (x) = 0.29775 -0.11835
# Poissons Ratio (y) = 0.15950 0.19862
# Poissons Ratio (z) = -0.09221 0.28887
#
# Static dielectric constant tensor:
#      x y z
#    x 3.643660 0.000000 -0.122370 
#    y 0.000000 3.827890 0.000000 
#    z -0.122370 0.000000 3.701120 
# 
# 
# High freq. dielectric constant tensor:
#      x y z
#    x 1.796820 0.000000 -0.009520 
#    y 0.000000 1.799270 0.000000 
#    z -0.009520 0.000000 1.791040 
# 
# From -- ./inp_files/246609.got.cif
#   From: 2010.06.25/outbox.cif.g09.slc.cpg/sg12_124_cif.got.tgz:246609.got - 2010.06.28 00:19:55.
