data_PCOD8106860
_publ_section_title
;
Structure prediction by ZEFSAII (Michael W. Deem and Ramdas Pophale) SiO2 
 PCOD8106860
Probable space group: C 2/M
;
_chemical_formula_sum "Si O2"
_cell_formula_units_Z 56
_cell_length_a 24.167092
_cell_length_b 13.070752
_cell_length_c 23.877199
_cell_angle_alpha 90.000000
_cell_angle_beta 18.882267
_cell_angle_gamma 90.000000
_cell_volume 2440.899296
_symmetry_space_group_name_H-M "C 2/M"
_symmetry_group_IT_number 12
_symmetry_cell_setting 'monoclinic'
loop_
_space_group_symop_operation_xyz
x,y,z
-x,y,-z
-x,-y,-z
x,-y,z
1/2+x,1/2+y,z
1/2-x,1/2+y,-z
1/2-x,1/2-y,-z
1/2+x,1/2-y,z
loop_
_atom_site_type_symbol
_atom_site_label
_atom_site_fract_x
_atom_site_fract_y
_atom_site_fract_z
Si Si1 0.037581 0.380194 0.062887
Si Si2 0.598913 0.615805 0.613987
Si Si3 0.232497 0.678757 0.442206
Si Si4 0.171523 0.243115 0.264804
Si Si5 0.779767 0.620623 0.004718
Si Si6 0.357879 0.884302 0.809527
Si Si7 0.785442 0.243985 0.652370
O O1 0.039251 0.500000 0.060469
O O2 0.075425 0.339897 0.090400
O O3 0.853857 0.345596 0.216361
O O4 0.192327 0.346974 0.873812
O O5 0.647392 0.500000 0.548825
O O6 0.621459 0.627856 0.659854
O O7 0.716235 0.698319 0.470075
O O8 0.400993 0.640771 0.791143
O O9 0.273445 0.669329 0.336464
O O10 0.061544 0.617259 0.619805
O O11 0.208818 0.327503 0.181845
O O12 0.205557 0.291319 0.294041
O O13 0.974321 0.203141 0.451844
O O14 0.804030 0.500000 0.970607
O O15 0.791006 0.670942 0.931438
O O16 0.291760 0.000000 0.867754
#
# Coordination Sequence:
#
# PCOD8106860 Si02
#       7
#     8   8   8   8   8   8   8
#     4  11  24  41  64  95 129 167 207 256 312 375
#     4  10  21  37  56  88 128 162 200 251 313 376
#     4  10  22  36  59  89 120 165 205 257 306 369
#     4  10  23  43  65  88 127 165 211 264 307 370
#     4   9  20  36  58  89 122 156 198 249 311 373
#     4  10  21  40  64  92 122 162 208 258 315 372
#     4  10  23  42  60  91 124 166 213 256 311 361
#
# _framework density 22.942364000000001
#
# number of rings (size 3 to 8) (size 9 to 14) (size 15 to 20)
#    0.000    2.000    0.000    2.571    6.000    3.429 
#    0.000    7.857    0.000    1.714    0.000    0.000 
#    0.000    0.000    0.000    0.000    0.000    0.000 
#
# Total GULP energy -347070.200353 kJ/mol
# GULP energy per Si atom -12395.364298 kJ/mol
# Density = 2.289015 g / cm^3
# Si number density = 22.942364 Si / 1000 Ang^3
#
#
#
# Elastic Constant Matrix: (Units=GPa)
#
#
# Indices 1 2 3 4 5 6 
#
# 1 138.8474 14.5850 35.5095 -0.0288 6.1147 0.0134
# 2 14.5850 56.6513 20.2987 -0.0359 -0.7188 0.0268
# 3 35.5095 20.2987 84.6450 -0.0229 1.3896 0.0229
# 4 -0.0288 -0.0359 -0.0229 22.7756 0.0094 -7.7042
# 5 6.1147 -0.7188 1.3896 0.0094 36.5843 -0.0022
# 6 0.0134 0.0268 0.0229 -7.7042 -0.0022 20.6133
#
#
#
# Elastic Compliance Matrix: (Units=1/GPa)
#
#
# Indices 1 2 3 4 5 6 
#
# 1 0.008172 -0.000984 -0.003172 0.000007 -0.001265 0.000002
# 2 -0.000984 0.019441 -0.004261 0.000021 0.000708 -0.000012
# 3 -0.003172 -0.004261 0.014168 0.000001 -0.000092 -0.000008
# 4 0.000007 0.000021 0.000001 0.050261 -0.000013 0.018785
# 5 -0.001265 0.000708 -0.000092 -0.000013 0.027563 -0.000002
# 6 0.000002 -0.000012 -0.000008 0.018785 -0.000002 0.055533
#
#
# Mechanical properties :
#
#
# Convention : Reuss Voigt Hill
#
# Bulk Modulus (GPa) = 40.08283 46.77001 43.42642
# Shear Modulus (GPa) = 24.96416 29.97802 27.47109
#
# Velocity S-wave (km/s) = 3.30225 3.61871 3.46409
# Velocity P-wave (km/s) = 5.66117 6.15550 5.91350
#
# Compressibility (1/GPa) = 0.02494834
#
# Stress axis : x y z
#
# Youngs Moduli (GPa) = 122.36424 51.43805 70.58164
#
# Poissons Ratio (x) = 0.05059 0.22387
# Poissons Ratio (y) = 0.12035 0.30076
# Poissons Ratio (z) = 0.38811 0.21918
#
# Static dielectric constant tensor:
#      x y z
#    x 4.648810 -0.000060 -0.050730 
#    y -0.000060 3.787230 0.000110 
#    z -0.050730 0.000110 4.084920 
# 
# 
# High freq. dielectric constant tensor:
#      x y z
#    x 1.924530 0.000000 -0.002820 
#    y 0.000000 1.875160 0.000010 
#    z -0.002820 0.000010 1.901060 
# 
# From -- ./inp_files/349703.got.cif
#   From: 2010.06.25/outbox.cif.g09.slc.cpg/sg12_175_cif.got.tgz:349703.got - 2010.06.28 00:19:55.
