data_PCOD8106970
_publ_section_title
;
Structure prediction by ZEFSAII (Michael W. Deem and Ramdas Pophale) SiO2 
 PCOD8106970
Probable space group: C 2/M
;
_chemical_formula_sum "Si O2"
_cell_formula_units_Z 56
_cell_length_a 12.163938
_cell_length_b 26.965798
_cell_length_c 9.568900
_cell_angle_alpha 90.000000
_cell_angle_beta 114.663242
_cell_angle_gamma 90.000000
_cell_volume 2852.373379
_symmetry_space_group_name_H-M "C 2/M"
_symmetry_group_IT_number 12
_symmetry_cell_setting 'monoclinic'
loop_
_space_group_symop_operation_xyz
x,y,z
-x,y,-z
-x,-y,-z
x,-y,z
1/2+x,1/2+y,z
1/2-x,1/2+y,-z
1/2-x,1/2-y,-z
1/2+x,1/2-y,z
loop_
_atom_site_type_symbol
_atom_site_label
_atom_site_fract_x
_atom_site_fract_y
_atom_site_fract_z
Si Si1 0.111145 0.300269 0.661645
Si Si2 0.181473 0.444432 0.044305
Si Si3 0.242619 0.620280 0.319181
Si Si4 0.167909 0.857494 0.335625
Si Si5 0.519231 0.143108 0.862349
Si Si6 0.063327 0.188126 0.680065
Si Si7 0.637379 0.444202 0.106762
O O1 0.234670 0.314071 0.645717
O O2 0.110276 0.331740 0.803346
O O3 0.106055 0.244568 0.717110
O O4 0.000000 0.311893 0.500000
O O5 0.131212 0.500000 0.020028
O O6 0.227448 0.430901 0.225521
O O7 0.071850 0.410569 0.932192
O O8 0.294161 0.438620 0.001942
O O9 0.311759 0.616726 0.502569
O O10 0.314857 0.655833 0.249473
O O11 0.109527 0.640767 0.283093
O O12 0.183670 0.903054 0.239054
O O13 0.035835 0.830649 0.258222
O O14 0.500000 0.172513 0.000000
O O15 0.000000 0.180714 0.500000
O O16 0.655716 0.500000 0.178637
O O17 0.500000 0.433423 0.000000
#
# Coordination Sequence:
#
# PCOD8106970 Si02
#       7
#     8   8   8   8   8   8   8
#     4  11  21  37  62  86 117 155 198 242 299 346
#     4  10  21  39  60  85 117 158 198 237 301 366
#     4  10  21  37  59  85 119 150 197 244 289 345
#     4  11  21  38  63  89 119 152 202 253 286 346
#     4  10  21  37  57  83 119 154 189 238 296 352
#     4   9  22  36  58  88 117 156 198 239 297 357
#     4  10  21  38  61  85 118 159 196 241 302 357
#
# _framework density 19.632774000000001
#
# number of rings (size 3 to 8) (size 9 to 14) (size 15 to 20)
#    0.000    1.857    2.857    0.857    2.000    4.857 
#    0.000    5.000    0.000    7.714    0.000    0.000 
#    0.000    0.000    0.000    0.000    0.000    0.000 
#
# Total GULP energy -346999.306521 kJ/mol
# GULP energy per Si atom -12392.832376 kJ/mol
# Density = 1.958809 g / cm^3
# Si number density = 19.632774 Si / 1000 Ang^3
#
#
#
# Elastic Constant Matrix: (Units=GPa)
#
#
# Indices 1 2 3 4 5 6 
#
# 1 114.3567 34.3792 12.5302 0.0000 -2.0110 0.0000
# 2 34.3792 96.3080 36.5097 0.0000 -2.8186 0.0000
# 3 12.5302 36.5097 61.6042 0.0000 -11.5057 0.0000
# 4 0.0000 0.0000 0.0000 25.5585 0.0000 -0.3789
# 5 -2.0110 -2.8186 -11.5057 0.0000 29.4832 0.0000
# 6 0.0000 0.0000 0.0000 -0.3789 0.0000 31.6164
#
#
#
# Elastic Compliance Matrix: (Units=1/GPa)
#
#
# Indices 1 2 3 4 5 6 
#
# 1 0.009801 -0.003559 0.000191 0.000000 0.000403 0.000000
# 2 -0.003559 0.014791 -0.008438 0.000000 -0.002122 0.000000
# 3 0.000191 -0.008438 0.022701 0.000000 0.008065 0.000000
# 4 0.000000 0.000000 0.000000 0.039133 0.000000 0.000469
# 5 0.000403 -0.002122 0.008065 0.000000 0.036890 0.000000
# 6 0.000000 0.000000 0.000000 0.000469 0.000000 0.031635
#
#
# Mechanical properties :
#
#
# Convention : Reuss Voigt Hill
#
# Bulk Modulus (GPa) = 42.22953 48.78968 45.50960
# Shear Modulus (GPa) = 26.81612 29.92159 28.36885
#
# Velocity S-wave (km/s) = 3.69980 3.90816 3.80541
# Velocity P-wave (km/s) = 6.30934 6.72830 6.52218
#
# Compressibility (1/GPa) = 0.02368011
#
# Stress axis : x y z
#
# Youngs Moduli (GPa) = 102.03325 67.61065 44.05120
#
# Poissons Ratio (x) = 0.24064 -0.00842
# Poissons Ratio (y) = 0.36316 0.37170
# Poissons Ratio (z) = -0.01951 0.57049
#
# Static dielectric constant tensor:
#      x y z
#    x 3.969170 0.000000 -0.170160 
#    y 0.000000 3.553990 0.000000 
#    z -0.170160 0.000000 3.442320 
# 
# 
# High freq. dielectric constant tensor:
#      x y z
#    x 1.790650 0.000000 -0.008230 
#    y 0.000000 1.753280 0.000000 
#    z -0.008230 0.000000 1.748610 
# 
# From -- ./inp_files/53306.got.cif
#   From: 2010.06.25/outbox.cif.g09.slc.cpg/sg12_27_cif.got.tgz:53306.got - 2010.06.28 00:19:55.
