data_PCOD8106211
_publ_section_title
;
Structure prediction by ZEFSAII (Michael W. Deem and Ramdas Pophale) SiO2 
 PCOD8106211
Probable space group: C 2/M
;
_chemical_formula_sum "Si O2"
_cell_formula_units_Z 48
_cell_length_a 18.735519
_cell_length_b 8.870436
_cell_length_c 15.172001
_cell_angle_alpha 90.000000
_cell_angle_beta 89.622110
_cell_angle_gamma 90.000000
_cell_volume 2521.413720
_symmetry_space_group_name_H-M "C 2/M"
_symmetry_group_IT_number 12
_symmetry_cell_setting 'monoclinic'
loop_
_space_group_symop_operation_xyz
x,y,z
-x,y,-z
-x,-y,-z
x,-y,z
1/2+x,1/2+y,z
1/2-x,1/2+y,-z
1/2-x,1/2-y,-z
1/2+x,1/2-y,z
loop_
_atom_site_type_symbol
_atom_site_label
_atom_site_fract_x
_atom_site_fract_y
_atom_site_fract_z
Si Si1 0.554781 0.673437 0.728668
Si Si2 0.704211 0.821617 0.728447
Si Si3 0.441165 0.671754 0.071439
Si Si4 0.797399 0.674473 0.072319
Si Si5 0.794734 0.678718 0.578331
Si Si6 0.447207 0.325073 0.580530
O O1 0.575046 0.500000 0.709030
O O2 0.624124 0.771613 0.703626
O O3 0.529982 0.697475 0.829731
O O4 0.488047 0.723046 0.669508
O O5 0.721679 0.772198 0.828558
O O6 0.762928 0.737513 0.670208
O O7 0.710142 0.000000 0.714213
O O8 0.414330 0.500000 0.060323
O O9 0.378459 0.786088 0.050801
O O10 0.500000 0.713014 0.000000
O O11 0.784935 0.500000 0.063596
O O12 0.750000 0.750000 0.000000
O O13 0.788311 0.500000 0.573109
O O14 0.750000 0.750000 0.500000
O O15 0.877138 0.724768 0.570276
O O16 0.500000 0.291052 0.500000
O O17 0.424380 0.500000 0.582981
#
# Coordination Sequence:
#
# PCOD8106211 Si02
#       6
#     8   8   8   8   8   8
#     4   9  18  34  56  80 109 145 183 225 275 330
#     4  10  21  38  59  83 113 148 188 233 280 330
#     4   9  18  33  53  78 109 146 185 225 274 331
#     4  10  21  36  56  82 113 150 189 233 281 329
#     4  12  25  40  60  85 114 148 186 229 277 330
#     4  10  21  37  57  82 112 145 181 222 271 328
#
# _framework density 19.036940000000001
#
# number of rings (size 3 to 8) (size 9 to 14) (size 15 to 20)
#    0.000    2.000    0.000    3.500    0.000    6.000 
#    0.000    3.333    0.000    0.000    0.000    0.000 
#    0.000    0.000    0.000    0.000    0.000    0.000 
#
# Total GULP energy -297652.148394 kJ/mol
# GULP energy per Si atom -12402.172850 kJ/mol
# Density = 1.899361 g / cm^3
# Si number density = 19.036940 Si / 1000 Ang^3
#
#
#
# Elastic Constant Matrix: (Units=GPa)
#
#
# Indices 1 2 3 4 5 6 
#
# 1 119.8518 56.4939 81.3812 0.0000 7.2411 0.0000
# 2 56.4939 86.9029 51.4015 0.0000 2.1329 0.0000
# 3 81.3812 51.4015 129.6317 0.0000 6.8709 0.0000
# 4 0.0000 0.0000 0.0000 27.0036 0.0000 0.4535
# 5 7.2411 2.1329 6.8709 0.0000 40.5394 0.0000
# 6 0.0000 0.0000 0.0000 0.4535 0.0000 37.8054
#
#
#
# Elastic Compliance Matrix: (Units=1/GPa)
#
#
# Indices 1 2 3 4 5 6 
#
# 1 0.016752 -0.006112 -0.008024 0.000000 -0.001311 0.000000
# 2 -0.006112 0.017265 -0.003046 0.000000 0.000700 0.000000
# 3 -0.008024 -0.003046 0.014000 0.000000 -0.000779 0.000000
# 4 0.000000 0.000000 0.000000 0.037040 0.000000 -0.000444
# 5 -0.001311 0.000700 -0.000779 0.000000 0.024997 0.000000
# 6 0.000000 0.000000 0.000000 -0.000444 0.000000 0.026457
#
#
# Mechanical properties :
#
#
# Convention : Reuss Voigt Hill
#
# Bulk Modulus (GPa) = 73.23850 79.43771 76.33810
# Shear Modulus (GPa) = 28.50222 30.87699 29.68961
#
# Velocity S-wave (km/s) = 3.87357 4.03172 3.95343
# Velocity P-wave (km/s) = 7.65254 7.96817 7.81195
#
# Compressibility (1/GPa) = 0.01365402
#
# Stress axis : x y z
#
# Youngs Moduli (GPa) = 59.69398 57.92109 71.42673
#
# Poissons Ratio (x) = 0.35402 0.57311
# Poissons Ratio (y) = 0.36486 0.21755
# Poissons Ratio (z) = 0.47897 0.17641
#
# Static dielectric constant tensor:
#      x y z
#    x 3.072430 0.000000 -0.050610 
#    y 0.000000 3.513630 0.000000 
#    z -0.050610 0.000000 3.761140 
# 
# 
# High freq. dielectric constant tensor:
#      x y z
#    x 1.735070 0.000000 0.001040 
#    y 0.000000 1.740350 0.000000 
#    z 0.001040 0.000000 1.756940 
# 
# From -- ./inp_files/221567.got.cif
#   From: 2010.06.25/outbox.cif.g09.slc.cpg/sg12_111_cif.got.tgz:221567.got - 2010.06.28 00:19:55.
