data_PCOD8106391
_publ_section_title
;
Structure prediction by ZEFSAII (Michael W. Deem and Ramdas Pophale) SiO2 
 PCOD8106391
Probable space group: C 2/M
;
_chemical_formula_sum "Si O2"
_cell_formula_units_Z 56
_cell_length_a 22.428866
_cell_length_b 15.016693
_cell_length_c 24.213095
_cell_angle_alpha 90.000000
_cell_angle_beta 21.270489
_cell_angle_gamma 90.000000
_cell_volume 2958.454182
_symmetry_space_group_name_H-M "C 2/M"
_symmetry_group_IT_number 12
_symmetry_cell_setting 'monoclinic'
loop_
_space_group_symop_operation_xyz
x,y,z
-x,y,-z
-x,-y,-z
x,-y,z
1/2+x,1/2+y,z
1/2-x,1/2+y,-z
1/2-x,1/2-y,-z
1/2+x,1/2-y,z
loop_
_atom_site_type_symbol
_atom_site_label
_atom_site_fract_x
_atom_site_fract_y
_atom_site_fract_z
Si Si1 0.061044 0.400329 0.784432
Si Si2 0.160039 0.763303 0.219192
Si Si3 0.223255 0.155178 0.047629
Si Si4 0.074463 0.901612 0.766006
Si Si5 0.219715 0.753357 0.460495
Si Si6 0.405047 0.396275 0.025448
Si Si7 0.606720 0.902720 0.960375
O O1 0.133832 0.500000 0.723239
O O2 0.196134 0.339562 0.638484
O O3 0.892063 0.399567 0.895268
O O4 0.011893 0.365122 0.888091
O O5 0.174010 0.823718 0.152370
O O6 0.247580 0.666716 0.148467
O O7 0.253849 0.831637 0.179051
O O8 0.968857 0.751702 0.395431
O O9 0.085959 0.101024 0.133832
O O10 0.250000 0.250000 0.000000
O O11 0.209275 0.834371 0.628267
O O12 0.150580 0.000000 0.695817
O O13 0.031618 0.880183 0.866376
O O14 0.250000 0.750000 0.500000
O O15 0.346672 0.500000 0.077885
O O16 0.500000 0.370164 0.000000
O O17 0.679244 0.000000 0.916546
O O18 0.500000 0.919899 0.000000
#
# Coordination Sequence:
#
# PCOD8106391 Si02
#       7
#     8   8   8   8   8   8   8
#     4  10  21  36  58  83 113 152 190 233 287 336
#     4  11  21  35  61  84 119 154 187 234 295 342
#     4  11  17  36  59  83 112 142 192 248 282 336
#     4  11  22  38  61  84 114 156 195 239 293 339
#     4  12  24  39  52  83 128 155 183 233 284 357
#     4  10  22  41  64  88 112 148 203 251 283 330
#     4   9  19  38  63  88 112 145 195 243 281 333
#
# _framework density 18.928804
#
# number of rings (size 3 to 8) (size 9 to 14) (size 15 to 20)
#    0.000    1.429    4.286    1.714    0.000    2.286 
#    0.000    2.857    0.000    5.143    0.000    0.000 
#    0.000    0.000    0.000    0.000    0.000    0.000 
#
# Total GULP energy -346947.102328 kJ/mol
# GULP energy per Si atom -12390.967940 kJ/mol
# Density = 1.888572 g / cm^3
# Si number density = 18.928804 Si / 1000 Ang^3
#
#
#
# Elastic Constant Matrix: (Units=GPa)
#
#
# Indices 1 2 3 4 5 6 
#
# 1 91.0045 41.5756 47.5532 -0.0058 2.3054 0.0010
# 2 41.5756 131.3543 77.8709 0.0194 -4.6906 -0.0030
# 3 47.5532 77.8709 131.4033 -0.0193 -11.6984 0.0065
# 4 -0.0058 0.0194 -0.0193 19.8297 0.0011 5.0681
# 5 2.3054 -4.6906 -11.6984 0.0011 22.1750 -0.0015
# 6 0.0010 -0.0030 0.0065 5.0681 -0.0015 23.1828
#
#
#
# Elastic Compliance Matrix: (Units=1/GPa)
#
#
# Indices 1 2 3 4 5 6 
#
# 1 0.014312 -0.002139 -0.004285 0.000002 -0.004201 0.000000
# 2 -0.002139 0.012089 -0.006445 -0.000021 -0.000621 0.000008
# 3 -0.004285 -0.006445 0.013534 0.000020 0.006222 -0.000008
# 4 0.000002 -0.000021 0.000020 0.053414 0.000003 -0.011677
# 5 -0.004201 -0.000621 0.006222 0.000003 0.048684 0.000001
# 6 0.000000 0.000008 -0.000008 -0.011677 0.000001 0.045688
#
#
# Mechanical properties :
#
#
# Convention : Reuss Voigt Hill
#
# Bulk Modulus (GPa) = 70.44633 76.41795 73.43214
# Shear Modulus (GPa) = 22.91566 25.48833 24.20199
#
# Velocity S-wave (km/s) = 3.48318 3.67350 3.57960
# Velocity P-wave (km/s) = 7.31259 7.64537 7.48083
#
# Compressibility (1/GPa) = 0.01419520
#
# Stress axis : x y z
#
# Youngs Moduli (GPa) = 69.87371 82.72154 73.88638
#
# Poissons Ratio (x) = 0.17697 0.31663
# Poissons Ratio (y) = 0.14948 0.47620
# Poissons Ratio (z) = 0.29944 0.53314
#
# Static dielectric constant tensor:
#      x y z
#    x 3.642200 0.000020 0.007060 
#    y 0.000020 3.746170 0.000050 
#    z 0.007060 0.000050 3.331200 
# 
# 
# High freq. dielectric constant tensor:
#      x y z
#    x 1.738190 0.000000 0.003460 
#    y 0.000000 1.756680 0.000000 
#    z 0.003460 0.000000 1.710580 
# 
# From -- ./inp_files/349724.got.cif
#   From: 2010.06.25/outbox.cif.g09.slc.cpg/sg12_175_cif.got.tgz:349724.got - 2010.06.28 00:19:55.
