data_PCOD8106154
_publ_section_title
;
Structure prediction by ZEFSAII (Michael W. Deem and Ramdas Pophale) SiO2 
 PCOD8106154
Probable space group: C 2/M
;
_chemical_formula_sum "Si O2"
_cell_formula_units_Z 40
_cell_length_a 10.450407
_cell_length_b 9.282670
_cell_length_c 18.917544
_cell_angle_alpha 90.000000
_cell_angle_beta 110.352050
_cell_angle_gamma 90.000000
_cell_volume 1720.585012
_symmetry_space_group_name_H-M "C 2/M"
_symmetry_group_IT_number 12
_symmetry_cell_setting 'monoclinic'
loop_
_space_group_symop_operation_xyz
x,y,z
-x,y,-z
-x,-y,-z
x,-y,z
1/2+x,1/2+y,z
1/2-x,1/2+y,-z
1/2-x,1/2-y,-z
1/2+x,1/2-y,z
loop_
_atom_site_type_symbol
_atom_site_label
_atom_site_fract_x
_atom_site_fract_y
_atom_site_fract_z
Si Si1 0.317118 0.830452 0.788724
Si Si2 0.771596 0.345804 0.107361
Si Si3 0.996439 0.835194 0.711988
Si Si4 0.890003 0.833434 0.535121
Si Si5 0.922164 0.157670 0.048715
O O1 0.343356 0.735557 0.865822
O O2 0.408203 0.774163 0.742280
O O3 0.156931 0.798120 0.745201
O O4 0.344752 0.000000 0.806551
O O5 0.813925 0.500000 0.149348
O O6 0.906214 0.244299 0.120548
O O7 0.723678 0.372118 0.017415
O O8 0.950600 0.807634 0.623725
O O9 0.969356 0.000000 0.730006
O O10 0.750000 0.750000 0.500000
O O11 0.000000 0.773835 0.500000
O O12 0.859382 0.000000 0.513879
O O13 0.990728 0.000000 0.078898
O O14 0.000000 0.239522 0.000000
#
# Coordination Sequence:
#
# PCOD8106154 Si02
#       5
#     8   8   8   8   8
#     4  11  24  41  63  88 122 164 205 250 303 361
#     4  10  21  36  55  83 114 149 196 249 302 358
#     4  10  23  42  62  89 125 163 202 247 297 358
#     4  10  21  39  64  93 125 160 201 247 298 354
#     4   9  19  36  57  79 109 149 194 244 300 360
#
# _framework density 23.247906
#
# number of rings (size 3 to 8) (size 9 to 14) (size 15 to 20)
#    0.000    2.000    0.000    2.400    2.800    5.600 
#    0.000    0.000    0.000    0.000    0.000    0.000 
#    0.000    0.000    0.000    0.000    0.000    0.000 
#
# Total GULP energy -247805.313387 kJ/mol
# GULP energy per Si atom -12390.265669 kJ/mol
# Density = 2.319499 g / cm^3
# Si number density = 23.247906 Si / 1000 Ang^3
#
#
#
# Elastic Constant Matrix: (Units=GPa)
#
#
# Indices 1 2 3 4 5 6 
#
# 1 125.8651 55.5687 34.1531 0.0000 -33.2726 0.0000
# 2 55.5687 151.8751 54.1863 0.0000 -31.3908 0.0000
# 3 34.1531 54.1863 81.5767 0.0000 -22.4505 0.0000
# 4 0.0000 0.0000 0.0000 30.1364 0.0000 -13.3441
# 5 -33.2726 -31.3908 -22.4505 0.0000 43.0016 0.0000
# 6 0.0000 0.0000 0.0000 -13.3441 0.0000 31.8034
#
#
#
# Elastic Compliance Matrix: (Units=1/GPa)
#
#
# Indices 1 2 3 4 5 6 
#
# 1 0.010923 -0.002235 -0.001415 0.000000 0.006082 0.000000
# 2 -0.002235 0.009673 -0.004697 0.000000 0.002880 0.000000
# 3 -0.001415 -0.004697 0.017197 0.000000 0.004454 0.000000
# 4 0.000000 0.000000 0.000000 0.040754 0.000000 0.017100
# 5 0.006082 0.002880 0.004454 0.000000 0.032389 0.000000
# 6 0.000000 0.000000 0.000000 0.017100 0.000000 0.038618
#
#
# Mechanical properties :
#
#
# Convention : Reuss Voigt Hill
#
# Bulk Modulus (GPa) = 47.39462 71.90369 59.64916
# Shear Modulus (GPa) = 28.85495 35.34884 32.10190
#
# Velocity S-wave (km/s) = 3.52687 3.90361 3.72001
# Velocity P-wave (km/s) = 6.08407 7.16337 6.64567
#
# Compressibility (1/GPa) = 0.02109944
#
# Stress axis : x y z
#
# Youngs Moduli (GPa) = 91.54688 103.37960 58.15073
#
# Poissons Ratio (x) = 0.23103 0.08228
# Poissons Ratio (y) = 0.20459 0.27314
# Poissons Ratio (z) = 0.12954 0.48558
#
# Static dielectric constant tensor:
#      x y z
#    x 4.365850 0.000000 0.044600 
#    y 0.000000 4.821410 0.000000 
#    z 0.044600 0.000000 4.172030 
# 
# 
# High freq. dielectric constant tensor:
#      x y z
#    x 1.944940 0.000000 -0.001210 
#    y 0.000000 1.920260 0.000000 
#    z -0.001210 0.000000 1.915020 
# 
# From -- ./inp_files/261086.got.cif
#   From: 2010.06.25/outbox.cif.g09.slc.cpg/sg12_131_cif.got.tgz:261086.got - 2010.06.28 00:19:55.
