data_PCOD8106292
_publ_section_title
;
Structure prediction by ZEFSAII (Michael W. Deem and Ramdas Pophale) SiO2 
 PCOD8106292
Probable space group: C 2/M
;
_chemical_formula_sum "Si O2"
_cell_formula_units_Z 56
_cell_length_a 8.791121
_cell_length_b 13.317503
_cell_length_c 30.120215
_cell_angle_alpha 90.000000
_cell_angle_beta 48.653054
_cell_angle_gamma 90.000000
_cell_volume 2647.310660
_symmetry_space_group_name_H-M "C 2/M"
_symmetry_group_IT_number 12
_symmetry_cell_setting 'monoclinic'
loop_
_space_group_symop_operation_xyz
x,y,z
-x,y,-z
-x,-y,-z
x,-y,z
1/2+x,1/2+y,z
1/2-x,1/2+y,-z
1/2-x,1/2-y,-z
1/2+x,1/2-y,z
loop_
_atom_site_type_symbol
_atom_site_label
_atom_site_fract_x
_atom_site_fract_y
_atom_site_fract_z
Si Si1 0.518666 0.700097 0.212824
Si Si2 0.817073 0.612319 0.281821
Si Si3 0.452885 0.751284 0.130978
Si Si4 0.595647 0.384831 0.413795
Si Si5 0.845600 0.116244 0.069945
Si Si6 0.706244 0.203509 0.440404
Si Si7 0.101909 0.885123 0.677592
O O1 0.500681 0.817038 0.231424
O O2 0.445324 0.683333 0.176925
O O3 0.757365 0.675257 0.168577
O O4 0.379190 0.634519 0.273231
O O5 0.874519 0.500000 0.256142
O O6 0.772180 0.617957 0.342844
O O7 0.619411 0.652659 0.294082
O O8 0.644219 0.825275 0.093526
O O9 0.451487 0.673616 0.090520
O O10 0.544966 0.500000 0.436120
O O11 0.678698 0.325220 0.441157
O O12 0.392469 0.329027 0.435265
O O13 0.796932 0.000000 0.091585
O O14 0.000000 0.120570 0.000000
O O15 0.500000 0.156331 0.500000
O O16 0.728660 0.169551 0.384560
O O17 0.127386 0.000000 0.660579
#
# Coordination Sequence:
#
# PCOD8106292 Si02
#       7
#     8   8   8   8   8   8   8
#     4  11  19  36  58  86 126 157 195 257 310 360
#     4   9  18  35  59  79 110 161 202 240 306 378
#     4  10  23  36  63  98 126 161 207 254 296 362
#     4  10  22  40  62  86 115 155 200 252 314 374
#     4  10  22  44  69  93 129 171 208 250 299 349
#     4  11  22  40  64  86 118 156 206 266 310 374
#     4  10  21  36  57  82 116 162 204 250 317 377
#
# _framework density 21.153541000000001
#
# number of rings (size 3 to 8) (size 9 to 14) (size 15 to 20)
#    0.000    1.857    2.857    2.143    0.000    4.857 
#    0.000    3.571    0.000    7.714    0.000    0.000 
#    0.000    0.000    0.000    0.000    0.000    0.000 
#
# Total GULP energy -347065.259133 kJ/mol
# GULP energy per Si atom -12395.187826 kJ/mol
# Density = 2.110539 g / cm^3
# Si number density = 21.153541 Si / 1000 Ang^3
#
#
#
# Elastic Constant Matrix: (Units=GPa)
#
#
# Indices 1 2 3 4 5 6 
#
# 1 84.9649 49.3480 28.7404 -0.0002 0.8527 0.0001
# 2 49.3480 119.2505 35.2567 -0.0001 -6.1990 0.0000
# 3 28.7404 35.2567 91.2750 -0.0002 0.9599 0.0000
# 4 -0.0002 -0.0001 -0.0002 20.3142 0.0001 -0.6015
# 5 0.8527 -6.1990 0.9599 0.0001 23.7007 -0.0002
# 6 0.0001 0.0000 0.0000 -0.6015 -0.0002 30.0793
#
#
#
# Elastic Compliance Matrix: (Units=1/GPa)
#
#
# Indices 1 2 3 4 5 6 
#
# 1 0.016208 -0.005995 -0.002766 0.000000 -0.002039 0.000000
# 2 -0.005995 0.011851 -0.002726 0.000000 0.003426 0.000000
# 3 -0.002766 -0.002726 0.012892 0.000000 -0.001136 0.000000
# 4 0.000000 0.000000 0.000000 0.049256 0.000000 0.000985
# 5 -0.002039 0.003426 -0.001136 0.000000 0.043208 0.000000
# 6 0.000000 0.000000 0.000000 0.000985 0.000000 0.033265
#
#
# Mechanical properties :
#
#
# Convention : Reuss Voigt Hill
#
# Bulk Modulus (GPa) = 55.63085 58.02006 56.82546
# Shear Modulus (GPa) = 25.55639 26.96185 26.25912
#
# Velocity S-wave (km/s) = 3.47960 3.57400 3.52711
# Velocity P-wave (km/s) = 6.51914 6.67225 6.59614
#
# Compressibility (1/GPa) = 0.01797564
#
# Stress axis : x y z
#
# Youngs Moduli (GPa) = 61.69868 84.38391 77.56888
#
# Poissons Ratio (x) = 0.50590 0.21457
# Poissons Ratio (y) = 0.36990 0.21144
# Poissons Ratio (z) = 0.17067 0.23001
#
# Static dielectric constant tensor:
#      x y z
#    x 3.735200 0.000000 0.081090 
#    y 0.000000 3.769540 0.000000 
#    z 0.081090 0.000000 3.998560 
# 
# 
# High freq. dielectric constant tensor:
#      x y z
#    x 1.815380 0.000000 0.005100 
#    y 0.000000 1.817940 0.000000 
#    z 0.005100 0.000000 1.842880 
# 
# From -- ./inp_files/372354.got.cif
#   From: 2010.06.25/outbox.cif.g09.slc.cpg/sg12_187_cif.got.tgz:372354.got - 2010.06.28 00:19:55.
