data_PCOD8106337
_publ_section_title
;
Structure prediction by ZEFSAII (Michael W. Deem and Ramdas Pophale) SiO2 
 PCOD8106337
Probable space group: C 2/M
;
_chemical_formula_sum "Si O2"
_cell_formula_units_Z 64
_cell_length_a 15.276236
_cell_length_b 9.194574
_cell_length_c 32.795589
_cell_angle_alpha 90.000000
_cell_angle_beta 46.204158
_cell_angle_gamma 90.000000
_cell_volume 3324.961150
_symmetry_space_group_name_H-M "C 2/M"
_symmetry_group_IT_number 12
_symmetry_cell_setting 'monoclinic'
loop_
_space_group_symop_operation_xyz
x,y,z
-x,y,-z
-x,-y,-z
x,-y,z
1/2+x,1/2+y,z
1/2-x,1/2+y,-z
1/2-x,1/2-y,-z
1/2+x,1/2-y,z
loop_
_atom_site_type_symbol
_atom_site_label
_atom_site_fract_x
_atom_site_fract_y
_atom_site_fract_z
Si Si1 0.188987 0.828258 0.641019
Si Si2 0.330115 0.326780 0.940467
Si Si3 0.212584 0.336499 0.757907
Si Si4 0.603272 0.666397 0.863271
Si Si5 0.845544 0.170333 0.441265
Si Si6 0.221486 0.333285 0.124348
Si Si7 0.380643 0.671828 0.632377
Si Si8 0.983575 0.663847 0.246370
O O1 0.175355 0.783145 0.598510
O O2 0.311444 0.754555 0.618431
O O3 0.068923 0.773080 0.702987
O O4 0.198622 0.000000 0.643855
O O5 0.318602 0.500000 0.948181
O O6 0.467605 0.271214 0.903085
O O7 0.283420 0.277110 0.911436
O O8 0.250000 0.250000 0.000000
O O9 0.237107 0.500000 0.764451
O O10 0.199078 0.242156 0.802559
O O11 0.324709 0.281058 0.694070
O O12 0.090011 0.323114 0.771725
O O13 0.602629 0.500000 0.850149
O O14 0.648996 0.686254 0.895028
O O15 0.750000 0.250000 0.500000
O O16 0.979232 0.216687 0.413108
O O17 0.827193 0.000000 0.452547
O O18 0.204192 0.500000 0.114686
O O19 0.120457 0.293964 0.190848
O O20 0.360095 0.500000 0.632573
O O21 0.974287 0.500000 0.266857
#
# Coordination Sequence:
#
# PCOD8106337 Si02
#       8
#     8   8   8   8   8   8   8   8
#     4  10  21  36  57  86 116 147 189 243 288 331
#     4  11  24  42  62  85 116 155 196 241 287 338
#     4   9  17  32  57  84 114 150 187 228 280 343
#     4  10  22  37  57  87 118 148 188 238 289 334
#     4  10  23  41  59  82 115 154 197 241 288 345
#     4  10  21  39  60  85 117 153 190 233 286 343
#     4   9  20  39  58  81 115 155 192 230 289 352
#     4   9  18  34  57  84 117 154 187 225 284 352
#
# _framework density 19.248345
#
# number of rings (size 3 to 8) (size 9 to 14) (size 15 to 20)
#    0.000    2.250    1.250    1.500    1.750    6.000 
#    0.000    5.000    0.000    0.000    0.000    0.000 
#    0.000    0.000    0.000    0.000    0.000    0.000 
#
# Total GULP energy -396831.369377 kJ/mol
# GULP energy per Si atom -12400.980293 kJ/mol
# Density = 1.920453 g / cm^3
# Si number density = 19.248345 Si / 1000 Ang^3
#
#
#
# Elastic Constant Matrix: (Units=GPa)
#
#
# Indices 1 2 3 4 5 6 
#
# 1 88.8769 40.4453 52.6068 0.0007 10.5351 0.0010
# 2 40.4453 66.9549 49.0840 0.0008 8.9445 0.0010
# 3 52.6068 49.0840 105.9744 0.0002 6.4521 0.0003
# 4 0.0007 0.0008 0.0002 38.2371 0.0001 4.1327
# 5 10.5351 8.9445 6.4521 0.0001 21.8438 0.0002
# 6 0.0010 0.0010 0.0003 4.1327 0.0002 28.6688
#
#
#
# Elastic Compliance Matrix: (Units=1/GPa)
#
#
# Indices 1 2 3 4 5 6 
#
# 1 0.017978 -0.005931 -0.005903 0.000000 -0.004498 0.000000
# 2 -0.005931 0.025449 -0.008536 0.000000 -0.005039 -0.000001
# 3 -0.005903 -0.008536 0.016226 0.000000 0.001550 0.000000
# 4 0.000000 0.000000 0.000000 0.026567 0.000000 -0.003830
# 5 -0.004498 -0.005039 0.001550 0.000000 0.049555 0.000000
# 6 0.000000 -0.000001 0.000000 -0.003830 0.000000 0.035433
#
#
# Mechanical properties :
#
#
# Convention : Reuss Voigt Hill
#
# Bulk Modulus (GPa) = 52.87749 60.67538 56.77644
# Shear Modulus (GPa) = 22.90913 25.72794 24.31854
#
# Velocity S-wave (km/s) = 3.45365 3.65996 3.55830
# Velocity P-wave (km/s) = 6.59048 7.03216 6.81490
#
# Compressibility (1/GPa) = 0.01891164
#
# Stress axis : x y z
#
# Youngs Moduli (GPa) = 55.62295 39.29391 61.62902
#
# Poissons Ratio (x) = 0.23306 0.36383
# Poissons Ratio (y) = 0.32992 0.52607
# Poissons Ratio (z) = 0.32837 0.33542
#
# Static dielectric constant tensor:
#      x y z
#    x 3.742620 0.000000 -0.024840 
#    y 0.000000 3.431830 0.000000 
#    z -0.024840 0.000000 3.478100 
# 
# 
# High freq. dielectric constant tensor:
#      x y z
#    x 1.754950 0.000000 -0.004940 
#    y 0.000000 1.742730 0.000000 
#    z -0.004940 0.000000 1.744120 
# 
# From -- ./inp_files/375485.got.cif
#   From: 2010.06.25/outbox.cif.g09.slc.cpg/sg12_188_cif.got.tgz:375485.got - 2010.06.28 00:19:55.
