data_PCOD8106692
_publ_section_title
;
Structure prediction by ZEFSAII (Michael W. Deem and Ramdas Pophale) SiO2 
 PCOD8106692
Probable space group: C 2/M
;
_chemical_formula_sum "Si O2"
_cell_formula_units_Z 56
_cell_length_a 14.280915
_cell_length_b 8.759545
_cell_length_c 26.259218
_cell_angle_alpha 90.000000
_cell_angle_beta 61.034093
_cell_angle_gamma 90.000000
_cell_volume 2873.966980
_symmetry_space_group_name_H-M "C 2/M"
_symmetry_group_IT_number 12
_symmetry_cell_setting 'monoclinic'
loop_
_space_group_symop_operation_xyz
x,y,z
-x,y,-z
-x,-y,-z
x,-y,z
1/2+x,1/2+y,z
1/2-x,1/2+y,-z
1/2-x,1/2-y,-z
1/2+x,1/2-y,z
loop_
_atom_site_type_symbol
_atom_site_label
_atom_site_fract_x
_atom_site_fract_y
_atom_site_fract_z
Si Si1 0.321325 0.825866 0.554383
Si Si2 0.789080 0.320866 0.852207
Si Si3 0.390118 0.825017 0.423567
Si Si4 0.107994 0.821853 0.364222
Si Si5 0.573653 0.178889 0.935643
Si Si6 0.486541 0.179639 0.161668
Si Si7 0.729734 0.320784 0.754599
O O1 0.388547 0.806901 0.484984
O O2 0.198360 0.782032 0.578206
O O3 0.372302 0.713585 0.581908
O O4 0.326761 0.000000 0.572702
O O5 0.779357 0.500000 0.861577
O O6 0.691865 0.248376 0.909272
O O7 0.781345 0.273679 0.795086
O O8 0.900928 0.261273 0.845603
O O9 0.503991 0.769794 0.372344
O O10 0.369897 0.000000 0.412776
O O11 0.209516 0.769620 0.305204
O O12 0.087577 0.000000 0.362528
O O13 0.517829 0.220875 0.896887
O O14 0.586836 0.000000 0.938906
O O15 0.500000 0.247249 0.000000
O O16 0.393665 0.270020 0.215523
O O17 0.470465 0.000000 0.175244
O O18 0.738465 0.500000 0.742073
#
# Coordination Sequence:
#
# PCOD8106692 Si02
#       7
#     8   8   8   8   8   8   8
#     4  10  21  38  59  83 111 143 180 223 272 326
#     4   9  19  35  55  76 101 138 177 217 264 312
#     4  10  21  38  59  83 112 144 179 222 272 327
#     4  12  24  37  56  81 110 145 183 224 275 329
#     4   9  18  32  51  78 111 142 173 213 259 311
#     4   9  18  35  55  75 104 140 177 216 265 321
#     4  10  21  37  54  75 103 134 177 227 271 318
#
# _framework density 19.485263
#
# number of rings (size 3 to 8) (size 9 to 14) (size 15 to 20)
#    0.000    2.143    0.000    3.000    0.000    6.571 
#    0.000    4.286    0.000    0.000    0.000    0.000 
#    0.000    0.000    0.000    0.000    0.000    0.000 
#
# Total GULP energy -347320.178314 kJ/mol
# GULP energy per Si atom -12404.292083 kJ/mol
# Density = 1.944091 g / cm^3
# Si number density = 19.485263 Si / 1000 Ang^3
#
#
#
# Elastic Constant Matrix: (Units=GPa)
#
#
# Indices 1 2 3 4 5 6 
#
# 1 116.3447 25.0712 38.7779 0.0000 -18.8844 0.0000
# 2 25.0712 61.3948 33.3180 0.0000 -7.9980 0.0000
# 3 38.7779 33.3180 59.0619 0.0000 -20.8636 0.0000
# 4 0.0000 0.0000 0.0000 28.2839 0.0000 -5.1820
# 5 -18.8844 -7.9980 -20.8636 0.0000 23.3588 0.0000
# 6 0.0000 0.0000 0.0000 -5.1820 0.0000 31.9665
#
#
#
# Elastic Compliance Matrix: (Units=1/GPa)
#
#
# Indices 1 2 3 4 5 6 
#
# 1 0.011270 -0.001194 -0.005335 0.000000 0.003937 0.000000
# 2 -0.001194 0.024102 -0.014957 0.000000 -0.006073 0.000000
# 3 -0.005335 -0.014957 0.037311 0.000000 0.023891 0.000000
# 4 0.000000 0.000000 0.000000 0.036438 0.000000 0.005907
# 5 0.003937 -0.006073 0.023891 0.000000 0.065253 0.000000
# 6 0.000000 0.000000 0.000000 0.005907 0.000000 0.032240
#
#
# Mechanical properties :
#
#
# Convention : Reuss Voigt Hill
#
# Bulk Modulus (GPa) = 33.65859 47.90397 40.78128
# Shear Modulus (GPa) = 19.26853 26.03080 22.64967
#
# Velocity S-wave (km/s) = 3.14805 3.65899 3.41310
# Velocity P-wave (km/s) = 5.52495 6.51836 6.04211
#
# Compressibility (1/GPa) = 0.02971009
#
# Stress axis : x y z
#
# Youngs Moduli (GPa) = 88.73420 41.49088 26.80140
#
# Poissons Ratio (x) = 0.04954 0.14298
# Poissons Ratio (y) = 0.10595 0.40088
# Poissons Ratio (z) = 0.47339 0.62060
#
# Static dielectric constant tensor:
#      x y z
#    x 3.654800 0.000000 -0.055510 
#    y 0.000000 3.490300 0.000000 
#    z -0.055510 0.000000 3.559580 
# 
# 
# High freq. dielectric constant tensor:
#      x y z
#    x 1.763940 0.000000 -0.009260 
#    y 0.000000 1.758550 0.000000 
#    z -0.009260 0.000000 1.752880 
# 
# From -- ./inp_files/309045.got.cif
#   From: 2010.06.25/outbox.cif.g09.slc.cpg/sg12_155_cif.got.tgz:309045.got - 2010.06.28 00:19:55.
