data_PCOD8106100
_publ_section_title
;
Structure prediction by ZEFSAII (Michael W. Deem and Ramdas Pophale) SiO2 
 PCOD8106100
Probable space group: C 2/M
;
_chemical_formula_sum "Si O2"
_cell_formula_units_Z 56
_cell_length_a 15.554538
_cell_length_b 8.944401
_cell_length_c 21.053578
_cell_angle_alpha 90.000000
_cell_angle_beta 69.005332
_cell_angle_gamma 90.000000
_cell_volume 2734.648684
_symmetry_space_group_name_H-M "C 2/M"
_symmetry_group_IT_number 12
_symmetry_cell_setting 'monoclinic'
loop_
_space_group_symop_operation_xyz
x,y,z
-x,y,-z
-x,-y,-z
x,-y,z
1/2+x,1/2+y,z
1/2-x,1/2+y,-z
1/2-x,1/2-y,-z
1/2+x,1/2-y,z
loop_
_atom_site_type_symbol
_atom_site_label
_atom_site_fract_x
_atom_site_fract_y
_atom_site_fract_z
Si Si1 0.451388 0.323208 0.076249
Si Si2 0.196356 0.664300 0.428769
Si Si3 0.762869 0.671111 0.153289
Si Si4 0.309481 0.327189 0.692870
Si Si5 0.508163 0.176516 0.312586
Si Si6 0.615617 0.335456 0.555108
Si Si7 0.441873 0.677158 0.826828
O O1 0.446845 0.500000 0.077203
O O2 0.346864 0.266486 0.104333
O O3 0.512654 0.267707 0.119527
O O4 0.500000 0.261588 0.000000
O O5 0.161201 0.500000 0.415384
O O6 0.234254 0.764186 0.360078
O O7 0.278627 0.639788 0.455543
O O8 0.113034 0.750064 0.487637
O O9 0.780443 0.500000 0.129990
O O10 0.760822 0.691850 0.230069
O O11 0.665893 0.725972 0.148118
O O12 0.338574 0.500000 0.678373
O O13 0.397431 0.224587 0.680328
O O14 0.427990 0.236267 0.378335
O O15 0.499885 0.246709 0.244601
O O16 0.500451 0.000000 0.308316
O O17 0.568248 0.500000 0.561609
O O18 0.448636 0.500000 0.815456
#
# Coordination Sequence:
#
# PCOD8106100 Si02
#       7
#     8   8   8   8   8   8   8
#     4  10  22  39  61  90 121 155 196 238 288 352
#     4  10  21  36  55  81 111 146 192 239 284 340
#     4   9  20  38  59  85 118 156 196 241 291 350
#     4  10  21  38  58  81 113 149 187 234 294 348
#     4  11  22  36  57  84 111 143 193 242 283 341
#     4  10  21  37  55  78 112 151 188 233 293 344
#     4   9  20  40  60  83 120 160 194 238 300 356
#
# _framework density 20.477951000000001
#
# number of rings (size 3 to 8) (size 9 to 14) (size 15 to 20)
#    0.000    2.143    0.000    3.429    2.000    6.571 
#    0.000    2.857    0.000    0.000    0.000    0.000 
#    0.000    0.000    0.000    0.000    0.000    0.000 
#
# Total GULP energy -347141.775979 kJ/mol
# GULP energy per Si atom -12397.920571 kJ/mol
# Density = 2.043134 g / cm^3
# Si number density = 20.477951 Si / 1000 Ang^3
#
#
#
# Elastic Constant Matrix: (Units=GPa)
#
#
# Indices 1 2 3 4 5 6 
#
# 1 35.5201 11.4517 20.2716 0.0000 -10.8963 0.0000
# 2 11.4517 89.6720 44.0235 0.0000 -6.3740 0.0000
# 3 20.2716 44.0235 117.6468 0.0000 -11.5535 0.0000
# 4 0.0000 0.0000 0.0000 27.5399 0.0000 -4.7408
# 5 -10.8963 -6.3740 -11.5535 0.0000 25.0194 0.0000
# 6 0.0000 0.0000 0.0000 -4.7408 0.0000 26.7331
#
#
#
# Elastic Compliance Matrix: (Units=1/GPa)
#
#
# Indices 1 2 3 4 5 6 
#
# 1 0.034996 -0.001486 -0.004205 0.000000 0.012921 0.000000
# 2 -0.001486 0.013758 -0.004830 0.000000 0.000627 0.000000
# 3 -0.004205 -0.004830 0.011241 0.000000 0.002129 0.000000
# 4 0.000000 0.000000 0.000000 0.037454 0.000000 0.006642
# 5 0.012921 0.000627 0.002129 0.000000 0.046739 0.000000
# 6 0.000000 0.000000 0.000000 0.006642 0.000000 0.038585
#
#
# Mechanical properties :
#
#
# Convention : Reuss Voigt Hill
#
# Bulk Modulus (GPa) = 25.67338 43.81474 34.74406
# Shear Modulus (GPa) = 23.06278 26.99796 25.03037
#
# Velocity S-wave (km/s) = 3.35957 3.63491 3.49995
# Velocity P-wave (km/s) = 5.25483 6.24974 5.77375
#
# Compressibility (1/GPa) = 0.03895085
#
# Stress axis : x y z
#
# Youngs Moduli (GPa) = 28.57497 72.68730 88.95855
#
# Poissons Ratio (x) = 0.10804 0.37407
# Poissons Ratio (y) = 0.04247 0.42970
# Poissons Ratio (z) = 0.12016 0.35111
#
# Static dielectric constant tensor:
#      x y z
#    x 3.549160 0.000000 0.150580 
#    y 0.000000 3.846520 0.000000 
#    z 0.150580 0.000000 3.803750 
# 
# 
# High freq. dielectric constant tensor:
#      x y z
#    x 1.786900 0.000000 0.004290 
#    y 0.000000 1.804190 0.000000 
#    z 0.004290 0.000000 1.801580 
# 
# From -- ./inp_files/338471.got.cif
#   From: 2010.06.25/outbox.cif.g09.slc.cpg/sg12_170_cif.got.tgz:338471.got - 2010.06.28 00:19:55.
