data_PCOD8106581
_publ_section_title
;
Structure prediction by ZEFSAII (Michael W. Deem and Ramdas Pophale) SiO2 
 PCOD8106581
Probable space group: C 2/M
;
_chemical_formula_sum "Si O2"
_cell_formula_units_Z 56
_cell_length_a 16.656478
_cell_length_b 14.869471
_cell_length_c 11.391289
_cell_angle_alpha 90.000000
_cell_angle_beta 92.338721
_cell_angle_gamma 90.000000
_cell_volume 2818.964882
_symmetry_space_group_name_H-M "C 2/M"
_symmetry_group_IT_number 12
_symmetry_cell_setting 'monoclinic'
loop_
_space_group_symop_operation_xyz
x,y,z
-x,y,-z
-x,-y,-z
x,-y,z
1/2+x,1/2+y,z
1/2-x,1/2+y,-z
1/2-x,1/2-y,-z
1/2+x,1/2-y,z
loop_
_atom_site_type_symbol
_atom_site_label
_atom_site_fract_x
_atom_site_fract_y
_atom_site_fract_z
Si Si1 0.855551 0.400841 0.558331
Si Si2 0.262392 0.393608 0.784754
Si Si3 0.908565 0.303362 0.175558
Si Si4 0.423449 0.105469 0.813278
Si Si5 0.419826 0.746590 0.427305
Si Si6 0.663084 0.743491 0.049378
Si Si7 0.687256 0.599295 0.472842
O O1 0.883187 0.500000 0.518704
O O2 0.903154 0.372395 0.677019
O O3 0.867999 0.335029 0.449989
O O4 0.759434 0.399389 0.572554
O O5 0.268538 0.500000 0.807983
O O6 0.172782 0.361115 0.813222
O O7 0.332594 0.343194 0.864780
O O8 0.280986 0.367091 0.651565
O O9 0.927922 0.239247 0.287620
O O10 0.983747 0.369698 0.157133
O O11 0.899393 0.235814 0.063488
O O12 0.361622 0.164854 0.884895
O O13 0.409538 0.000000 0.841120
O O14 0.500000 0.765776 0.500000
O O15 0.383461 0.657910 0.480371
O O16 0.750000 0.750000 0.000000
O O17 0.651174 0.500000 0.456680
#
# Coordination Sequence:
#
# PCOD8106581 Si02
#       7
#     8   8   8   8   8   8   8
#     4  10  21  36  60  94 124 155 198 246 303 367
#     4  10  21  40  65  88 118 162 210 253 297 352
#     4  11  23  38  61  92 127 159 196 247 311 371
#     4  11  23  40  64  93 128 159 193 249 311 366
#     4  12  23  37  62  91 128 165 193 248 310 360
#     4  10  24  40  59  87 119 160 207 247 288 357
#     4  10  22  39  62  88 120 164 210 250 292 357
#
# _framework density 19.865449999999999
#
# number of rings (size 3 to 8) (size 9 to 14) (size 15 to 20)
#    0.000    1.429    2.857    2.143    4.000    4.571 
#    0.000    0.714    0.000    1.714    0.000    0.000 
#    0.000    0.000    0.000    0.000    0.000    0.000 
#
# Total GULP energy -347017.424337 kJ/mol
# GULP energy per Si atom -12393.479441 kJ/mol
# Density = 1.982024 g / cm^3
# Si number density = 19.865450 Si / 1000 Ang^3
#
#
#
# Elastic Constant Matrix: (Units=GPa)
#
#
# Indices 1 2 3 4 5 6 
#
# 1 141.0561 50.2176 34.5419 0.0000 39.7528 0.0000
# 2 50.2176 98.1101 55.2010 0.0000 1.3053 0.0000
# 3 34.5419 55.2010 104.6884 0.0000 20.2082 0.0000
# 4 0.0000 0.0000 0.0000 83.5377 0.0000 -45.9021
# 5 39.7528 1.3053 20.2082 0.0000 53.6787 0.0000
# 6 0.0000 0.0000 0.0000 -45.9021 0.0000 69.4774
#
#
#
# Elastic Compliance Matrix: (Units=1/GPa)
#
#
# Indices 1 2 3 4 5 6 
#
# 1 0.011635 -0.006613 0.001380 0.000000 -0.008975 0.000000
# 2 -0.006613 0.018629 -0.009165 0.000000 0.007894 0.000000
# 3 0.001380 -0.009165 0.015187 0.000000 -0.006517 0.000000
# 4 0.000000 0.000000 0.000000 0.018793 0.000000 0.012416
# 5 -0.008975 0.007894 -0.006517 0.000000 0.027538 0.000000
# 6 0.000000 0.000000 0.000000 0.012416 0.000000 0.022596
#
#
# Mechanical properties :
#
#
# Convention : Reuss Voigt Hill
#
# Bulk Modulus (GPa) = 60.03548 69.30840 64.67194
# Shear Modulus (GPa) = 33.61935 54.93172 44.27553
#
# Velocity S-wave (km/s) = 4.11828 5.26421 4.72611
# Velocity P-wave (km/s) = 7.27326 8.48021 7.89982
#
# Compressibility (1/GPa) = 0.01665682
#
# Stress axis : x y z
#
# Youngs Moduli (GPa) = 85.94793 53.68056 65.84515
#
# Poissons Ratio (x) = 0.35497 -0.09089
# Poissons Ratio (y) = 0.56833 0.60345
# Poissons Ratio (z) = -0.11863 0.49197
#
# Static dielectric constant tensor:
#      x y z
#    x 3.809410 0.000000 0.209410 
#    y 0.000000 3.625210 0.000000 
#    z 0.209410 0.000000 3.954180 
# 
# 
# High freq. dielectric constant tensor:
#      x y z
#    x 1.770880 0.000000 0.011930 
#    y 0.000000 1.761730 0.000000 
#    z 0.011930 0.000000 1.786190 
# 
# From -- ./inp_files/143710.got.cif
#   From: 2010.06.25/outbox.cif.g09.slc.cpg/sg12_72_cif.got.tgz:143710.got - 2010.06.28 00:19:55.
