data_PCOD8106360
_publ_section_title
;
Structure prediction by ZEFSAII (Michael W. Deem and Ramdas Pophale) SiO2 
 PCOD8106360
Probable space group: C 2/M
;
_chemical_formula_sum "Si O2"
_cell_formula_units_Z 64
_cell_length_a 32.071260
_cell_length_b 8.946661
_cell_length_c 14.906120
_cell_angle_alpha 90.000000
_cell_angle_beta 46.579606
_cell_angle_gamma 90.000000
_cell_volume 3106.530605
_symmetry_space_group_name_H-M "C 2/M"
_symmetry_group_IT_number 12
_symmetry_cell_setting 'monoclinic'
loop_
_space_group_symop_operation_xyz
x,y,z
-x,y,-z
-x,-y,-z
x,-y,z
1/2+x,1/2+y,z
1/2-x,1/2+y,-z
1/2-x,1/2-y,-z
1/2+x,1/2-y,z
loop_
_atom_site_type_symbol
_atom_site_label
_atom_site_fract_x
_atom_site_fract_y
_atom_site_fract_z
Si Si1 0.858963 0.675778 0.196615
Si Si2 0.043733 0.324609 0.088882
Si Si3 0.119558 0.672898 0.508687
Si Si4 0.405389 0.329679 0.822599
Si Si5 0.749705 0.174299 0.280875
Si Si6 0.566787 0.173334 0.397310
Si Si7 0.926868 0.176801 0.250443
Si Si8 0.774274 0.168459 0.049315
O O1 0.858302 0.500000 0.215901
O O2 0.794999 0.730137 0.270000
O O3 0.878031 0.758646 0.258309
O O4 0.901643 0.717871 0.052409
O O5 0.031987 0.500000 0.107738
O O6 0.052913 0.268455 0.176868
O O7 0.988124 0.243966 0.129923
O O8 0.104121 0.500000 0.550138
O O9 0.187545 0.700070 0.415759
O O10 0.096992 0.721435 0.444648
O O11 0.087322 0.775959 0.627332
O O12 0.427371 0.500000 0.791009
O O13 0.404339 0.268964 0.723500
O O14 0.342249 0.316760 0.956129
O O15 0.767699 0.000000 0.255963
O O16 0.748435 0.233358 0.180002
O O17 0.500000 0.211814 0.500000
O O18 0.577695 0.000000 0.360268
O O19 0.929021 0.000000 0.239223
O O20 0.753563 0.000000 0.068442
O O21 0.750000 0.250000 0.000000
#
# Coordination Sequence:
#
# PCOD8106360 Si02
#       8
#     8   8   8   8   8   8   8   8
#     4  11  24  42  66  94 123 160 207 259 312 373
#     4  11  23  41  65  93 126 162 205 257 310 374
#     4  10  22  41  64  90 125 169 214 259 308 368
#     4  11  22  36  59  91 125 159 199 253 309 365
#     4  10  21  40  63  88 125 167 207 257 310 366
#     4  10  21  38  61  88 122 167 213 255 305 367
#     4  12  26  42  65  93 124 162 203 258 318 375
#     4  10  21  36  57  87 122 158 200 247 300 361
#
# _framework density 20.601759999999999
#
# number of rings (size 3 to 8) (size 9 to 14) (size 15 to 20)
#    0.000    1.375    1.250    4.125    0.000    8.250 
#    0.000    0.000    0.000    0.000    0.000    0.000 
#    0.000    0.000    0.000    0.000    0.000    0.000 
#
# Total GULP energy -397012.453805 kJ/mol
# GULP energy per Si atom -12406.639181 kJ/mol
# Density = 2.055487 g / cm^3
# Si number density = 20.601760 Si / 1000 Ang^3
#
#
#
# Elastic Constant Matrix: (Units=GPa)
#
#
# Indices 1 2 3 4 5 6 
#
# 1 113.9503 42.8651 16.4142 0.0000 -0.6062 0.0000
# 2 42.8651 97.4154 34.3579 0.0000 -0.0482 -0.0001
# 3 16.4142 34.3579 68.1966 0.0000 -1.0823 0.0000
# 4 0.0000 0.0000 0.0000 32.7207 0.0000 -0.1425
# 5 -0.6062 -0.0482 -1.0823 0.0000 32.4417 0.0000
# 6 0.0000 -0.0001 0.0000 -0.1425 0.0000 36.4590
#
#
#
# Elastic Compliance Matrix: (Units=1/GPa)
#
#
# Indices 1 2 3 4 5 6 
#
# 1 0.010521 -0.004545 -0.000240 0.000000 0.000182 0.000000
# 2 -0.004545 0.014448 -0.006189 0.000000 -0.000270 0.000000
# 3 -0.000240 -0.006189 0.017849 0.000000 0.000582 0.000000
# 4 0.000000 0.000000 0.000000 0.030562 0.000000 0.000119
# 5 0.000182 -0.000270 0.000582 0.000000 0.030847 0.000000
# 6 0.000000 0.000000 0.000000 0.000119 0.000000 0.027429
#
#
# Mechanical properties :
#
#
# Convention : Reuss Voigt Hill
#
# Bulk Modulus (GPa) = 47.91617 51.87075 49.89346
# Shear Modulus (GPa) = 31.14108 32.71927 31.93018
#
# Velocity S-wave (km/s) = 3.89211 3.98952 3.94112
# Velocity P-wave (km/s) = 6.59597 6.81573 6.70675
#
# Compressibility (1/GPa) = 0.02086978
#
# Stress axis : x y z
#
# Youngs Moduli (GPa) = 95.04899 69.21379 56.02661
#
# Poissons Ratio (x) = 0.31456 0.01343
# Poissons Ratio (y) = 0.43198 0.34677
# Poissons Ratio (z) = 0.02278 0.42839
#
# Static dielectric constant tensor:
#      x y z
#    x 3.828560 0.000000 -0.036760 
#    y 0.000000 3.670880 0.000000 
#    z -0.036760 0.000000 3.744220 
# 
# 
# High freq. dielectric constant tensor:
#      x y z
#    x 1.818200 0.000000 -0.000510 
#    y 0.000000 1.800660 0.000000 
#    z -0.000510 0.000000 1.810040 
# 
# From -- ./inp_files/249812.got.cif
#   From: 2010.06.25/outbox.cif.g09.slc.cpg/sg12_125_cif.got.tgz:249812.got - 2010.06.28 00:19:55.
