data_PCOD8106705
_publ_section_title
;
Structure prediction by ZEFSAII (Michael W. Deem and Ramdas Pophale) SiO2 
 PCOD8106705
Probable space group: C 2/M
;
_chemical_formula_sum "Si O2"
_cell_formula_units_Z 52
_cell_length_a 17.312887
_cell_length_b 14.660933
_cell_length_c 16.488042
_cell_angle_alpha 90.000000
_cell_angle_beta 137.758782
_cell_angle_gamma 90.000000
_cell_volume 2813.410856
_symmetry_space_group_name_H-M "C 2/M"
_symmetry_group_IT_number 12
_symmetry_cell_setting 'monoclinic'
loop_
_space_group_symop_operation_xyz
x,y,z
-x,y,-z
-x,-y,-z
x,-y,z
1/2+x,1/2+y,z
1/2-x,1/2+y,-z
1/2-x,1/2-y,-z
1/2+x,1/2-y,z
loop_
_atom_site_type_symbol
_atom_site_label
_atom_site_fract_x
_atom_site_fract_y
_atom_site_fract_z
Si Si1 0.419944 0.394300 0.679192
Si Si2 0.973693 0.838039 0.391705
Si Si3 0.738913 0.102697 0.131374
Si Si4 0.854333 0.104872 0.056422
Si Si5 0.746880 0.102543 0.677897
Si Si6 0.500000 0.835195 0.500000
Si Si7 0.866895 0.786203 0.909180
O O1 0.442062 0.500000 0.682295
O O2 0.421526 0.350012 0.590740
O O3 0.524445 0.356770 0.815751
O O4 0.300107 0.373391 0.631068
O O5 0.000000 0.883916 0.500000
O O6 0.861054 0.884776 0.269208
O O7 0.960909 0.728843 0.394018
O O8 0.755634 0.115160 0.047781
O O9 0.649565 0.177019 0.095977
O O10 0.693731 0.000000 0.114935
O O11 0.866137 0.000000 0.037555
O O12 0.818190 0.165117 0.951522
O O13 0.609237 0.103620 0.561727
O O14 0.793495 0.176130 0.777332
O O15 0.784729 0.000000 0.733018
O O16 0.000000 0.809285 0.000000
#
# Coordination Sequence:
#
# PCOD8106705 Si02
#       7
#     8   8   8   8   8   4   8
#     4   9  18  32  53  83 110 141 180 229 279 315
#     4   9  18  35  57  81 105 139 190 230 265 322
#     4  10  21  37  54  78 111 146 184 226 276 322
#     4   9  18  33  55  82 110 141 180 227 271 320
#     4  11  22  37  56  81 116 148 181 224 274 332
#     4  10  21  38  55  82 108 148 185 218 283 326
#     4  12  21  34  57  84 111 145 184 223 271 323
#
# _framework density 18.482904000000001
#
# number of rings (size 3 to 8) (size 9 to 14) (size 15 to 20)
#    0.462    1.538    3.077    2.538    0.000    2.769 
#    0.000    0.000    0.000    0.000    0.000    1.077 
#    0.000    0.000    0.000    0.000    0.000    0.000 
#
# Total GULP energy -322290.562662 kJ/mol
# GULP energy per Si atom -12395.790872 kJ/mol
# Density = 1.844084 g / cm^3
# Si number density = 18.482904 Si / 1000 Ang^3
#
#
#
# Elastic Constant Matrix: (Units=GPa)
#
#
# Indices 1 2 3 4 5 6 
#
# 1 106.7213 37.1805 39.1559 0.0000 -10.2975 0.0000
# 2 37.1805 94.1111 15.6341 0.0000 -10.1044 0.0000
# 3 39.1559 15.6341 50.2223 0.0000 -6.9486 0.0000
# 4 0.0000 0.0000 0.0000 22.1849 0.0000 0.2905
# 5 -10.2975 -10.1044 -6.9486 0.0000 33.1534 0.0000
# 6 0.0000 0.0000 0.0000 0.2905 0.0000 28.5468
#
#
#
# Elastic Compliance Matrix: (Units=1/GPa)
#
#
# Indices 1 2 3 4 5 6 
#
# 1 0.014499 -0.003951 -0.009905 0.000000 0.001223 0.000000
# 2 -0.003951 0.012534 -0.000476 0.000000 0.002493 0.000000
# 3 -0.009905 -0.000476 0.028153 0.000000 0.002679 0.000000
# 4 0.000000 0.000000 0.000000 0.045082 0.000000 -0.000459
# 5 0.001223 0.002493 0.002679 0.000000 0.031864 0.000000
# 6 0.000000 0.000000 0.000000 -0.000459 0.000000 0.035035
#
#
# Mechanical properties :
#
#
# Convention : Reuss Voigt Hill
#
# Bulk Modulus (GPa) = 37.70656 48.33284 43.01970
# Shear Modulus (GPa) = 24.42954 27.38263 25.90608
#
# Velocity S-wave (km/s) = 3.63951 3.85322 3.74789
# Velocity P-wave (km/s) = 6.17305 6.78256 6.48497
#
# Compressibility (1/GPa) = 0.02652058
#
# Stress axis : x y z
#
# Youngs Moduli (GPa) = 68.97083 79.78597 35.52070
#
# Poissons Ratio (x) = 0.31526 0.35183
# Poissons Ratio (y) = 0.27253 0.01691
# Poissons Ratio (z) = 0.68314 0.03799
#
# Static dielectric constant tensor:
#      x y z
#    x 3.499940 0.000000 -0.094300 
#    y 0.000000 3.308340 0.000000 
#    z -0.094300 0.000000 3.063590 
# 
# 
# High freq. dielectric constant tensor:
#      x y z
#    x 1.719730 0.000000 -0.008270 
#    y 0.000000 1.711040 0.000000 
#    z -0.008270 0.000000 1.689500 
# 
# From -- ./inp_files/277660.got.cif
#   From: 2010.06.25/outbox.cif.g09.slc.cpg/sg12_139_cif.got.tgz:277660.got - 2010.06.28 00:19:55.
