data_PCOD8106480
_publ_section_title
;
Structure prediction by ZEFSAII (Michael W. Deem and Ramdas Pophale) SiO2 
 PCOD8106480
Probable space group: C 2/M
;
_chemical_formula_sum "Si O2"
_cell_formula_units_Z 36
_cell_length_a 7.826796
_cell_length_b 18.335772
_cell_length_c 10.383981
_cell_angle_alpha 90.000000
_cell_angle_beta 92.397873
_cell_angle_gamma 90.000000
_cell_volume 1488.903865
_symmetry_space_group_name_H-M "C 2/M"
_symmetry_group_IT_number 12
_symmetry_cell_setting 'monoclinic'
loop_
_space_group_symop_operation_xyz
x,y,z
-x,y,-z
-x,-y,-z
x,-y,z
1/2+x,1/2+y,z
1/2-x,1/2+y,-z
1/2-x,1/2-y,-z
1/2+x,1/2-y,z
loop_
_atom_site_type_symbol
_atom_site_label
_atom_site_fract_x
_atom_site_fract_y
_atom_site_fract_z
Si Si1 0.960435 0.702920 0.274947
Si Si2 0.832540 0.851521 0.346645
Si Si3 0.155582 0.084576 0.919022
Si Si4 0.681983 0.081242 0.575578
Si Si5 0.500000 0.168511 0.000000
O O1 0.941039 0.777201 0.354469
O O2 0.820657 0.640761 0.309474
O O3 0.946673 0.718529 0.120856
O O4 0.140534 0.671374 0.315623
O O5 0.894421 0.903160 0.232433
O O6 0.834635 0.894636 0.482716
O O7 0.178969 0.000000 0.947504
O O8 0.336739 0.120377 0.958447
O O9 0.000000 0.116415 0.000000
O O10 0.500000 0.079870 0.500000
O O11 0.723156 0.000000 0.630742
#
# Coordination Sequence:
#
# PCOD8106480 Si02
#       5
#     8   8   8   8   4
#     4  10  22  35  59  87 114 155 192 238 296 346
#     4  10  21  36  59  84 116 152 195 240 292 350
#     4  10  22  38  60  88 119 158 198 243 294 345
#     4   9  18  36  59  84 112 149 197 243 290 348
#     4  10  23  38  60  88 119 158 196 244 287 354
#
# _framework density 24.178861000000001
#
# number of rings (size 3 to 8) (size 9 to 14) (size 15 to 20)
#    0.000    2.222    0.000    1.667    4.667    8.000 
#    0.000    0.000    0.000    1.333    0.000    0.000 
#    0.000    0.000    0.000    0.000    0.000    0.000 
#
# Total GULP energy -223129.175163 kJ/mol
# GULP energy per Si atom -12396.065287 kJ/mol
# Density = 2.412383 g / cm^3
# Si number density = 24.178861 Si / 1000 Ang^3
#
#
#
# Elastic Constant Matrix: (Units=GPa)
#
#
# Indices 1 2 3 4 5 6 
#
# 1 43.0379 15.3630 19.7437 0.0000 -30.4758 0.0000
# 2 15.3630 79.5264 9.8666 0.0000 -18.8827 0.0000
# 3 19.7437 9.8666 112.6050 0.0000 -37.8764 0.0000
# 4 0.0000 0.0000 0.0000 45.0471 0.0000 -6.8152
# 5 -30.4758 -18.8827 -37.8764 0.0000 27.2925 0.0000
# 6 0.0000 0.0000 0.0000 -6.8152 0.0000 24.9787
#
#
#
# Elastic Compliance Matrix: (Units=1/GPa)
#
#
# Indices 1 2 3 4 5 6 
#
# 1 -0.578068 -0.110538 -0.247197 0.000000 -1.065029 0.000000
# 2 -0.110538 -0.005012 -0.042881 0.000000 -0.186410 0.000000
# 3 -0.247197 -0.042881 -0.087858 0.000000 -0.427627 0.000000
# 4 0.000000 0.000000 0.000000 0.023155 0.000000 0.006318
# 5 -1.065029 -0.186410 -0.427627 0.000000 -1.875042 0.000000
# 6 0.000000 0.000000 0.000000 0.006318 0.000000 0.041758
#
#
# Mechanical properties :
#
#
# Convention : Reuss Voigt Hill
#
# Bulk Modulus (GPa) = -0.67927 36.12400 17.72237
# Shear Modulus (GPa) = -2.30356 32.14338 14.91991
#
# Velocity S-wave (km/s) = -0.97713 3.65005 2.48677
# Velocity P-wave (km/s) = 1.24683 5.72159 3.94854
#
# Compressibility (1/GPa) = -1.47217210
#
# Stress axis : x y z
#
# Youngs Moduli (GPa) = -1.72990 -199.50716 -11.38194
#
# Poissons Ratio (x) = -22.05322 -2.81358
# Poissons Ratio (y) = -0.19122 -0.48807
# Poissons Ratio (z) = -0.42763 -8.55509
#
# Static dielectric constant tensor:
#      x y z
#    x 4.195480 0.000000 -0.525490 
#    y 0.000000 4.988160 0.000000 
#    z -0.525490 0.000000 5.271510 
# 
# 
# High freq. dielectric constant tensor:
#      x y z
#    x 1.954120 0.000000 -0.025810 
#    y 0.000000 1.956210 0.000000 
#    z -0.025810 0.000000 1.966650 
# 
# From -- ./inp_files/118605.got.cif
#   From: 2010.06.25/outbox.cif.g09.slc.cpg/sg12_60_cif.got.tgz:118605.got - 2010.06.28 00:19:55.
