data_PCOD8106307
_publ_section_title
;
Structure prediction by ZEFSAII (Michael W. Deem and Ramdas Pophale) SiO2 
 PCOD8106307
Probable space group: C 2/M
;
_chemical_formula_sum "Si O2"
_cell_formula_units_Z 48
_cell_length_a 9.249667
_cell_length_b 29.184503
_cell_length_c 16.850774
_cell_angle_alpha 90.000000
_cell_angle_beta 147.451427
_cell_angle_gamma 90.000000
_cell_volume 2447.327891
_symmetry_space_group_name_H-M "C 2/M"
_symmetry_group_IT_number 12
_symmetry_cell_setting 'monoclinic'
loop_
_space_group_symop_operation_xyz
x,y,z
-x,y,-z
-x,-y,-z
x,-y,z
1/2+x,1/2+y,z
1/2-x,1/2+y,-z
1/2-x,1/2-y,-z
1/2+x,1/2-y,z
loop_
_atom_site_type_symbol
_atom_site_label
_atom_site_fract_x
_atom_site_fract_y
_atom_site_fract_z
Si Si1 0.784905 0.253876 0.107324
Si Si2 0.122356 0.894325 0.138404
Si Si3 0.529853 0.373200 0.398912
Si Si4 0.805790 0.149055 0.132583
Si Si5 0.546443 0.053164 0.429765
Si Si6 0.105215 0.335234 0.313221
O O1 0.832985 0.203024 0.161940
O O2 0.043597 0.284782 0.250001
O O3 0.500000 0.275713 0.000000
O O4 0.750000 0.250000 0.000000
O O5 0.275199 0.934629 0.256124
O O6 0.319491 0.854107 0.205254
O O7 0.900336 0.869944 0.091404
O O8 0.000000 0.914865 0.000000
O O9 0.492275 0.371401 0.287679
O O10 0.698698 0.420036 0.490560
O O11 0.244333 0.369429 0.312672
O O12 0.708374 0.332156 0.521327
O O13 0.500000 0.132709 0.000000
O O14 0.500000 0.066518 0.500000
O O15 0.610534 0.000000 0.449450
#
# Coordination Sequence:
#
# PCOD8106307 Si02
#       6
#     8   8   8   8   8   8
#     4  11  21  35  54  82 117 161 203 240 286 332
#     4  11  21  37  61  90 121 156 195 244 296 350
#     4  10  21  39  58  88 114 154 198 241 298 357
#     4  11  22  36  60  84 118 161 206 242 289 344
#     4  10  21  41  67  89 115 149 190 243 301 365
#     4  10  21  36  57  83 126 156 195 245 289 339
#
# _framework density 19.613229
#
# number of rings (size 3 to 8) (size 9 to 14) (size 15 to 20)
#    0.000    1.500    1.667    5.500    0.000    1.000 
#    0.000   11.667    0.000    4.000    0.000    0.000 
#    0.000    0.000    0.000    0.000    0.000    0.000 
#
# Total GULP energy -297417.852077 kJ/mol
# GULP energy per Si atom -12392.410503 kJ/mol
# Density = 1.956859 g / cm^3
# Si number density = 19.613229 Si / 1000 Ang^3
#
#
#
# Elastic Constant Matrix: (Units=GPa)
#
#
# Indices 1 2 3 4 5 6 
#
# 1 137.9070 40.3091 54.6143 0.0000 6.4215 0.0000
# 2 40.3091 80.2254 44.6803 0.0000 8.8850 0.0000
# 3 54.6143 44.6803 139.9094 0.0000 -19.8320 0.0000
# 4 0.0000 0.0000 0.0000 21.8781 0.0000 2.6298
# 5 6.4215 8.8850 -19.8320 0.0000 38.8148 0.0000
# 6 0.0000 0.0000 0.0000 2.6298 0.0000 24.7933
#
#
#
# Elastic Compliance Matrix: (Units=1/GPa)
#
#
# Indices 1 2 3 4 5 6 
#
# 1 0.009414 -0.002670 -0.003187 0.000000 -0.002575 0.000000
# 2 -0.002670 0.017557 -0.005468 0.000000 -0.006371 0.000000
# 3 -0.003187 -0.005468 0.011201 0.000000 0.007502 0.000000
# 4 0.000000 0.000000 0.000000 0.046298 0.000000 -0.004911
# 5 -0.002575 -0.006371 0.007502 0.000000 0.031481 0.000000
# 6 0.000000 0.000000 0.000000 -0.004911 0.000000 0.040854
#
#
# Mechanical properties :
#
#
# Convention : Reuss Voigt Hill
#
# Bulk Modulus (GPa) = 64.42202 70.80549 67.61376
# Shear Modulus (GPa) = 27.08142 31.65977 29.37060
#
# Velocity S-wave (km/s) = 3.71991 4.02208 3.87394
# Velocity P-wave (km/s) = 7.16713 7.59926 7.38636
#
# Compressibility (1/GPa) = 0.01552264
#
# Stress axis : x y z
#
# Youngs Moduli (GPa) = 106.22897 56.95705 89.27702
#
# Poissons Ratio (x) = 0.15206 0.28453
# Poissons Ratio (y) = 0.28361 0.48815
# Poissons Ratio (z) = 0.33855 0.31143
#
# Static dielectric constant tensor:
#      x y z
#    x 3.664710 0.000000 -0.043450 
#    y 0.000000 2.944260 0.000000 
#    z -0.043450 0.000000 3.879430 
# 
# 
# High freq. dielectric constant tensor:
#      x y z
#    x 1.776940 0.000000 -0.005180 
#    y 0.000000 1.730150 0.000000 
#    z -0.005180 0.000000 1.780160 
# 
# From -- ./inp_files/200223.got.cif
#   From: 2010.06.25/outbox.cif.g09.slc.cpg/sg12_101_cif.got.tgz:200223.got - 2010.06.28 00:19:55.
