data_PCOD8106399
_publ_section_title
;
Structure prediction by ZEFSAII (Michael W. Deem and Ramdas Pophale) SiO2 
 PCOD8106399
Probable space group: C 2/M
;
_chemical_formula_sum "Si O2"
_cell_formula_units_Z 56
_cell_length_a 25.894864
_cell_length_b 12.581949
_cell_length_c 24.125971
_cell_angle_alpha 90.000000
_cell_angle_beta 158.729458
_cell_angle_gamma 90.000000
_cell_volume 2851.545538
_symmetry_space_group_name_H-M "C 2/M"
_symmetry_group_IT_number 12
_symmetry_cell_setting 'monoclinic'
loop_
_space_group_symop_operation_xyz
x,y,z
-x,y,-z
-x,-y,-z
x,-y,z
1/2+x,1/2+y,z
1/2-x,1/2+y,-z
1/2-x,1/2-y,-z
1/2+x,1/2-y,z
loop_
_atom_site_type_symbol
_atom_site_label
_atom_site_fract_x
_atom_site_fract_y
_atom_site_fract_z
Si Si1 0.021296 0.192296 0.887516
Si Si2 0.911141 0.377773 0.965961
Si Si3 0.660752 0.121633 0.790306
Si Si4 0.102024 0.300697 0.420192
Si Si5 0.137047 0.122316 0.376552
Si Si6 0.147572 0.754240 0.671282
Si Si7 0.756880 0.878110 0.681027
O O1 0.948725 0.192027 0.754681
O O2 0.924526 0.123581 0.833011
O O3 0.035088 0.310276 0.927296
O O4 0.174184 0.139190 0.032323
O O5 0.926792 0.500000 0.998718
O O6 0.746631 0.352541 0.787792
O O7 0.000000 0.350270 0.000000
O O8 0.561869 0.159706 0.742954
O O9 0.606166 0.185047 0.682672
O O10 0.630078 0.000000 0.747762
O O11 0.107026 0.177133 0.405825
O O12 0.194989 0.371544 0.470220
O O13 0.168994 0.310810 0.548141
O O14 0.086662 0.000000 0.327498
O O15 0.233882 0.676393 0.716955
O O16 0.000000 0.800342 0.500000
O O17 0.704562 0.000000 0.630129
#
# Coordination Sequence:
#
# PCOD8106399 Si02
#       7
#     8   8   8   8   8   8   8
#     4  10  21  38  60  86 115 152 197 235 286 349
#     4  10  21  40  59  80 116 157 194 236 281 334
#     4  11  21  34  56  89 122 151 187 242 294 340
#     4  10  21  36  58  85 114 151 197 240 290 347
#     4  10  21  41  62  81 114 153 192 244 297 342
#     4  11  22  35  57  88 121 154 195 233 283 352
#     4  11  20  36  58  85 122 158 189 235 286 340
#
# _framework density 19.638473000000001
#
# number of rings (size 3 to 8) (size 9 to 14) (size 15 to 20)
#    0.000    1.571    2.857    3.857    0.000    1.429 
#    0.000   13.571    0.000    0.000    0.000    0.000 
#    0.000    0.000    0.000    0.000    0.000    0.000 
#
# Total GULP energy -347149.458106 kJ/mol
# GULP energy per Si atom -12398.194932 kJ/mol
# Density = 1.959377 g / cm^3
# Si number density = 19.638473 Si / 1000 Ang^3
#
#
#
# Elastic Constant Matrix: (Units=GPa)
#
#
# Indices 1 2 3 4 5 6 
#
# 1 55.0222 36.7317 35.3221 0.0228 5.7628 -0.0014
# 2 36.7317 121.1383 37.3659 0.0373 -8.8612 0.0096
# 3 35.3221 37.3659 109.4514 0.0185 18.9335 0.0041
# 4 0.0228 0.0373 0.0185 14.1245 0.0261 3.2901
# 5 5.7628 -8.8612 18.9335 0.0261 33.1863 0.0040
# 6 -0.0014 0.0096 0.0041 3.2901 0.0040 21.9617
#
#
#
# Elastic Compliance Matrix: (Units=1/GPa)
#
#
# Indices 1 2 3 4 5 6 
#
# 1 0.026560 -0.006472 -0.005842 -0.000014 -0.003007 0.000008
# 2 -0.006472 0.011524 -0.002854 -0.000027 0.005829 -0.000002
# 3 -0.005842 -0.002854 0.013261 0.000014 -0.007314 -0.000002
# 4 -0.000014 -0.000027 0.000014 0.073359 -0.000069 -0.010990
# 5 -0.003007 0.005829 -0.007314 -0.000069 0.036384 0.000002
# 6 0.000008 -0.000002 -0.000002 -0.010990 0.000002 0.047180
#
#
# Mechanical properties :
#
#
# Convention : Reuss Voigt Hill
#
# Bulk Modulus (GPa) = 47.59579 56.05013 51.82296
# Shear Modulus (GPa) = 20.35767 25.60064 22.97915
#
# Velocity S-wave (km/s) = 3.22315 3.61445 3.42440
# Velocity P-wave (km/s) = 6.17578 6.78395 6.48699
#
# Compressibility (1/GPa) = 0.02101026
#
# Stress axis : x y z
#
# Youngs Moduli (GPa) = 37.65061 86.77448 75.40747
#
# Poissons Ratio (x) = 0.56157 0.44052
# Poissons Ratio (y) = 0.24366 0.21522
# Poissons Ratio (z) = 0.21995 0.24767
#
# Static dielectric constant tensor:
#      x y z
#    x 3.592700 0.000000 0.248160 
#    y 0.000000 3.388950 -0.000010 
#    z 0.248160 -0.000010 3.755710 
# 
# 
# High freq. dielectric constant tensor:
#      x y z
#    x 1.759140 0.000000 0.016370 
#    y 0.000000 1.748890 0.000000 
#    z 0.016370 0.000000 1.773390 
# 
# From -- ./inp_files/369429.got.cif
#   From: 2010.06.25/outbox.cif.g09.slc.cpg/sg12_185_cif.got.tgz:369429.got - 2010.06.28 00:19:55.
