data_PCOD8106934
_publ_section_title
;
Structure prediction by ZEFSAII (Michael W. Deem and Ramdas Pophale) SiO2 
 PCOD8106934
Probable space group: C 2/M
;
_chemical_formula_sum "Si O2"
_cell_formula_units_Z 56
_cell_length_a 11.700223
_cell_length_b 28.729929
_cell_length_c 13.800278
_cell_angle_alpha 90.000000
_cell_angle_beta 34.023464
_cell_angle_gamma 90.000000
_cell_volume 2595.623763
_symmetry_space_group_name_H-M "C 2/M"
_symmetry_group_IT_number 12
_symmetry_cell_setting 'monoclinic'
loop_
_space_group_symop_operation_xyz
x,y,z
-x,y,-z
-x,-y,-z
x,-y,z
1/2+x,1/2+y,z
1/2-x,1/2+y,-z
1/2-x,1/2-y,-z
1/2+x,1/2-y,z
loop_
_atom_site_type_symbol
_atom_site_label
_atom_site_fract_x
_atom_site_fract_y
_atom_site_fract_z
Si Si1 0.823871 0.445153 0.054685
Si Si2 0.133899 0.150200 0.812926
Si Si3 0.692258 0.550135 0.794810
Si Si4 0.062714 0.808228 0.667731
Si Si5 0.546506 0.401401 0.578583
Si Si6 0.026337 0.552328 0.717566
Si Si7 0.484825 0.779060 0.616863
O O1 0.818677 0.500000 0.064638
O O2 0.602462 0.428276 0.243513
O O3 0.000000 0.424254 0.000000
O O4 0.878555 0.428427 0.907347
O O5 0.189895 0.097967 0.733026
O O6 0.010120 0.176694 0.815059
O O7 0.325253 0.179088 0.719458
O O8 0.000000 0.142287 0.000000
O O9 0.692300 0.500000 0.735858
O O10 0.901413 0.552780 0.706918
O O11 0.500000 0.548309 0.000000
O O12 0.011615 0.847141 0.624604
O O13 0.304717 0.800512 0.493915
O O14 0.930906 0.762362 0.730803
O O15 0.500000 0.413098 0.500000
O O16 0.778654 0.415422 0.435970
O O17 0.099363 0.500000 0.693218
O O18 0.500000 0.755464 0.500000
#
# Coordination Sequence:
#
# PCOD8106934 Si02
#       7
#     8   8   8   8   8   8   8
#     4  10  21  37  57  82 120 167 210 256 318 377
#     4  10  21  37  62  90 121 159 202 256 315 371
#     4   9  19  36  60  88 123 166 207 254 311 373
#     4  10  22  38  60  88 115 157 206 246 316 378
#     4  12  23  36  59  90 123 159 209 261 311 379
#     4  10  21  38  59  85 120 166 212 259 317 372
#     4   9  19  41  64  82 116 158 199 252 314 378
#
# _framework density 21.574774000000001
#
# number of rings (size 3 to 8) (size 9 to 14) (size 15 to 20)
#    0.000    2.000    1.429    1.714    4.000    1.143 
#    0.000    1.429    0.000    5.571    0.000    0.000 
#    0.000    0.000    0.000    0.000    0.000    0.000 
#
# Total GULP energy -346957.593117 kJ/mol
# GULP energy per Si atom -12391.342611 kJ/mol
# Density = 2.152567 g / cm^3
# Si number density = 21.574774 Si / 1000 Ang^3
#
#
#
# Elastic Constant Matrix: (Units=GPa)
#
#
# Indices 1 2 3 4 5 6 
#
# 1 53.2549 34.8327 13.2113 0.0000 -0.8219 0.0000
# 2 34.8327 139.4177 29.8820 0.0000 5.9272 0.0000
# 3 13.2113 29.8820 84.6474 0.0000 0.7401 0.0000
# 4 0.0000 0.0000 0.0000 19.2634 0.0000 6.8694
# 5 -0.8219 5.9272 0.7401 0.0000 31.4038 0.0000
# 6 0.0000 0.0000 0.0000 6.8694 0.0000 36.5505
#
#
#
# Elastic Compliance Matrix: (Units=1/GPa)
#
#
# Indices 1 2 3 4 5 6 
#
# 1 0.022745 -0.005397 -0.001659 0.000000 0.001653 0.000000
# 2 -0.005397 0.009103 -0.002355 0.000000 -0.001804 0.000000
# 3 -0.001659 -0.002355 0.012903 0.000000 0.000097 0.000000
# 4 0.000000 0.000000 0.000000 0.055641 0.000000 -0.010457
# 5 0.001653 -0.001804 0.000097 0.000000 0.032225 0.000000
# 6 0.000000 0.000000 0.000000 -0.010457 0.000000 0.029325
#
#
# Mechanical properties :
#
#
# Convention : Reuss Voigt Hill
#
# Bulk Modulus (GPa) = 38.56888 48.13023 43.34956
# Shear Modulus (GPa) = 26.39815 30.73648 28.56731
#
# Velocity S-wave (km/s) = 3.50174 3.77855 3.64278
# Velocity P-wave (km/s) = 5.85365 6.43378 6.15056
#
# Compressibility (1/GPa) = 0.02592764
#
# Stress axis : x y z
#
# Youngs Moduli (GPa) = 43.96572 109.85759 77.49996
#
# Poissons Ratio (x) = 0.59295 0.12857
# Poissons Ratio (y) = 0.23730 0.18253
# Poissons Ratio (z) = 0.07294 0.25874
#
# Static dielectric constant tensor:
#      x y z
#    x 4.005740 0.000000 -0.046030 
#    y 0.000000 4.346340 0.000000 
#    z -0.046030 0.000000 3.800820 
# 
# 
# High freq. dielectric constant tensor:
#      x y z
#    x 1.849160 0.000000 -0.004310 
#    y 0.000000 1.851310 0.000000 
#    z -0.004310 0.000000 1.828220 
# 
# From -- ./inp_files/209989.got.cif
#   From: 2010.06.25/outbox.cif.g09.slc.cpg/sg12_105_cif.got.tgz:209989.got - 2010.06.28 00:19:55.
