data_PCOD8106329
_publ_section_title
;
Structure prediction by ZEFSAII (Michael W. Deem and Ramdas Pophale) SiO2 
 PCOD8106329
Probable space group: C 2/M
;
_chemical_formula_sum "Si O2"
_cell_formula_units_Z 64
_cell_length_a 31.896377
_cell_length_b 9.335687
_cell_length_c 19.799878
_cell_angle_alpha 90.000000
_cell_angle_beta 30.781231
_cell_angle_gamma 90.000000
_cell_volume 3017.294688
_symmetry_space_group_name_H-M "C 2/M"
_symmetry_group_IT_number 12
_symmetry_cell_setting 'monoclinic'
loop_
_space_group_symop_operation_xyz
x,y,z
-x,y,-z
-x,-y,-z
x,-y,z
1/2+x,1/2+y,z
1/2-x,1/2+y,-z
1/2-x,1/2-y,-z
1/2+x,1/2-y,z
loop_
_atom_site_type_symbol
_atom_site_label
_atom_site_fract_x
_atom_site_fract_y
_atom_site_fract_z
Si Si1 0.946831 0.836171 0.637726
Si Si2 0.270558 0.341701 0.535965
Si Si3 0.692957 0.166454 0.871669
Si Si4 0.261422 0.337979 0.916084
Si Si5 0.979769 0.336701 0.344694
Si Si6 0.712180 0.835991 0.363492
Si Si7 0.483912 0.833617 0.944844
Si Si8 0.456932 0.342367 0.252927
O O1 0.850287 0.817762 0.758144
O O2 0.000000 0.786339 0.500000
O O3 0.967087 0.732625 0.670763
O O4 0.969399 0.000000 0.625258
O O5 0.227959 0.500000 0.593656
O O6 0.250000 0.250000 0.500000
O O7 0.241697 0.253959 0.641624
O O8 0.366783 0.363983 0.405826
O O9 0.695337 0.201659 0.948830
O O10 0.762428 0.265053 0.742024
O O11 0.606456 0.205633 0.957121
O O12 0.714887 0.000000 0.829005
O O13 0.248799 0.500000 0.956947
O O14 0.250000 0.250000 0.000000
O O15 0.007463 0.500000 0.296590
O O16 0.884823 0.326141 0.494784
O O17 0.004149 0.255428 0.241902
O O18 0.742088 0.000000 0.325892
O O19 0.503694 0.000000 0.906122
O O20 0.500000 0.790280 0.000000
O O21 0.546246 0.738845 0.814499
O O22 0.498348 0.500000 0.188479
#
# Coordination Sequence:
#
# PCOD8106329 Si02
#       8
#     8   8   8   8   8   8   8   8
#     4  10  21  38  62  91 124 162 207 259 310 368
#     4  10  21  36  57  85 117 154 194 244 304 363
#     4  10  22  41  63  87 120 164 205 246 303 366
#     4  10  23  41  62  91 126 165 210 257 311 374
#     4  10  21  37  60  89 122 158 197 249 304 361
#     4  10  21  37  58  88 120 155 199 246 302 361
#     4  10  23  41  61  88 120 158 202 248 304 364
#     4  10  22  39  59  85 117 154 198 246 299 360
#
# _framework density 21.211053
#
# number of rings (size 3 to 8) (size 9 to 14) (size 15 to 20)
#    0.000    2.000    0.000    2.250    3.500    6.000 
#    0.000    0.000    0.000    0.000    0.000    0.000 
#    0.000    0.000    0.000    0.000    0.000    0.000 
#
# Total GULP energy -396783.510394 kJ/mol
# GULP energy per Si atom -12399.484700 kJ/mol
# Density = 2.116278 g / cm^3
# Si number density = 21.211053 Si / 1000 Ang^3
#
#
#
# Elastic Constant Matrix: (Units=GPa)
#
#
# Indices 1 2 3 4 5 6 
#
# 1 143.4005 62.8842 31.0606 -0.0038 26.8653 0.0026
# 2 62.8842 134.6355 34.9689 -0.0132 23.8884 0.0043
# 3 31.0606 34.9689 72.3390 -0.0080 23.0032 0.0050
# 4 -0.0038 -0.0132 -0.0080 33.2022 0.0022 8.5367
# 5 26.8653 23.8884 23.0032 0.0022 32.7473 -0.0012
# 6 0.0026 0.0043 0.0050 8.5367 -0.0012 36.7202
#
#
#
# Elastic Compliance Matrix: (Units=1/GPa)
#
#
# Indices 1 2 3 4 5 6 
#
# 1 0.009541 -0.003372 -0.000978 0.000000 -0.004680 0.000000
# 2 -0.003372 0.010175 -0.002563 0.000004 -0.002856 -0.000002
# 3 -0.000978 -0.002563 0.018842 0.000005 -0.010563 -0.000004
# 4 0.000000 0.000004 0.000005 0.032033 -0.000009 -0.007447
# 5 -0.004680 -0.002856 -0.010563 -0.000009 0.043880 0.000006
# 6 0.000000 -0.000002 -0.000004 -0.007447 0.000006 0.028964
#
#
# Mechanical properties :
#
#
# Convention : Reuss Voigt Hill
#
# Bulk Modulus (GPa) = 40.43376 67.57803 54.00589
# Shear Modulus (GPa) = 30.21084 35.29803 32.75443
#
# Velocity S-wave (km/s) = 3.77808 4.08381 3.93391
# Velocity P-wave (km/s) = 6.17542 7.35973 6.79343
#
# Compressibility (1/GPa) = 0.02473181
#
# Stress axis : x y z
#
# Youngs Moduli (GPa) = 104.81336 98.28415 53.07384
#
# Poissons Ratio (x) = 0.33138 0.05193
# Poissons Ratio (y) = 0.35340 0.13600
# Poissons Ratio (z) = 0.10255 0.25186
#
# Static dielectric constant tensor:
#      x y z
#    x 3.875460 -0.000020 0.041150 
#    y -0.000020 4.033540 0.000020 
#    z 0.041150 0.000020 3.744380 
# 
# 
# High freq. dielectric constant tensor:
#      x y z
#    x 1.832920 0.000000 0.009400 
#    y 0.000000 1.836730 0.000000 
#    z 0.009400 0.000000 1.823040 
# 
# From -- ./inp_files/295597.got.cif
#   From: 2010.06.25/outbox.cif.g09.slc.cpg/sg12_148_cif.got.tgz:295597.got - 2010.06.28 00:19:55.
