data_PCOD8106847
_publ_section_title
;
Structure prediction by ZEFSAII (Michael W. Deem and Ramdas Pophale) SiO2 
 PCOD8106847
Probable space group: C 2/M
;
_chemical_formula_sum "Si O2"
_cell_formula_units_Z 56
_cell_length_a 26.991905
_cell_length_b 17.543857
_cell_length_c 6.764100
_cell_angle_alpha 90.000000
_cell_angle_beta 58.977174
_cell_angle_gamma 90.000000
_cell_volume 2744.923362
_symmetry_space_group_name_H-M "C 2/M"
_symmetry_group_IT_number 12
_symmetry_cell_setting 'monoclinic'
loop_
_space_group_symop_operation_xyz
x,y,z
-x,y,-z
-x,-y,-z
x,-y,z
1/2+x,1/2+y,z
1/2-x,1/2+y,-z
1/2-x,1/2-y,-z
1/2+x,1/2-y,z
loop_
_atom_site_type_symbol
_atom_site_label
_atom_site_fract_x
_atom_site_fract_y
_atom_site_fract_z
Si Si1 0.871774 0.588316 0.409792
Si Si2 0.418671 0.789980 0.611661
Si Si3 0.238129 0.084376 0.690633
Si Si4 0.058094 0.322882 0.009247
Si Si5 0.306584 0.298013 0.922541
Si Si6 0.439841 0.317974 0.218566
Si Si7 0.163119 0.916082 0.470268
O O1 0.882085 0.500000 0.433516
O O2 0.905051 0.636479 0.507550
O O3 0.804631 0.610249 0.548335
O O4 0.898470 0.608388 0.138001
O O5 0.360197 0.758872 0.834457
O O6 0.448332 0.722991 0.418125
O O7 0.456590 0.818069 0.724894
O O8 0.214438 0.078679 0.520164
O O9 0.233010 0.000000 0.801888
O O10 0.200231 0.148535 0.873774
O O11 0.087982 0.244254 0.873251
O O12 0.000000 0.332454 0.000000
O O13 0.316272 0.353747 0.722440
O O14 0.250000 0.250000 0.000000
O O15 0.398322 0.390694 0.311688
O O16 0.500000 0.346486 0.000000
O O17 0.153923 0.000000 0.394320
#
# Coordination Sequence:
#
# PCOD8106847 Si02
#       7
#     8   8   8   8   8   8   8
#     4  10  22  37  55  83 115 153 197 238 293 355
#     4  10  21  39  59  85 117 148 193 245 293 342
#     4  10  21  37  56  83 122 157 192 239 289 346
#     4  10  22  39  59  83 112 150 195 247 292 346
#     4  11  21  35  59  89 115 156 194 235 288 347
#     4   9  20  38  60  87 116 151 195 242 288 346
#     4  10  22  38  58  87 123 159 194 239 290 344
#
# _framework density 20.401299999999999
#
# number of rings (size 3 to 8) (size 9 to 14) (size 15 to 20)
#    0.000    2.000    1.429    1.286    2.000    6.857 
#    0.000    0.714    0.000    0.000    0.000   14.000 
#    0.000    0.000    0.000    0.000    0.000    0.000 
#
# Total GULP energy -347043.670733 kJ/mol
# GULP energy per Si atom -12394.416812 kJ/mol
# Density = 2.035487 g / cm^3
# Si number density = 20.401300 Si / 1000 Ang^3
#
#
#
# Elastic Constant Matrix: (Units=GPa)
#
#
# Indices 1 2 3 4 5 6 
#
# 1 76.4843 19.8376 25.9918 0.0000 5.1303 0.0000
# 2 19.8376 85.1065 19.9817 0.0000 -5.6919 0.0000
# 3 25.9918 19.9817 96.2023 0.0000 3.5851 0.0000
# 4 0.0000 0.0000 0.0000 70.4791 0.0000 -50.4796
# 5 5.1303 -5.6919 3.5851 0.0000 32.3968 0.0000
# 6 0.0000 0.0000 0.0000 -50.4796 0.0000 78.1640
#
#
#
# Elastic Compliance Matrix: (Units=1/GPa)
#
#
# Indices 1 2 3 4 5 6 
#
# 1 0.015152 -0.002904 -0.003396 0.000000 -0.002534 0.000000
# 2 -0.002904 0.013108 -0.002049 0.000000 0.002990 0.000000
# 3 -0.003396 -0.002049 0.011780 0.000000 -0.001126 0.000000
# 4 0.000000 0.000000 0.000000 0.026400 0.000000 0.017050
# 5 -0.002534 0.002990 -0.001126 0.000000 0.031918 0.000000
# 6 0.000000 0.000000 0.000000 0.017050 0.000000 0.023805
#
#
# Mechanical properties :
#
#
# Convention : Reuss Voigt Hill
#
# Bulk Modulus (GPa) = 42.84327 43.26837 43.05582
# Shear Modulus (GPa) = 34.09665 49.00677 41.55171
#
# Velocity S-wave (km/s) = 4.09259 4.90648 4.51790
# Velocity P-wave (km/s) = 6.58621 7.30430 6.95453
#
# Compressibility (1/GPa) = 0.02334089
#
# Stress axis : x y z
#
# Youngs Moduli (GPa) = 65.99870 76.28949 84.88994
#
# Poissons Ratio (x) = 0.22153 0.28830
# Poissons Ratio (y) = 0.19165 0.17398
# Poissons Ratio (z) = 0.22414 0.15635
#
# Static dielectric constant tensor:
#      x y z
#    x 3.596340 0.000000 -0.218080 
#    y 0.000000 3.915790 0.000000 
#    z -0.218080 0.000000 3.998820 
# 
# 
# High freq. dielectric constant tensor:
#      x y z
#    x 1.791060 0.000000 -0.012050 
#    y 0.000000 1.793380 0.000000 
#    z -0.012050 0.000000 1.805550 
# 
# From -- ./inp_files/31978.got.cif
#   From: 2010.06.25/outbox.cif.g09.slc.cpg/sg12_16_cif.got.tgz:31978.got - 2010.06.28 00:19:55.
