data_PCOD8106515
_publ_section_title
;
Structure prediction by ZEFSAII (Michael W. Deem and Ramdas Pophale) SiO2 
 PCOD8106515
Probable space group: C 2/M
;
_chemical_formula_sum "Si O2"
_cell_formula_units_Z 52
_cell_length_a 5.059038
_cell_length_b 30.132728
_cell_length_c 20.380398
_cell_angle_alpha 90.000000
_cell_angle_beta 59.466044
_cell_angle_gamma 90.000000
_cell_volume 2676.009987
_symmetry_space_group_name_H-M "C 2/M"
_symmetry_group_IT_number 12
_symmetry_cell_setting 'monoclinic'
loop_
_space_group_symop_operation_xyz
x,y,z
-x,y,-z
-x,-y,-z
x,-y,z
1/2+x,1/2+y,z
1/2-x,1/2+y,-z
1/2-x,1/2-y,-z
1/2+x,1/2-y,z
loop_
_atom_site_type_symbol
_atom_site_label
_atom_site_fract_x
_atom_site_fract_y
_atom_site_fract_z
Si Si1 0.117131 0.500000 0.300333
Si Si2 0.665642 0.629980 0.282004
Si Si3 0.299472 0.411473 0.212778
Si Si4 0.378860 0.719607 0.335335
Si Si5 0.421036 0.500000 0.399717
Si Si6 0.846885 0.949278 0.949286
Si Si7 0.163023 0.904032 0.547244
Si Si8 0.000000 0.719430 0.500000
O O1 0.143190 0.457707 0.250459
O O2 0.360870 0.500000 0.328970
O O3 0.779025 0.500000 0.372545
O O4 0.534862 0.600000 0.240615
O O5 0.572284 0.680646 0.276747
O O6 0.537774 0.614497 0.368072
O O7 0.034686 0.625592 0.237464
O O8 0.483845 0.416455 0.122027
O O9 0.615158 0.758942 0.323638
O O10 0.197016 0.694428 0.418782
O O11 0.281279 0.456539 0.451125
O O12 0.858785 0.000000 0.921424
O O13 0.500000 0.932823 0.000000
O O14 0.000000 0.945138 0.000000
O O15 0.500000 0.881410 0.500000
O O16 0.000000 0.891804 0.500000
O O17 0.750000 0.750000 0.500000
#
# Coordination Sequence:
#
# PCOD8106515 Si02
#       8
#     4   8   8   8   4   8   8   4
#     4  12  20  37  56  77 112 156 186 244 274 337
#     4  12  25  39  60  85 113 154 198 246 299 350
#     4  12  22  40  59  86 121 155 198 232 281 345
#     4  10  21  40  59  82 112 144 189 247 310 372
#     4  12  22  39  54  71 106 154 214 236 296 321
#     4  10  21  36  59  90 122 160 195 229 278 338
#     4  12  24  38  52  76 109 149 199 260 288 323
#     4   8  16  32  54  76  98 135 174 227 302 360
#
# _framework density 19.431915
#
# number of rings (size 3 to 8) (size 9 to 14) (size 15 to 20)
#    0.000    0.923    3.846    4.154    1.077    0.000 
#    5.538    0.000    0.000    0.000    0.000    0.000 
#    0.000   43.077    0.000    0.000    0.000    0.000 
#
# Total GULP energy -322335.484287 kJ/mol
# GULP energy per Si atom -12397.518626 kJ/mol
# Density = 1.938769 g / cm^3
# Si number density = 19.431915 Si / 1000 Ang^3
#
#
#
# Elastic Constant Matrix: (Units=GPa)
#
#
# Indices 1 2 3 4 5 6 
#
# 1 114.5765 4.8480 39.1701 0.0000 -11.3772 0.0000
# 2 4.8480 49.0060 24.0317 0.0000 -1.6827 0.0000
# 3 39.1701 24.0317 111.5981 0.0000 -9.6375 0.0000
# 4 0.0000 0.0000 0.0000 13.1539 0.0000 -3.5164
# 5 -11.3772 -1.6827 -9.6375 0.0000 26.8238 0.0000
# 6 0.0000 0.0000 0.0000 -3.5164 0.0000 12.5982
#
#
#
# Elastic Compliance Matrix: (Units=1/GPa)
#
#
# Indices 1 2 3 4 5 6 
#
# 1 0.010194 0.000806 -0.003482 0.000000 0.003123 0.000000
# 2 0.000806 0.022882 -0.005219 0.000000 -0.000098 0.000000
# 3 -0.003482 -0.005219 0.011508 0.000000 0.002330 0.000000
# 4 0.000000 0.000000 0.000000 0.082153 0.000000 0.022930
# 5 0.003123 -0.000098 0.002330 0.000000 0.039436 0.000000
# 6 0.000000 0.000000 0.000000 0.022930 0.000000 0.085777
#
#
# Mechanical properties :
#
#
# Convention : Reuss Voigt Hill
#
# Bulk Modulus (GPa) = 34.72841 45.69780 40.21311
# Shear Modulus (GPa) = 18.02857 24.32389 21.17623
#
# Velocity S-wave (km/s) = 3.04925 3.54185 3.30474
# Velocity P-wave (km/s) = 5.50526 6.34777 5.94147
#
# Compressibility (1/GPa) = 0.02879486
#
# Stress axis : x y z
#
# Youngs Moduli (GPa) = 98.09502 43.70291 86.89633
#
# Poissons Ratio (x) = -0.03524 0.30257
# Poissons Ratio (y) = -0.07909 0.45350
# Poissons Ratio (z) = 0.34157 0.22808
#
# Static dielectric constant tensor:
#      x y z
#    x 3.672740 0.000000 -0.127330 
#    y 0.000000 3.359960 0.000000 
#    z -0.127330 0.000000 3.432740 
# 
# 
# High freq. dielectric constant tensor:
#      x y z
#    x 1.781370 0.000000 -0.008640 
#    y 0.000000 1.737290 0.000000 
#    z -0.008640 0.000000 1.731010 
# 
# From -- ./inp_files/298513.got.cif
#   From: 2010.06.25/outbox.cif.g09.slc.cpg/sg12_150_cif.got.tgz:298513.got - 2010.06.28 00:19:55.
