data_PCOD8106357
_publ_section_title
;
Structure prediction by ZEFSAII (Michael W. Deem and Ramdas Pophale) SiO2 
 PCOD8106357
Probable space group: C 2/M
;
_chemical_formula_sum "Si O2"
_cell_formula_units_Z 56
_cell_length_a 28.227341
_cell_length_b 8.475423
_cell_length_c 12.686565
_cell_angle_alpha 90.000000
_cell_angle_beta 123.523946
_cell_angle_gamma 90.000000
_cell_volume 2530.240480
_symmetry_space_group_name_H-M "C 2/M"
_symmetry_group_IT_number 12
_symmetry_cell_setting 'monoclinic'
loop_
_space_group_symop_operation_xyz
x,y,z
-x,y,-z
-x,-y,-z
x,-y,z
1/2+x,1/2+y,z
1/2-x,1/2+y,-z
1/2-x,1/2-y,-z
1/2+x,1/2-y,z
loop_
_atom_site_type_symbol
_atom_site_label
_atom_site_fract_x
_atom_site_fract_y
_atom_site_fract_z
Si Si1 0.111060 0.185925 0.850007
Si Si2 0.810894 0.313123 0.880640
Si Si3 0.862719 0.186872 0.494713
Si Si4 0.192581 0.683238 0.777163
Si Si5 0.988118 0.171035 0.675295
Si Si6 0.954407 0.826251 0.865559
Si Si7 0.658214 0.179187 0.311050
O O1 0.156073 0.217429 0.814112
O O2 0.049459 0.257591 0.733634
O O3 0.103730 0.000000 0.858620
O O4 0.132087 0.261037 0.986754
O O5 0.804658 0.500000 0.881210
O O6 0.758187 0.229174 0.872982
O O7 0.809267 0.261767 0.754642
O O8 0.825899 0.276550 0.363950
O O9 0.832792 0.216980 0.572172
O O10 0.928242 0.254085 0.567181
O O11 0.862133 0.000000 0.475316
O O12 0.184187 0.500000 0.791133
O O13 0.986194 0.147025 0.796446
O O14 0.989906 0.000000 0.620382
O O15 0.907311 0.692032 0.801221
O O16 0.930608 0.000000 0.872445
O O17 0.000000 0.755427 0.000000
O O18 0.674422 0.000000 0.357848
#
# Coordination Sequence:
#
# PCOD8106357 Si02
#       7
#     8   8   8   8   8   8   8
#     4  11  22  40  65  91 120 156 200 247 296 349
#     4  11  24  42  62  88 121 158 201 246 297 355
#     4  10  21  41  65  90 121 158 201 242 288 353
#     4  12  26  43  62  86 118 157 202 251 302 353
#     4   8  17  33  57  87 117 153 194 236 285 348
#     4   9  16  29  51  80 115 155 197 236 283 349
#     4  10  21  36  57  87 121 154 192 243 299 352
#
# _framework density 22.132283000000001
#
# number of rings (size 3 to 8) (size 9 to 14) (size 15 to 20)
#    0.000    1.857    0.000    5.143    0.000    4.857 
#    0.000   11.429    0.000    0.000    0.000    0.000 
#    0.000    0.000    0.000    0.000    0.000    0.000 
#
# Total GULP energy -346894.856966 kJ/mol
# GULP energy per Si atom -12389.102035 kJ/mol
# Density = 2.208191 g / cm^3
# Si number density = 22.132283 Si / 1000 Ang^3
#
#
#
# Elastic Constant Matrix: (Units=GPa)
#
#
# Indices 1 2 3 4 5 6 
#
# 1 90.1641 15.4908 -0.9821 0.0000 2.3421 0.0000
# 2 15.4908 54.7158 8.9634 0.0000 -1.4605 0.0000
# 3 -0.9821 8.9634 58.1215 0.0000 -7.8657 0.0000
# 4 0.0000 0.0000 0.0000 30.5191 0.0000 -2.6682
# 5 2.3421 -1.4605 -7.8657 0.0000 21.3614 0.0000
# 6 0.0000 0.0000 0.0000 -2.6682 0.0000 26.1353
#
#
#
# Elastic Compliance Matrix: (Units=1/GPa)
#
#
# Indices 1 2 3 4 5 6 
#
# 1 0.011723 -0.003444 0.000551 0.000000 -0.001318 0.000000
# 2 -0.003444 0.019763 -0.003023 0.000000 0.000616 0.000000
# 3 0.000551 -0.003023 0.018570 0.000000 0.006571 0.000000
# 4 0.000000 0.000000 0.000000 0.033062 0.000000 0.003375
# 5 -0.001318 0.000616 0.006571 0.000000 0.049420 0.000000
# 6 0.000000 0.000000 0.000000 0.003375 0.000000 0.038607
#
#
# Mechanical properties :
#
#
# Convention : Reuss Voigt Hill
#
# Bulk Modulus (GPa) = 26.16176 27.77171 26.96674
# Shear Modulus (GPa) = 25.54704 27.57177 26.55940
#
# Velocity S-wave (km/s) = 3.40117 3.53338 3.46790
# Velocity P-wave (km/s) = 5.22209 5.40570 5.31469
#
# Compressibility (1/GPa) = 0.03822373
#
# Stress axis : x y z
#
# Youngs Moduli (GPa) = 85.30324 50.59961 53.85026
#
# Poissons Ratio (x) = 0.17428 -0.02967
# Poissons Ratio (y) = 0.29381 0.16277
# Poissons Ratio (z) = -0.04699 0.15295
#
# Static dielectric constant tensor:
#      x y z
#    x 3.907530 0.000000 0.082810 
#    y 0.000000 3.718960 0.000000 
#    z 0.082810 0.000000 4.104630 
# 
# 
# High freq. dielectric constant tensor:
#      x y z
#    x 1.872740 0.000000 0.001900 
#    y 0.000000 1.842690 0.000000 
#    z 0.001900 0.000000 1.878290 
# 
# From -- ./inp_files/244319.got.cif
#   From: 2010.06.25/outbox.cif.g09.slc.cpg/sg12_123_cif.got.tgz:244319.got - 2010.06.28 00:19:55.
