data_PCOD8106819
_publ_section_title
;
Structure prediction by ZEFSAII (Michael W. Deem and Ramdas Pophale) SiO2 
 PCOD8106819
Probable space group: C 2/M
;
_chemical_formula_sum "Si O2"
_cell_formula_units_Z 56
_cell_length_a 20.506906
_cell_length_b 16.995894
_cell_length_c 9.000735
_cell_angle_alpha 90.000000
_cell_angle_beta 121.488918
_cell_angle_gamma 90.000000
_cell_volume 2675.096053
_symmetry_space_group_name_H-M "C 2/M"
_symmetry_group_IT_number 12
_symmetry_cell_setting 'monoclinic'
loop_
_space_group_symop_operation_xyz
x,y,z
-x,y,-z
-x,-y,-z
x,-y,z
1/2+x,1/2+y,z
1/2-x,1/2+y,-z
1/2-x,1/2-y,-z
1/2+x,1/2-y,z
loop_
_atom_site_type_symbol
_atom_site_label
_atom_site_fract_x
_atom_site_fract_y
_atom_site_fract_z
Si Si1 0.417872 0.409953 0.829782
Si Si2 0.805589 0.814597 0.182178
Si Si3 0.151052 0.588897 0.546473
Si Si4 0.932521 0.314910 0.323825
Si Si5 0.713144 0.320706 0.168544
Si Si6 0.074581 0.907594 0.501763
Si Si7 0.485162 0.089417 0.812316
O O1 0.384573 0.500000 0.799485
O O2 0.367924 0.344948 0.857976
O O3 0.427483 0.381274 0.671803
O O4 0.500000 0.408762 0.000000
O O5 0.865364 0.745810 0.213169
O O6 0.732659 0.773420 0.178664
O O7 0.845617 0.877897 0.334400
O O8 0.781477 0.853926 0.995591
O O9 0.179227 0.500000 0.593874
O O10 0.094628 0.609578 0.614246
O O11 0.225779 0.642653 0.644682
O O12 0.104185 0.603552 0.337437
O O13 0.000000 0.272983 0.500000
O O14 0.961056 0.347155 0.201654
O O15 0.000000 0.874574 0.500000
O O16 0.076072 0.000000 0.518443
O O17 0.507409 0.000000 0.794719
O O18 0.500000 0.105625 0.000000
#
# Coordination Sequence:
#
# PCOD8106819 Si02
#       7
#     8   8   8   8   8   8   8
#     4  10  21  38  62  89 116 152 198 246 296 350
#     4  10  21  37  56  81 115 153 192 236 290 349
#     4   9  17  31  53  78 107 146 184 223 275 333
#     4   9  17  31  51  76 107 144 186 228 274 334
#     4  10  21  37  56  82 117 152 189 234 288 353
#     4  10  21  38  61  87 114 148 196 251 299 347
#     4   9  17  31  53  81 112 145 186 233 276 328
#
# _framework density 20.933827000000001
#
# number of rings (size 3 to 8) (size 9 to 14) (size 15 to 20)
#    0.000    2.429    0.000    2.143    0.000    4.571 
#    0.000   10.714    0.000    5.143    0.000    0.000 
#    0.000    0.571    0.000    0.000    0.000    0.429 
#
# Total GULP energy -346997.481945 kJ/mol
# GULP energy per Si atom -12392.767212 kJ/mol
# Density = 2.088618 g / cm^3
# Si number density = 20.933827 Si / 1000 Ang^3
#
#
#
# Elastic Constant Matrix: (Units=GPa)
#
#
# Indices 1 2 3 4 5 6 
#
# 1 89.9743 30.0302 26.9885 0.0000 -6.1628 0.0000
# 2 30.0302 37.9401 21.1922 0.0000 -10.5425 0.0000
# 3 26.9885 21.1922 133.5497 0.0000 -6.8667 0.0000
# 4 0.0000 0.0000 0.0000 22.3409 0.0000 4.5984
# 5 -6.1628 -10.5425 -6.8667 0.0000 28.0124 0.0000
# 6 0.0000 0.0000 0.0000 4.5984 0.0000 29.2224
#
#
#
# Elastic Compliance Matrix: (Units=1/GPa)
#
#
# Indices 1 2 3 4 5 6 
#
# 1 0.015351 -0.011810 -0.001299 0.000000 -0.001386 0.000000
# 2 -0.011810 0.040987 -0.003502 0.000000 0.011969 0.000000
# 3 -0.001299 -0.003502 0.008329 0.000000 0.000438 0.000000
# 4 0.000000 0.000000 0.000000 0.046259 0.000000 -0.007279
# 5 -0.001386 0.011969 0.000438 0.000000 0.040005 0.000000
# 6 0.000000 0.000000 0.000000 -0.007279 0.000000 0.035366
#
#
# Mechanical properties :
#
#
# Convention : Reuss Voigt Hill
#
# Bulk Modulus (GPa) = 31.80251 46.43176 39.11714
# Shear Modulus (GPa) = 21.73913 28.13201 24.93557
#
# Velocity S-wave (km/s) = 3.22602 3.66984 3.45506
# Velocity P-wave (km/s) = 5.39455 6.33919 5.88585
#
# Compressibility (1/GPa) = 0.03144406
#
# Stress axis : x y z
#
# Youngs Moduli (GPa) = 65.14334 24.39814 120.06733
#
# Poissons Ratio (x) = 0.28813 0.15602
# Poissons Ratio (y) = 0.76932 0.42047
# Poissons Ratio (z) = 0.08465 0.08544
#
# Static dielectric constant tensor:
#      x y z
#    x 3.732500 0.000000 0.162810 
#    y 0.000000 3.683050 0.000000 
#    z 0.162810 0.000000 4.026720 
# 
# 
# High freq. dielectric constant tensor:
#      x y z
#    x 1.797870 0.000000 0.012520 
#    y 0.000000 1.806770 0.000000 
#    z 0.012520 0.000000 1.838160 
# 
# From -- ./inp_files/88082.got.cif
#   From: 2010.06.25/outbox.cif.g09.slc.cpg/sg12_45_cif.got.tgz:88082.got - 2010.06.28 00:19:55.
