data_PCOD8106080
_publ_section_title
;
Structure prediction by ZEFSAII (Michael W. Deem and Ramdas Pophale) SiO2 
 PCOD8106080
Probable space group: C 2/M
;
_chemical_formula_sum "Si O2"
_cell_formula_units_Z 64
_cell_length_a 14.396622
_cell_length_b 9.256542
_cell_length_c 26.421041
_cell_angle_alpha 90.000000
_cell_angle_beta 107.592213
_cell_angle_gamma 90.000000
_cell_volume 3356.277055
_symmetry_space_group_name_H-M "C 2/M"
_symmetry_group_IT_number 12
_symmetry_cell_setting 'monoclinic'
loop_
_space_group_symop_operation_xyz
x,y,z
-x,y,-z
-x,-y,-z
x,-y,z
1/2+x,1/2+y,z
1/2-x,1/2+y,-z
1/2-x,1/2-y,-z
1/2+x,1/2-y,z
loop_
_atom_site_type_symbol
_atom_site_label
_atom_site_fract_x
_atom_site_fract_y
_atom_site_fract_z
Si Si1 0.847667 0.832117 0.503629
Si Si2 0.511093 0.663976 0.379486
Si Si3 0.946438 0.168658 0.145812
Si Si4 0.361936 0.165897 0.407473
Si Si5 0.226805 0.668481 0.131424
Si Si6 0.050024 0.168270 0.059487
Si Si7 0.662945 0.663834 0.321660
Si Si8 0.375956 0.831235 0.781815
O O1 0.750000 0.750000 0.500000
O O2 0.919048 0.809054 0.561753
O O3 0.893002 0.762618 0.460545
O O4 0.825871 0.000000 0.490262
O O5 0.472154 0.500000 0.373241
O O6 0.421874 0.775393 0.369026
O O7 0.563919 0.697681 0.335353
O O8 0.836540 0.222926 0.138462
O O9 0.974849 0.201975 0.092488
O O10 0.019980 0.253968 0.194248
O O11 0.956454 0.000000 0.160341
O O12 0.248645 0.185125 0.376321
O O13 0.388060 0.000000 0.422891
O O14 0.217749 0.500000 0.117741
O O15 0.152321 0.750025 0.082291
O O16 0.197999 0.703122 0.184544
O O17 0.075005 0.000000 0.060581
O O18 0.000000 0.224029 0.000000
O O19 0.663789 0.500000 0.300967
O O20 0.674933 0.772380 0.277049
O O21 0.395628 0.000000 0.779779
#
# Coordination Sequence:
#
# PCOD8106080 Si02
#       8
#     8   8   8   8   8   8   8   8
#     4  11  21  37  60  83 111 146 182 221 269 324
#     4  10  22  40  58  80 110 144 178 217 269 327
#     4   9  18  35  56  76 105 147 183 216 272 327
#     4  11  23  39  58  85 113 142 181 222 268 327
#     4   9  19  35  54  77 106 142 183 223 265 322
#     4   9  18  32  51  79 113 145 181 224 267 316
#     4  10  22  41  58  76 110 145 175 217 275 331
#     4  10  21  36  55  80 105 132 179 231 269 313
#
# _framework density 19.068749
#
# number of rings (size 3 to 8) (size 9 to 14) (size 15 to 20)
#    0.000    2.125    1.250    1.500    0.000    6.750 
#    0.000    3.750    0.000    0.000    0.000    0.000 
#    0.000    0.000    0.000    0.000    0.000    0.000 
#
# Total GULP energy -396884.452194 kJ/mol
# GULP energy per Si atom -12402.639131 kJ/mol
# Density = 1.902535 g / cm^3
# Si number density = 19.068749 Si / 1000 Ang^3
#
#
#
# Elastic Constant Matrix: (Units=GPa)
#
#
# Indices 1 2 3 4 5 6 
#
# 1 105.6088 38.0051 13.1337 0.0000 -2.2521 0.0000
# 2 38.0051 78.0819 35.1042 0.0000 -0.7039 0.0000
# 3 13.1337 35.1042 77.7232 0.0000 -7.1139 0.0000
# 4 0.0000 0.0000 0.0000 32.9233 0.0000 1.4818
# 5 -2.2521 -0.7039 -7.1139 0.0000 16.1401 0.0000
# 6 0.0000 0.0000 0.0000 1.4818 0.0000 33.3160
#
#
#
# Elastic Compliance Matrix: (Units=1/GPa)
#
#
# Indices 1 2 3 4 5 6 
#
# 1 0.011561 -0.006030 0.000931 0.000000 0.001760 0.000000
# 2 -0.006030 0.019321 -0.008031 0.000000 -0.003539 0.000000
# 3 0.000931 -0.008031 0.017002 0.000000 0.007273 0.000000
# 4 0.000000 0.000000 0.000000 0.030435 0.000000 -0.001354
# 5 0.001760 -0.003539 0.007273 0.000000 0.065255 0.000000
# 6 0.000000 0.000000 0.000000 -0.001354 0.000000 0.030076
#
#
# Mechanical properties :
#
#
# Convention : Reuss Voigt Hill
#
# Bulk Modulus (GPa) = 46.24644 48.21109 47.22876
# Shear Modulus (GPa) = 24.14107 28.15395 26.14751
#
# Velocity S-wave (km/s) = 3.56195 3.84662 3.70702
# Velocity P-wave (km/s) = 6.42042 6.71315 6.56841
#
# Compressibility (1/GPa) = 0.02162329
#
# Stress axis : x y z
#
# Youngs Moduli (GPa) = 86.50138 51.75798 58.81665
#
# Poissons Ratio (x) = 0.31208 -0.05475
# Poissons Ratio (y) = 0.52156 0.47238
# Poissons Ratio (z) = -0.08053 0.41569
#
# Static dielectric constant tensor:
#      x y z
#    x 3.391210 0.000000 -0.287720 
#    y 0.000000 3.492640 0.000000 
#    z -0.287720 0.000000 3.350420 
# 
# 
# High freq. dielectric constant tensor:
#      x y z
#    x 1.747410 0.000000 -0.005910 
#    y 0.000000 1.741220 0.000000 
#    z -0.005910 0.000000 1.733250 
# 
# From -- ./inp_files/359977.got.cif
#   From: 2010.06.25/outbox.cif.g09.slc.cpg/sg12_180_cif.got.tgz:359977.got - 2010.06.28 00:19:55.
