data_PCOD8106119
_publ_section_title
;
Structure prediction by ZEFSAII (Michael W. Deem and Ramdas Pophale) SiO2 
 PCOD8106119
Probable space group: C 2/M
;
_chemical_formula_sum "Si O2"
_cell_formula_units_Z 56
_cell_length_a 13.930686
_cell_length_b 15.430503
_cell_length_c 28.296441
_cell_angle_alpha 90.000000
_cell_angle_beta 25.652869
_cell_angle_gamma 90.000000
_cell_volume 2633.235882
_symmetry_space_group_name_H-M "C 2/M"
_symmetry_group_IT_number 12
_symmetry_cell_setting 'monoclinic'
loop_
_space_group_symop_operation_xyz
x,y,z
-x,y,-z
-x,-y,-z
x,-y,z
1/2+x,1/2+y,z
1/2-x,1/2+y,-z
1/2-x,1/2-y,-z
1/2+x,1/2-y,z
loop_
_atom_site_type_symbol
_atom_site_label
_atom_site_fract_x
_atom_site_fract_y
_atom_site_fract_z
Si Si1 0.863551 0.775675 0.605472
Si Si2 0.149646 0.095543 0.833120
Si Si3 0.195523 0.405319 0.340491
Si Si4 0.207259 0.667677 0.051530
Si Si5 0.885946 0.907173 0.779999
Si Si6 0.217441 0.098013 0.277333
Si Si7 0.839328 0.724660 0.825025
O O1 0.952809 0.678959 0.580650
O O2 0.903993 0.843234 0.629812
O O3 0.604649 0.773512 0.708331
O O4 0.000000 0.809203 0.500000
O O5 0.195459 0.116540 0.758256
O O6 0.268522 0.166311 0.812497
O O7 0.238624 0.000000 0.807185
O O8 0.884460 0.095481 0.957662
O O9 0.070011 0.500000 0.394703
O O10 0.379693 0.412129 0.298692
O O11 0.262372 0.689800 0.081476
O O12 0.960699 0.632481 0.155372
O O13 0.250000 0.750000 0.000000
O O14 0.930550 0.897621 0.704075
O O15 0.749078 0.823236 0.858414
O O16 0.759717 0.000000 0.845123
O O17 0.236677 0.000000 0.288515
#
# Coordination Sequence:
#
# PCOD8106119 Si02
#       7
#     8   8   8   8   8   8   8
#     4  10  21  38  60  83 110 146 186 233 286 336
#     4  11  22  37  58  83 115 152 186 226 280 337
#     4   9  19  37  59  83 112 144 184 234 283 335
#     4  11  21  35  57  83 114 150 187 228 277 332
#     4   9  17  34  57  77 105 146 184 225 278 326
#     4  10  21  36  55  81 114 149 187 230 273 327
#     4  10  21  36  56  82 113 145 184 233 276 330
#
# _framework density 21.266608000000002
#
# number of rings (size 3 to 8) (size 9 to 14) (size 15 to 20)
#    0.000    2.000    0.000    5.143    0.000    4.000 
#    0.000    9.286    0.000   17.143    0.000    0.000 
#    0.000    0.000    0.000    0.000    0.000    0.000 
#
# Total GULP energy -346994.330817 kJ/mol
# GULP energy per Si atom -12392.654672 kJ/mol
# Density = 2.121820 g / cm^3
# Si number density = 21.266608 Si / 1000 Ang^3
#
#
#
# Elastic Constant Matrix: (Units=GPa)
#
#
# Indices 1 2 3 4 5 6 
#
# 1 107.7502 51.2266 22.9618 -0.0145 31.7702 -0.1647
# 2 51.2266 150.1576 17.0878 -0.0930 16.0060 -0.4407
# 3 22.9618 17.0878 59.4128 0.0013 23.8351 -0.2375
# 4 -0.0145 -0.0930 0.0013 12.6505 -0.0523 -12.7211
# 5 31.7702 16.0060 23.8351 -0.0523 21.7300 0.0492
# 6 -0.1647 -0.4407 -0.2375 -12.7211 0.0492 -37.0100
#
#
#
# Elastic Compliance Matrix: (Units=1/GPa)
#
#
# Indices 1 2 3 4 5 6 
#
# 1 0.019408 -0.003880 0.006879 -0.000203 -0.033064 -0.000059
# 2 -0.003880 0.008003 -0.001274 -0.000007 0.001175 -0.000066
# 3 0.006879 -0.001274 0.032497 -0.000353 -0.044766 -0.000162
# 4 -0.000203 -0.000007 -0.000353 0.058750 0.000876 -0.020189
# 5 -0.033064 0.001175 -0.044766 0.000876 0.142598 0.000309
# 6 -0.000059 -0.000066 -0.000162 -0.020189 0.000309 -0.020078
#
#
# Mechanical properties :
#
#
# Convention : Reuss Voigt Hill
#
# Bulk Modulus (GPa) = 15.78306 55.54145 35.66226
# Shear Modulus (GPa) = 19.31644 14.54371 16.93007
#
# Velocity S-wave (km/s) = 3.01707 2.61794 2.82456
# Velocity P-wave (km/s) = 4.42432 5.94235 5.23861
#
# Compressibility (1/GPa) = 0.06335907
#
# Stress axis : x y z
#
# Youngs Moduli (GPa) = 51.52530 124.95653 30.77164
#
# Poissons Ratio (x) = 0.48481 -0.21169
# Poissons Ratio (y) = 0.19991 0.03920
# Poissons Ratio (z) = -0.35445 0.15919
#
# Static dielectric constant tensor:
#      x y z
#    x 3.882050 -0.000010 0.251200 
#    y -0.000010 4.574750 0.000190 
#    z 0.251200 0.000190 3.520750 
# 
# 
# High freq. dielectric constant tensor:
#      x y z
#    x 1.837090 0.000000 0.026750 
#    y 0.000000 1.860560 0.000000 
#    z 0.026750 0.000000 1.796250 
# 
# From -- ./inp_files/246586.got.cif
#   From: 2010.06.25/outbox.cif.g09.slc.cpg/sg12_124_cif.got.tgz:246586.got - 2010.06.28 00:19:55.
