data_PCOD8106021
_publ_section_title
;
Structure prediction by ZEFSAII (Michael W. Deem and Ramdas Pophale) SiO2 
 PCOD8106021
Probable space group: C 2/M
;
_chemical_formula_sum "Si O2"
_cell_formula_units_Z 56
_cell_length_a 17.791154
_cell_length_b 8.906196
_cell_length_c 28.703136
_cell_angle_alpha 90.000000
_cell_angle_beta 38.702212
_cell_angle_gamma 90.000000
_cell_volume 2843.775073
_symmetry_space_group_name_H-M "C 2/M"
_symmetry_group_IT_number 12
_symmetry_cell_setting 'monoclinic'
loop_
_space_group_symop_operation_xyz
x,y,z
-x,y,-z
-x,-y,-z
x,-y,z
1/2+x,1/2+y,z
1/2-x,1/2+y,-z
1/2-x,1/2-y,-z
1/2+x,1/2-y,z
loop_
_atom_site_type_symbol
_atom_site_label
_atom_site_fract_x
_atom_site_fract_y
_atom_site_fract_z
Si Si1 0.553499 0.322093 0.925681
Si Si2 0.491495 0.325661 0.777531
Si Si3 0.828841 0.323145 0.501721
Si Si4 0.580510 0.326703 0.366128
Si Si5 0.122604 0.176309 0.069388
Si Si6 0.805605 0.825940 0.786338
Si Si7 0.762265 0.673451 0.361885
O O1 0.555700 0.500000 0.924575
O O2 0.471270 0.260863 0.923334
O O3 0.688254 0.267333 0.854584
O O4 0.500000 0.259642 0.000000
O O5 0.530161 0.500000 0.759345
O O6 0.423712 0.279637 0.857305
O O7 0.405930 0.288770 0.775825
O O8 0.606938 0.221374 0.718147
O O9 0.817715 0.500000 0.502635
O O10 0.750000 0.250000 0.500000
O O11 0.778536 0.274471 0.575691
O O12 0.966161 0.275972 0.430090
O O13 0.539354 0.500000 0.383188
O O14 0.643705 0.275289 0.288023
O O15 0.671814 0.298552 0.363586
O O16 0.138765 0.000000 0.055976
O O17 0.250000 0.250000 0.000000
O O18 0.770522 0.000000 0.803439
O O19 0.763362 0.500000 0.376666
#
# Coordination Sequence:
#
# PCOD8106021 Si02
#       7
#     8   8   8   8   8   8   8
#     4  10  21  36  54  79 112 148 187 235 289 343
#     4  10  21  37  57  83 115 150 193 243 291 346
#     4  12  25  41  63  89 118 154 195 238 288 344
#     4  10  22  40  60  86 120 153 191 240 290 345
#     4  10  21  36  55  81 112 148 191 239 290 344
#     4  10  21  37  58  83 111 147 188 233 286 340
#     4  11  23  39  61  88 118 154 194 237 289 347
#
# _framework density 19.692133999999999
#
# number of rings (size 3 to 8) (size 9 to 14) (size 15 to 20)
#    0.000    1.571    0.000    4.714    0.000    6.571 
#    0.000    0.000    0.000    0.000    0.000    0.000 
#    0.000    0.000    0.000    0.000    0.000    0.000 
#
# Total GULP energy -347371.524992 kJ/mol
# GULP energy per Si atom -12406.125893 kJ/mol
# Density = 1.964731 g / cm^3
# Si number density = 19.692134 Si / 1000 Ang^3
#
#
#
# Elastic Constant Matrix: (Units=GPa)
#
#
# Indices 1 2 3 4 5 6 
#
# 1 120.9652 57.2602 63.7120 -0.0005 5.2814 -0.0010
# 2 57.2602 76.4987 61.2072 0.0015 -1.1563 -0.0035
# 3 63.7120 61.2072 148.8431 0.0002 2.5062 -0.0003
# 4 -0.0005 0.0015 0.0002 66.8562 0.0001 -33.8790
# 5 5.2814 -1.1563 2.5062 0.0001 42.0259 0.0000
# 6 -0.0010 -0.0035 -0.0003 -33.8790 0.0000 47.4527
#
#
#
# Elastic Compliance Matrix: (Units=1/GPa)
#
#
# Indices 1 2 3 4 5 6 
#
# 1 0.013483 -0.008235 -0.002355 0.000000 -0.001781 0.000000
# 2 -0.008235 0.024555 -0.006608 0.000000 0.002105 0.000002
# 3 -0.002355 -0.006608 0.010452 0.000000 -0.000509 -0.000001
# 4 0.000000 0.000000 0.000000 0.023437 0.000000 0.016733
# 5 -0.001781 0.002105 -0.000509 0.000000 0.024107 0.000000
# 6 0.000000 0.000002 -0.000001 0.016733 0.000000 0.033020
#
#
# Mechanical properties :
#
#
# Convention : Reuss Voigt Hill
#
# Bulk Modulus (GPa) = 70.94902 78.96286 74.95594
# Shear Modulus (GPa) = 29.73570 42.20880 35.97225
#
# Velocity S-wave (km/s) = 3.89013 4.63475 4.27867
# Velocity P-wave (km/s) = 7.50232 8.29620 7.90922
#
# Compressibility (1/GPa) = 0.01409463
#
# Stress axis : x y z
#
# Youngs Moduli (GPa) = 74.16724 40.72504 95.67098
#
# Poissons Ratio (x) = 0.33536 0.22531
# Poissons Ratio (y) = 0.61075 0.63219
# Poissons Ratio (z) = 0.17467 0.26911
#
# Static dielectric constant tensor:
#      x y z
#    x 3.978870 0.000010 0.246300 
#    y 0.000010 3.519540 0.000000 
#    z 0.246300 0.000000 3.768410 
# 
# 
# High freq. dielectric constant tensor:
#      x y z
#    x 1.788650 0.000000 0.004600 
#    y 0.000000 1.760650 0.000000 
#    z 0.004600 0.000000 1.785330 
# 
# From -- ./inp_files/275245.got.cif
#   From: 2010.06.25/outbox.cif.g09.slc.cpg/sg12_138_cif.got.tgz:275245.got - 2010.06.28 00:19:55.
