data_PCOD8106175
_publ_section_title
;
Structure prediction by ZEFSAII (Michael W. Deem and Ramdas Pophale) SiO2 
 PCOD8106175
Probable space group: C 2/M
;
_chemical_formula_sum "Si O2"
_cell_formula_units_Z 64
_cell_length_a 13.655843
_cell_length_b 22.442320
_cell_length_c 9.940280
_cell_angle_alpha 90.000000
_cell_angle_beta 89.223355
_cell_angle_gamma 90.000000
_cell_volume 3046.105803
_symmetry_space_group_name_H-M "C 2/M"
_symmetry_group_IT_number 12
_symmetry_cell_setting 'monoclinic'
loop_
_space_group_symop_operation_xyz
x,y,z
-x,y,-z
-x,-y,-z
x,-y,z
1/2+x,1/2+y,z
1/2-x,1/2+y,-z
1/2-x,1/2-y,-z
1/2+x,1/2-y,z
loop_
_atom_site_type_symbol
_atom_site_label
_atom_site_fract_x
_atom_site_fract_y
_atom_site_fract_z
Si Si1 0.641818 0.253558 0.055401
Si Si2 0.815488 0.634134 0.825338
Si Si3 0.395862 0.069060 0.050821
Si Si4 0.395796 0.123361 0.539415
Si Si5 0.102908 0.187008 0.792166
Si Si6 0.864055 0.755819 0.482473
Si Si7 0.274092 0.071141 0.306664
Si Si8 0.401145 0.343505 0.714718
O O1 0.617860 0.188359 0.116000
O O2 0.645425 0.299300 0.176826
O O3 0.750000 0.250000 0.000000
O O4 0.576022 0.275664 0.928965
O O5 0.816517 0.581961 0.935897
O O6 0.865695 0.607727 0.691575
O O7 0.702729 0.650229 0.800603
O O8 0.410373 0.000000 0.072773
O O9 0.500000 0.097299 0.000000
O O10 0.350797 0.094363 0.191335
O O11 0.500000 0.093041 0.500000
O O12 0.410123 0.194152 0.528969
O O13 0.311652 0.096867 0.446645
O O14 0.109830 0.235034 0.673419
O O15 0.012610 0.142107 0.760552
O O16 0.750000 0.750000 0.500000
O O17 0.904495 0.810623 0.570171
O O18 0.164628 0.097050 0.286436
O O19 0.264940 0.000000 0.309649
#
# Coordination Sequence:
#
# PCOD8106175 Si02
#       8
#     8   8   8   8   8   8   8   8
#     4  10  21  36  55  88 122 155 196 250 306 366
#     4  11  22  40  59  93 125 158 203 254 311 374
#     4  10  23  43  64  87 120 165 209 259 318 366
#     4  12  24  39  64  95 126 162 208 255 321 380
#     4  11  23  36  60  90 126 165 201 245 313 366
#     4  12  21  40  61  92 130 167 198 253 314 377
#     4  11  25  43  66  91 123 168 215 264 308 366
#     4  12  22  41  62  87 129 165 205 253 310 375
#
# _framework density 21.010432000000002
#
# number of rings (size 3 to 8) (size 9 to 14) (size 15 to 20)
#    0.000    0.875    3.750    4.500    1.750    1.750 
#    0.000    0.625    0.000    6.750    0.000    0.000 
#    0.000    0.000    0.000    0.000    0.000    0.000 
#
# Total GULP energy -396686.880825 kJ/mol
# GULP energy per Si atom -12396.465026 kJ/mol
# Density = 2.096261 g / cm^3
# Si number density = 21.010432 Si / 1000 Ang^3
#
#
#
# Elastic Constant Matrix: (Units=GPa)
#
#
# Indices 1 2 3 4 5 6 
#
# 1 111.8872 31.8273 30.1524 0.0000 9.0683 0.0000
# 2 31.8273 49.5120 25.6677 0.0000 -0.5135 0.0000
# 3 30.1524 25.6677 147.1411 0.0000 -4.4848 0.0000
# 4 0.0000 0.0000 0.0000 26.4891 0.0000 -5.3158
# 5 9.0683 -0.5135 -4.4848 0.0000 31.7645 0.0000
# 6 0.0000 0.0000 0.0000 -5.3158 0.0000 5.9910
#
#
#
# Elastic Compliance Matrix: (Units=1/GPa)
#
#
# Indices 1 2 3 4 5 6 
#
# 1 0.011497 -0.006761 -0.001285 0.000000 -0.003573 0.000000
# 2 -0.006761 0.026182 -0.003124 0.000000 0.001912 0.000000
# 3 -0.001285 -0.003124 0.007647 0.000000 0.001396 0.000000
# 4 0.000000 0.000000 0.000000 0.045930 0.000000 0.040754
# 5 -0.003573 0.001912 0.001396 0.000000 0.032730 0.000000
# 6 0.000000 0.000000 0.000000 0.040754 0.000000 0.203079
#
#
# Mechanical properties :
#
#
# Convention : Reuss Voigt Hill
#
# Bulk Modulus (GPa) = 43.50443 53.75948 48.63195
# Shear Modulus (GPa) = 14.00298 27.57511 20.78904
#
# Velocity S-wave (km/s) = 2.58442 3.62670 3.14899
# Velocity P-wave (km/s) = 5.44580 6.57114 6.03476
#
# Compressibility (1/GPa) = 0.02298617
#
# Stress axis : x y z
#
# Youngs Moduli (GPa) = 86.98073 38.19363 130.76945
#
# Poissons Ratio (x) = 0.25823 0.16809
# Poissons Ratio (y) = 0.58808 0.40847
# Poissons Ratio (z) = 0.11181 0.11930
#
# Static dielectric constant tensor:
#      x y z
#    x 1.261230 0.000000 -1.478210 
#    y 0.000000 3.027820 0.000000 
#    z -1.478210 0.000000 3.692160 
# 
# 
# High freq. dielectric constant tensor:
#      x y z
#    x 1.836910 0.000000 -0.003880 
#    y 0.000000 1.780060 0.000000 
#    z -0.003880 0.000000 1.848230 
# 
# From -- ./inp_files/65897.got.cif
#   From: 2010.06.25/outbox.cif.g09.slc.cpg/sg12_33_cif.got.tgz:65897.got - 2010.06.28 00:19:55.
