data_PCOD8106809
_publ_section_title
;
Structure prediction by ZEFSAII (Michael W. Deem and Ramdas Pophale) SiO2 
 PCOD8106809
Probable space group: C 2/M
;
_chemical_formula_sum "Si O2"
_cell_formula_units_Z 56
_cell_length_a 19.532313
_cell_length_b 8.842950
_cell_length_c 18.888147
_cell_angle_alpha 90.000000
_cell_angle_beta 66.051931
_cell_angle_gamma 90.000000
_cell_volume 2981.572697
_symmetry_space_group_name_H-M "C 2/M"
_symmetry_group_IT_number 12
_symmetry_cell_setting 'monoclinic'
loop_
_space_group_symop_operation_xyz
x,y,z
-x,y,-z
-x,-y,-z
x,-y,z
1/2+x,1/2+y,z
1/2-x,1/2+y,-z
1/2-x,1/2-y,-z
1/2+x,1/2-y,z
loop_
_atom_site_type_symbol
_atom_site_label
_atom_site_fract_x
_atom_site_fract_y
_atom_site_fract_z
Si Si1 0.877480 0.322092 0.832495
Si Si2 0.669371 0.320270 0.716153
Si Si3 0.328536 0.323151 0.984510
Si Si4 0.720513 0.678226 0.440818
Si Si5 0.431939 0.174304 0.476494
Si Si6 0.217604 0.823118 0.847708
Si Si7 0.032005 0.323105 0.698847
O O1 0.871740 0.500000 0.845401
O O2 0.889597 0.250707 0.906180
O O3 0.801114 0.256757 0.828743
O O4 0.947431 0.276762 0.754221
O O5 0.675313 0.500000 0.707856
O O6 0.734006 0.245599 0.643050
O O7 0.682418 0.258000 0.790401
O O8 0.587790 0.269441 0.725175
O O9 0.325923 0.500000 0.970814
O O10 0.250000 0.250000 0.000000
O O11 0.340935 0.289566 0.063227
O O12 0.732441 0.500000 0.438672
O O13 0.750000 0.750000 0.500000
O O14 0.633862 0.719202 0.467705
O O15 0.500000 0.203484 0.500000
O O16 0.455188 0.222318 0.387789
O O17 0.405764 0.000000 0.489470
O O18 0.228803 0.000000 0.833065
O O19 0.046337 0.500000 0.705031
#
# Coordination Sequence:
#
# PCOD8106809 Si02
#       7
#     8   8   8   8   8   8   8
#     4   9  18  34  56  81 110 145 183 226 274 329
#     4  11  22  37  59  82 110 147 187 231 277 334
#     4   9  16  31  54  80 109 141 181 228 272 325
#     4  12  24  40  60  83 112 149 189 233 279 332
#     4  10  22  39  62  86 111 148 189 229 278 334
#     4   8  17  33  56  82 106 139 185 226 267 324
#     4  10  21  37  56  80 114 148 183 228 276 330
#
# _framework density 18.782035
#
# number of rings (size 3 to 8) (size 9 to 14) (size 15 to 20)
#    0.000    2.143    1.429    3.000    2.000    0.857 
#    0.000    7.857    0.000    4.286    0.000    0.000 
#    0.000    0.000    0.000    0.000    0.000    0.000 
#
# Total GULP energy -347110.193022 kJ/mol
# GULP energy per Si atom -12396.792608 kJ/mol
# Density = 1.873929 g / cm^3
# Si number density = 18.782035 Si / 1000 Ang^3
#
#
#
# Elastic Constant Matrix: (Units=GPa)
#
#
# Indices 1 2 3 4 5 6 
#
# 1 99.1572 32.3507 53.2086 0.0000 13.5616 0.0001
# 2 32.3507 64.4637 34.0664 0.0001 5.1187 0.0001
# 3 53.2086 34.0664 99.7434 0.0000 21.4434 0.0000
# 4 0.0000 0.0001 0.0000 30.7854 0.0000 -2.7544
# 5 13.5616 5.1187 21.4434 0.0000 34.2633 0.0000
# 6 0.0001 0.0001 0.0000 -2.7544 0.0000 28.0864
#
#
#
# Elastic Compliance Matrix: (Units=1/GPa)
#
#
# Indices 1 2 3 4 5 6 
#
# 1 0.014988 -0.004080 -0.006306 0.000000 -0.001376 0.000000
# 2 -0.004080 0.020099 -0.005072 0.000000 0.001787 0.000000
# 3 -0.006306 -0.005072 0.016665 0.000000 -0.007176 0.000000
# 4 0.000000 0.000000 0.000000 0.032770 0.000000 0.003214
# 5 -0.001376 0.001787 -0.007176 0.000000 0.033954 0.000000
# 6 0.000000 0.000000 0.000000 0.003214 0.000000 0.035920
#
#
# Mechanical properties :
#
#
# Convention : Reuss Voigt Hill
#
# Bulk Modulus (GPa) = 47.99579 55.84621 51.92100
# Shear Modulus (GPa) = 26.00670 28.20958 27.10814
#
# Velocity S-wave (km/s) = 3.72514 3.87970 3.80320
# Velocity P-wave (km/s) = 6.64167 7.06171 6.85491
#
# Compressibility (1/GPa) = 0.02083516
#
# Stress axis : x y z
#
# Youngs Moduli (GPa) = 66.71860 49.75460 60.00642
#
# Poissons Ratio (x) = 0.20299 0.37842
# Poissons Ratio (y) = 0.27221 0.30436
# Poissons Ratio (z) = 0.42075 0.25236
#
# Static dielectric constant tensor:
#      x y z
#    x 3.466140 0.000000 0.117460 
#    y 0.000000 3.364770 0.000000 
#    z 0.117460 0.000000 3.730170 
# 
# 
# High freq. dielectric constant tensor:
#      x y z
#    x 1.713790 0.000000 0.003620 
#    y 0.000000 1.717260 0.000000 
#    z 0.003620 0.000000 1.747150 
# 
# From -- ./inp_files/280993.got.cif
#   From: 2010.06.25/outbox.cif.g09.slc.cpg/sg12_141_cif.got.tgz:280993.got - 2010.06.28 00:19:55.
