data_PCOD8106998
_publ_section_title
;
Structure prediction by ZEFSAII (Michael W. Deem and Ramdas Pophale) SiO2 
 PCOD8106998
Probable space group: C 2/M
;
_chemical_formula_sum "Si O2"
_cell_formula_units_Z 64
_cell_length_a 30.067598
_cell_length_b 8.622327
_cell_length_c 15.000060
_cell_angle_alpha 90.000000
_cell_angle_beta 52.451235
_cell_angle_gamma 90.000000
_cell_volume 3083.180826
_symmetry_space_group_name_H-M "C 2/M"
_symmetry_group_IT_number 12
_symmetry_cell_setting 'monoclinic'
loop_
_space_group_symop_operation_xyz
x,y,z
-x,y,-z
-x,-y,-z
x,-y,z
1/2+x,1/2+y,z
1/2-x,1/2+y,-z
1/2-x,1/2-y,-z
1/2+x,1/2-y,z
loop_
_atom_site_type_symbol
_atom_site_label
_atom_site_fract_x
_atom_site_fract_y
_atom_site_fract_z
Si Si1 0.787444 0.680954 0.608187
Si Si2 0.545549 0.680484 0.382499
Si Si3 0.188915 0.815477 0.068015
Si Si4 0.109154 0.317805 0.640018
Si Si5 0.166319 0.319975 0.753068
Si Si6 0.485286 0.316053 0.774102
Si Si7 0.152388 0.679322 0.292349
Si Si8 0.115734 0.315691 0.002528
O O1 0.783268 0.500000 0.594923
O O2 0.840273 0.745083 0.485670
O O3 0.727387 0.749846 0.657393
O O4 0.797886 0.721042 0.700016
O O5 0.500000 0.762680 0.500000
O O6 0.534931 0.500000 0.387404
O O7 0.543290 0.743037 0.283502
O O8 0.599012 0.716631 0.378542
O O9 0.160526 0.722078 0.180762
O O10 0.159451 0.773274 0.012004
O O11 0.186424 0.000000 0.086163
O O12 0.250000 0.750000 0.000000
O O13 0.100132 0.500000 0.635068
O O14 0.125893 0.279215 0.720732
O O15 0.050370 0.232643 0.694564
O O16 0.177615 0.500000 0.747947
O O17 0.134446 0.260618 0.880728
O O18 0.481183 0.500000 0.791241
O O19 0.448339 0.236851 0.898127
O O20 0.137145 0.500000 0.319834
O O21 0.120762 0.500000 0.007677
#
# Coordination Sequence:
#
# PCOD8106998 Si02
#       8
#     8   8   8   8   8   8   8   8
#     4  10  22  39  62  93 126 159 201 255 311 367
#     4  10  21  37  57  84 120 159 200 247 297 354
#     4  12  24  39  59  86 120 159 201 246 298 360
#     4  10  22  42  64  89 123 162 205 256 312 371
#     4  10  23  41  64  91 119 160 209 255 313 372
#     4  11  23  39  61  91 124 163 209 255 307 364
#     4  11  22  36  57  88 120 156 198 238 295 360
#     4  11  23  41  63  89 123 164 207 256 308 364
#
# _framework density 20.757781999999999
#
# number of rings (size 3 to 8) (size 9 to 14) (size 15 to 20)
#    0.000    1.375    1.250    4.125    0.000    6.250 
#    0.000    2.500    0.000    0.000    0.000    0.000 
#    0.000    0.000    0.000    0.000    0.000    0.000 
#
# Total GULP energy -396530.249926 kJ/mol
# GULP energy per Si atom -12391.570310 kJ/mol
# Density = 2.071054 g / cm^3
# Si number density = 20.757782 Si / 1000 Ang^3
#
#
#
# Elastic Constant Matrix: (Units=GPa)
#
#
# Indices 1 2 3 4 5 6 
#
# 1 84.9156 32.0912 29.4499 0.0000 -8.0093 0.0001
# 2 32.0912 463.0161 -96.8413 -0.0001 12.0003 0.0011
# 3 29.4499 -96.8413 148.7112 0.0000 -9.1258 0.0000
# 4 0.0000 -0.0001 0.0000 26.6232 0.0000 -10.9752
# 5 -8.0093 12.0003 -9.1258 0.0000 43.0328 0.0000
# 6 0.0001 0.0011 0.0000 -10.9752 0.0000 32.6920
#
#
#
# Elastic Compliance Matrix: (Units=1/GPa)
#
#
# Indices 1 2 3 4 5 6 
#
# 1 0.014013 -0.001831 -0.003826 0.000000 0.002307 0.000000
# 2 -0.001831 0.002745 0.002110 0.000000 -0.000659 0.000000
# 3 -0.003826 0.002110 0.008892 0.000000 0.000585 0.000000
# 4 0.000000 0.000000 0.000000 0.043595 0.000000 0.014635
# 5 0.002307 -0.000659 0.000585 0.000000 0.023975 0.000000
# 6 0.000000 0.000000 0.000000 0.014635 0.000000 0.035502
#
#
# Mechanical properties :
#
#
# Convention : Reuss Voigt Hill
#
# Bulk Modulus (GPa) = 53.89360 69.56029 61.72694
# Shear Modulus (GPa) = 35.21082 69.26580 52.23831
#
# Velocity S-wave (km/s) = 4.12305 5.78282 5.02198
# Velocity P-wave (km/s) = 6.97750 8.84145 7.96419
#
# Compressibility (1/GPa) = 0.01855508
#
# Stress axis : x y z
#
# Youngs Moduli (GPa) = 71.36233 364.29632 112.46154
#
# Poissons Ratio (x) = 0.66712 0.43027
# Poissons Ratio (y) = 0.13068 -0.23727
# Poissons Ratio (z) = 0.27303 -0.76859
#
# Static dielectric constant tensor:
#      x y z
#    x 3.812260 0.000000 0.112710 
#    y 0.000000 3.660730 0.000000 
#    z 0.112710 0.000000 4.133230 
# 
# 
# High freq. dielectric constant tensor:
#      x y z
#    x 1.819090 0.000000 -0.004400 
#    y 0.000000 1.802790 0.000000 
#    z -0.004400 0.000000 1.830570 
# 
# From -- ./inp_files/249747.got.cif
#   From: 2010.06.25/outbox.cif.g09.slc.cpg/sg12_125_cif.got.tgz:249747.got - 2010.06.28 00:19:55.
