data_PCOD8106758
_publ_section_title
;
Structure prediction by ZEFSAII (Michael W. Deem and Ramdas Pophale) SiO2 
 PCOD8106758
Probable space group: C 2/M
;
_chemical_formula_sum "Si O2"
_cell_formula_units_Z 48
_cell_length_a 19.128143
_cell_length_b 8.900517
_cell_length_c 29.111079
_cell_angle_alpha 90.000000
_cell_angle_beta 31.461241
_cell_angle_gamma 90.000000
_cell_volume 2586.733369
_symmetry_space_group_name_H-M "C 2/M"
_symmetry_group_IT_number 12
_symmetry_cell_setting 'monoclinic'
loop_
_space_group_symop_operation_xyz
x,y,z
-x,y,-z
-x,-y,-z
x,-y,z
1/2+x,1/2+y,z
1/2-x,1/2+y,-z
1/2-x,1/2-y,-z
1/2+x,1/2-y,z
loop_
_atom_site_type_symbol
_atom_site_label
_atom_site_fract_x
_atom_site_fract_y
_atom_site_fract_z
Si Si1 0.276073 0.671475 0.872035
Si Si2 0.128230 0.322830 0.594809
Si Si3 0.356616 0.676401 0.973765
Si Si4 0.081461 0.171119 0.713467
Si Si5 0.148180 0.176226 0.271062
Si Si6 0.852963 0.825401 0.221160
O O1 0.230995 0.500000 0.904515
O O2 0.423899 0.698002 0.809693
O O3 0.273131 0.715821 0.820046
O O4 0.172758 0.776808 0.957208
O O5 0.133784 0.500000 0.586157
O O6 0.250000 0.250000 0.500000
O O7 0.139381 0.280832 0.642316
O O8 0.991819 0.262543 0.648988
O O9 0.344646 0.500000 0.974228
O O10 0.505095 0.731589 0.877799
O O11 0.250000 0.750000 0.000000
O O12 0.156323 0.203199 0.719151
O O13 0.103999 0.000000 0.684158
O O14 0.236064 0.227254 0.264665
O O15 0.117562 0.000000 0.290802
O O16 0.831166 0.000000 0.221507
#
# Coordination Sequence:
#
# PCOD8106758 Si02
#       6
#     8   8   8   8   8   8
#     4   9  18  35  54  76 109 150 192 234 279 326
#     4  11  22  39  64  90 113 142 182 225 274 337
#     4  11  21  33  52  79 111 149 195 239 277 325
#     4   9  18  36  58  81 114 150 185 229 280 332
#     4  10  22  39  58  82 115 149 185 232 284 333
#     4  10  21  37  55  80 116 153 188 232 284 330
#
# _framework density 18.556222000000002
#
# number of rings (size 3 to 8) (size 9 to 14) (size 15 to 20)
#    0.000    2.000    1.667    3.500    0.000    6.000 
#    0.000    4.167    0.000    5.000    0.000    0.000 
#    0.000    0.000    0.000    0.000    0.000    0.000 
#
# Total GULP energy -297675.209013 kJ/mol
# GULP energy per Si atom -12403.133709 kJ/mol
# Density = 1.851399 g / cm^3
# Si number density = 18.556222 Si / 1000 Ang^3
#
#
#
# Elastic Constant Matrix: (Units=GPa)
#
#
# Indices 1 2 3 4 5 6 
#
# 1 115.3620 48.4824 48.0774 0.0003 -7.1995 0.0001
# 2 48.4824 104.0101 61.0161 0.0022 -2.4020 -0.0017
# 3 48.0774 61.0161 115.9081 -0.0003 3.1129 -0.0003
# 4 0.0003 0.0022 -0.0003 33.1901 -0.0004 2.3634
# 5 -7.1995 -2.4020 3.1129 -0.0004 15.1644 0.0010
# 6 0.0001 -0.0017 -0.0003 2.3634 0.0010 34.5524
#
#
#
# Elastic Compliance Matrix: (Units=1/GPa)
#
#
# Indices 1 2 3 4 5 6 
#
# 1 0.011838 -0.003494 -0.003225 0.000000 0.005729 0.000000
# 2 -0.003494 0.015154 -0.006584 -0.000001 0.002093 0.000001
# 3 -0.003225 -0.006584 0.013575 0.000001 -0.005361 0.000000
# 4 0.000000 -0.000001 0.000001 0.030277 0.000001 -0.002071
# 5 0.005729 0.002093 -0.005361 0.000001 0.070096 -0.000002
# 6 0.000000 0.000001 0.000000 -0.002071 -0.000002 0.029083
#
#
# Mechanical properties :
#
#
# Convention : Reuss Voigt Hill
#
# Bulk Modulus (GPa) = 71.62770 72.27023 71.94897
# Shear Modulus (GPa) = 24.84055 28.42832 26.63444
#
# Velocity S-wave (km/s) = 3.66275 3.91834 3.79269
# Velocity P-wave (km/s) = 7.52142 7.71378 7.61821
#
# Compressibility (1/GPa) = 0.01396108
#
# Stress axis : x y z
#
# Youngs Moduli (GPa) = 84.47151 65.98891 73.66345
#
# Poissons Ratio (x) = 0.23057 0.23756
# Poissons Ratio (y) = 0.29515 0.48502
# Poissons Ratio (z) = 0.27242 0.43449
#
# Static dielectric constant tensor:
#      x y z
#    x 3.570170 0.000010 0.109250 
#    y 0.000010 3.400330 0.000000 
#    z 0.109250 0.000000 3.375900 
# 
# 
# High freq. dielectric constant tensor:
#      x y z
#    x 1.721140 0.000000 0.008680 
#    y 0.000000 1.721670 0.000000 
#    z 0.008680 0.000000 1.708020 
# 
# From -- ./inp_files/295358.got.cif
#   From: 2010.06.25/outbox.cif.g09.slc.cpg/sg12_148_cif.got.tgz:295358.got - 2010.06.28 00:19:55.
