data_PCOD8106958
_publ_section_title
;
Structure prediction by ZEFSAII (Michael W. Deem and Ramdas Pophale) SiO2 
 PCOD8106958
Probable space group: C 2/M
;
_chemical_formula_sum "Si O2"
_cell_formula_units_Z 52
_cell_length_a 16.194027
_cell_length_b 9.665494
_cell_length_c 20.801108
_cell_angle_alpha 90.000000
_cell_angle_beta 50.259524
_cell_angle_gamma 90.000000
_cell_volume 2503.585448
_symmetry_space_group_name_H-M "C 2/M"
_symmetry_group_IT_number 12
_symmetry_cell_setting 'monoclinic'
loop_
_space_group_symop_operation_xyz
x,y,z
-x,y,-z
-x,-y,-z
x,-y,z
1/2+x,1/2+y,z
1/2-x,1/2+y,-z
1/2-x,1/2-y,-z
1/2+x,1/2-y,z
loop_
_atom_site_type_symbol
_atom_site_label
_atom_site_fract_x
_atom_site_fract_y
_atom_site_fract_z
Si Si1 0.117467 0.149572 0.821961
Si Si2 0.388538 0.660940 0.522270
Si Si3 0.823016 0.651607 0.310700
Si Si4 0.331247 0.158004 0.788674
Si Si5 0.000000 0.261224 0.000000
Si Si6 0.275623 0.160941 0.051486
Si Si7 0.447363 0.846906 0.379347
O O1 0.100382 0.259742 0.774051
O O2 0.240866 0.159025 0.779786
O O3 0.043294 0.168214 0.920839
O O4 0.089588 0.000000 0.806810
O O5 0.500000 0.692006 0.500000
O O6 0.370973 0.500000 0.514264
O O7 0.296623 0.712009 0.617784
O O8 0.385905 0.745656 0.457873
O O9 0.816071 0.500000 0.281906
O O10 0.874217 0.642110 0.354177
O O11 0.302573 0.267591 0.858101
O O12 0.437452 0.211699 0.700065
O O13 0.345859 0.000000 0.809011
O O14 0.100770 0.342816 0.982547
O O15 0.243190 0.000000 0.056162
O O16 0.250000 0.250000 0.000000
O O17 0.460623 0.000000 0.403773
#
# Coordination Sequence:
#
# PCOD8106958 Si02
#       7
#     8   8   8   8   4   8   8
#     4  10  21  38  62  87 116 154 200 252 305 361
#     4  10  21  37  57  83 116 154 194 242 295 350
#     4  10  22  37  55  84 120 154 194 245 300 360
#     4   9  20  39  58  83 117 153 194 247 304 359
#     4  10  24  44  64  92 128 166 210 260 318 380
#     4  11  24  41  64  92 123 162 209 257 312 375
#     4  10  21  37  58  84 116 154 194 242 295 354
#
# _framework density 20.770211
#
# number of rings (size 3 to 8) (size 9 to 14) (size 15 to 20)
#    0.000    2.000    0.000    2.308    2.154    7.077 
#    0.000    0.000    0.000    0.000    0.000    0.000 
#    0.000    0.000    0.000    0.000    0.000    0.000 
#
# Total GULP energy -322207.024892 kJ/mol
# GULP energy per Si atom -12392.577880 kJ/mol
# Density = 2.072294 g / cm^3
# Si number density = 20.770211 Si / 1000 Ang^3
#
#
#
# Elastic Constant Matrix: (Units=GPa)
#
#
# Indices 1 2 3 4 5 6 
#
# 1 49.6199 18.8356 20.5882 0.0000 -1.5076 0.0000
# 2 18.8356 125.7304 66.7111 0.0000 15.6114 0.0001
# 3 20.5882 66.7111 123.3544 0.0000 3.1314 0.0000
# 4 0.0000 0.0000 0.0000 9.9988 0.0000 4.3076
# 5 -1.5076 15.6114 3.1314 0.0000 33.8870 0.0000
# 6 0.0000 0.0001 0.0000 4.3076 0.0000 22.8099
#
#
#
# Elastic Compliance Matrix: (Units=1/GPa)
#
#
# Indices 1 2 3 4 5 6 
#
# 1 0.022127 -0.002251 -0.002533 0.000000 0.002255 0.000000
# 2 -0.002251 0.012145 -0.006062 0.000000 -0.005135 0.000000
# 3 -0.002533 -0.006062 0.011767 0.000000 0.001593 0.000000
# 4 0.000000 0.000000 0.000000 0.108869 0.000000 -0.020560
# 5 0.002255 -0.005135 0.001593 0.000000 0.031829 0.000000
# 6 0.000000 0.000000 0.000000 -0.020560 0.000000 0.047723
#
#
# Mechanical properties :
#
#
# Convention : Reuss Voigt Hill
#
# Bulk Modulus (GPa) = 41.07192 56.77496 48.92344
# Shear Modulus (GPa) = 18.92018 26.17714 22.54866
#
# Velocity S-wave (km/s) = 3.02143 3.55395 3.29846
# Velocity P-wave (km/s) = 5.65592 6.65093 6.17351
#
# Compressibility (1/GPa) = 0.02434754
#
# Stress axis : x y z
#
# Youngs Moduli (GPa) = 45.19333 82.34053 84.98051
#
# Poissons Ratio (x) = 0.18534 0.21526
# Poissons Ratio (y) = 0.10173 0.51514
# Poissons Ratio (z) = 0.11448 0.49914
#
# Static dielectric constant tensor:
#      x y z
#    x 3.835820 0.000000 -0.229100 
#    y 0.000000 3.866120 0.000000 
#    z -0.229100 0.000000 3.820770 
# 
# 
# High freq. dielectric constant tensor:
#      x y z
#    x 1.813600 0.000000 -0.011340 
#    y 0.000000 1.807780 0.000000 
#    z -0.011340 0.000000 1.818610 
# 
# From -- ./inp_files/314655.got.cif
#   From: 2010.06.25/outbox.cif.g09.slc.cpg/sg12_158_cif.got.tgz:314655.got - 2010.06.28 00:19:55.
