data_PCOD8106718
_publ_section_title
;
Structure prediction by ZEFSAII (Michael W. Deem and Ramdas Pophale) SiO2 
 PCOD8106718
Probable space group: C 2/M
;
_chemical_formula_sum "Si O2"
_cell_formula_units_Z 56
_cell_length_a 9.980353
_cell_length_b 17.741459
_cell_length_c 28.258193
_cell_angle_alpha 90.000000
_cell_angle_beta 142.478862
_cell_angle_gamma 90.000000
_cell_volume 3047.442194
_symmetry_space_group_name_H-M "C 2/M"
_symmetry_group_IT_number 12
_symmetry_cell_setting 'monoclinic'
loop_
_space_group_symop_operation_xyz
x,y,z
-x,y,-z
-x,-y,-z
x,-y,z
1/2+x,1/2+y,z
1/2-x,1/2+y,-z
1/2-x,1/2-y,-z
1/2+x,1/2-y,z
loop_
_atom_site_type_symbol
_atom_site_label
_atom_site_fract_x
_atom_site_fract_y
_atom_site_fract_z
Si Si1 0.787148 0.089861 0.966651
Si Si2 0.757881 0.410304 0.940880
Si Si3 0.776749 0.911938 0.339872
Si Si4 0.511081 0.589921 0.222882
Si Si5 0.167652 0.410468 0.203989
Si Si6 0.360107 0.679608 0.506127
Si Si7 0.997715 0.587664 0.646617
O O1 0.562933 0.122126 0.880541
O O2 0.780622 0.000000 0.962179
O O3 0.816556 0.117832 0.028569
O O4 0.000000 0.122787 0.000000
O O5 0.761602 0.500000 0.939369
O O6 0.595945 0.378261 0.855376
O O7 0.000000 0.377825 0.000000
O O8 0.701445 0.883073 0.267220
O O9 0.575914 0.897379 0.319846
O O10 0.989712 0.864798 0.414511
O O11 0.841600 0.000000 0.357305
O O12 0.514174 0.500000 0.222522
O O13 0.370024 0.619039 0.228300
O O14 0.759351 0.621769 0.294359
O O15 0.159724 0.500000 0.199492
O O16 0.500000 0.706758 0.500000
O O17 0.250000 0.750000 0.500000
O O18 0.167842 0.624097 0.436582
O O19 0.996121 0.500000 0.634738
#
# Coordination Sequence:
#
# PCOD8106718 Si02
#       7
#     8   8   8   8   8   8   8
#     4   9  16  22  32  53  85 124 163 197 231 276
#     4   9  14  22  34  51  83 126 161 191 232 277
#     4   9  18  32  51  72  98 129 160 199 244 288
#     4   9  16  25  39  61  91 126 162 197 236 285
#     4   9  16  26  38  60  93 126 160 198 239 282
#     4  10  21  37  55  75  98 125 160 199 243 294
#     4   9  18  32  51  73  97 127 163 200 240 289
#
# _framework density 18.376066000000002
#
# number of rings (size 3 to 8) (size 9 to 14) (size 15 to 20)
#    0.000    2.857    1.429    0.429    2.000    2.857 
#    0.000    0.000    0.000    4.286    0.000    0.000 
#    0.000    2.286    0.000    0.143    0.000    0.143 
#
# Total GULP energy -347106.068079 kJ/mol
# GULP energy per Si atom -12396.645289 kJ/mol
# Density = 1.833424 g / cm^3
# Si number density = 18.376066 Si / 1000 Ang^3
#
#
#
# Elastic Constant Matrix: (Units=GPa)
#
#
# Indices 1 2 3 4 5 6 
#
# 1 155.7679 25.9262 89.1725 0.0003 7.5694 0.0000
# 2 25.9262 23.2134 22.5401 0.0004 1.6407 0.0000
# 3 89.1725 22.5401 143.6240 0.0022 6.2154 0.0003
# 4 0.0003 0.0004 0.0022 0.4235 0.0003 1.7451
# 5 7.5694 1.6407 6.2154 0.0003 40.3492 -0.0001
# 6 0.0000 0.0000 0.0003 1.7451 -0.0001 16.4705
#
#
#
# Elastic Compliance Matrix: (Units=1/GPa)
#
#
# Indices 1 2 3 4 5 6 
#
# 1 0.010765 -0.006498 -0.005625 0.000049 -0.000889 -0.000005
# 2 -0.006498 0.054774 -0.004548 -0.000035 -0.000308 0.000004
# 3 -0.005625 -0.004548 0.011190 -0.000088 -0.000483 0.000009
# 4 0.000049 -0.000035 -0.000088 4.191737 -0.000024 -0.444136
# 5 -0.000889 -0.000308 -0.000483 -0.000024 0.025037 0.000003
# 6 -0.000005 0.000004 0.000009 -0.444136 0.000003 0.107773
#
#
# Mechanical properties :
#
#
# Convention : Reuss Voigt Hill
#
# Bulk Modulus (GPa) = 23.04917 66.43141 44.74029
# Shear Modulus (GPa) = 1.12383 23.77973 12.45178
#
# Velocity S-wave (km/s) = 0.78288 3.60121 2.60592
# Velocity P-wave (km/s) = 3.65889 7.31581 5.78397
#
# Compressibility (1/GPa) = 0.04338550
#
# Stress axis : x y z
#
# Youngs Moduli (GPa) = 92.89456 18.25683 89.36497
#
# Poissons Ratio (x) = 0.11863 0.50272
# Poissons Ratio (y) = 0.60361 0.40648
# Poissons Ratio (z) = 0.52257 0.08304
#
# Static dielectric constant tensor:
#      x y z
#    x 3.630530 0.000000 0.041930 
#    y 0.000000 2.743890 0.000000 
#    z 0.041930 0.000000 3.613210 
# 
# 
# High freq. dielectric constant tensor:
#      x y z
#    x 1.725040 0.000000 0.000600 
#    y 0.000000 1.639730 0.000000 
#    z 0.000600 0.000000 1.726100 
# 
# From -- ./inp_files/301629.got.cif
#   From: 2010.06.25/outbox.cif.g09.slc.cpg/sg12_151_cif.got.tgz:301629.got - 2010.06.28 00:19:55.
