data_PCOD8106299
_publ_section_title
;
Structure prediction by ZEFSAII (Michael W. Deem and Ramdas Pophale) SiO2 
 PCOD8106299
Probable space group: C 2/M
;
_chemical_formula_sum "Si O2"
_cell_formula_units_Z 64
_cell_length_a 31.050948
_cell_length_b 9.136173
_cell_length_c 26.286613
_cell_angle_alpha 90.000000
_cell_angle_beta 152.870364
_cell_angle_gamma 90.000000
_cell_volume 3400.507250
_symmetry_space_group_name_H-M "C 2/M"
_symmetry_group_IT_number 12
_symmetry_cell_setting 'monoclinic'
loop_
_space_group_symop_operation_xyz
x,y,z
-x,y,-z
-x,-y,-z
x,-y,z
1/2+x,1/2+y,z
1/2-x,1/2+y,-z
1/2-x,1/2-y,-z
1/2+x,1/2-y,z
loop_
_atom_site_type_symbol
_atom_site_label
_atom_site_fract_x
_atom_site_fract_y
_atom_site_fract_z
Si Si1 0.460214 0.670161 0.224812
Si Si2 0.674327 0.330158 0.454624
Si Si3 0.317063 0.325814 0.421653
Si Si4 0.368124 0.826311 0.826629
Si Si5 0.842458 0.828852 0.003639
Si Si6 0.505596 0.327309 0.564651
Si Si7 0.375192 0.827357 0.230608
Si Si8 0.932496 0.673075 0.002869
O O1 0.444202 0.500000 0.221548
O O2 0.568720 0.698047 0.322781
O O3 0.437609 0.763218 0.250803
O O4 0.393623 0.722909 0.108985
O O5 0.700031 0.500000 0.480800
O O6 0.750000 0.250000 0.500000
O O7 0.681691 0.267601 0.519525
O O8 0.314469 0.500000 0.417763
O O9 0.225677 0.258837 0.297192
O O10 0.409998 0.270638 0.490542
O O11 0.375003 0.774753 0.892421
O O12 0.364833 0.000000 0.822524
O O13 0.459047 0.775375 0.889840
O O14 0.733322 0.785183 0.893230
O O15 0.889330 0.747998 0.006186
O O16 0.856769 0.000000 0.010142
O O17 0.500000 0.283113 0.500000
O O18 0.521098 0.500000 0.587855
O O19 0.593168 0.244389 0.682825
O O20 0.390241 0.000000 0.249116
O O21 0.925711 0.500000 0.002830
#
# Coordination Sequence:
#
# PCOD8106299 Si02
#       8
#     8   8   8   8   8   8   8   8
#     4  10  21  41  61  78 108 148 189 231 275 333
#     4  10  21  36  57  83 113 146 181 229 279 329
#     4   9  17  33  55  81 113 144 180 230 277 320
#     4   8  16  31  52  80 112 140 177 229 276 315
#     4  10  23  38  55  80 112 145 180 229 286 335
#     4  10  21  37  61  88 113 150 194 228 272 339
#     4  11  23  39  58  82 113 145 181 234 289 331
#     4   9  18  33  55  82 108 141 183 227 271 324
#
# _framework density 18.820722
#
# number of rings (size 3 to 8) (size 9 to 14) (size 15 to 20)
#    0.000    2.375    1.250    1.500    3.500    2.250 
#    0.000    1.250    0.000    1.500    0.000    0.000 
#    0.000    0.000    0.000    0.000    0.000    0.000 
#
# Total GULP energy -396831.062555 kJ/mol
# GULP energy per Si atom -12400.970705 kJ/mol
# Density = 1.877789 g / cm^3
# Si number density = 18.820722 Si / 1000 Ang^3
#
#
#
# Elastic Constant Matrix: (Units=GPa)
#
#
# Indices 1 2 3 4 5 6 
#
# 1 137.2408 41.8519 63.5044 0.0000 -11.6446 0.0000
# 2 41.8519 40.5007 38.6456 0.0000 -3.6911 0.0000
# 3 63.5044 38.6456 164.0033 0.0000 -7.0666 0.0000
# 4 0.0000 0.0000 0.0000 24.4102 0.0000 -1.0811
# 5 -11.6446 -3.6911 -7.0666 0.0000 24.4494 0.0000
# 6 0.0000 0.0000 0.0000 -1.0811 0.0000 33.6554
#
#
#
# Elastic Compliance Matrix: (Units=1/GPa)
#
#
# Indices 1 2 3 4 5 6 
#
# 1 0.011431 -0.009570 -0.002024 0.000000 0.003415 0.000000
# 2 -0.009570 0.040038 -0.005736 0.000000 -0.000171 0.000000
# 3 -0.002024 -0.005736 0.008257 0.000000 0.000556 0.000000
# 4 0.000000 0.000000 0.000000 0.041025 0.000000 0.001318
# 5 0.003415 -0.000171 0.000556 0.000000 0.042662 0.000000
# 6 0.000000 0.000000 0.000000 0.001318 0.000000 0.029755
#
#
# Mechanical properties :
#
#
# Convention : Reuss Voigt Hill
#
# Bulk Modulus (GPa) = 39.89564 69.97206 54.93385
# Shear Modulus (GPa) = 23.12843 29.68585 26.40714
#
# Velocity S-wave (km/s) = 3.50934 3.97583 3.74985
# Velocity P-wave (km/s) = 6.13713 7.63775 6.92819
#
# Compressibility (1/GPa) = 0.02506539
#
# Stress axis : x y z
#
# Youngs Moduli (GPa) = 87.48021 24.97624 121.11102
#
# Poissons Ratio (x) = 0.23902 0.24515
# Poissons Ratio (y) = 0.83718 0.69473
# Poissons Ratio (z) = 0.17707 0.14327
#
# Static dielectric constant tensor:
#      x y z
#    x 3.420770 0.000000 -0.027790 
#    y 0.000000 3.099200 0.000000 
#    z -0.027790 0.000000 3.955470 
# 
# 
# High freq. dielectric constant tensor:
#      x y z
#    x 1.736770 0.000000 -0.000710 
#    y 0.000000 1.694950 0.000000 
#    z -0.000710 0.000000 1.750200 
# 
# From -- ./inp_files/353481.got.cif
#   From: 2010.06.25/outbox.cif.g09.slc.cpg/sg12_177_cif.got.tgz:353481.got - 2010.06.28 00:19:55.
