data_PCOD8106114
_publ_section_title
;
Structure prediction by ZEFSAII (Michael W. Deem and Ramdas Pophale) SiO2 
 PCOD8106114
Probable space group: C 2/M
;
_chemical_formula_sum "Si O2"
_cell_formula_units_Z 56
_cell_length_a 5.150234
_cell_length_b 17.942203
_cell_length_c 30.221082
_cell_angle_alpha 90.000000
_cell_angle_beta 82.315997
_cell_angle_gamma 90.000000
_cell_volume 2767.549554
_symmetry_space_group_name_H-M "C 2/M"
_symmetry_group_IT_number 12
_symmetry_cell_setting 'monoclinic'
loop_
_space_group_symop_operation_xyz
x,y,z
-x,y,-z
-x,-y,-z
x,-y,z
1/2+x,1/2+y,z
1/2-x,1/2+y,-z
1/2-x,1/2-y,-z
1/2+x,1/2-y,z
loop_
_atom_site_type_symbol
_atom_site_label
_atom_site_fract_x
_atom_site_fract_y
_atom_site_fract_z
Si Si1 0.160438 0.082774 0.403221
Si Si2 0.548195 0.914782 0.873669
Si Si3 0.558125 0.797298 0.948880
Si Si4 0.089056 0.913675 0.816515
Si Si5 0.235350 0.719460 0.550052
Si Si6 0.680299 0.697777 0.734803
Si Si7 0.294760 0.914614 0.653850
O O1 0.184680 0.133500 0.446618
O O2 0.401853 0.098919 0.364858
O O3 0.889107 0.098388 0.384530
O O4 0.173355 0.000000 0.421885
O O5 0.539348 0.868978 0.918758
O O6 0.284633 0.899486 0.852581
O O7 0.796252 0.892663 0.837999
O O8 0.571939 0.000000 0.887902
O O9 0.348610 0.735906 0.938196
O O10 0.500000 0.823932 0.000000
O O11 0.168280 0.857722 0.776261
O O12 0.106711 0.000000 0.800027
O O13 0.250000 0.750000 0.500000
O O14 0.442983 0.766609 0.574978
O O15 0.416345 0.744712 0.735482
O O16 0.716397 0.645325 0.691829
O O17 0.255352 0.000000 0.671903
#
# Coordination Sequence:
#
# PCOD8106114 Si02
#       7
#     8   8   8   8   8   8   8
#     4  10  21  38  61  85 111 149 194 230 270 332
#     4  10  21  37  59  83 107 146 194 234 279 334
#     4  10  21  36  55  81 113 147 183 230 290 345
#     4  10  22  40  58  79 113 152 187 228 281 339
#     4  10  21  37  56  83 115 148 182 224 281 328
#     4  12  25  38  57  88 117 146 188 234 279 330
#     4  10  22  40  60  83 114 152 188 230 282 330
#
# _framework density 20.234508000000002
#
# number of rings (size 3 to 8) (size 9 to 14) (size 15 to 20)
#    0.000    1.714    0.000    3.857    0.000    7.143 
#    0.000    8.571    0.000    5.143    0.000    0.000 
#    0.000    0.000    0.000    0.000    0.000    0.000 
#
# Total GULP energy -347127.748426 kJ/mol
# GULP energy per Si atom -12397.419587 kJ/mol
# Density = 2.018845 g / cm^3
# Si number density = 20.234508 Si / 1000 Ang^3
#
#
#
# Elastic Constant Matrix: (Units=GPa)
#
#
# Indices 1 2 3 4 5 6 
#
# 1 100.7055 9.7789 1.4397 0.0000 10.1328 0.0000
# 2 9.7789 103.1248 58.5741 0.0000 7.1470 0.0000
# 3 1.4397 58.5741 71.4794 0.0000 4.3909 0.0000
# 4 0.0000 0.0000 0.0000 52.0224 0.0000 2.3340
# 5 10.1328 7.1470 4.3909 0.0000 20.1646 0.0000
# 6 0.0000 0.0000 0.0000 2.3340 0.0000 30.1714
#
#
#
# Elastic Compliance Matrix: (Units=1/GPa)
#
#
# Indices 1 2 3 4 5 6 
#
# 1 0.010554 -0.001318 0.001181 0.000000 -0.005093 0.000000
# 2 -0.001318 0.018516 -0.014984 0.000000 -0.002637 0.000000
# 3 0.001181 -0.014984 0.026307 0.000000 -0.001011 0.000000
# 4 0.000000 0.000000 0.000000 0.019289 0.000000 -0.001492
# 5 -0.005093 -0.002637 -0.001011 0.000000 0.053306 0.000000
# 6 0.000000 0.000000 0.000000 -0.001492 0.000000 0.033259
#
#
# Mechanical properties :
#
#
# Convention : Reuss Voigt Hill
#
# Bulk Modulus (GPa) = 39.78899 46.09944 42.94421
# Shear Modulus (GPa) = 25.01845 34.17282 29.59563
#
# Velocity S-wave (km/s) = 3.52010 4.11401 3.82859
# Velocity P-wave (km/s) = 6.01898 6.73786 6.38854
#
# Compressibility (1/GPa) = 0.02513258
#
# Stress axis : x y z
#
# Youngs Moduli (GPa) = 94.75497 54.00827 38.01237
#
# Poissons Ratio (x) = 0.07120 -0.04488
# Poissons Ratio (y) = 0.12492 0.56958
# Poissons Ratio (z) = -0.11187 0.80927
#
# Static dielectric constant tensor:
#      x y z
#    x 4.113550 0.000000 0.120180 
#    y 0.000000 3.848100 0.000000 
#    z 0.120180 0.000000 3.396320 
# 
# 
# High freq. dielectric constant tensor:
#      x y z
#    x 1.821100 0.000000 0.006740 
#    y 0.000000 1.800740 0.000000 
#    z 0.006740 0.000000 1.769950 
# 
# From -- ./inp_files/371479.got.cif
#   From: 2010.06.25/outbox.cif.g09.slc.cpg/sg12_186_cif.got.tgz:371479.got - 2010.06.28 00:19:55.
