data_PCOD8106780
_publ_section_title
;
Structure prediction by ZEFSAII (Michael W. Deem and Ramdas Pophale) SiO2 
 PCOD8106780
Probable space group: C 2/M
;
_chemical_formula_sum "Si O2"
_cell_formula_units_Z 48
_cell_length_a 20.466936
_cell_length_b 8.876760
_cell_length_c 23.100224
_cell_angle_alpha 90.000000
_cell_angle_beta 139.852986
_cell_angle_gamma 90.000000
_cell_volume 2705.923855
_symmetry_space_group_name_H-M "C 2/M"
_symmetry_group_IT_number 12
_symmetry_cell_setting 'monoclinic'
loop_
_space_group_symop_operation_xyz
x,y,z
-x,y,-z
-x,-y,-z
x,-y,z
1/2+x,1/2+y,z
1/2-x,1/2+y,-z
1/2-x,1/2-y,-z
1/2+x,1/2-y,z
loop_
_atom_site_type_symbol
_atom_site_label
_atom_site_fract_x
_atom_site_fract_y
_atom_site_fract_z
Si Si1 0.904557 0.167491 0.088243
Si Si2 0.258029 0.821918 0.442393
Si Si3 0.543514 0.326372 0.467933
Si Si4 0.430024 0.325711 0.277214
Si Si5 0.245532 0.333069 0.084393
Si Si6 0.561230 0.177657 0.269737
O O1 0.822060 0.168695 0.082602
O O2 0.998489 0.271833 0.170555
O O3 0.945037 0.000000 0.103443
O O4 0.851115 0.227355 0.993230
O O5 0.250000 0.750000 0.500000
O O6 0.363760 0.780977 0.484481
O O7 0.169945 0.757950 0.341563
O O8 0.247317 0.000000 0.441422
O O9 0.500000 0.276145 0.500000
O O10 0.580087 0.500000 0.493211
O O11 0.453429 0.303070 0.360481
O O12 0.446031 0.500000 0.268572
O O13 0.312454 0.279291 0.185198
O O14 0.505641 0.223284 0.291402
O O15 0.202089 0.500000 0.065048
O O16 0.576082 0.000000 0.278419
#
# Coordination Sequence:
#
# PCOD8106780 Si02
#       6
#     8   8   8   8   8   8
#     4   9  16  26  40  63  96 130 162 205 253 303
#     4  12  23  36  54  77 104 137 176 218 262 311
#     4  10  21  37  56  78 106 140 177 217 260 308
#     4   9  17  30  48  70 100 135 171 211 254 304
#     4   8  14  24  39  62  93 130 166 202 247 300
#     4  11  20  30  48  73 100 133 169 211 257 309
#
# _framework density 17.738858
#
# number of rings (size 3 to 8) (size 9 to 14) (size 15 to 20)
#    0.000    2.167    1.667    4.500    0.000    4.333 
#    0.000    0.000    0.000    0.000    0.000    1.167 
#    0.000    9.333    0.000    0.000    0.000    0.000 
#
# Total GULP energy -297545.205467 kJ/mol
# GULP energy per Si atom -12397.716894 kJ/mol
# Density = 1.769848 g / cm^3
# Si number density = 17.738858 Si / 1000 Ang^3
#
#
#
# Elastic Constant Matrix: (Units=GPa)
#
#
# Indices 1 2 3 4 5 6 
#
# 1 54.6088 33.0474 44.5100 0.0000 -2.1818 0.0000
# 2 33.0474 129.6626 63.7509 0.0000 4.0241 0.0000
# 3 44.5100 63.7509 163.7943 0.0000 -0.8208 0.0000
# 4 0.0000 0.0000 0.0000 32.7236 0.0000 5.3454
# 5 -2.1818 4.0241 -0.8208 0.0000 13.2491 0.0000
# 6 0.0000 0.0000 0.0000 5.3454 0.0000 16.6539
#
#
#
# Elastic Compliance Matrix: (Units=1/GPa)
#
#
# Indices 1 2 3 4 5 6 
#
# 1 0.025231 -0.003992 -0.005277 0.000000 0.005041 0.000000
# 2 -0.003992 0.010301 -0.002944 0.000000 -0.003968 0.000000
# 3 -0.005277 -0.002944 0.008688 0.000000 0.000563 0.000000
# 4 0.000000 0.000000 0.000000 0.032250 0.000000 -0.010351
# 5 0.005041 -0.003968 0.000563 0.000000 0.077547 0.000000
# 6 0.000000 0.000000 0.000000 -0.010351 0.000000 0.063369
#
#
# Mechanical properties :
#
#
# Convention : Reuss Voigt Hill
#
# Bulk Modulus (GPa) = 50.52558 70.07581 60.30070
# Shear Modulus (GPa) = 20.12806 26.30914 23.21860
#
# Velocity S-wave (km/s) = 3.37217 3.85533 3.62181
# Velocity P-wave (km/s) = 6.61111 7.70766 7.18035
#
# Compressibility (1/GPa) = 0.01979195
#
# Stress axis : x y z
#
# Youngs Moduli (GPa) = 39.63411 97.08207 115.10209
#
# Poissons Ratio (x) = 0.38760 0.60741
# Poissons Ratio (y) = 0.15824 0.33887
# Poissons Ratio (z) = 0.20915 0.28582
#
# Static dielectric constant tensor:
#      x y z
#    x 2.734090 0.000000 0.006910 
#    y 0.000000 3.375720 0.000000 
#    z 0.006910 0.000000 3.825330 
# 
# 
# High freq. dielectric constant tensor:
#      x y z
#    x 1.609020 0.000000 0.003760 
#    y 0.000000 1.691320 0.000000 
#    z 0.003760 0.000000 1.713330 
# 
# From -- ./inp_files/345710.got.cif
#   From: 2010.06.25/outbox.cif.g09.slc.cpg/sg12_173_cif.got.tgz:345710.got - 2010.06.28 00:19:55.
