data_PCOD8106373
_publ_section_title
;
Structure prediction by ZEFSAII (Michael W. Deem and Ramdas Pophale) SiO2 
 PCOD8106373
Probable space group: C 2/M
;
_chemical_formula_sum "Si O2"
_cell_formula_units_Z 64
_cell_length_a 9.940204
_cell_length_b 23.876710
_cell_length_c 13.702437
_cell_angle_alpha 90.000000
_cell_angle_beta 91.367760
_cell_angle_gamma 90.000000
_cell_volume 3251.201143
_symmetry_space_group_name_H-M "C 2/M"
_symmetry_group_IT_number 12
_symmetry_cell_setting 'monoclinic'
loop_
_space_group_symop_operation_xyz
x,y,z
-x,y,-z
-x,-y,-z
x,-y,z
1/2+x,1/2+y,z
1/2-x,1/2+y,-z
1/2-x,1/2-y,-z
1/2+x,1/2-y,z
loop_
_atom_site_type_symbol
_atom_site_label
_atom_site_fract_x
_atom_site_fract_y
_atom_site_fract_z
Si Si1 0.738955 0.435068 0.264861
Si Si2 0.879206 0.255503 0.567604
Si Si3 0.825729 0.369756 0.094955
Si Si4 0.503712 0.934133 0.389012
Si Si5 0.079651 0.208345 0.097277
Si Si6 0.385769 0.838232 0.888676
Si Si7 0.022265 0.158002 0.298219
Si Si8 0.720972 0.143801 0.311957
O O1 0.703388 0.500000 0.280198
O O2 0.771783 0.424829 0.150382
O O3 0.866267 0.415688 0.332450
O O4 0.609446 0.398395 0.290964
O O5 0.750000 0.250000 0.500000
O O6 0.905511 0.197450 0.622503
O O7 0.856633 0.302727 0.647618
O O8 0.000000 0.274018 0.500000
O O9 0.725490 0.318637 0.110346
O O10 0.966941 0.354425 0.147875
O O11 0.845412 0.377713 0.979552
O O12 0.500000 0.912475 0.500000
O O13 0.639856 0.910950 0.342806
O O14 0.518952 0.000000 0.383354
O O15 0.108555 0.273506 0.081514
O O16 0.000995 0.191401 0.195263
O O17 0.000000 0.185767 0.000000
O O18 0.277684 0.850999 0.804712
O O19 0.878169 0.141037 0.342544
#
# Coordination Sequence:
#
# PCOD8106373 Si02
#       8
#     8   8   8   8   8   8   8   8
#     4  10  23  45  66  86 122 167 212 262 319 373
#     4  12  26  42  62  94 136 172 205 252 317 379
#     4  10  21  36  57  89 121 161 207 248 302 374
#     4  10  23  43  67  91 116 159 214 264 314 368
#     4  11  21  35  57  85 132 168 200 243 306 373
#     4  11  21  33  59  91 125 160 201 255 305 367
#     4  11  26  39  62  95 125 168 212 256 310 379
#     4  12  24  40  64  92 131 163 206 258 314 369
#
# _framework density 19.685033000000001
#
# number of rings (size 3 to 8) (size 9 to 14) (size 15 to 20)
#    0.000    1.125    5.000    1.500    5.250    0.500 
#    0.000    1.875    0.000   15.375    0.000    0.000 
#    0.000    0.000    0.000    0.000    0.000    0.000 
#
# Total GULP energy -396773.639907 kJ/mol
# GULP energy per Si atom -12399.176247 kJ/mol
# Density = 1.964023 g / cm^3
# Si number density = 19.685033 Si / 1000 Ang^3
#
#
#
# Elastic Constant Matrix: (Units=GPa)
#
#
# Indices 1 2 3 4 5 6 
#
# 1 127.4278 44.9075 48.7438 0.0000 -8.1363 0.0000
# 2 44.9075 76.0369 39.3057 0.0000 -2.2472 0.0000
# 3 48.7438 39.3057 119.5378 0.0000 4.6832 0.0000
# 4 0.0000 0.0000 0.0000 57.3907 0.0000 -15.6189
# 5 -8.1363 -2.2472 4.6832 0.0000 30.4162 0.0000
# 6 0.0000 0.0000 0.0000 -15.6189 0.0000 36.4352
#
#
#
# Elastic Compliance Matrix: (Units=1/GPa)
#
#
# Indices 1 2 3 4 5 6 
#
# 1 0.010866 -0.004791 -0.002973 0.000000 0.003010 0.000000
# 2 -0.004791 0.018078 -0.004017 0.000000 0.000672 0.000000
# 3 -0.002973 -0.004017 0.011008 0.000000 -0.002787 0.000000
# 4 0.000000 0.000000 0.000000 0.019726 0.000000 0.008456
# 5 0.003010 0.000672 -0.002787 0.000000 0.034161 0.000000
# 6 0.000000 0.000000 0.000000 0.008456 0.000000 0.031071
#
#
# Mechanical properties :
#
#
# Convention : Reuss Voigt Hill
#
# Bulk Modulus (GPa) = 61.01822 65.43519 63.22670
# Shear Modulus (GPa) = 32.48142 37.51812 34.99977
#
# Velocity S-wave (km/s) = 4.06650 4.37042 4.22120
# Velocity P-wave (km/s) = 7.28787 7.66686 7.47977
#
# Compressibility (1/GPa) = 0.01638855
#
# Stress axis : x y z
#
# Youngs Moduli (GPa) = 92.03330 55.31724 90.84434
#
# Poissons Ratio (x) = 0.26505 0.27009
# Poissons Ratio (y) = 0.44097 0.36490
# Poissons Ratio (z) = 0.27363 0.22219
#
# Static dielectric constant tensor:
#      x y z
#    x 3.697090 0.000000 0.012670 
#    y 0.000000 3.370170 0.000000 
#    z 0.012670 0.000000 3.897990 
# 
# 
# High freq. dielectric constant tensor:
#      x y z
#    x 1.778640 0.000000 0.000780 
#    y 0.000000 1.742200 0.000000 
#    z 0.000780 0.000000 1.781070 
# 
# From -- ./inp_files/198878.got.cif
#   From: 2010.06.25/outbox.cif.g09.slc.cpg/sg12_100_cif.got.tgz:198878.got - 2010.06.28 00:19:55.
