data_PCOD8106485
_publ_section_title
;
Structure prediction by ZEFSAII (Michael W. Deem and Ramdas Pophale) SiO2 
 PCOD8106485
Probable space group: C 2/M
;
_chemical_formula_sum "Si O2"
_cell_formula_units_Z 64
_cell_length_a 24.951734
_cell_length_b 17.661980
_cell_length_c 21.893904
_cell_angle_alpha 90.000000
_cell_angle_beta 19.898905
_cell_angle_gamma 90.000000
_cell_volume 3284.005389
_symmetry_space_group_name_H-M "C 2/M"
_symmetry_group_IT_number 12
_symmetry_cell_setting 'monoclinic'
loop_
_space_group_symop_operation_xyz
x,y,z
-x,y,-z
-x,-y,-z
x,-y,z
1/2+x,1/2+y,z
1/2-x,1/2+y,-z
1/2-x,1/2-y,-z
1/2+x,1/2-y,z
loop_
_atom_site_type_symbol
_atom_site_label
_atom_site_fract_x
_atom_site_fract_y
_atom_site_fract_z
Si Si1 0.134163 0.318902 0.611196
Si Si2 0.104765 0.693231 0.241628
Si Si3 0.446924 0.410283 0.709942
Si Si4 0.070661 0.801080 0.485969
Si Si5 0.811583 0.911772 0.080740
Si Si6 0.841104 0.689119 0.007426
Si Si7 0.068172 0.912100 0.709256
Si Si8 0.347571 0.273591 0.124998
O O1 0.250000 0.250000 0.500000
O O2 0.248779 0.390269 0.480846
O O3 0.036669 0.306987 0.654028
O O4 0.011652 0.330836 0.797264
O O5 0.163341 0.608032 0.194795
O O6 0.259393 0.742357 0.056191
O O7 0.049734 0.736100 0.362183
O O8 0.461144 0.500000 0.687422
O O9 0.578905 0.369542 0.526008
O O10 0.271687 0.384522 0.877302
O O11 0.483476 0.379516 0.739155
O O12 0.234580 0.760755 0.297784
O O13 0.000000 0.836176 0.500000
O O14 0.796632 0.856938 0.155118
O O15 0.804363 0.000000 0.107317
O O16 0.972788 0.889556 0.872475
O O17 0.869673 0.713129 0.046873
O O18 0.061088 0.000000 0.708203
O O19 0.500000 0.289124 0.000000
#
# Coordination Sequence:
#
# PCOD8106485 Si02
#       8
#     8   8   8   8   8   8   8   8
#     4  12  22  33  60  91 118 152 197 242 297 345
#     4  10  21  36  59  85 116 153 198 243 287 341
#     4  10  21  40  65  85 115 160 197 239 293 352
#     4  11  20  40  58  86 117 148 197 246 281 345
#     4  10  21  42  63  83 116 159 199 239 293 356
#     4  10  21  38  56  86 116 153 199 243 284 349
#     4  10  23  39  57  87 121 150 189 241 299 348
#     4  11  24  38  59  84 121 153 190 244 299 339
#
# _framework density 19.488396999999999
#
# number of rings (size 3 to 8) (size 9 to 14) (size 15 to 20)
#    0.000    1.500    3.750    4.125    5.250    1.500 
#    0.000    1.250    0.000    0.750    0.000    0.000 
#    0.000    0.000    0.000    0.000    0.000    0.000 
#
# Total GULP energy -396567.347665 kJ/mol
# GULP energy per Si atom -12392.729615 kJ/mol
# Density = 1.944404 g / cm^3
# Si number density = 19.488397 Si / 1000 Ang^3
#
#
#
# Elastic Constant Matrix: (Units=GPa)
#
#
# Indices 1 2 3 4 5 6 
#
# 1 81.1115 31.9844 27.1897 -0.0067 -13.5530 -0.0088
# 2 31.9844 82.8657 49.5508 -0.0798 4.1562 0.0334
# 3 27.1897 49.5508 99.4893 -0.0019 -2.2816 -0.0100
# 4 -0.0067 -0.0798 -0.0019 32.4019 0.0220 -0.2835
# 5 -13.5530 4.1562 -2.2816 0.0220 34.4466 -0.0131
# 6 -0.0088 0.0334 -0.0100 -0.2835 -0.0131 24.9296
#
#
#
# Elastic Compliance Matrix: (Units=1/GPa)
#
#
# Indices 1 2 3 4 5 6 
#
# 1 0.016249 -0.005787 -0.001398 -0.000016 0.006999 0.000016
# 2 -0.005787 0.019491 -0.008245 0.000050 -0.005175 -0.000034
# 3 -0.001398 -0.008245 0.014572 -0.000021 0.001410 0.000017
# 4 -0.000016 0.000050 -0.000021 0.030866 -0.000033 0.000351
# 5 0.006999 -0.005175 0.001410 -0.000033 0.032502 0.000027
# 6 0.000016 -0.000034 0.000017 0.000351 0.000027 0.040117
#
#
# Mechanical properties :
#
#
# Convention : Reuss Voigt Hill
#
# Bulk Modulus (GPa) = 51.40677 53.43512 52.42094
# Shear Modulus (GPa) = 26.15899 28.67174 27.41537
#
# Velocity S-wave (km/s) = 3.66770 3.83981 3.75474
# Velocity P-wave (km/s) = 6.66119 6.86566 6.76420
#
# Compressibility (1/GPa) = 0.01945269
#
# Stress axis : x y z
#
# Youngs Moduli (GPa) = 61.54379 51.30604 68.62461
#
# Poissons Ratio (x) = 0.29689 0.09594
# Poissons Ratio (y) = 0.35613 0.56579
# Poissons Ratio (z) = 0.08604 0.42300
#
# Static dielectric constant tensor:
#      x y z
#    x 3.578070 -0.000280 0.279880 
#    y -0.000280 3.503190 0.000590 
#    z 0.279880 0.000590 3.049080 
# 
# 
# High freq. dielectric constant tensor:
#      x y z
#    x 1.760210 0.000000 0.000770 
#    y 0.000000 1.746170 0.000010 
#    z 0.000770 0.000010 1.762710 
# 
# From -- ./inp_files/326083.got.cif
#   From: 2010.06.25/outbox.cif.g09.slc.cpg/sg12_164_cif.got.tgz:326083.got - 2010.06.28 00:19:55.
