data_PCOD8106014
_publ_section_title
;
Structure prediction by ZEFSAII (Michael W. Deem and Ramdas Pophale) SiO2 
 PCOD8106014
Probable space group: C 2/M
;
_chemical_formula_sum "Si O2"
_cell_formula_units_Z 64
_cell_length_a 17.882580
_cell_length_b 8.959235
_cell_length_c 30.290830
_cell_angle_alpha 90.000000
_cell_angle_beta 42.552174
_cell_angle_gamma 90.000000
_cell_volume 3281.911096
_symmetry_space_group_name_H-M "C 2/M"
_symmetry_group_IT_number 12
_symmetry_cell_setting 'monoclinic'
loop_
_space_group_symop_operation_xyz
x,y,z
-x,y,-z
-x,-y,-z
x,-y,z
1/2+x,1/2+y,z
1/2-x,1/2+y,-z
1/2-x,1/2-y,-z
1/2+x,1/2-y,z
loop_
_atom_site_type_symbol
_atom_site_label
_atom_site_fract_x
_atom_site_fract_y
_atom_site_fract_z
Si Si1 0.662124 0.826092 0.807272
Si Si2 0.565974 0.827661 0.676956
Si Si3 0.681551 0.174366 0.192371
Si Si4 0.741370 0.172123 0.676033
Si Si5 0.253668 0.323596 0.065768
Si Si6 0.132808 0.176211 0.559249
Si Si7 0.082073 0.676379 0.066275
Si Si8 0.530182 0.172372 0.436437
O O1 0.758212 0.748974 0.792875
O O2 0.679070 0.791842 0.748499
O O3 0.542241 0.763397 0.873419
O O4 0.668830 0.000000 0.814241
O O5 0.447947 0.788718 0.749284
O O6 0.657925 0.790919 0.673054
O O7 0.584416 0.722799 0.627254
O O8 0.571698 0.000000 0.659424
O O9 0.728338 0.236912 0.125761
O O10 0.703294 0.000000 0.186088
O O11 0.844563 0.280752 0.626538
O O12 0.780538 0.000000 0.657393
O O13 0.268061 0.500000 0.059130
O O14 0.152840 0.273889 0.078100
O O15 0.367546 0.250031 0.999649
O O16 0.250000 0.250000 0.500000
O O17 0.049661 0.225401 0.557419
O O18 0.147238 0.000000 0.551350
O O19 0.084283 0.500000 0.059620
O O20 0.500000 0.199866 0.500000
O O21 0.515280 0.000000 0.429306
#
# Coordination Sequence:
#
# PCOD8106014 Si02
#       8
#     8   8   8   8   8   8   8   8
#     4  10  21  36  54  79 111 145 183 228 277 331
#     4  10  21  39  62  86 114 149 189 232 282 337
#     4  10  21  36  55  80 111 147 184 226 277 331
#     4  10  21  38  61  86 112 147 189 232 281 336
#     4   9  18  34  55  78 105 139 182 228 273 327
#     4  12  25  41  62  88 119 153 190 232 279 331
#     4   9  18  34  55  77 104 140 181 226 276 328
#     4  11  24  41  61  87 119 152 188 232 280 330
#
# _framework density 19.500831999999999
#
# number of rings (size 3 to 8) (size 9 to 14) (size 15 to 20)
#    0.000    1.875    0.000    3.750    0.000   11.000 
#    0.000    2.500    0.000    4.500    0.000    0.000 
#    0.000    0.000    0.000    0.000    0.000    0.000 
#
# Total GULP energy -396948.978044 kJ/mol
# GULP energy per Si atom -12404.655564 kJ/mol
# Density = 1.945645 g / cm^3
# Si number density = 19.500832 Si / 1000 Ang^3
#
#
#
# Elastic Constant Matrix: (Units=GPa)
#
#
# Indices 1 2 3 4 5 6 
#
# 1 108.6490 47.7003 47.1717 -0.0009 -2.2851 -0.0023
# 2 47.7003 76.4406 55.4491 -0.0022 2.3559 -0.0026
# 3 47.1717 55.4491 127.4084 0.0004 -3.1826 0.0004
# 4 -0.0009 -0.0022 0.0004 25.4524 0.0001 -8.2775
# 5 -2.2851 2.3559 -3.1826 0.0001 39.5610 -0.0002
# 6 -0.0023 -0.0026 0.0004 -8.2775 -0.0002 25.7228
#
#
#
# Elastic Compliance Matrix: (Units=1/GPa)
#
#
# Indices 1 2 3 4 5 6 
#
# 1 0.013015 -0.006833 -0.001820 0.000000 0.001012 0.000001
# 2 -0.006833 0.022835 -0.007467 0.000003 -0.002355 0.000003
# 3 -0.001820 -0.007467 0.011804 -0.000001 0.001289 -0.000002
# 4 0.000000 0.000003 -0.000001 0.043881 0.000000 0.014121
# 5 0.001012 -0.002355 0.001289 0.000000 0.025580 0.000000
# 6 0.000001 0.000003 -0.000002 0.014121 0.000000 0.043420
#
#
# Mechanical properties :
#
#
# Convention : Reuss Voigt Hill
#
# Bulk Modulus (GPa) = 64.87046 68.12671 66.49858
# Shear Modulus (GPa) = 25.26361 28.95905 27.11133
#
# Velocity S-wave (km/s) = 3.60323 3.85777 3.73267
# Velocity P-wave (km/s) = 7.11679 7.40637 7.26302
#
# Compressibility (1/GPa) = 0.01541534
#
# Stress axis : x y z
#
# Youngs Moduli (GPa) = 76.83347 43.79254 84.71425
#
# Poissons Ratio (x) = 0.29923 0.15416
# Poissons Ratio (y) = 0.52500 0.63256
# Poissons Ratio (z) = 0.13982 0.32700
#
# Static dielectric constant tensor:
#      x y z
#    x 3.652010 0.000000 0.017120 
#    y 0.000000 3.482750 0.000000 
#    z 0.017120 0.000000 3.798460 
# 
# 
# High freq. dielectric constant tensor:
#      x y z
#    x 1.767500 0.000000 0.000200 
#    y 0.000000 1.750040 0.000000 
#    z 0.000200 0.000000 1.777150 
# 
# From -- ./inp_files/378058.got.cif
#   From: 2010.06.25/outbox.cif.g09.slc.cpg/sg12_190_cif.got.tgz:378058.got - 2010.06.28 00:19:55.
