data_PCOD8106067
_publ_section_title
;
Structure prediction by ZEFSAII (Michael W. Deem and Ramdas Pophale) SiO2 
 PCOD8106067
Probable space group: C 2/M
;
_chemical_formula_sum "Si O2"
_cell_formula_units_Z 40
_cell_length_a 25.034931
_cell_length_b 9.349665
_cell_length_c 9.120590
_cell_angle_alpha 90.000000
_cell_angle_beta 89.510903
_cell_angle_gamma 90.000000
_cell_volume 2134.762468
_symmetry_space_group_name_H-M "C 2/M"
_symmetry_group_IT_number 12
_symmetry_cell_setting 'monoclinic'
loop_
_space_group_symop_operation_xyz
x,y,z
-x,y,-z
-x,-y,-z
x,-y,z
1/2+x,1/2+y,z
1/2-x,1/2+y,-z
1/2-x,1/2-y,-z
1/2+x,1/2-y,z
loop_
_atom_site_type_symbol
_atom_site_label
_atom_site_fract_x
_atom_site_fract_y
_atom_site_fract_z
Si Si1 0.690741 0.666452 0.851939
Si Si2 0.811855 0.665473 0.861286
Si Si3 0.004326 0.163610 0.168572
Si Si4 0.091590 0.332057 0.343685
Si Si5 0.400528 0.336271 0.360764
O O1 0.683642 0.500000 0.886722
O O2 0.751886 0.707613 0.813789
O O3 0.655093 0.710289 0.713426
O O4 0.670190 0.748016 0.996070
O O5 0.815584 0.500000 0.903761
O O6 0.850653 0.703649 0.726312
O O7 0.046091 0.267781 0.242936
O O8 0.946680 0.184979 0.241185
O O9 0.023998 0.000000 0.185131
O O10 0.000000 0.208173 0.000000
O O11 0.081702 0.500000 0.357762
O O12 0.088152 0.264945 0.503590
O O13 0.398234 0.500000 0.416010
#
# Coordination Sequence:
#
# PCOD8106067 Si02
#       5
#     8   8   8   8   8
#     4   9  18  35  58  80 103 136 178 220 261 306
#     4   9  19  35  54  79 109 138 173 217 261 309
#     4  10  21  38  59  80 102 133 177 223 262 306
#     4  11  23  36  52  78 112 144 172 209 261 317
#     4  10  21  36  55  79 106 137 176 220 261 306
#
# _framework density 18.737447
#
# number of rings (size 3 to 8) (size 9 to 14) (size 15 to 20)
#    0.000    2.200    0.000    2.400    0.000    8.400 
#    0.000    0.000    0.000    0.000    0.000    0.000 
#    0.000    0.000    0.000    0.000    0.000    0.000 
#
# Total GULP energy -248078.716803 kJ/mol
# GULP energy per Si atom -12403.935840 kJ/mol
# Density = 1.869480 g / cm^3
# Si number density = 18.737447 Si / 1000 Ang^3
#
#
#
# Elastic Constant Matrix: (Units=GPa)
#
#
# Indices 1 2 3 4 5 6 
#
# 1 94.7777 48.4845 57.1269 0.0000 15.4567 0.0000
# 2 48.4845 75.1712 61.1332 0.0000 13.4288 0.0000
# 3 57.1269 61.1332 133.7847 0.0000 17.5978 0.0000
# 4 0.0000 0.0000 0.0000 30.4541 0.0000 0.5817
# 5 15.4567 13.4288 17.5978 0.0000 25.8804 0.0000
# 6 0.0000 0.0000 0.0000 0.5817 0.0000 28.9716
#
#
#
# Elastic Compliance Matrix: (Units=1/GPa)
#
#
# Indices 1 2 3 4 5 6 
#
# 1 0.017090 -0.007639 -0.003279 0.000000 -0.004013 0.000000
# 2 -0.007639 0.025152 -0.007813 0.000000 -0.003175 0.000000
# 3 -0.003279 -0.007813 0.012799 0.000000 -0.002690 0.000000
# 4 0.000000 0.000000 0.000000 0.032849 0.000000 -0.000660
# 5 -0.004013 -0.003175 -0.002690 0.000000 0.044513 0.000000
# 6 0.000000 0.000000 0.000000 -0.000660 0.000000 0.034530
#
#
# Mechanical properties :
#
#
# Convention : Reuss Voigt Hill
#
# Bulk Modulus (GPa) = 56.89062 70.80253 63.84658
# Shear Modulus (GPa) = 23.78071 26.19382 24.98727
#
# Velocity S-wave (km/s) = 3.56638 3.74296 3.65574
# Velocity P-wave (km/s) = 6.88380 7.51986 7.20885
#
# Compressibility (1/GPa) = 0.01757759
#
# Stress axis : x y z
#
# Youngs Moduli (GPa) = 58.51489 39.75867 78.13107
#
# Poissons Ratio (x) = 0.30373 0.25617
# Poissons Ratio (y) = 0.44701 0.61047
# Poissons Ratio (z) = 0.19185 0.31065
#
# Static dielectric constant tensor:
#      x y z
#    x 3.685490 0.000000 -0.022070 
#    y 0.000000 3.442880 0.000000 
#    z -0.022070 0.000000 3.382520 
# 
# 
# High freq. dielectric constant tensor:
#      x y z
#    x 1.741000 0.000000 -0.000600 
#    y 0.000000 1.725400 0.000000 
#    z -0.000600 0.000000 1.726690 
# 
# From -- ./inp_files/92731.got.cif
#   From: 2010.06.25/outbox.cif.g09.slc.cpg/sg12_47_cif.got.tgz:92731.got - 2010.06.28 00:19:55.
