data_PCOD8106861
_publ_section_title
;
Structure prediction by ZEFSAII (Michael W. Deem and Ramdas Pophale) SiO2 
 PCOD8106861
Probable space group: C 2/M
;
_chemical_formula_sum "Si O2"
_cell_formula_units_Z 56
_cell_length_a 16.048430
_cell_length_b 16.232441
_cell_length_c 11.633434
_cell_angle_alpha 90.000000
_cell_angle_beta 62.526504
_cell_angle_gamma 90.000000
_cell_volume 2688.795427
_symmetry_space_group_name_H-M "C 2/M"
_symmetry_group_IT_number 12
_symmetry_cell_setting 'monoclinic'
loop_
_space_group_symop_operation_xyz
x,y,z
-x,y,-z
-x,-y,-z
x,-y,z
1/2+x,1/2+y,z
1/2-x,1/2+y,-z
1/2-x,1/2-y,-z
1/2+x,1/2-y,z
loop_
_atom_site_type_symbol
_atom_site_label
_atom_site_fract_x
_atom_site_fract_y
_atom_site_fract_z
Si Si1 0.605118 0.678620 0.551552
Si Si2 0.640198 0.857480 0.244311
Si Si3 0.897961 0.833442 0.708478
Si Si4 0.240606 0.410238 0.403390
Si Si5 0.235537 0.658568 0.961158
Si Si6 0.567326 0.863636 0.636960
Si Si7 0.096244 0.406557 0.873242
O O1 0.632133 0.650154 0.405011
O O2 0.506056 0.638420 0.654814
O O3 0.687422 0.652985 0.584512
O O4 0.590173 0.776460 0.561685
O O5 0.617115 0.761571 0.250668
O O6 0.714177 0.876754 0.295692
O O7 0.537011 0.898532 0.327655
O O8 0.690602 0.892274 0.096053
O O9 0.832427 0.879655 0.845075
O O10 0.288711 0.500000 0.362587
O O11 0.145986 0.423842 0.536994
O O12 0.164464 0.654015 0.899598
O O13 0.250000 0.750000 0.000000
O O14 0.578247 0.858930 0.766322
O O15 0.136861 0.500000 0.830139
O O16 0.000000 0.414039 0.000000
#
# Coordination Sequence:
#
# PCOD8106861 Si02
#       7
#     8   8   8   8   8   8   8
#     4  10  21  39  63  88 120 153 208 257 294 351
#     4  10  21  37  56  90 122 155 196 245 298 368
#     4   9  19  39  63  87 110 155 208 257 291 337
#     4  12  25  37  57  92 126 159 196 247 313 365
#     4  10  21  38  61  88 120 159 209 241 295 362
#     4  11  21  38  63  87 119 162 206 243 301 363
#     4  11  23  38  58  90 128 158 195 250 305 357
#
# _framework density 20.827169999999999
#
# number of rings (size 3 to 8) (size 9 to 14) (size 15 to 20)
#    0.000    1.571    2.857    2.143    4.000    2.286 
#    0.000    2.857    0.000    0.857    0.000    0.000 
#    0.000    0.000    0.000    0.000    0.000    0.000 
#
# Total GULP energy -346951.631902 kJ/mol
# GULP energy per Si atom -12391.129711 kJ/mol
# Density = 2.077977 g / cm^3
# Si number density = 20.827170 Si / 1000 Ang^3
#
#
#
# Elastic Constant Matrix: (Units=GPa)
#
#
# Indices 1 2 3 4 5 6 
#
# 1 131.8276 16.6238 57.7966 0.0000 3.2927 0.0000
# 2 16.6238 39.0576 -1.9464 0.0000 -5.6200 0.0000
# 3 57.7966 -1.9464 145.3177 0.0000 -13.5063 0.0000
# 4 0.0000 0.0000 0.0000 4.0555 0.0000 -2.2421
# 5 3.2927 -5.6200 -13.5063 0.0000 38.7105 0.0000
# 6 0.0000 0.0000 0.0000 -2.2421 0.0000 -10.0367
#
#
#
# Elastic Compliance Matrix: (Units=1/GPa)
#
#
# Indices 1 2 3 4 5 6 
#
# 1 0.010243 -0.005034 -0.004434 0.000000 -0.003149 0.000000
# 2 -0.005034 0.028698 0.002908 0.000000 0.005609 0.000000
# 3 -0.004434 0.002908 0.009052 0.000000 0.003958 0.000000
# 4 0.000000 0.000000 0.000000 0.219474 0.000000 -0.049029
# 5 -0.003149 0.005609 0.003958 0.000000 0.028296 0.000000
# 6 0.000000 0.000000 0.000000 -0.049029 0.000000 -0.088682
#
#
# Mechanical properties :
#
#
# Convention : Reuss Voigt Hill
#
# Bulk Modulus (GPa) = 28.67597 51.23899 39.95748
# Shear Modulus (GPa) = 21.56803 22.79445 22.18124
#
# Velocity S-wave (km/s) = 3.22152 3.31185 3.26700
# Velocity P-wave (km/s) = 5.25700 6.26736 5.78428
#
# Compressibility (1/GPa) = 0.03487240
#
# Stress axis : x y z
#
# Youngs Moduli (GPa) = 97.62672 34.84604 110.47538
#
# Poissons Ratio (x) = 0.17541 0.48985
# Poissons Ratio (y) = 0.49143 -0.32124
# Poissons Ratio (z) = 0.43288 -0.10132
#
# Static dielectric constant tensor:
#      x y z
#    x 3.996270 0.000000 -0.352900 
#    y 0.000000 3.442830 0.000000 
#    z -0.352900 0.000000 4.408340 
# 
# 
# High freq. dielectric constant tensor:
#      x y z
#    x 1.818030 0.000000 -0.003870 
#    y 0.000000 1.773960 0.000000 
#    z -0.003870 0.000000 1.834880 
# 
# From -- ./inp_files/145515.got.cif
#   From: 2010.06.25/outbox.cif.g09.slc.cpg/sg12_73_cif.got.tgz:145515.got - 2010.06.28 00:19:55.
