data_PCOD8106949
_publ_section_title
;
Structure prediction by ZEFSAII (Michael W. Deem and Ramdas Pophale) SiO2 
 PCOD8106949
Probable space group: C 2/M
;
_chemical_formula_sum "Si O2"
_cell_formula_units_Z 56
_cell_length_a 9.054674
_cell_length_b 17.930804
_cell_length_c 18.503222
_cell_angle_alpha 90.000000
_cell_angle_beta 75.837184
_cell_angle_gamma 90.000000
_cell_volume 2912.825682
_symmetry_space_group_name_H-M "C 2/M"
_symmetry_group_IT_number 12
_symmetry_cell_setting 'monoclinic'
loop_
_space_group_symop_operation_xyz
x,y,z
-x,y,-z
-x,-y,-z
x,-y,z
1/2+x,1/2+y,z
1/2-x,1/2+y,-z
1/2-x,1/2-y,-z
1/2+x,1/2-y,z
loop_
_atom_site_type_symbol
_atom_site_label
_atom_site_fract_x
_atom_site_fract_y
_atom_site_fract_z
Si Si1 0.886071 0.084988 0.574703
Si Si2 0.314058 0.329113 0.721492
Si Si3 0.460774 0.084988 0.425297
Si Si4 0.464450 0.829113 0.721492
Si Si5 0.255633 0.587262 0.148626
Si Si6 0.095741 0.087262 0.148626
Si Si7 0.826672 0.828865 0.000000
O O1 0.904121 0.136681 0.642621
O O2 0.718704 0.089767 0.562591
O O3 0.000000 0.115482 0.500000
O O4 0.927517 0.000000 0.591281
O O5 0.383186 0.250000 0.733628
O O6 0.333740 0.385212 0.785199
O O7 0.137007 0.319768 0.725987
O O8 0.500000 0.115482 0.500000
O O9 0.546742 0.136681 0.357379
O O10 0.518798 0.000000 0.408719
O O11 0.381062 0.885212 0.785199
O O12 0.238161 0.500000 0.138114
O O13 0.416554 0.606879 0.166892
O O14 0.240382 0.625846 0.072678
O O15 0.123725 0.000000 0.138114
O O16 0.186940 0.125846 0.072678
O O17 0.750000 0.750000 0.000000
O O18 0.000000 0.816026 0.000000
#
# Coordination Sequence:
#
# PCOD8106949 Si02
#       7
#     8   8   8   8   8   8   8
#     4   9  19  36  57  80 107 141 181 226 275 327
#     4  11  23  38  56  81 114 148 185 230 278 328
#     4   9  19  36  57  80 107 141 181 226 275 327
#     4  11  23  38  56  81 114 148 185 230 278 328
#     4  10  21  38  60  84 111 146 187 229 275 328
#     4  10  21  38  60  84 111 146 187 229 275 328
#     4  10  21  37  57  83 115 148 183 226 274 324
#
# _framework density 19.225318000000001
#
# number of rings (size 3 to 8) (size 9 to 14) (size 15 to 20)
#    0.000    2.000    0.000    3.000    0.000    9.714 
#    0.000    5.714    0.000    2.571    0.000    0.000 
#    0.000    0.000    0.000    0.000    0.000    0.000 
#
# Total GULP energy -347332.938258 kJ/mol
# GULP energy per Si atom -12404.747795 kJ/mol
# Density = 1.918156 g / cm^3
# Si number density = 19.225318 Si / 1000 Ang^3
#
#
#
# Elastic Constant Matrix: (Units=GPa)
#
#
# Indices 1 2 3 4 5 6 
#
# 1 51.2676 35.1376 52.1323 0.0000 3.1224 0.0000
# 2 35.1376 107.8624 59.6520 0.0000 1.1713 0.0000
# 3 52.1323 59.6520 154.1736 0.0000 1.7942 0.0000
# 4 0.0000 0.0000 0.0000 28.1112 0.0000 -0.0936
# 5 3.1224 1.1713 1.7942 0.0000 32.1805 0.0000
# 6 0.0000 0.0000 0.0000 -0.0936 0.0000 30.0699
#
#
#
# Elastic Compliance Matrix: (Units=1/GPa)
#
#
# Indices 1 2 3 4 5 6 
#
# 1 0.032453 -0.005715 -0.008734 0.000000 -0.002454 0.000000
# 2 -0.005715 0.012802 -0.003024 0.000000 0.000257 0.000000
# 3 -0.008734 -0.003024 0.010605 0.000000 0.000366 0.000000
# 4 0.000000 0.000000 0.000000 0.035573 0.000000 0.000111
# 5 -0.002454 0.000257 0.000366 0.000000 0.031283 0.000000
# 6 0.000000 0.000000 0.000000 0.000111 0.000000 0.033256
#
#
# Mechanical properties :
#
#
# Convention : Reuss Voigt Hill
#
# Bulk Modulus (GPa) = 47.81293 67.46080 57.63687
# Shear Modulus (GPa) = 25.26642 29.16442 27.21542
#
# Velocity S-wave (km/s) = 3.62916 3.89907 3.76653
# Velocity P-wave (km/s) = 6.51804 7.44554 6.99717
#
# Compressibility (1/GPa) = 0.02091484
#
# Stress axis : x y z
#
# Youngs Moduli (GPa) = 30.81354 78.11028 94.29342
#
# Poissons Ratio (x) = 0.44642 0.82355
# Poissons Ratio (y) = 0.17611 0.28513
# Poissons Ratio (z) = 0.26912 0.23620
#
# Static dielectric constant tensor:
#      x y z
#    x 3.525710 0.000000 0.008850 
#    y 0.000000 3.544150 0.000000 
#    z 0.008850 0.000000 3.710920 
# 
# 
# High freq. dielectric constant tensor:
#      x y z
#    x 1.742060 0.000000 0.001020 
#    y 0.000000 1.756080 0.000000 
#    z 0.001020 0.000000 1.763390 
# 
# From -- ./inp_files/257040.got.cif
#   From: 2010.06.25/outbox.cif.g09.slc.cpg/sg12_129_cif.got.tgz:257040.got - 2010.06.28 00:19:55.
