data_PCOD8106764
_publ_section_title
;
Structure prediction by ZEFSAII (Michael W. Deem and Ramdas Pophale) SiO2 
 PCOD8106764
Probable space group: C 2/M
;
_chemical_formula_sum "Si O2"
_cell_formula_units_Z 44
_cell_length_a 20.521066
_cell_length_b 22.594670
_cell_length_c 5.230044
_cell_angle_alpha 90.000000
_cell_angle_beta 68.491070
_cell_angle_gamma 90.000000
_cell_volume 2256.121558
_symmetry_space_group_name_H-M "C 2/M"
_symmetry_group_IT_number 12
_symmetry_cell_setting 'monoclinic'
loop_
_space_group_symop_operation_xyz
x,y,z
-x,y,-z
-x,-y,-z
x,-y,z
1/2+x,1/2+y,z
1/2-x,1/2+y,-z
1/2-x,1/2-y,-z
1/2+x,1/2-y,z
loop_
_atom_site_type_symbol
_atom_site_label
_atom_site_fract_x
_atom_site_fract_y
_atom_site_fract_z
Si Si1 0.500000 0.358250 0.000000
Si Si2 0.666674 0.500000 0.163895
Si Si3 0.742939 0.000000 0.469372
Si Si4 0.426881 0.278624 0.727905
Si Si5 0.119300 0.888368 0.496233
Si Si6 0.803124 0.696296 0.917125
Si Si7 0.269581 0.875212 0.466258
O O1 0.557955 0.315231 0.039167
O O2 0.455420 0.399472 0.255423
O O3 0.727087 0.500000 0.287254
O O4 0.622405 0.439494 0.274566
O O5 0.696657 0.500000 0.835145
O O6 0.696185 0.939917 0.520810
O O7 0.500000 0.258191 0.500000
O O8 0.381685 0.322308 0.615725
O O9 0.381831 0.219951 0.844771
O O10 0.185867 0.888662 0.591794
O O11 0.794548 0.668605 0.649461
O O12 0.750000 0.750000 0.000000
O O13 0.789706 0.648536 0.157489
#
# Coordination Sequence:
#
# PCOD8106764 Si02
#       7
#     4   4   4   8   8   8   8
#     4  10  22  37  56  74 120 163 202 242 294 344
#     4  10  22  35  61  79 118 158 210 239 283 341
#     4  10  22  40  58  88 120 155 190 247 303 355
#     4  10  23  38  56  82 123 159 194 243 302 350
#     4  10  21  37  55  83 115 164 197 247 288 343
#     4  12  23  36  62  93 118 152 199 246 293 361
#     4  11  23  38  63  88 119 151 196 246 301 345
#
# _framework density 19.502493999999999
#
# number of rings (size 3 to 8) (size 9 to 14) (size 15 to 20)
#    0.000    1.455    1.818    3.818   10.182    0.364 
#    0.000    4.091    0.000    0.000    0.000    3.818 
#    0.000    0.000    0.000    0.000    0.000    0.000 
#
# Total GULP energy -272660.769898 kJ/mol
# GULP energy per Si atom -12393.671359 kJ/mol
# Density = 1.945811 g / cm^3
# Si number density = 19.502494 Si / 1000 Ang^3
#
#
#
# Elastic Constant Matrix: (Units=GPa)
#
#
# Indices 1 2 3 4 5 6 
#
# 1 58.7325 29.8907 16.9487 0.0000 -4.8224 0.0000
# 2 29.8907 107.8451 35.3621 0.0000 -19.7417 0.0000
# 3 16.9487 35.3621 88.1034 0.0000 -1.2314 0.0000
# 4 0.0000 0.0000 0.0000 38.8265 0.0000 0.6081
# 5 -4.8224 -19.7417 -1.2314 0.0000 25.3512 0.0000
# 6 0.0000 0.0000 0.0000 0.6081 0.0000 19.8304
#
#
#
# Elastic Compliance Matrix: (Units=1/GPa)
#
#
# Indices 1 2 3 4 5 6 
#
# 1 0.020089 -0.004983 -0.001866 0.000000 -0.000150 0.000000
# 2 -0.004983 0.013890 -0.004481 0.000000 0.009651 0.000000
# 3 -0.001866 -0.004481 0.013463 0.000000 -0.003191 0.000000
# 4 0.000000 0.000000 0.000000 0.025768 0.000000 -0.000790
# 5 -0.000150 0.009651 -0.003191 0.000000 0.046778 0.000000
# 6 0.000000 0.000000 0.000000 -0.000790 0.000000 0.050452
#
#
# Mechanical properties :
#
#
# Convention : Reuss Voigt Hill
#
# Bulk Modulus (GPa) = 40.35568 46.56489 43.46029
# Shear Modulus (GPa) = 24.83091 28.30025 26.56558
#
# Velocity S-wave (km/s) = 3.57209 3.81348 3.69475
# Velocity P-wave (km/s) = 6.14415 6.58167 6.36667
#
# Compressibility (1/GPa) = 0.02477966
#
# Stress axis : x y z
#
# Youngs Moduli (GPa) = 49.77898 71.99523 74.27509
#
# Poissons Ratio (x) = 0.35877 0.13863
# Poissons Ratio (y) = 0.24806 0.33286
# Poissons Ratio (z) = 0.09291 0.32264
#
# Static dielectric constant tensor:
#      x y z
#    x 3.460710 0.000000 -0.029870 
#    y 0.000000 3.952780 0.000000 
#    z -0.029870 0.000000 3.673890 
# 
# 
# High freq. dielectric constant tensor:
#      x y z
#    x 1.723780 0.000000 0.016080 
#    y 0.000000 1.761860 0.000000 
#    z 0.016080 0.000000 1.768530 
# 
# From -- ./inp_files/20911.got.cif
#   From: 2010.06.25/outbox.cif.g09.slc.cpg/sg12_11_cif.got.tgz:20911.got - 2010.06.28 00:19:55.
