data_PCOD8106731
_publ_section_title
;
Structure prediction by ZEFSAII (Michael W. Deem and Ramdas Pophale) SiO2 
 PCOD8106731
Probable space group: C 2/M
;
_chemical_formula_sum "Si O2"
_cell_formula_units_Z 64
_cell_length_a 18.251278
_cell_length_b 9.019367
_cell_length_c 20.501031
_cell_angle_alpha 90.000000
_cell_angle_beta 92.692604
_cell_angle_gamma 90.000000
_cell_volume 3371.050764
_symmetry_space_group_name_H-M "C 2/M"
_symmetry_group_IT_number 12
_symmetry_cell_setting 'monoclinic'
loop_
_space_group_symop_operation_xyz
x,y,z
-x,y,-z
-x,-y,-z
x,-y,z
1/2+x,1/2+y,z
1/2-x,1/2+y,-z
1/2-x,1/2-y,-z
1/2+x,1/2-y,z
loop_
_atom_site_type_symbol
_atom_site_label
_atom_site_fract_x
_atom_site_fract_y
_atom_site_fract_z
Si Si1 0.326799 0.674118 0.575998
Si Si2 0.076680 0.824608 0.298569
Si Si3 0.187947 0.673585 0.792996
Si Si4 0.660711 0.664633 0.056457
Si Si5 0.658806 0.823840 0.188019
Si Si6 0.572532 0.827563 0.676802
Si Si7 0.338740 0.172717 0.446670
Si Si8 0.834933 0.336385 0.066381
O O1 0.334358 0.500000 0.568643
O O2 0.369051 0.728834 0.641835
O O3 0.363719 0.745780 0.513607
O O4 0.242311 0.725461 0.578912
O O5 0.097656 0.738106 0.234136
O O6 0.994925 0.780099 0.314353
O O7 0.081771 0.000000 0.286966
O O8 0.209852 0.500000 0.795933
O O9 0.262015 0.765417 0.786123
O O10 0.134618 0.711071 0.731861
O O11 0.147520 0.718790 0.859229
O O12 0.628064 0.500000 0.064821
O O13 0.636441 0.768490 0.115083
O O14 0.747760 0.658331 0.056023
O O15 0.629926 0.729207 0.986619
O O16 0.658688 0.000000 0.188494
O O17 0.603831 0.788269 0.607152
O O18 0.549512 0.000000 0.681014
O O19 0.337549 0.000000 0.461796
O O20 0.867956 0.500000 0.056334
#
# Coordination Sequence:
#
# PCOD8106731 Si02
#       8
#     8   8   8   8   8   8   8   8
#     4   9  19  36  57  79 104 136 172 211 258 310
#     4  11  23  38  54  74 105 142 178 217 263 312
#     4   9  18  34  55  77 106 141 174 214 264 314
#     4   9  16  27  45  71 104 137 168 210 263 311
#     4  11  21  33  53  79 105 135 176 221 262 312
#     4  10  21  37  55  77 107 142 178 215 260 311
#     4   9  18  34  57  81 105 134 170 214 259 306
#     4   8  14  25  44  72 102 133 169 209 256 309
#
# _framework density 18.98518
#
# number of rings (size 3 to 8) (size 9 to 14) (size 15 to 20)
#    0.000    2.500    0.000    3.375    0.000    7.500 
#    0.000    5.000    0.000    0.750    0.000    5.250 
#    0.000    0.000    0.000    0.000    0.000    0.000 
#
# Total GULP energy -396796.520197 kJ/mol
# GULP energy per Si atom -12399.891256 kJ/mol
# Density = 1.894197 g / cm^3
# Si number density = 18.985180 Si / 1000 Ang^3
#
#
#
# Elastic Constant Matrix: (Units=GPa)
#
#
# Indices 1 2 3 4 5 6 
#
# 1 48.6399 31.5195 27.7211 0.0000 -19.3874 0.0000
# 2 31.5195 87.8390 45.1703 0.0000 -12.7209 0.0000
# 3 27.7211 45.1703 106.1710 0.0000 -24.4800 0.0000
# 4 0.0000 0.0000 0.0000 35.7030 0.0000 -3.9603
# 5 -19.3874 -12.7209 -24.4800 0.0000 14.4244 0.0000
# 6 0.0000 0.0000 0.0000 -3.9603 0.0000 26.0915
#
#
#
# Elastic Compliance Matrix: (Units=1/GPa)
#
#
# Indices 1 2 3 4 5 6 
#
# 1 0.054782 -0.013139 0.009187 0.000000 0.077636 0.000000
# 2 -0.013139 0.017854 -0.007568 0.000000 -0.014758 0.000000
# 3 0.009187 -0.007568 0.018972 0.000000 0.037871 0.000000
# 4 0.000000 0.000000 0.000000 0.028489 0.000000 0.004324
# 5 0.077636 -0.014758 0.037871 0.000000 0.224933 0.000000
# 6 0.000000 0.000000 0.000000 0.004324 0.000000 0.038983
#
#
# Mechanical properties :
#
#
# Convention : Reuss Voigt Hill
#
# Bulk Modulus (GPa) = 14.58406 50.16355 32.37380
# Shear Modulus (GPa) = 11.63040 24.45971 18.04505
#
# Velocity S-wave (km/s) = 2.47777 3.59326 3.08633
# Velocity P-wave (km/s) = 3.98551 6.61024 5.45800
#
# Compressibility (1/GPa) = 0.06856801
#
# Stress axis : x y z
#
# Youngs Moduli (GPa) = 18.25407 56.01117 52.70913
#
# Poissons Ratio (x) = 0.73591 -0.48423
# Poissons Ratio (y) = 0.23983 0.39891
# Poissons Ratio (z) = -0.16770 0.42390
#
# Static dielectric constant tensor:
#      x y z
#    x 3.119690 0.000000 -0.008180 
#    y 0.000000 3.496070 0.000000 
#    z -0.008180 0.000000 3.796160 
# 
# 
# High freq. dielectric constant tensor:
#      x y z
#    x 1.697590 0.000000 -0.005930 
#    y 0.000000 1.734900 0.000000 
#    z -0.005930 0.000000 1.756990 
# 
# From -- ./inp_files/314137.got.cif
#   From: 2010.06.25/outbox.cif.g09.slc.cpg/sg12_158_cif.got.tgz:314137.got - 2010.06.28 00:19:55.
