data_PCOD8106437
_publ_section_title
;
Structure prediction by ZEFSAII (Michael W. Deem and Ramdas Pophale) SiO2 
 PCOD8106437
Probable space group: C 2/M
;
_chemical_formula_sum "Si O2"
_cell_formula_units_Z 48
_cell_length_a 27.047163
_cell_length_b 12.217585
_cell_length_c 5.591880
_cell_angle_alpha 90.000000
_cell_angle_beta 93.599168
_cell_angle_gamma 90.000000
_cell_volume 1844.197800
_symmetry_space_group_name_H-M "C 2/M"
_symmetry_group_IT_number 12
_symmetry_cell_setting 'monoclinic'
loop_
_space_group_symop_operation_xyz
x,y,z
-x,y,-z
-x,-y,-z
x,-y,z
1/2+x,1/2+y,z
1/2-x,1/2+y,-z
1/2-x,1/2-y,-z
1/2+x,1/2-y,z
loop_
_atom_site_type_symbol
_atom_site_label
_atom_site_fract_x
_atom_site_fract_y
_atom_site_fract_z
Si Si1 0.552456 0.375526 0.739622
Si Si2 0.756674 0.126125 0.135653
Si Si3 0.619193 0.768303 0.429801
Si Si4 0.712771 0.128427 0.621090
Si Si5 0.854417 0.119447 0.939946
Si Si6 0.518181 0.175993 0.254167
O O1 0.536284 0.500000 0.673105
O O2 0.588149 0.324599 0.552909
O O3 0.503360 0.301701 0.756640
O O4 0.587170 0.374045 0.983484
O O5 0.734496 0.181255 0.877591
O O6 0.816910 0.137560 0.152022
O O7 0.739205 0.000000 0.120244
O O8 0.738660 0.174920 0.384970
O O9 0.653482 0.846782 0.601179
O O10 0.657349 0.710260 0.260818
O O11 0.577605 0.836151 0.270025
O O12 0.721870 0.000000 0.636803
O O13 0.842232 0.000000 0.827034
O O14 0.500000 0.120231 0.500000
O O15 0.500000 0.118375 0.000000
#
# Coordination Sequence:
#
# PCOD8106437 Si02
#       6
#     8   8   8   8   8   8
#     4  10  22  38  58  87 125 163 196 235 295 359
#     4   9  21  40  60  86 121 158 197 247 299 349
#     4  11  23  36  62  86 119 156 208 244 294 351
#     4  10  23  42  63  85 117 159 201 250 303 350
#     4  10  21  36  58  88 124 159 197 242 291 353
#     4  10  21  38  57  84 118 159 192 239 289 347
#
# _framework density 26.027577999999998
#
# number of rings (size 3 to 8) (size 9 to 14) (size 15 to 20)
#    0.000    2.000    1.667    0.500    4.667    5.333 
#    0.000    0.000    0.000    5.000    0.000    0.000 
#    0.000    0.000    0.000    0.000    0.000    0.000 
#
# Total GULP energy -297342.551069 kJ/mol
# GULP energy per Si atom -12389.272961 kJ/mol
# Density = 2.596834 g / cm^3
# Si number density = 26.027578 Si / 1000 Ang^3
#
#
#
# Elastic Constant Matrix: (Units=GPa)
#
#
# Indices 1 2 3 4 5 6 
#
# 1 145.8665 20.3893 58.5967 0.0000 11.1713 0.0000
# 2 20.3893 41.2056 47.7226 0.0000 1.0097 0.0000
# 3 58.5967 47.7226 189.6695 0.0000 10.9050 0.0000
# 4 0.0000 0.0000 0.0000 15.5475 0.0000 25.7593
# 5 11.1713 1.0097 10.9050 0.0000 37.3386 0.0000
# 6 0.0000 0.0000 0.0000 25.7593 0.0000 -34.3322
#
#
#
# Elastic Compliance Matrix: (Units=1/GPa)
#
#
# Indices 1 2 3 4 5 6 
#
# 1 0.008009 -0.001654 -0.001956 0.000000 -0.001780 0.000000
# 2 -0.001654 0.034687 -0.008331 0.000000 0.001990 0.000000
# 3 -0.001956 -0.008331 0.008061 0.000000 -0.001544 0.000000
# 4 0.000000 0.000000 0.000000 0.028674 0.000000 0.021514
# 5 -0.001780 0.001990 -0.001544 0.000000 0.027712 0.000000
# 6 0.000000 0.000000 0.000000 0.021514 0.000000 -0.012985
#
#
# Mechanical properties :
#
#
# Convention : Reuss Voigt Hill
#
# Bulk Modulus (GPa) = 37.20886 70.01763 53.61324
# Shear Modulus (GPa) = 39.37082 20.37965 29.87524
#
# Velocity S-wave (km/s) = 3.89351 2.80125 3.39164
# Velocity P-wave (km/s) = 5.87703 6.11739 5.99841
#
# Compressibility (1/GPa) = 0.02687532
#
# Stress axis : x y z
#
# Youngs Moduli (GPa) = 124.86300 28.82945 124.04808
#
# Poissons Ratio (x) = 0.04769 0.24259
# Poissons Ratio (y) = 0.20656 1.03342
# Poissons Ratio (z) = 0.24419 0.24017
#
# Static dielectric constant tensor:
#      x y z
#    x 4.862440 0.000000 0.206390 
#    y 0.000000 4.500130 0.000000 
#    z 0.206390 0.000000 5.206340 
# 
# 
# High freq. dielectric constant tensor:
#      x y z
#    x 2.045540 0.000000 0.010730 
#    y 0.000000 2.028720 0.000000 
#    z 0.010730 0.000000 2.053850 
# 
# From -- ./inp_files/24787.got.cif
#   From: 2010.06.25/outbox.cif.g09.slc.cpg/sg12_13_cif.got.tgz:24787.got - 2010.06.28 00:19:55.
