data_PCOD8106742
_publ_section_title
;
Structure prediction by ZEFSAII (Michael W. Deem and Ramdas Pophale) SiO2 
 PCOD8106742
Probable space group: C 2/M
;
_chemical_formula_sum "Si O2"
_cell_formula_units_Z 64
_cell_length_a 30.987990
_cell_length_b 8.922618
_cell_length_c 15.128941
_cell_angle_alpha 90.000000
_cell_angle_beta 47.669364
_cell_angle_gamma 90.000000
_cell_volume 3092.416508
_symmetry_space_group_name_H-M "C 2/M"
_symmetry_group_IT_number 12
_symmetry_cell_setting 'monoclinic'
loop_
_space_group_symop_operation_xyz
x,y,z
-x,y,-z
-x,-y,-z
x,-y,z
1/2+x,1/2+y,z
1/2-x,1/2+y,-z
1/2-x,1/2-y,-z
1/2+x,1/2-y,z
loop_
_atom_site_type_symbol
_atom_site_label
_atom_site_fract_x
_atom_site_fract_y
_atom_site_fract_z
Si Si1 0.119849 0.331498 0.194367
Si Si2 0.415992 0.175300 0.362872
Si Si3 0.166797 0.831382 0.785881
Si Si4 0.294908 0.826804 0.599829
Si Si5 0.810555 0.824102 0.760842
Si Si6 0.554989 0.177561 0.868249
Si Si7 0.305202 0.670978 0.048395
Si Si8 0.509132 0.168753 0.583272
O O1 0.144777 0.500000 0.153700
O O2 0.135529 0.259529 0.267360
O O3 0.050578 0.332051 0.280003
O O4 0.142982 0.230752 0.083103
O O5 0.345644 0.202320 0.457408
O O6 0.444192 0.241853 0.233691
O O7 0.444273 0.247254 0.413512
O O8 0.430363 0.000000 0.345763
O O9 0.229628 0.790487 0.653273
O O10 0.116423 0.718752 0.827359
O O11 0.174882 0.814244 0.878742
O O12 0.148065 0.000000 0.785947
O O13 0.309817 0.719197 0.659987
O O14 0.295442 0.000000 0.632082
O O15 0.751914 0.770401 0.891243
O O16 0.817823 0.000000 0.761846
O O17 0.550726 0.000000 0.872811
O O18 0.500000 0.244030 0.000000
O O19 0.291188 0.500000 0.042555
O O20 0.500000 0.250783 0.500000
O O21 0.531321 0.000000 0.531650
#
# Coordination Sequence:
#
# PCOD8106742 Si02
#       8
#     8   8   8   8   8   8   8   8
#     4  11  21  32  53  81 110 149 194 240 287 341
#     4   9  18  35  58  85 115 149 192 242 291 339
#     4   9  20  37  57  82 111 147 187 233 290 349
#     4   9  18  36  61  83 110 148 191 237 287 344
#     4  11  21  34  53  80 115 150 187 236 290 343
#     4  10  22  37  58  86 117 151 190 238 286 338
#     4  10  21  37  55  78 111 149 191 237 287 343
#     4   9  18  32  54  83 110 143 191 239 282 334
#
# _framework density 20.695789000000001
#
# number of rings (size 3 to 8) (size 9 to 14) (size 15 to 20)
#    0.000    2.250    0.000    3.750    1.750    5.250 
#    0.000    0.625    0.000    6.750    0.000    0.000 
#    0.000    0.000    0.000    0.000    0.000    0.000 
#
# Total GULP energy -396647.607744 kJ/mol
# GULP energy per Si atom -12395.237742 kJ/mol
# Density = 2.064868 g / cm^3
# Si number density = 20.695789 Si / 1000 Ang^3
#
#
#
# Elastic Constant Matrix: (Units=GPa)
#
#
# Indices 1 2 3 4 5 6 
#
# 1 99.1164 20.6717 44.5968 0.0000 -15.4270 0.0000
# 2 20.6717 44.1011 10.7462 0.0003 2.1107 -0.0001
# 3 44.5968 10.7462 123.4594 0.0000 -6.7225 0.0000
# 4 0.0000 0.0003 0.0000 18.5643 0.0000 -0.2378
# 5 -15.4270 2.1107 -6.7225 0.0000 24.7146 0.0000
# 6 0.0000 -0.0001 0.0000 -0.2378 0.0000 25.9811
#
#
#
# Elastic Compliance Matrix: (Units=1/GPa)
#
#
# Indices 1 2 3 4 5 6 
#
# 1 0.014638 -0.006225 -0.004283 0.000000 0.008504 0.000000
# 2 -0.006225 0.025975 -0.000350 0.000000 -0.006199 0.000000
# 3 -0.004283 -0.000350 0.009677 0.000000 -0.000011 0.000000
# 4 0.000000 0.000000 0.000000 0.053873 0.000000 0.000493
# 5 0.008504 -0.006199 -0.000011 0.000000 0.046296 0.000000
# 6 0.000000 0.000000 0.000000 0.000493 0.000000 0.038494
#
#
# Mechanical properties :
#
#
# Convention : Reuss Voigt Hill
#
# Bulk Modulus (GPa) = 34.99593 46.52292 40.75942
# Shear Modulus (GPa) = 22.70735 26.56280 24.63508
#
# Velocity S-wave (km/s) = 3.31599 3.58647 3.45388
# Velocity P-wave (km/s) = 5.62205 6.29909 5.97018
#
# Compressibility (1/GPa) = 0.02857475
#
# Stress axis : x y z
#
# Youngs Moduli (GPa) = 68.31545 38.49869 103.34078
#
# Poissons Ratio (x) = 0.23964 0.44259
# Poissons Ratio (y) = 0.42525 0.03616
# Poissons Ratio (z) = 0.29258 0.01347
#
# Static dielectric constant tensor:
#      x y z
#    x 3.749990 0.000000 -0.056880 
#    y 0.000000 3.406110 0.000000 
#    z -0.056880 0.000000 3.933110 
# 
# 
# High freq. dielectric constant tensor:
#      x y z
#    x 1.806640 0.000000 -0.006780 
#    y 0.000000 1.771860 0.000000 
#    z -0.006780 0.000000 1.819510 
# 
# From -- ./inp_files/249689.got.cif
#   From: 2010.06.25/outbox.cif.g09.slc.cpg/sg12_125_cif.got.tgz:249689.got - 2010.06.28 00:19:55.
