data_PCOD8106684
_publ_section_title
;
Structure prediction by ZEFSAII (Michael W. Deem and Ramdas Pophale) SiO2 
 PCOD8106684
Probable space group: C 2/M
;
_chemical_formula_sum "Si O2"
_cell_formula_units_Z 64
_cell_length_a 14.145303
_cell_length_b 9.198483
_cell_length_c 29.754023
_cell_angle_alpha 90.000000
_cell_angle_beta 60.346342
_cell_angle_gamma 90.000000
_cell_volume 3364.417718
_symmetry_space_group_name_H-M "C 2/M"
_symmetry_group_IT_number 12
_symmetry_cell_setting 'monoclinic'
loop_
_space_group_symop_operation_xyz
x,y,z
-x,y,-z
-x,-y,-z
x,-y,z
1/2+x,1/2+y,z
1/2-x,1/2+y,-z
1/2-x,1/2-y,-z
1/2+x,1/2-y,z
loop_
_atom_site_type_symbol
_atom_site_label
_atom_site_fract_x
_atom_site_fract_y
_atom_site_fract_z
Si Si1 0.220600 0.669316 0.144142
Si Si2 0.156994 0.168184 0.495255
Si Si3 0.303755 0.834138 0.382212
Si Si4 0.986613 0.331719 0.410905
Si Si5 0.522894 0.831129 0.128415
Si Si6 0.724667 0.170220 0.320336
Si Si7 0.460388 0.331074 0.057252
Si Si8 0.216689 0.670481 0.784013
O O1 0.209003 0.500000 0.159693
O O2 0.332178 0.700238 0.091484
O O3 0.215790 0.763108 0.190527
O O4 0.121817 0.722433 0.136172
O O5 0.250000 0.250000 0.500000
O O6 0.187587 0.185231 0.435421
O O7 0.042083 0.240063 0.537009
O O8 0.155386 0.000000 0.509519
O O9 0.403102 0.789846 0.390960
O O10 0.308392 0.729623 0.337985
O O11 0.317388 0.000000 0.362581
O O12 0.976008 0.500000 0.426341
O O13 0.104904 0.291415 0.365680
O O14 0.528492 0.748256 0.079933
O O15 0.411001 0.795958 0.180407
O O16 0.533847 0.000000 0.114724
O O17 0.742372 0.252641 0.270094
O O18 0.743574 0.000000 0.308597
O O19 0.487442 0.500000 0.055463
O O20 0.500000 0.270177 0.000000
O O21 0.240649 0.500000 0.775636
#
# Coordination Sequence:
#
# PCOD8106684 Si02
#       8
#     8   8   8   8   8   8   8   8
#     4   9  18  35  56  76 103 140 178 213 256 309
#     4   9  17  31  53  77 103 135 169 206 251 304
#     4   9  19  36  54  74 102 134 166 203 250 304
#     4   9  20  37  54  74 103 136 168 205 253 310
#     4   9  19  35  55  77 102 139 180 214 255 307
#     4  11  23  37  54  77 103 133 170 212 261 313
#     4   9  18  32  51  79 114 145 174 214 258 299
#     4  10  21  37  54  74 101 131 170 219 263 305
#
# _framework density 19.022608000000002
#
# number of rings (size 3 to 8) (size 9 to 14) (size 15 to 20)
#    0.000    2.625    0.000    1.875    0.000    6.750 
#    0.000    7.500    0.000    0.000    0.000    0.000 
#    0.000    0.000    0.000    0.000    0.000    0.000 
#
# Total GULP energy -396799.102400 kJ/mol
# GULP energy per Si atom -12399.971950 kJ/mol
# Density = 1.897931 g / cm^3
# Si number density = 19.022608 Si / 1000 Ang^3
#
#
#
# Elastic Constant Matrix: (Units=GPa)
#
#
# Indices 1 2 3 4 5 6 
#
# 1 89.8361 31.0652 24.8698 0.0000 14.9648 0.0000
# 2 31.0652 79.5238 49.2728 0.0000 12.9682 0.0000
# 3 24.8698 49.2728 78.8184 0.0000 19.1137 0.0000
# 4 0.0000 0.0000 0.0000 35.6584 0.0000 6.1474
# 5 14.9648 12.9682 19.1137 0.0000 21.8695 0.0000
# 6 0.0000 0.0000 0.0000 6.1474 0.0000 26.5817
#
#
#
# Elastic Compliance Matrix: (Units=1/GPa)
#
#
# Indices 1 2 3 4 5 6 
#
# 1 0.013748 -0.004235 -0.000023 0.000000 -0.006876 0.000000
# 2 -0.004235 0.021855 -0.012545 0.000000 0.000902 0.000000
# 3 -0.000023 -0.012545 0.023766 0.000000 -0.013317 0.000000
# 4 0.000000 0.000000 0.000000 0.029208 0.000000 -0.006755
# 5 -0.006876 0.000902 -0.013317 0.000000 0.061534 0.000000
# 6 0.000000 0.000000 0.000000 -0.006755 0.000000 0.039182
#
#
# Mechanical properties :
#
#
# Convention : Reuss Voigt Hill
#
# Bulk Modulus (GPa) = 38.81518 50.95486 44.88502
# Shear Modulus (GPa) = 21.59948 26.35329 23.97638
#
# Velocity S-wave (km/s) = 3.37332 3.72609 3.55408
# Velocity P-wave (km/s) = 5.96837 6.73471 6.36309
#
# Compressibility (1/GPa) = 0.02576312
#
# Stress axis : x y z
#
# Youngs Moduli (GPa) = 72.74047 45.75648 42.07609
#
# Poissons Ratio (x) = 0.19377 0.00097
# Poissons Ratio (y) = 0.30804 0.52785
# Poissons Ratio (z) = 0.00168 0.57402
#
# Static dielectric constant tensor:
#      x y z
#    x 3.457070 0.000000 -0.032910 
#    y 0.000000 3.513070 0.000000 
#    z -0.032910 0.000000 3.674720 
# 
# 
# High freq. dielectric constant tensor:
#      x y z
#    x 1.735700 0.000000 0.002140 
#    y 0.000000 1.739920 0.000000 
#    z 0.002140 0.000000 1.738510 
# 
# From -- ./inp_files/375050.got.cif
#   From: 2010.06.25/outbox.cif.g09.slc.cpg/sg12_188_cif.got.tgz:375050.got - 2010.06.28 00:19:55.
