data_PCOD8106664
_publ_section_title
;
Structure prediction by ZEFSAII (Michael W. Deem and Ramdas Pophale) SiO2 
 PCOD8106664
Probable space group: C 2/M
;
_chemical_formula_sum "Si O2"
_cell_formula_units_Z 56
_cell_length_a 19.887301
_cell_length_b 33.551141
_cell_length_c 5.275309
_cell_angle_alpha 90.000000
_cell_angle_beta 113.450270
_cell_angle_gamma 90.000000
_cell_volume 3229.182107
_symmetry_space_group_name_H-M "C 2/M"
_symmetry_group_IT_number 12
_symmetry_cell_setting 'monoclinic'
loop_
_space_group_symop_operation_xyz
x,y,z
-x,y,-z
-x,-y,-z
x,-y,z
1/2+x,1/2+y,z
1/2-x,1/2+y,-z
1/2-x,1/2-y,-z
1/2+x,1/2-y,z
loop_
_atom_site_type_symbol
_atom_site_label
_atom_site_fract_x
_atom_site_fract_y
_atom_site_fract_z
Si Si1 0.081185 0.185036 0.069211
Si Si2 0.168857 0.820789 0.724849
Si Si3 0.912928 0.408430 0.364647
Si Si4 0.181296 0.333978 0.924783
Si Si5 0.303929 0.762870 0.361811
Si Si6 0.920360 0.275450 0.909001
Si Si7 0.413546 0.955678 0.866330
O O1 0.128881 0.177864 0.393565
O O2 0.073813 0.231063 0.966427
O O3 0.117860 0.163239 0.879361
O O4 0.000000 0.167464 0.000000
O O5 0.193040 0.774458 0.827535
O O6 0.244455 0.847528 0.813944
O O7 0.865932 0.368469 0.273963
O O8 0.888159 0.430094 0.585855
O O9 0.000000 0.399124 0.500000
O O10 0.888850 0.435238 0.090185
O O11 0.220131 0.306092 0.772495
O O12 0.128346 0.305598 0.003733
O O13 0.250000 0.750000 0.500000
O O14 0.386823 0.770060 0.581222
O O15 0.000000 0.295434 0.000000
O O16 0.378879 0.000000 0.797315
O O17 0.500000 0.959534 0.000000
#
# Coordination Sequence:
#
# PCOD8106664 Si02
#       7
#     8   8   8   8   8   8   8
#     4  10  21  37  52  71  87 116 176 229 255 296
#     4  11  21  35  54  68  92 131 172 211 265 312
#     4  10  23  34  52  79 108 132 169 218 266 307
#     4  12  23  33  49  71 103 133 170 214 273 322
#     4  11  21  35  49  63  91 133 183 214 259 325
#     4  10  22  32  47  65  92 129 168 221 273 307
#     4   9  18  37  58  75  97 134 175 210 247 308
#
# _framework density 17.341853
#
# number of rings (size 3 to 8) (size 9 to 14) (size 15 to 20)
#    0.000    1.571    2.857    3.000    4.000    2.286 
#    0.000    0.000    0.000    0.000    0.000    0.000 
#    0.000    0.000    0.000    0.000    0.000   50.000 
#
# Total GULP energy -346907.324127 kJ/mol
# GULP energy per Si atom -12389.547290 kJ/mol
# Density = 1.730238 g / cm^3
# Si number density = 17.341853 Si / 1000 Ang^3
#
#
#
# Elastic Constant Matrix: (Units=GPa)
#
#
# Indices 1 2 3 4 5 6 
#
# 1 111.3960 27.0603 53.4989 0.0000 4.4451 0.0000
# 2 27.0603 69.5220 50.2080 0.0000 4.0930 0.0000
# 3 53.4989 50.2080 103.1409 0.0000 -2.5708 0.0000
# 4 0.0000 0.0000 0.0000 21.1748 0.0000 1.6840
# 5 4.4451 4.0930 -2.5708 0.0000 33.2006 0.0000
# 6 0.0000 0.0000 0.0000 1.6840 0.0000 10.5881
#
#
#
# Elastic Compliance Matrix: (Units=1/GPa)
#
#
# Indices 1 2 3 4 5 6 
#
# 1 0.012101 -0.000023 -0.006318 0.000000 -0.002106 0.000000
# 2 -0.000023 0.022615 -0.011087 0.000000 -0.003643 0.000000
# 3 -0.006318 -0.011087 0.018460 0.000000 0.003642 0.000000
# 4 0.000000 0.000000 0.000000 0.047831 0.000000 -0.007607
# 5 -0.002106 -0.003643 0.003642 0.000000 0.031133 0.000000
# 6 0.000000 0.000000 0.000000 -0.007607 0.000000 0.095656
#
#
# Mechanical properties :
#
#
# Convention : Reuss Voigt Hill
#
# Bulk Modulus (GPa) = 54.58802 60.62147 57.60475
# Shear Modulus (GPa) = 18.60402 23.21215 20.90809
#
# Velocity S-wave (km/s) = 3.27889 3.66253 3.47600
# Velocity P-wave (km/s) = 6.77353 7.27448 7.02847
#
# Compressibility (1/GPa) = 0.01831904
#
# Stress axis : x y z
#
# Youngs Moduli (GPa) = 82.63838 44.21916 54.16989
#
# Poissons Ratio (x) = 0.00104 0.34223
# Poissons Ratio (y) = 0.00194 0.60059
# Poissons Ratio (z) = 0.52209 0.49027
#
# Static dielectric constant tensor:
#      x y z
#    x 3.423190 0.000000 0.104930 
#    y 0.000000 2.968470 0.000000 
#    z 0.104930 0.000000 3.573300 
# 
# 
# High freq. dielectric constant tensor:
#      x y z
#    x 1.666630 0.000000 -0.004550 
#    y 0.000000 1.600890 0.000000 
#    z -0.004550 0.000000 1.690120 
# 
# From -- ./inp_files/22376.got.cif
#   From: 2010.06.25/outbox.cif.g09.slc.cpg/sg12_12_cif.got.tgz:22376.got - 2010.06.28 00:19:55.
