data_PCOD8106144
_publ_section_title
;
Structure prediction by ZEFSAII (Michael W. Deem and Ramdas Pophale) SiO2 
 PCOD8106144
Probable space group: C 2/M
;
_chemical_formula_sum "Si O2"
_cell_formula_units_Z 48
_cell_length_a 10.016050
_cell_length_b 9.025754
_cell_length_c 26.361737
_cell_angle_alpha 90.000000
_cell_angle_beta 89.743197
_cell_angle_gamma 90.000000
_cell_volume 2383.140444
_symmetry_space_group_name_H-M "C 2/M"
_symmetry_group_IT_number 12
_symmetry_cell_setting 'monoclinic'
loop_
_space_group_symop_operation_xyz
x,y,z
-x,y,-z
-x,-y,-z
x,-y,z
1/2+x,1/2+y,z
1/2-x,1/2+y,-z
1/2-x,1/2-y,-z
1/2+x,1/2-y,z
loop_
_atom_site_type_symbol
_atom_site_label
_atom_site_fract_x
_atom_site_fract_y
_atom_site_fract_z
Si Si1 0.735799 0.672003 0.553549
Si Si2 0.977785 0.825762 0.943562
Si Si3 0.787439 0.326971 0.112088
Si Si4 0.465979 0.671769 0.612180
Si Si5 0.242686 0.670379 0.773116
Si Si6 0.474264 0.170888 0.715567
O O1 0.771721 0.500000 0.547650
O O2 0.750000 0.750000 0.500000
O O3 0.584540 0.694220 0.571989
O O4 0.834637 0.744028 0.593889
O O5 0.079912 0.756869 0.903900
O O6 0.829709 0.782022 0.926314
O O7 0.000536 0.000000 0.942564
O O8 0.000000 0.761350 0.000000
O O9 0.818725 0.500000 0.110339
O O10 0.746332 0.278602 0.168664
O O11 0.429839 0.500000 0.618884
O O12 0.511828 0.737270 0.665639
O O13 0.287446 0.500000 0.766318
O O14 0.336837 0.773014 0.739528
O O15 0.090988 0.693952 0.755995
O O16 0.456748 0.000000 0.700438
#
# Coordination Sequence:
#
# PCOD8106144 Si02
#       6
#     8   8   8   8   8   8
#     4  11  24  41  63  91 121 156 197 239 287 341
#     4  10  21  36  55  82 114 148 189 236 286 341
#     4  10  21  37  57  82 112 148 190 234 284 342
#     4  11  24  41  61  87 119 154 193 237 286 340
#     4  10  22  39  58  83 115 149 188 236 287 341
#     4  11  23  38  59  86 113 147 191 234 283 342
#
# _framework density 20.141490000000001
#
# number of rings (size 3 to 8) (size 9 to 14) (size 15 to 20)
#    0.000    1.500    0.000    4.500    0.000   10.333 
#    0.000    0.000    0.000    0.000    0.000    0.000 
#    0.000    0.000    0.000    0.000    0.000    0.000 
#
# Total GULP energy -297776.506466 kJ/mol
# GULP energy per Si atom -12407.354436 kJ/mol
# Density = 2.009565 g / cm^3
# Si number density = 20.141490 Si / 1000 Ang^3
#
#
#
# Elastic Constant Matrix: (Units=GPa)
#
#
# Indices 1 2 3 4 5 6 
#
# 1 72.0158 43.6101 11.4459 0.0000 -5.1994 0.0000
# 2 43.6101 92.8061 35.3050 0.0000 -5.0127 0.0000
# 3 11.4459 35.3050 99.0823 0.0000 2.6312 0.0000
# 4 0.0000 0.0000 0.0000 36.0187 0.0000 -5.3091
# 5 -5.1994 -5.0127 2.6312 0.0000 36.9257 0.0000
# 6 0.0000 0.0000 0.0000 -5.3091 0.0000 33.1199
#
#
#
# Elastic Compliance Matrix: (Units=1/GPa)
#
#
# Indices 1 2 3 4 5 6 
#
# 1 0.019595 -0.009553 0.001104 0.000000 0.001384 0.000000
# 2 -0.009553 0.017273 -0.005087 0.000000 0.001362 0.000000
# 3 0.001104 -0.005087 0.011814 0.000000 -0.001377 0.000000
# 4 0.000000 0.000000 0.000000 0.028435 0.000000 0.004558
# 5 0.001384 0.001362 -0.001377 0.000000 0.027559 0.000000
# 6 0.000000 0.000000 0.000000 0.004558 0.000000 0.030924
#
#
# Mechanical properties :
#
#
# Convention : Reuss Voigt Hill
#
# Bulk Modulus (GPa) = 46.27666 49.40290 47.83978
# Shear Modulus (GPa) = 29.43288 32.78240 31.10764
#
# Velocity S-wave (km/s) = 3.82685 4.03874 3.93422
# Velocity P-wave (km/s) = 6.52319 6.80659 6.66640
#
# Compressibility (1/GPa) = 0.02160917
#
# Stress axis : x y z
#
# Youngs Moduli (GPa) = 51.03261 57.89363 84.64230
#
# Poissons Ratio (x) = 0.55306 -0.09341
# Poissons Ratio (y) = 0.48752 0.43060
# Poissons Ratio (z) = -0.05632 0.29452
#
# Static dielectric constant tensor:
#      x y z
#    x 3.636690 0.000000 0.161670 
#    y 0.000000 3.695320 0.000000 
#    z 0.161670 0.000000 3.895160 
# 
# 
# High freq. dielectric constant tensor:
#      x y z
#    x 1.794970 0.000000 0.003840 
#    y 0.000000 1.788220 0.000000 
#    z 0.003840 0.000000 1.802570 
# 
# From -- ./inp_files/334629.got.cif
#   From: 2010.06.25/outbox.cif.g09.slc.cpg/sg12_168_cif.got.tgz:334629.got - 2010.06.28 00:19:55.
