data_PCOD8106503
_publ_section_title
;
Structure prediction by ZEFSAII (Michael W. Deem and Ramdas Pophale) SiO2 
 PCOD8106503
Probable space group: C 2/M
;
_chemical_formula_sum "Si O2"
_cell_formula_units_Z 36
_cell_length_a 22.044845
_cell_length_b 14.199615
_cell_length_c 9.600240
_cell_angle_alpha 90.000000
_cell_angle_beta 142.174151
_cell_angle_gamma 90.000000
_cell_volume 1842.946827
_symmetry_space_group_name_H-M "C 2/M"
_symmetry_group_IT_number 12
_symmetry_cell_setting 'monoclinic'
loop_
_space_group_symop_operation_xyz
x,y,z
-x,y,-z
-x,-y,-z
x,-y,z
1/2+x,1/2+y,z
1/2-x,1/2+y,-z
1/2-x,1/2-y,-z
1/2+x,1/2-y,z
loop_
_atom_site_type_symbol
_atom_site_label
_atom_site_fract_x
_atom_site_fract_y
_atom_site_fract_z
Si Si1 0.000000 0.227006 0.000000
Si Si2 0.813428 0.108377 0.559594
Si Si3 0.346052 0.205579 0.921122
Si Si4 0.105527 0.391668 0.713511
Si Si5 0.264024 0.603338 0.775841
O O1 0.081375 0.159794 0.222462
O O2 0.053645 0.298888 0.988756
O O3 0.750624 0.168779 0.335832
O O4 0.746624 0.107011 0.578248
O O5 0.831486 0.000000 0.542076
O O6 0.340771 0.315628 0.954613
O O7 0.343015 0.149697 0.058054
O O8 0.091105 0.500000 0.722743
O O9 0.163570 0.375404 0.675666
O O10 0.000000 0.341878 0.500000
O O11 0.306093 0.500000 0.895119
#
# Coordination Sequence:
#
# PCOD8106503 Si02
#       5
#     4   8   8   8   8
#     4  10  21  36  59  88 118 150 187 232 291 340
#     4  10  21  38  61  86 117 151 189 235 285 340
#     4  11  22  36  61  86 114 148 195 236 278 339
#     4  10  22  37  56  81 113 150 190 233 285 336
#     4   9  19  37  57  80 111 148 183 230 286 334
#
# _framework density 19.533932
#
# number of rings (size 3 to 8) (size 9 to 14) (size 15 to 20)
#    0.000    2.000    0.000    4.333    6.222    0.889 
#    0.000    1.111    0.000    0.667    0.000    0.000 
#    0.000    0.000    0.000    0.000    0.000    0.000 
#
# Total GULP energy -223026.233659 kJ/mol
# GULP energy per Si atom -12390.346314 kJ/mol
# Density = 1.948947 g / cm^3
# Si number density = 19.533932 Si / 1000 Ang^3
#
#
#
# Elastic Constant Matrix: (Units=GPa)
#
#
# Indices 1 2 3 4 5 6 
#
# 1 76.7137 30.8172 50.8595 0.0000 5.7043 0.0000
# 2 30.8172 65.3037 33.6279 0.0000 -0.1767 0.0000
# 3 50.8595 33.6279 119.6859 0.0000 2.1636 0.0000
# 4 0.0000 0.0000 0.0000 18.4514 0.0000 3.4682
# 5 5.7043 -0.1767 2.1636 0.0000 22.3645 0.0000
# 6 0.0000 0.0000 0.0000 3.4682 0.0000 20.9175
#
#
#
# Elastic Compliance Matrix: (Units=1/GPa)
#
#
# Indices 1 2 3 4 5 6 
#
# 1 0.020374 -0.006093 -0.006863 0.000000 -0.004581 0.000000
# 2 -0.006093 0.019734 -0.002992 0.000000 0.001999 0.000000
# 3 -0.006863 -0.002992 0.012102 0.000000 0.000556 0.000000
# 4 0.000000 0.000000 0.000000 0.055940 0.000000 -0.009275
# 5 -0.004581 0.001999 0.000556 0.000000 0.045844 0.000000
# 6 0.000000 0.000000 0.000000 -0.009275 0.000000 0.049345
#
#
# Mechanical properties :
#
#
# Convention : Reuss Voigt Hill
#
# Bulk Modulus (GPa) = 49.22456 54.70139 51.96297
# Shear Modulus (GPa) = 20.66071 22.10660 21.38365
#
# Velocity S-wave (km/s) = 3.25573 3.36773 3.31220
# Velocity P-wave (km/s) = 6.27593 6.57162 6.42547
#
# Compressibility (1/GPa) = 0.02031506
#
# Stress axis : x y z
#
# Youngs Moduli (GPa) = 49.08301 50.67314 82.63036
#
# Poissons Ratio (x) = 0.30874 0.56709
# Poissons Ratio (y) = 0.29905 0.24721
# Poissons Ratio (z) = 0.33685 0.15160
#
# Static dielectric constant tensor:
#      x y z
#    x 3.714660 0.000000 0.020600 
#    y 0.000000 3.859370 0.000000 
#    z 0.020600 0.000000 3.309470 
# 
# 
# High freq. dielectric constant tensor:
#      x y z
#    x 1.768280 0.000000 0.000090 
#    y 0.000000 1.771310 0.000000 
#    z 0.000090 0.000000 1.734250 
# 
# From -- ./inp_files/58431.got.cif
#   From: 2010.06.25/outbox.cif.g09.slc.cpg/sg12_30_cif.got.tgz:58431.got - 2010.06.28 00:19:55.
