data_PCOD8106909
_publ_section_title
;
Structure prediction by ZEFSAII (Michael W. Deem and Ramdas Pophale) SiO2 
 PCOD8106909
Probable space group: C 2/M
;
_chemical_formula_sum "Si O2"
_cell_formula_units_Z 48
_cell_length_a 18.282341
_cell_length_b 9.022272
_cell_length_c 27.430287
_cell_angle_alpha 90.000000
_cell_angle_beta 33.583077
_cell_angle_gamma 90.000000
_cell_volume 2502.749974
_symmetry_space_group_name_H-M "C 2/M"
_symmetry_group_IT_number 12
_symmetry_cell_setting 'monoclinic'
loop_
_space_group_symop_operation_xyz
x,y,z
-x,y,-z
-x,-y,-z
x,-y,z
1/2+x,1/2+y,z
1/2-x,1/2+y,-z
1/2-x,1/2-y,-z
1/2+x,1/2-y,z
loop_
_atom_site_type_symbol
_atom_site_label
_atom_site_fract_x
_atom_site_fract_y
_atom_site_fract_z
Si Si1 0.862163 0.675438 0.248046
Si Si2 0.541545 0.670436 0.899148
Si Si3 0.062509 0.176239 0.415446
Si Si4 0.288207 0.329318 0.102954
Si Si5 0.390735 0.674161 0.420809
Si Si6 0.483893 0.673544 0.751550
O O1 0.869237 0.500000 0.248078
O O2 0.943724 0.726124 0.155730
O O3 0.712068 0.733729 0.327012
O O4 0.922821 0.742499 0.262902
O O5 0.558972 0.500000 0.873924
O O6 0.650846 0.713955 0.878602
O O7 0.396147 0.697470 0.001200
O O8 0.000000 0.239620 0.500000
O O9 0.977422 0.236958 0.417432
O O10 0.060650 0.000000 0.416858
O O11 0.242189 0.500000 0.128624
O O12 0.166579 0.223854 0.158512
O O13 0.368642 0.500000 0.438018
O O14 0.250000 0.750000 0.500000
O O15 0.467770 0.715931 0.329065
O O16 0.492661 0.500000 0.757068
#
# Coordination Sequence:
#
# PCOD8106909 Si02
#       6
#     8   8   8   8   8   8
#     4  11  22  36  57  82 109 147 190 228 276 334
#     4   9  19  37  59  83 112 143 180 230 280 327
#     4   9  18  34  56  80 107 139 177 222 269 322
#     4   9  19  37  60  83 109 146 186 223 274 337
#     4  10  21  37  57  82 111 143 180 223 274 329
#     4  11  23  37  54  80 115 149 185 233 277 318
#
# _framework density 19.178902999999998
#
# number of rings (size 3 to 8) (size 9 to 14) (size 15 to 20)
#    0.000    2.167    0.000    4.000    0.000    6.000 
#    0.000    3.333    0.000    4.500    0.000    0.000 
#    0.000    0.000    0.000    0.000    0.000    0.000 
#
# Total GULP energy -297688.773566 kJ/mol
# GULP energy per Si atom -12403.698899 kJ/mol
# Density = 1.913525 g / cm^3
# Si number density = 19.178903 Si / 1000 Ang^3
#
#
#
# Elastic Constant Matrix: (Units=GPa)
#
#
# Indices 1 2 3 4 5 6 
#
# 1 166.5389 54.6778 78.5204 0.0001 -1.3932 -0.0003
# 2 54.6778 63.8657 48.5066 0.0001 -0.2797 -0.0006
# 3 78.5204 48.5066 120.3702 -0.0001 -7.1459 0.0009
# 4 0.0001 0.0001 -0.0001 28.9323 -0.0001 -8.8951
# 5 -1.3932 -0.2797 -7.1459 -0.0001 40.0355 -0.0002
# 6 -0.0003 -0.0006 0.0009 -8.8951 -0.0002 11.5486
#
#
#
# Elastic Compliance Matrix: (Units=1/GPa)
#
#
# Indices 1 2 3 4 5 6 
#
# 1 0.009685 -0.005006 -0.004328 0.000000 -0.000470 0.000000
# 2 -0.005006 0.025239 -0.006979 0.000001 -0.001244 0.000002
# 3 -0.004328 -0.006979 0.014081 0.000000 0.002314 -0.000002
# 4 0.000000 0.000001 0.000000 0.045288 0.000000 0.034882
# 5 -0.000470 -0.001244 0.002314 0.000000 0.025366 0.000000
# 6 0.000000 0.000002 -0.000002 0.034882 0.000000 0.113457
#
#
# Mechanical properties :
#
#
# Convention : Reuss Voigt Hill
#
# Bulk Modulus (GPa) = 61.05772 79.35383 70.20578
# Shear Modulus (GPa) = 18.43644 27.37463 22.90554
#
# Velocity S-wave (km/s) = 3.10383 3.78210 3.45963
# Velocity P-wave (km/s) = 6.68954 7.78060 7.25561
#
# Compressibility (1/GPa) = 0.01637795
#
# Stress axis : x y z
#
# Youngs Moduli (GPa) = 103.25167 39.62106 71.01874
#
# Poissons Ratio (x) = 0.19836 0.30739
# Poissons Ratio (y) = 0.51693 0.49563
# Poissons Ratio (z) = 0.44690 0.27651
#
# Static dielectric constant tensor:
#      x y z
#    x 3.669210 0.000000 -0.071550 
#    y 0.000000 3.296330 0.000000 
#    z -0.071550 0.000000 3.961360 
# 
# 
# High freq. dielectric constant tensor:
#      x y z
#    x 1.758020 0.000000 0.000770 
#    y 0.000000 1.728290 0.000000 
#    z 0.000770 0.000000 1.758110 
# 
# From -- ./inp_files/313571.got.cif
#   From: 2010.06.25/outbox.cif.g09.slc.cpg/sg12_157_cif.got.tgz:313571.got - 2010.06.28 00:19:55.
