data_PCOD8106790
_publ_section_title
;
Structure prediction by ZEFSAII (Michael W. Deem and Ramdas Pophale) SiO2 
 PCOD8106790
Probable space group: C 2/M
;
_chemical_formula_sum "Si O2"
_cell_formula_units_Z 56
_cell_length_a 25.028435
_cell_length_b 9.017506
_cell_length_c 14.796796
_cell_angle_alpha 90.000000
_cell_angle_beta 74.001958
_cell_angle_gamma 90.000000
_cell_volume 3210.211996
_symmetry_space_group_name_H-M "C 2/M"
_symmetry_group_IT_number 12
_symmetry_cell_setting 'monoclinic'
loop_
_space_group_symop_operation_xyz
x,y,z
-x,y,-z
-x,-y,-z
x,-y,z
1/2+x,1/2+y,z
1/2-x,1/2+y,-z
1/2-x,1/2-y,-z
1/2+x,1/2-y,z
loop_
_atom_site_type_symbol
_atom_site_label
_atom_site_fract_x
_atom_site_fract_y
_atom_site_fract_z
Si Si1 0.950059 0.324902 0.712647
Si Si2 0.580284 0.670308 0.895965
Si Si3 0.378010 0.328649 0.601770
Si Si4 0.565056 0.671608 0.614587
Si Si5 0.043340 0.829304 0.108900
Si Si6 0.357124 0.171082 0.280239
Si Si7 0.760357 0.170444 0.588548
O O1 0.955689 0.500000 0.706722
O O2 0.900569 0.272575 0.671411
O O3 0.934886 0.274020 0.821045
O O4 0.007320 0.254076 0.653512
O O5 0.599253 0.500000 0.882864
O O6 0.522662 0.691311 0.869725
O O7 0.626332 0.772065 0.826937
O O8 0.573775 0.721205 0.002725
O O9 0.377889 0.500000 0.632660
O O10 0.416584 0.307141 0.496702
O O11 0.315928 0.269366 0.610514
O O12 0.556529 0.500000 0.643672
O O13 0.612293 0.736055 0.657039
O O14 0.057260 0.000000 0.123802
O O15 0.291189 0.194353 0.320094
O O16 0.374088 0.000000 0.283135
O O17 0.750000 0.250000 0.500000
O O18 0.769786 0.000000 0.559339
#
# Coordination Sequence:
#
# PCOD8106790 Si02
#       7
#     8   8   8   8   8   8   8
#     4  12  24  35  52  81 113 142 174 223 277 318
#     4   9  18  33  55  80 106 141 180 215 261 321
#     4  10  22  39  56  74 103 149 191 218 256 317
#     4  11  21  35  55  77 106 147 186 215 256 323
#     4   9  18  34  55  78 106 141 180 217 258 321
#     4  11  21  32  53  84 115 139 170 224 276 311
#     4  10  21  37  56  79 107 142 183 224 266 309
#
# _framework density 17.444330000000001
#
# number of rings (size 3 to 8) (size 9 to 14) (size 15 to 20)
#    0.000    1.714    2.857    3.429    0.000    4.571 
#    0.000    1.429    0.000    0.857    0.000    0.000 
#    0.000    0.000    0.000    0.000    0.000    0.000 
#
# Total GULP energy -347294.086785 kJ/mol
# GULP energy per Si atom -12403.360242 kJ/mol
# Density = 1.740463 g / cm^3
# Si number density = 17.444330 Si / 1000 Ang^3
#
#
#
# Elastic Constant Matrix: (Units=GPa)
#
#
# Indices 1 2 3 4 5 6 
#
# 1 106.1646 55.2271 50.2764 0.0000 11.2888 0.0000
# 2 55.2271 109.9861 61.4814 0.0000 7.2578 0.0000
# 3 50.2764 61.4814 108.2487 0.0000 5.8546 0.0000
# 4 0.0000 0.0000 0.0000 27.5828 0.0000 0.5396
# 5 11.2888 7.2578 5.8546 0.0000 22.1510 0.0000
# 6 0.0000 0.0000 0.0000 0.5396 0.0000 25.5009
#
#
#
# Elastic Compliance Matrix: (Units=1/GPa)
#
#
# Indices 1 2 3 4 5 6 
#
# 1 0.014093 -0.004762 -0.003588 0.000000 -0.004673 0.000000
# 2 -0.004762 0.015058 -0.006295 0.000000 -0.000843 0.000000
# 3 -0.003588 -0.006295 0.014476 0.000000 0.000065 0.000000
# 4 0.000000 0.000000 0.000000 0.036269 0.000000 -0.000767
# 5 -0.004673 -0.000843 0.000065 0.000000 0.047786 0.000000
# 6 0.000000 0.000000 0.000000 -0.000767 0.000000 0.039231
#
#
# Mechanical properties :
#
#
# Convention : Reuss Voigt Hill
#
# Bulk Modulus (GPa) = 69.75148 73.15214 71.45181
# Shear Modulus (GPa) = 24.87799 25.54124 25.20961
#
# Velocity S-wave (km/s) = 3.78052 3.83058 3.80563
# Velocity P-wave (km/s) = 7.68950 7.84794 7.76912
#
# Compressibility (1/GPa) = 0.01433661
#
# Stress axis : x y z
#
# Youngs Moduli (GPa) = 70.95835 66.41097 69.07980
#
# Poissons Ratio (x) = 0.31628 0.24784
# Poissons Ratio (y) = 0.33794 0.43484
# Poissons Ratio (z) = 0.25458 0.41804
#
# Static dielectric constant tensor:
#      x y z
#    x 3.217810 0.000000 -0.067330 
#    y 0.000000 3.271130 0.000000 
#    z -0.067330 0.000000 3.349970 
# 
# 
# High freq. dielectric constant tensor:
#      x y z
#    x 1.656000 0.000000 -0.001980 
#    y 0.000000 1.675940 0.000000 
#    z -0.001980 0.000000 1.678780 
# 
# From -- ./inp_files/237457.got.cif
#   From: 2010.06.25/outbox.cif.g09.slc.cpg/sg12_119_cif.got.tgz:237457.got - 2010.06.28 00:19:55.
