data_PCOD8106910
_publ_section_title
;
Structure prediction by ZEFSAII (Michael W. Deem and Ramdas Pophale) SiO2 
 PCOD8106910
Probable space group: C 2/M
;
_chemical_formula_sum "Si O2"
_cell_formula_units_Z 48
_cell_length_a 15.887802
_cell_length_b 8.943597
_cell_length_c 28.829146
_cell_angle_alpha 90.000000
_cell_angle_beta 144.378102
_cell_angle_gamma 90.000000
_cell_volume 2385.911360
_symmetry_space_group_name_H-M "C 2/M"
_symmetry_group_IT_number 12
_symmetry_cell_setting 'monoclinic'
loop_
_space_group_symop_operation_xyz
x,y,z
-x,y,-z
-x,-y,-z
x,-y,z
1/2+x,1/2+y,z
1/2-x,1/2+y,-z
1/2-x,1/2-y,-z
1/2+x,1/2-y,z
loop_
_atom_site_type_symbol
_atom_site_label
_atom_site_fract_x
_atom_site_fract_y
_atom_site_fract_z
Si Si1 0.631006 0.175593 0.476540
Si Si2 0.063360 0.667751 0.162752
Si Si3 0.927085 0.322711 0.199006
Si Si4 0.307819 0.328675 0.645003
Si Si5 0.389134 0.323478 0.911053
Si Si6 0.161382 0.168574 0.659594
O O1 0.750000 0.250000 0.500000
O O2 0.684434 0.208505 0.552319
O O3 0.494993 0.270710 0.398613
O O4 0.607183 0.000000 0.456413
O O5 0.008627 0.500000 0.127759
O O6 0.046856 0.764386 0.108924
O O7 0.235281 0.666302 0.249505
O O8 0.971879 0.731236 0.166496
O O9 0.935559 0.500000 0.203278
O O10 0.769473 0.263464 0.144296
O O11 0.042738 0.264913 0.289185
O O12 0.354626 0.500000 0.663159
O O13 0.226731 0.291970 0.655449
O O14 0.382587 0.500000 0.903649
O O15 0.500000 0.270490 0.000000
O O16 0.153866 0.000000 0.634967
#
# Coordination Sequence:
#
# PCOD8106910 Si02
#       6
#     8   8   8   8   8   8
#     4  11  24  37  52  80 116 152 193 241 286 335
#     4   9  20  38  59  84 116 151 192 237 286 347
#     4   9  20  39  60  84 116 156 193 235 293 353
#     4  10  21  37  57  82 111 146 192 241 283 335
#     4  10  22  39  60  88 119 150 189 238 292 352
#     4  10  21  38  59  82 112 150 190 236 289 344
#
# _framework density 20.118099999999998
#
# number of rings (size 3 to 8) (size 9 to 14) (size 15 to 20)
#    0.000    2.167    0.000    3.000    2.333    9.667 
#    0.000    0.000    0.000    0.000    0.000    0.000 
#    0.000    0.000    0.000    0.000    0.000    0.000 
#
# Total GULP energy -297358.038922 kJ/mol
# GULP energy per Si atom -12389.918288 kJ/mol
# Density = 2.007231 g / cm^3
# Si number density = 20.118100 Si / 1000 Ang^3
#
#
#
# Elastic Constant Matrix: (Units=GPa)
#
#
# Indices 1 2 3 4 5 6 
#
# 1 59.8657 16.2019 7.6014 0.0000 3.6585 0.0000
# 2 16.2019 38.9148 29.6063 0.0000 -9.2407 0.0000
# 3 7.6014 29.6063 45.5951 0.0000 1.2876 0.0000
# 4 0.0000 0.0000 0.0000 31.4258 0.0000 -4.7910
# 5 3.6585 -9.2407 1.2876 0.0000 36.3031 0.0000
# 6 0.0000 0.0000 0.0000 -4.7910 0.0000 28.5272
#
#
#
# Elastic Compliance Matrix: (Units=1/GPa)
#
#
# Indices 1 2 3 4 5 6 
#
# 1 0.020232 -0.014641 0.006303 0.000000 -0.005989 0.000000
# 2 -0.014641 0.069799 -0.043469 0.000000 0.020784 0.000000
# 3 0.006303 -0.043469 0.049487 0.000000 -0.013455 0.000000
# 4 0.000000 0.000000 0.000000 0.032657 0.000000 0.005485
# 5 -0.005989 0.020784 -0.013455 0.000000 0.033917 0.000000
# 6 0.000000 0.000000 0.000000 0.005485 0.000000 0.035975
#
#
# Mechanical properties :
#
#
# Convention : Reuss Voigt Hill
#
# Bulk Modulus (GPa) = 27.85156 27.91054 27.88105
# Shear Modulus (GPa) = 13.98021 25.31564 19.64793
#
# Velocity S-wave (km/s) = 2.63897 3.55117 3.12850
# Velocity P-wave (km/s) = 4.81244 5.54237 5.19026
#
# Compressibility (1/GPa) = 0.03590464
#
# Stress axis : x y z
#
# Youngs Moduli (GPa) = 49.42637 14.32690 20.20742
#
# Poissons Ratio (x) = 0.20976 -0.12737
# Poissons Ratio (y) = 0.72365 0.87839
# Poissons Ratio (z) = -0.31153 0.62277
#
# Static dielectric constant tensor:
#      x y z
#    x 3.672630 0.000000 0.169860 
#    y 0.000000 3.684400 0.000000 
#    z 0.169860 0.000000 3.206260 
# 
# 
# High freq. dielectric constant tensor:
#      x y z
#    x 1.783460 0.000000 0.007540 
#    y 0.000000 1.779790 0.000000 
#    z 0.007540 0.000000 1.786760 
# 
# From -- ./inp_files/360214.got.cif
#   From: 2010.06.25/outbox.cif.g09.slc.cpg/sg12_181_cif.got.tgz:360214.got - 2010.06.28 00:19:55.
