data_PCOD8106514
_publ_section_title
;
Structure prediction by ZEFSAII (Michael W. Deem and Ramdas Pophale) SiO2 
 PCOD8106514
Probable space group: C 2/M
;
_chemical_formula_sum "Si O2"
_cell_formula_units_Z 56
_cell_length_a 30.397794
_cell_length_b 8.968712
_cell_length_c 12.547945
_cell_angle_alpha 90.000000
_cell_angle_beta 51.349177
_cell_angle_gamma 90.000000
_cell_volume 2671.636112
_symmetry_space_group_name_H-M "C 2/M"
_symmetry_group_IT_number 12
_symmetry_cell_setting 'monoclinic'
loop_
_space_group_symop_operation_xyz
x,y,z
-x,y,-z
-x,-y,-z
x,-y,z
1/2+x,1/2+y,z
1/2-x,1/2+y,-z
1/2-x,1/2-y,-z
1/2+x,1/2-y,z
loop_
_atom_site_type_symbol
_atom_site_label
_atom_site_fract_x
_atom_site_fract_y
_atom_site_fract_z
Si Si1 0.563751 0.324034 0.740374
Si Si2 0.600397 0.828416 0.261341
Si Si3 0.551692 0.826556 0.120346
Si Si4 0.865162 0.823144 0.163992
Si Si5 0.798618 0.835475 0.982639
Si Si6 0.870011 0.824141 0.568000
Si Si7 0.252739 0.836261 0.712579
O O1 0.553946 0.500000 0.755263
O O2 0.503858 0.246306 0.844514
O O3 0.602500 0.271231 0.779046
O O4 0.593697 0.270082 0.586866
O O5 0.548939 0.806025 0.255126
O O6 0.649552 0.772886 0.111202
O O7 0.598644 0.737348 0.373954
O O8 0.608781 0.000000 0.281112
O O9 0.553271 0.000000 0.089403
O O10 0.606224 0.751725 0.982720
O O11 0.798675 0.775775 0.284427
O O12 0.868945 0.000000 0.142555
O O13 0.809452 0.000000 0.914941
O O14 0.750000 0.750000 0.000000
O O15 0.783523 0.856338 0.126724
O O16 0.805612 0.771211 0.649438
O O17 0.867999 0.000000 0.579972
O O18 0.275009 0.000000 0.642451
#
# Coordination Sequence:
#
# PCOD8106514 Si02
#       7
#     8   8   8   8   8   8   8
#     4  10  24  44  63  85 118 161 204 245 293 352
#     4  11  23  38  58  87 122 157 195 243 300 355
#     4  11  24  40  63  93 120 150 197 253 303 349
#     4  10  21  41  66  90 119 156 198 244 297 355
#     4  11  20  32  55  87 120 155 193 240 297 354
#     4  11  24  40  60  88 122 161 202 242 290 355
#     4  10  21  36  59  90 122 156 194 239 296 355
#
# _framework density 20.960939
#
# number of rings (size 3 to 8) (size 9 to 14) (size 15 to 20)
#    0.000    1.429    2.857    2.143    0.000    7.429 
#    0.000    2.857    0.000    0.000    0.000    0.000 
#    0.000    0.000    0.000    0.000    0.000    0.000 
#
# Total GULP energy -346958.233690 kJ/mol
# GULP energy per Si atom -12391.365489 kJ/mol
# Density = 2.091323 g / cm^3
# Si number density = 20.960939 Si / 1000 Ang^3
#
#
#
# Elastic Constant Matrix: (Units=GPa)
#
#
# Indices 1 2 3 4 5 6 
#
# 1 91.7002 28.7611 6.9255 0.0000 19.0855 0.0000
# 2 28.7611 59.5088 18.6301 0.0000 10.0720 0.0000
# 3 6.9255 18.6301 66.8865 0.0000 11.5040 0.0000
# 4 0.0000 0.0000 0.0000 18.3817 0.0000 1.7026
# 5 19.0855 10.0720 11.5040 0.0000 26.3325 0.0000
# 6 0.0000 0.0000 0.0000 1.7026 0.0000 27.5413
#
#
#
# Elastic Compliance Matrix: (Units=1/GPa)
#
#
# Indices 1 2 3 4 5 6 
#
# 1 0.014540 -0.006047 0.001723 0.000000 -0.008978 0.000000
# 2 -0.006047 0.021605 -0.005108 0.000000 -0.001649 0.000000
# 3 0.001723 -0.005108 0.017380 0.000000 -0.006888 0.000000
# 4 0.000000 0.000000 0.000000 0.054715 0.000000 -0.003382
# 5 -0.008978 -0.001649 -0.006888 0.000000 0.048123 0.000000
# 6 0.000000 0.000000 0.000000 -0.003382 0.000000 0.036518
#
#
# Mechanical properties :
#
#
# Convention : Reuss Voigt Hill
#
# Bulk Modulus (GPa) = 28.85098 36.30319 32.57709
# Shear Modulus (GPa) = 22.39142 25.36970 23.88056
#
# Velocity S-wave (km/s) = 3.27195 3.48276 3.37900
# Velocity P-wave (km/s) = 5.29795 5.79050 5.54969
#
# Compressibility (1/GPa) = 0.03466087
#
# Stress axis : x y z
#
# Youngs Moduli (GPa) = 68.77438 46.28517 57.53851
#
# Poissons Ratio (x) = 0.27990 -0.09914
# Poissons Ratio (y) = 0.41590 0.29390
# Poissons Ratio (z) = -0.11850 0.23642
#
# Static dielectric constant tensor:
#      x y z
#    x 4.104650 0.000000 0.112980 
#    y 0.000000 3.795700 0.000000 
#    z 0.112980 0.000000 3.666040 
# 
# 
# High freq. dielectric constant tensor:
#      x y z
#    x 1.841960 0.000000 0.009350 
#    y 0.000000 1.819680 0.000000 
#    z 0.009350 0.000000 1.805010 
# 
# From -- ./inp_files/187218.got.cif
#   From: 2010.06.25/outbox.cif.g09.slc.cpg/sg12_94_cif.got.tgz:187218.got - 2010.06.28 00:19:55.
