data_PCOD8106053
_publ_section_title
;
Structure prediction by ZEFSAII (Michael W. Deem and Ramdas Pophale) SiO2 
 PCOD8106053
Probable space group: C 2/M
;
_chemical_formula_sum "Si O2"
_cell_formula_units_Z 64
_cell_length_a 19.584904
_cell_length_b 9.040793
_cell_length_c 18.714372
_cell_angle_alpha 90.000000
_cell_angle_beta 93.281449
_cell_angle_gamma 90.000000
_cell_volume 3308.191017
_symmetry_space_group_name_H-M "C 2/M"
_symmetry_group_IT_number 12
_symmetry_cell_setting 'monoclinic'
loop_
_space_group_symop_operation_xyz
x,y,z
-x,y,-z
-x,-y,-z
x,-y,z
1/2+x,1/2+y,z
1/2-x,1/2+y,-z
1/2-x,1/2-y,-z
1/2+x,1/2-y,z
loop_
_atom_site_type_symbol
_atom_site_label
_atom_site_fract_x
_atom_site_fract_y
_atom_site_fract_z
Si Si1 0.987770 0.667192 0.801387
Si Si2 0.033325 0.161105 0.926720
Si Si3 0.104092 0.673223 0.698995
Si Si4 0.622159 0.169708 0.325727
Si Si5 0.256913 0.323974 0.736592
Si Si6 0.838582 0.668574 0.031998
Si Si7 0.273159 0.169856 0.885861
Si Si8 0.003395 0.676790 0.419692
O O1 0.990993 0.500000 0.830253
O O2 0.922138 0.685760 0.748159
O O3 0.978405 0.782182 0.865405
O O4 0.058594 0.708349 0.765584
O O5 0.087208 0.293222 0.934888
O O6 0.063049 0.000000 0.905024
O O7 0.000000 0.138043 0.000000
O O8 0.111417 0.500000 0.688210
O O9 0.180702 0.738653 0.713376
O O10 0.062993 0.738244 0.627553
O O11 0.690967 0.266123 0.321224
O O12 0.575151 0.229344 0.388405
O O13 0.643753 0.000000 0.339879
O O14 0.257904 0.500000 0.737734
O O15 0.281421 0.267052 0.815499
O O16 0.819740 0.500000 0.051587
O O17 0.790955 0.782436 0.070684
O O18 0.836323 0.690110 0.945382
O O19 0.265588 0.000000 0.861178
O O20 0.002326 0.500000 0.416251
O O21 0.000000 0.737869 0.500000
#
# Coordination Sequence:
#
# PCOD8106053 Si02
#       8
#     8   8   8   8   8   8   8   8
#     4   9  18  35  56  72  95 134 180 227 270 319
#     4  11  24  36  48  71 102 133 173 228 275 316
#     4   8  16  31  51  78 104 132 175 217 255 307
#     4   9  19  34  53  81 111 137 176 225 269 317
#     4  11  21  32  51  77 110 145 175 213 266 324
#     4  10  21  37  54  73  97 132 176 219 274 333
#     4  10  21  36  55  76 100 132 174 225 269 316
#     4   8  14  30  58  84 106 138 179 220 257 302
#
# _framework density 19.34592
#
# number of rings (size 3 to 8) (size 9 to 14) (size 15 to 20)
#    0.000    2.500    0.000    3.750    1.750    4.000 
#    0.000    1.250    0.000    1.875    0.000    0.000 
#    0.000    0.000    0.000    0.000    0.000    0.000 
#
# Total GULP energy -396575.953511 kJ/mol
# GULP energy per Si atom -12392.998547 kJ/mol
# Density = 1.930189 g / cm^3
# Si number density = 19.345920 Si / 1000 Ang^3
#
#
#
# Elastic Constant Matrix: (Units=GPa)
#
#
# Indices 1 2 3 4 5 6 
#
# 1 82.8365 28.0596 22.5435 0.0000 -8.9351 0.0000
# 2 28.0596 66.7108 33.5058 0.0000 -0.1310 0.0000
# 3 22.5435 33.5058 98.8505 0.0000 -5.0107 0.0000
# 4 0.0000 0.0000 0.0000 87.5173 0.0000 8.9064
# 5 -8.9351 -0.1310 -5.0107 0.0000 17.2495 0.0000
# 6 0.0000 0.0000 0.0000 8.9064 0.0000 28.6403
#
#
#
# Elastic Compliance Matrix: (Units=1/GPa)
#
#
# Indices 1 2 3 4 5 6 
#
# 1 0.015145 -0.005798 -0.001109 0.000000 0.007478 0.000000
# 2 -0.005798 0.020333 -0.005799 0.000000 -0.004534 0.000000
# 3 -0.001109 -0.005799 0.012488 0.000000 0.003009 0.000000
# 4 0.000000 0.000000 0.000000 0.011800 0.000000 -0.003669
# 5 0.007478 -0.004534 0.003009 0.000000 0.062686 0.000000
# 6 0.000000 0.000000 0.000000 -0.003669 0.000000 0.036057
#
#
# Mechanical properties :
#
#
# Convention : Reuss Voigt Hill
#
# Bulk Modulus (GPa) = 44.34404 46.29064 45.31734
# Shear Modulus (GPa) = 26.11803 37.63401 31.87602
#
# Velocity S-wave (km/s) = 3.67829 4.41536 4.06357
# Velocity P-wave (km/s) = 6.40400 7.06921 6.74481
#
# Compressibility (1/GPa) = 0.02255094
#
# Stress axis : x y z
#
# Youngs Moduli (GPa) = 66.03019 49.18183 80.07987
#
# Poissons Ratio (x) = 0.28516 0.08884
# Poissons Ratio (y) = 0.38285 0.46441
# Poissons Ratio (z) = 0.07326 0.28522
#
# Static dielectric constant tensor:
#      x y z
#    x 3.664730 0.000000 0.129390 
#    y 0.000000 3.306890 0.000000 
#    z 0.129390 0.000000 3.631540 
# 
# 
# High freq. dielectric constant tensor:
#      x y z
#    x 1.749960 0.000000 0.002070 
#    y 0.000000 1.729350 0.000000 
#    z 0.002070 0.000000 1.740680 
# 
# From -- ./inp_files/281325.got.cif
#   From: 2010.06.25/outbox.cif.g09.slc.cpg/sg12_141_cif.got.tgz:281325.got - 2010.06.28 00:19:55.
