data_PCOD8106896
_publ_section_title
;
Structure prediction by ZEFSAII (Michael W. Deem and Ramdas Pophale) SiO2 
 PCOD8106896
Probable space group: C 2/M
;
_chemical_formula_sum "Si O2"
_cell_formula_units_Z 64
_cell_length_a 14.648023
_cell_length_b 8.935173
_cell_length_c 25.977604
_cell_angle_alpha 90.000000
_cell_angle_beta 89.682812
_cell_angle_gamma 90.000000
_cell_volume 3399.964763
_symmetry_space_group_name_H-M "C 2/M"
_symmetry_group_IT_number 12
_symmetry_cell_setting 'monoclinic'
loop_
_space_group_symop_operation_xyz
x,y,z
-x,y,-z
-x,-y,-z
x,-y,z
1/2+x,1/2+y,z
1/2-x,1/2+y,-z
1/2-x,1/2-y,-z
1/2+x,1/2-y,z
loop_
_atom_site_type_symbol
_atom_site_label
_atom_site_fract_x
_atom_site_fract_y
_atom_site_fract_z
Si Si1 0.895533 0.676376 0.494484
Si Si2 0.167937 0.672223 0.876315
Si Si3 0.269996 0.824792 0.691105
Si Si4 0.755152 0.823070 0.423206
Si Si5 0.875459 0.828488 0.861107
Si Si6 0.973006 0.824519 0.056635
Si Si7 0.121199 0.177207 0.770010
Si Si8 0.064085 0.674476 0.240402
O O1 0.895739 0.500000 0.485343
O O2 0.847546 0.751546 0.445435
O O3 0.835757 0.721527 0.544634
O O4 0.000000 0.734881 0.500000
O O5 0.141344 0.500000 0.869426
O O6 0.275236 0.694184 0.884670
O O7 0.132785 0.758362 0.826564
O O8 0.118511 0.738780 0.926498
O O9 0.258499 0.756894 0.634123
O O10 0.196827 0.755303 0.731110
O O11 0.370627 0.790412 0.711648
O O12 0.251783 0.000000 0.688205
O O13 0.768252 0.000000 0.423439
O O14 0.945811 0.781441 0.904939
O O15 0.886366 0.720762 0.812440
O O16 0.891552 0.000000 0.843486
O O17 0.952339 0.000000 0.056753
O O18 0.000000 0.768166 0.000000
O O19 0.024249 0.226923 0.748191
O O20 0.127025 0.000000 0.774143
O O21 0.039185 0.500000 0.237141
#
# Coordination Sequence:
#
# PCOD8106896 Si02
#       8
#     8   8   8   8   8   8   8   8
#     4   9  18  33  55  81 109 144 184 229 282 328
#     4  11  22  36  57  84 110 141 184 229 274 322
#     4   9  20  36  54  78 112 148 183 223 275 332
#     4   9  18  35  55  77 109 147 185 227 271 327
#     4  10  21  37  57  81 112 145 180 224 272 326
#     4  10  22  40  60  82 111 149 186 226 280 334
#     4  11  21  36  55  78 108 145 184 225 276 330
#     4  11  21  35  56  83 109 143 186 224 271 332
#
# _framework density 18.823723999999999
#
# number of rings (size 3 to 8) (size 9 to 14) (size 15 to 20)
#    0.000    2.000    2.500    1.125    0.000    2.500 
#    0.000    3.750    0.000    0.000    0.000    0.000 
#    0.000    0.000    0.000    0.000    0.000    0.000 
#
# Total GULP energy -396868.474972 kJ/mol
# GULP energy per Si atom -12402.139843 kJ/mol
# Density = 1.878088 g / cm^3
# Si number density = 18.823724 Si / 1000 Ang^3
#
#
#
# Elastic Constant Matrix: (Units=GPa)
#
#
# Indices 1 2 3 4 5 6 
#
# 1 89.7019 16.7183 14.5257 0.0000 -3.0369 0.0000
# 2 16.7183 44.5476 18.6476 0.0000 -1.4657 0.0000
# 3 14.5257 18.6476 92.5334 0.0000 2.0104 0.0000
# 4 0.0000 0.0000 0.0000 22.6408 0.0000 1.1555
# 5 -3.0369 -1.4657 2.0104 0.0000 26.2475 0.0000
# 6 0.0000 0.0000 0.0000 1.1555 0.0000 28.0643
#
#
#
# Elastic Compliance Matrix: (Units=1/GPa)
#
#
# Indices 1 2 3 4 5 6 
#
# 1 0.012125 -0.004042 -0.001116 0.000000 0.001263 0.000000
# 2 -0.004042 0.025944 -0.004623 0.000000 0.001335 0.000000
# 3 -0.001116 -0.004623 0.011942 0.000000 -0.001302 0.000000
# 4 0.000000 0.000000 0.000000 0.044261 0.000000 -0.001822
# 5 0.001263 0.001335 -0.001302 0.000000 0.038419 0.000000
# 6 0.000000 0.000000 0.000000 -0.001822 0.000000 0.035707
#
#
# Mechanical properties :
#
#
# Convention : Reuss Voigt Hill
#
# Bulk Modulus (GPa) = 32.84153 36.28513 34.56333
# Shear Modulus (GPa) = 25.23858 27.18326 26.21092
#
# Velocity S-wave (km/s) = 3.66565 3.80425 3.73559
# Velocity P-wave (km/s) = 5.94985 6.21406 6.08339
#
# Compressibility (1/GPa) = 0.03044925
#
# Stress axis : x y z
#
# Youngs Moduli (GPa) = 82.47561 38.54500 83.73783
#
# Poissons Ratio (x) = 0.15578 0.09348
# Poissons Ratio (y) = 0.33333 0.38711
# Poissons Ratio (z) = 0.09207 0.17819
#
# Static dielectric constant tensor:
#      x y z
#    x 3.674640 0.000000 -0.058140 
#    y 0.000000 3.322860 0.000000 
#    z -0.058140 0.000000 3.561640 
# 
# 
# High freq. dielectric constant tensor:
#      x y z
#    x 1.743610 0.000000 -0.000280 
#    y 0.000000 1.718310 0.000000 
#    z -0.000280 0.000000 1.727870 
# 
# From -- ./inp_files/338730.got.cif
#   From: 2010.06.25/outbox.cif.g09.slc.cpg/sg12_170_cif.got.tgz:338730.got - 2010.06.28 00:19:55.
