data_PCOD8106333
_publ_section_title
;
Structure prediction by ZEFSAII (Michael W. Deem and Ramdas Pophale) SiO2 
 PCOD8106333
Probable space group: C 2/M
;
_chemical_formula_sum "Si O2"
_cell_formula_units_Z 64
_cell_length_a 28.603141
_cell_length_b 8.744682
_cell_length_c 25.418296
_cell_angle_alpha 90.000000
_cell_angle_beta 149.797713
_cell_angle_gamma 90.000000
_cell_volume 3198.299801
_symmetry_space_group_name_H-M "C 2/M"
_symmetry_group_IT_number 12
_symmetry_cell_setting 'monoclinic'
loop_
_space_group_symop_operation_xyz
x,y,z
-x,y,-z
-x,-y,-z
x,-y,z
1/2+x,1/2+y,z
1/2-x,1/2+y,-z
1/2-x,1/2-y,-z
1/2+x,1/2-y,z
loop_
_atom_site_type_symbol
_atom_site_label
_atom_site_fract_x
_atom_site_fract_y
_atom_site_fract_z
Si Si1 0.253338 0.679747 0.172155
Si Si2 0.282580 0.820856 0.311879
Si Si3 0.912820 0.676426 0.263150
Si Si4 0.149975 0.322129 0.912406
Si Si5 0.405678 0.320515 0.516023
Si Si6 0.626460 0.675747 0.241409
Si Si7 0.747204 0.822357 0.440960
Si Si8 0.914609 0.821621 0.043874
O O1 0.265151 0.500000 0.176293
O O2 0.284279 0.726126 0.260204
O O3 0.313780 0.767213 0.187524
O O4 0.147840 0.730084 0.058496
O O5 0.373624 0.771170 0.433101
O O6 0.188283 0.776242 0.251243
O O7 0.287459 0.000000 0.303969
O O8 0.928016 0.500000 0.292826
O O9 0.914140 0.699460 0.201553
O O10 0.990595 0.776775 0.367303
O O11 0.163332 0.500000 0.939240
O O12 0.250000 0.250000 0.000000
O O13 0.097529 0.238532 0.908744
O O14 0.399610 0.500000 0.498136
O O15 0.338723 0.270717 0.498451
O O16 0.645243 0.500000 0.273511
O O17 0.655423 0.771869 0.320553
O O18 0.519023 0.707615 0.125233
O O19 0.750000 0.750000 0.500000
O O20 0.743277 0.000000 0.445323
O O21 0.888793 0.000000 0.017398
#
# Coordination Sequence:
#
# PCOD8106333 Si02
#       8
#     8   8   8   8   8   8   8   8
#     4  12  25  41  63  90 121 157 202 251 303 359
#     4  10  21  42  67  89 120 158 200 250 302 355
#     4  11  24  41  62  90 122 160 204 247 299 361
#     4  11  23  39  61  88 122 161 202 248 302 356
#     4  10  22  40  61  89 122 157 199 249 302 354
#     4   9  21  40  62  88 119 158 200 245 297 354
#     4  10  21  36  57  85 120 158 199 246 295 352
#     4  11  23  40  62  90 124 160 203 248 299 360
#
# _framework density 20.010631
#
# number of rings (size 3 to 8) (size 9 to 14) (size 15 to 20)
#    0.000    1.500    1.250    3.375    1.750    5.500 
#    0.000    5.000    0.000    0.000    0.000    0.000 
#    0.000    0.000    0.000    0.000    0.000    0.000 
#
# Total GULP energy -396978.118454 kJ/mol
# GULP energy per Si atom -12405.566202 kJ/mol
# Density = 1.996509 g / cm^3
# Si number density = 20.010631 Si / 1000 Ang^3
#
#
#
# Elastic Constant Matrix: (Units=GPa)
#
#
# Indices 1 2 3 4 5 6 
#
# 1 41.6939 26.1674 20.9567 0.0000 -10.9585 0.0000
# 2 26.1674 58.3711 25.6797 0.0000 -8.2096 0.0000
# 3 20.9567 25.6797 97.6082 0.0000 -3.7993 0.0000
# 4 0.0000 0.0000 0.0000 38.9908 0.0000 -3.5451
# 5 -10.9585 -8.2096 -3.7993 0.0000 35.5987 0.0000
# 6 0.0000 0.0000 0.0000 -3.5451 0.0000 31.1821
#
#
#
# Elastic Compliance Matrix: (Units=1/GPa)
#
#
# Indices 1 2 3 4 5 6 
#
# 1 0.036496 -0.013530 -0.003977 0.000000 0.007690 0.000000
# 2 -0.013530 0.024956 -0.003614 0.000000 0.001205 0.000000
# 3 -0.003977 -0.003614 0.012020 0.000000 -0.000775 0.000000
# 4 0.000000 0.000000 0.000000 0.025915 0.000000 0.002946
# 5 0.007690 0.001205 -0.000775 0.000000 0.030653 0.000000
# 6 0.000000 0.000000 0.000000 0.002946 0.000000 0.032405
#
#
# Mechanical properties :
#
#
# Convention : Reuss Voigt Hill
#
# Bulk Modulus (GPa) = 32.01989 38.14228 35.08109
# Shear Modulus (GPa) = 23.24543 29.47894 26.36218
#
# Velocity S-wave (km/s) = 3.41200 3.84235 3.63355
# Velocity P-wave (km/s) = 5.61770 6.22794 5.93067
#
# Compressibility (1/GPa) = 0.03123059
#
# Stress axis : x y z
#
# Youngs Moduli (GPa) = 27.40043 40.06982 83.19793
#
# Poissons Ratio (x) = 0.54213 0.33087
# Poissons Ratio (y) = 0.37072 0.30068
# Poissons Ratio (z) = 0.10897 0.14481
#
# Static dielectric constant tensor:
#      x y z
#    x 3.739130 0.000000 -0.047770 
#    y 0.000000 3.721310 0.000000 
#    z -0.047770 0.000000 3.814440 
# 
# 
# High freq. dielectric constant tensor:
#      x y z
#    x 1.778750 0.000000 -0.003240 
#    y 0.000000 1.793420 0.000000 
#    z -0.003240 0.000000 1.788050 
# 
# From -- ./inp_files/353477.got.cif
#   From: 2010.06.25/outbox.cif.g09.slc.cpg/sg12_177_cif.got.tgz:353477.got - 2010.06.28 00:19:55.
