data_PCOD8106078
_publ_section_title
;
Structure prediction by ZEFSAII (Michael W. Deem and Ramdas Pophale) SiO2 
 PCOD8106078
Probable space group: C 2/M
;
_chemical_formula_sum "Si O2"
_cell_formula_units_Z 64
_cell_length_a 32.799845
_cell_length_b 8.872355
_cell_length_c 20.196072
_cell_angle_alpha 90.000000
_cell_angle_beta 147.560600
_cell_angle_gamma 90.000000
_cell_volume 3152.624704
_symmetry_space_group_name_H-M "C 2/M"
_symmetry_group_IT_number 12
_symmetry_cell_setting 'monoclinic'
loop_
_space_group_symop_operation_xyz
x,y,z
-x,y,-z
-x,-y,-z
x,-y,z
1/2+x,1/2+y,z
1/2-x,1/2+y,-z
1/2-x,1/2-y,-z
1/2+x,1/2-y,z
loop_
_atom_site_type_symbol
_atom_site_label
_atom_site_fract_x
_atom_site_fract_y
_atom_site_fract_z
Si Si1 0.945822 0.676343 0.037590
Si Si2 0.586817 0.820398 0.627233
Si Si3 0.422659 0.669646 0.137732
Si Si4 0.831534 0.678066 0.126137
Si Si5 0.103470 0.827242 0.259546
Si Si6 0.173230 0.676833 0.617471
Si Si7 0.334544 0.674853 0.792280
Si Si8 0.101479 0.166378 0.400980
O O1 0.937760 0.500000 0.038632
O O2 0.903948 0.763217 0.040185
O O3 0.033624 0.717132 0.149664
O O4 0.904035 0.726440 0.913598
O O5 0.500000 0.759132 0.500000
O O6 0.628552 0.762681 0.751228
O O7 0.636258 0.755164 0.633518
O O8 0.584614 0.000000 0.623537
O O9 0.389065 0.500000 0.096995
O O10 0.386765 0.777622 0.142845
O O11 0.511931 0.669560 0.269482
O O12 0.821214 0.500000 0.115224
O O13 0.750000 0.750000 0.000000
O O14 0.167080 0.804479 0.289894
O O15 0.138703 0.791464 0.380523
O O16 0.072928 0.000000 0.217729
O O17 0.177248 0.500000 0.630419
O O18 0.257384 0.740598 0.718745
O O19 0.121815 0.712634 0.483813
O O20 0.346434 0.500000 0.827140
O O21 0.128593 0.000000 0.460925
#
# Coordination Sequence:
#
# PCOD8106078 Si02
#       8
#     8   8   8   8   8   8   8   8
#     4  11  22  35  56  86 115 146 190 242 292 347
#     4   9  19  37  60  85 116 156 201 249 296 351
#     4  10  21  39  61  83 113 153 193 236 291 355
#     4  11  23  38  60  91 124 157 198 251 307 363
#     4   9  19  37  57  79 111 154 196 234 286 351
#     4  10  21  36  57  84 111 149 196 238 288 351
#     4  10  21  36  55  79 113 156 197 235 285 353
#     4   9  19  36  57  81 110 146 189 240 295 344
#
# _framework density 20.300545
#
# number of rings (size 3 to 8) (size 9 to 14) (size 15 to 20)
#    0.000    2.125    0.000    3.750    1.750    6.500 
#    0.000    1.250    0.000    3.375    0.000    0.000 
#    0.000    0.000    0.000    0.000    0.000    0.000 
#
# Total GULP energy -396741.897172 kJ/mol
# GULP energy per Si atom -12398.184287 kJ/mol
# Density = 2.025434 g / cm^3
# Si number density = 20.300545 Si / 1000 Ang^3
#
#
#
# Elastic Constant Matrix: (Units=GPa)
#
#
# Indices 1 2 3 4 5 6 
#
# 1 148.4431 20.9995 43.9894 0.0000 -11.8517 0.0000
# 2 20.9995 51.8947 22.8378 0.0000 -0.1966 0.0000
# 3 43.9894 22.8378 87.9881 0.0000 -13.4370 0.0000
# 4 0.0000 0.0000 0.0000 27.8400 0.0000 -3.6804
# 5 -11.8517 -0.1966 -13.4370 0.0000 25.2194 0.0000
# 6 0.0000 0.0000 0.0000 -3.6804 0.0000 24.9504
#
#
#
# Elastic Compliance Matrix: (Units=1/GPa)
#
#
# Indices 1 2 3 4 5 6 
#
# 1 0.008132 -0.001843 -0.003272 0.000000 0.002064 0.000000
# 2 -0.001843 0.022396 -0.005440 0.000000 -0.003590 0.000000
# 3 -0.003272 -0.005440 0.015427 0.000000 0.006639 0.000000
# 4 0.000000 0.000000 0.000000 0.036634 0.000000 0.005404
# 5 0.002064 -0.003590 0.006639 0.000000 0.044131 0.000000
# 6 0.000000 0.000000 0.000000 0.005404 0.000000 0.040877
#
#
# Mechanical properties :
#
#
# Convention : Reuss Voigt Hill
#
# Bulk Modulus (GPa) = 40.24927 51.55324 45.90125
# Shear Modulus (GPa) = 25.38237 28.96859 27.17548
#
# Velocity S-wave (km/s) = 3.53984 3.78164 3.66274
# Velocity P-wave (km/s) = 6.04789 6.67217 6.36769
#
# Compressibility (1/GPa) = 0.02484517
#
# Stress axis : x y z
#
# Youngs Moduli (GPa) = 122.97641 44.65108 64.82203
#
# Poissons Ratio (x) = 0.08228 0.21209
# Poissons Ratio (y) = 0.22662 0.35262
# Poissons Ratio (z) = 0.40237 0.24290
#
# Static dielectric constant tensor:
#      x y z
#    x 4.133750 0.000000 -0.146460 
#    y 0.000000 3.750740 0.000000 
#    z -0.146460 0.000000 3.605690 
# 
# 
# High freq. dielectric constant tensor:
#      x y z
#    x 1.808860 0.000000 -0.011030 
#    y 0.000000 1.771460 0.000000 
#    z -0.011030 0.000000 1.784130 
# 
# From -- ./inp_files/295811.got.cif
#   From: 2010.06.25/outbox.cif.g09.slc.cpg/sg12_148_cif.got.tgz:295811.got - 2010.06.28 00:19:55.
