data_PCOD8106729
_publ_section_title
;
Structure prediction by ZEFSAII (Michael W. Deem and Ramdas Pophale) SiO2 
 PCOD8106729
Probable space group: C 2/M
;
_chemical_formula_sum "Si O2"
_cell_formula_units_Z 44
_cell_length_a 19.723433
_cell_length_b 24.269329
_cell_length_c 5.085961
_cell_angle_alpha 90.000000
_cell_angle_beta 70.725192
_cell_angle_gamma 90.000000
_cell_volume 2298.055632
_symmetry_space_group_name_H-M "C 2/M"
_symmetry_group_IT_number 12
_symmetry_cell_setting 'monoclinic'
loop_
_space_group_symop_operation_xyz
x,y,z
-x,y,-z
-x,-y,-z
x,-y,z
1/2+x,1/2+y,z
1/2-x,1/2+y,-z
1/2-x,1/2-y,-z
1/2+x,1/2-y,z
loop_
_atom_site_type_symbol
_atom_site_label
_atom_site_fract_x
_atom_site_fract_y
_atom_site_fract_z
Si Si1 0.000000 0.351897 0.500000
Si Si2 0.877063 0.711816 0.444893
Si Si3 0.069592 0.560183 0.087824
Si Si4 0.171744 0.230642 0.017113
Si Si5 0.251967 0.630482 0.258296
Si Si6 0.273243 0.062996 0.223488
O O1 0.043193 0.314851 0.656447
O O2 0.062680 0.390041 0.299899
O O3 0.860653 0.732128 0.173788
O O4 0.817208 0.668574 0.613229
O O5 0.877424 0.761851 0.659746
O O6 0.074411 0.500000 0.224495
O O7 0.141424 0.568520 0.823261
O O8 0.000000 0.561954 0.000000
O O9 0.178555 0.167554 0.909413
O O10 0.250000 0.250000 0.000000
O O11 0.269618 0.598652 0.506530
O O12 0.239691 0.585090 0.051718
O O13 0.247021 0.000000 0.271456
#
# Coordination Sequence:
#
# PCOD8106729 Si02
#       6
#     4   8   8   8   8   8
#     4  12  23  34  54  70 114 138 187 230 274 302
#     4  11  22  34  54  79 100 140 184 226 271 311
#     4  10  22  35  48  68 101 149 194 225 256 299
#     4  10  21  37  55  76  98 131 187 230 265 326
#     4  11  19  37  55  70 102 138 173 223 271 311
#     4  11  22  34  51  78 103 134 179 221 263 309
#
# _framework density 19.146621
#
# number of rings (size 3 to 8) (size 9 to 14) (size 15 to 20)
#    0.000    1.273    1.818    7.364    2.545    0.000 
#    0.000    0.000    0.000    0.000    0.000    0.000 
#    0.000    0.000    0.000   57.273    0.000    0.000 
#
# Total GULP energy -272690.074978 kJ/mol
# GULP energy per Si atom -12395.003408 kJ/mol
# Density = 1.910304 g / cm^3
# Si number density = 19.146621 Si / 1000 Ang^3
#
#
#
# Elastic Constant Matrix: (Units=GPa)
#
#
# Indices 1 2 3 4 5 6 
#
# 1 54.3723 26.7485 11.0441 0.0000 17.9096 0.0000
# 2 26.7485 89.1358 21.9379 0.0000 -0.6444 0.0000
# 3 11.0441 21.9379 74.4969 0.0000 17.0080 0.0000
# 4 0.0000 0.0000 0.0000 9.8315 0.0000 20.4971
# 5 17.9096 -0.6444 17.0080 0.0000 25.3686 0.0000
# 6 0.0000 0.0000 0.0000 20.4971 0.0000 -15.4733
#
#
#
# Elastic Compliance Matrix: (Units=1/GPa)
#
#
# Indices 1 2 3 4 5 6 
#
# 1 0.030894 -0.010481 0.004188 0.000000 -0.024884 0.000000
# 2 -0.010481 0.015873 -0.005788 0.000000 0.011683 0.000000
# 3 0.004188 -0.005788 0.017965 0.000000 -0.015148 0.000000
# 4 0.000000 0.000000 0.000000 0.027039 0.000000 0.035818
# 5 -0.024884 0.011683 -0.015148 0.000000 0.067439 0.000000
# 6 0.000000 0.000000 0.000000 0.035818 0.000000 -0.017180
#
#
# Mechanical properties :
#
#
# Convention : Reuss Voigt Hill
#
# Bulk Modulus (GPa) = 24.64908 37.49621 31.07264
# Shear Modulus (GPa) = 27.82165 14.49702 21.15934
#
# Velocity S-wave (km/s) = 3.81607 2.75464 3.32794
# Velocity P-wave (km/s) = 5.68492 5.45377 5.57054
#
# Compressibility (1/GPa) = 0.04056947
#
# Stress axis : x y z
#
# Youngs Moduli (GPa) = 32.36872 62.99961 55.66290
#
# Poissons Ratio (x) = 0.66033 -0.23310
# Poissons Ratio (y) = 0.33927 0.32216
# Poissons Ratio (z) = -0.13555 0.36463
#
# Static dielectric constant tensor:
#      x y z
#    x 3.254920 0.000000 -0.037980 
#    y 0.000000 4.083170 0.000000 
#    z -0.037980 0.000000 3.769930 
# 
# 
# High freq. dielectric constant tensor:
#      x y z
#    x 1.694310 0.000000 0.025790 
#    y 0.000000 1.747260 0.000000 
#    z 0.025790 0.000000 1.745470 
# 
# From -- ./inp_files/20905.got.cif
#   From: 2010.06.25/outbox.cif.g09.slc.cpg/sg12_11_cif.got.tgz:20905.got - 2010.06.28 00:19:55.
