data_PCOD8106528
_publ_section_title
;
Structure prediction by ZEFSAII (Michael W. Deem and Ramdas Pophale) SiO2 
 PCOD8106528
Probable space group: C 2/M
;
_chemical_formula_sum "Si O2"
_cell_formula_units_Z 64
_cell_length_a 23.312909
_cell_length_b 8.955470
_cell_length_c 14.976633
_cell_angle_alpha 90.000000
_cell_angle_beta 92.746429
_cell_angle_gamma 90.000000
_cell_volume 3123.200828
_symmetry_space_group_name_H-M "C 2/M"
_symmetry_group_IT_number 12
_symmetry_cell_setting 'monoclinic'
loop_
_space_group_symop_operation_xyz
x,y,z
-x,y,-z
-x,-y,-z
x,-y,z
1/2+x,1/2+y,z
1/2-x,1/2+y,-z
1/2-x,1/2-y,-z
1/2+x,1/2-y,z
loop_
_atom_site_type_symbol
_atom_site_label
_atom_site_fract_x
_atom_site_fract_y
_atom_site_fract_z
Si Si1 0.959186 0.177549 0.917851
Si Si2 0.596174 0.328859 0.430177
Si Si3 0.001532 0.171125 0.273589
Si Si4 0.215324 0.676063 0.418305
Si Si5 0.169667 0.172776 0.058881
Si Si6 0.918702 0.670947 0.394761
Si Si7 0.780296 0.171600 0.129937
Si Si8 0.798047 0.670688 0.301695
O O1 0.982373 0.232728 0.823442
O O2 0.894118 0.235600 0.926751
O O3 0.958636 0.000000 0.921386
O O4 0.000000 0.240841 0.000000
O O5 0.614564 0.500000 0.447858
O O6 0.555702 0.313815 0.342225
O O7 0.649966 0.225997 0.413409
O O8 0.564514 0.268110 0.517034
O O9 0.950113 0.269299 0.308915
O O10 0.980835 0.000000 0.266006
O O11 0.218404 0.500000 0.428796
O O12 0.250000 0.750000 0.500000
O O13 0.244353 0.729925 0.329083
O O14 0.215326 0.267673 0.118278
O O15 0.175425 0.000000 0.087718
O O16 0.182852 0.194509 0.955952
O O17 0.936639 0.500000 0.412544
O O18 0.850663 0.685743 0.374161
O O19 0.815142 0.265408 0.206354
O O20 0.777123 0.000000 0.157871
O O21 0.778321 0.500000 0.292278
#
# Coordination Sequence:
#
# PCOD8106528 Si02
#       8
#     8   8   8   8   8   8   8   8
#     4   9  19  37  62  90 118 157 203 248 300 364
#     4  11  23  40  63  92 125 164 205 254 308 365
#     4  10  23  40  63  92 121 159 208 256 306 364
#     4  12  24  40  62  91 124 161 201 247 302 363
#     4   9  19  37  61  88 121 158 199 249 307 368
#     4  11  24  41  62  88 121 164 209 257 313 364
#     4  10  21  36  59  92 121 156 202 251 306 366
#     4  11  24  40  60  87 122 163 205 252 306 367
#
# _framework density 20.491796999999998
#
# number of rings (size 3 to 8) (size 9 to 14) (size 15 to 20)
#    0.000    1.625    1.250    3.000    3.500    4.500 
#    0.000    0.625    0.000    0.750    0.000    0.000 
#    0.000    0.000    0.000    0.000    0.000    0.000 
#
# Total GULP energy -396921.954122 kJ/mol
# GULP energy per Si atom -12403.811066 kJ/mol
# Density = 2.044516 g / cm^3
# Si number density = 20.491797 Si / 1000 Ang^3
#
#
#
# Elastic Constant Matrix: (Units=GPa)
#
#
# Indices 1 2 3 4 5 6 
#
# 1 84.4028 37.5384 33.9732 0.0000 -19.1838 0.0000
# 2 37.5384 126.0484 48.6619 0.0000 -4.2848 0.0000
# 3 33.9732 48.6619 125.9456 0.0000 -5.7672 0.0000
# 4 0.0000 0.0000 0.0000 28.4043 0.0000 -2.3618
# 5 -19.1838 -4.2848 -5.7672 0.0000 30.3933 0.0000
# 6 0.0000 0.0000 0.0000 -2.3618 0.0000 31.4810
#
#
#
# Elastic Compliance Matrix: (Units=1/GPa)
#
#
# Indices 1 2 3 4 5 6 
#
# 1 0.016696 -0.003618 -0.002670 0.000000 0.009521 0.000000
# 2 -0.003618 0.010120 -0.003000 0.000000 -0.001426 0.000000
# 3 -0.002670 -0.003000 0.009808 0.000000 -0.000247 0.000000
# 4 0.000000 0.000000 0.000000 0.035427 0.000000 0.002658
# 5 0.009521 -0.001426 -0.000247 0.000000 0.038664 0.000000
# 6 0.000000 0.000000 0.000000 0.002658 0.000000 0.031965
#
#
# Mechanical properties :
#
#
# Convention : Reuss Voigt Hill
#
# Bulk Modulus (GPa) = 55.40333 64.08264 59.74299
# Shear Modulus (GPa) = 29.89175 32.47060 31.18117
#
# Velocity S-wave (km/s) = 3.82346 3.98498 3.90505
# Velocity P-wave (km/s) = 6.82549 7.24663 7.03921
#
# Compressibility (1/GPa) = 0.01804946
#
# Stress axis : x y z
#
# Youngs Moduli (GPa) = 59.89566 98.80983 101.95988
#
# Poissons Ratio (x) = 0.35747 0.27221
# Poissons Ratio (y) = 0.21669 0.30585
# Poissons Ratio (z) = 0.15991 0.29640
#
# Static dielectric constant tensor:
#      x y z
#    x 3.744390 0.000000 -0.106150 
#    y 0.000000 3.668530 0.000000 
#    z -0.106150 0.000000 3.898910 
# 
# 
# High freq. dielectric constant tensor:
#      x y z
#    x 1.802030 0.000000 -0.004030 
#    y 0.000000 1.790600 0.000000 
#    z -0.004030 0.000000 1.812170 
# 
# From -- ./inp_files/238769.got.cif
#   From: 2010.06.25/outbox.cif.g09.slc.cpg/sg12_120_cif.got.tgz:238769.got - 2010.06.28 00:19:55.
