data_PCOD8106824
_publ_section_title
;
Structure prediction by ZEFSAII (Michael W. Deem and Ramdas Pophale) SiO2 
 PCOD8106824
Probable space group: C 2/M
;
_chemical_formula_sum "Si O2"
_cell_formula_units_Z 56
_cell_length_a 16.974939
_cell_length_b 21.443575
_cell_length_c 8.401050
_cell_angle_alpha 90.000000
_cell_angle_beta 61.752245
_cell_angle_gamma 90.000000
_cell_volume 2693.829904
_symmetry_space_group_name_H-M "C 2/M"
_symmetry_group_IT_number 12
_symmetry_cell_setting 'monoclinic'
loop_
_space_group_symop_operation_xyz
x,y,z
-x,y,-z
-x,-y,-z
x,-y,z
1/2+x,1/2+y,z
1/2-x,1/2+y,-z
1/2-x,1/2-y,-z
1/2+x,1/2-y,z
loop_
_atom_site_type_symbol
_atom_site_label
_atom_site_fract_x
_atom_site_fract_y
_atom_site_fract_z
Si Si1 0.509397 0.427513 0.811133
Si Si2 0.857031 0.629711 0.516176
Si Si3 0.818991 0.428481 0.875920
Si Si4 0.342046 0.626141 0.808099
Si Si5 0.199871 0.928232 0.483801
Si Si6 0.592403 0.755968 0.335158
Si Si7 0.528878 0.146894 0.150070
O O1 0.485448 0.500000 0.818328
O O2 0.442107 0.389826 0.764788
O O3 0.608806 0.412307 0.661095
O O4 0.500000 0.404072 0.000000
O O5 0.854496 0.580258 0.662546
O O6 0.773710 0.619007 0.480002
O O7 0.855848 0.699271 0.590271
O O8 0.947362 0.619526 0.330686
O O9 0.795919 0.500000 0.929775
O O10 0.894849 0.406355 0.928049
O O11 0.728546 0.387792 0.983896
O O12 0.312184 0.583002 0.690833
O O13 0.341032 0.698926 0.763324
O O14 0.228282 0.000000 0.485236
O O15 0.500000 0.731529 0.500000
O O16 0.570643 0.791842 0.191992
O O17 0.500000 0.164602 0.000000
#
# Coordination Sequence:
#
# PCOD8106824 Si02
#       7
#     8   8   8   8   8   8   8
#     4  10  21  37  56  81 116 157 200 247 302 363
#     4  10  22  41  62  87 123 162 202 250 303 363
#     4  11  23  39  62  91 123 162 202 243 305 374
#     4  12  23  38  60  88 123 158 202 254 301 353
#     4  11  22  36  59  89 119 156 203 253 305 358
#     4   9  21  41  62  86 121 164 206 246 300 363
#     4  10  22  41  64  91 120 154 202 257 304 355
#
# _framework density 20.788246000000001
#
# number of rings (size 3 to 8) (size 9 to 14) (size 15 to 20)
#    0.000    1.571    0.000    6.000    0.000    7.714 
#    0.000    4.286    0.000    0.000    0.000    0.000 
#    0.000    0.000    0.000    0.000    0.000    0.000 
#
# Total GULP energy -347339.411613 kJ/mol
# GULP energy per Si atom -12404.978986 kJ/mol
# Density = 2.074093 g / cm^3
# Si number density = 20.788246 Si / 1000 Ang^3
#
#
#
# Elastic Constant Matrix: (Units=GPa)
#
#
# Indices 1 2 3 4 5 6 
#
# 1 112.4344 50.1901 28.3534 0.0000 0.4881 0.0000
# 2 50.1901 113.7871 40.9257 0.0000 -17.3944 0.0000
# 3 28.3534 40.9257 96.3838 0.0000 -4.6518 0.0000
# 4 0.0000 0.0000 0.0000 27.6104 0.0000 -5.7931
# 5 0.4881 -17.3944 -4.6518 0.0000 37.0815 0.0000
# 6 0.0000 0.0000 0.0000 -5.7931 0.0000 30.3710
#
#
#
# Elastic Compliance Matrix: (Units=1/GPa)
#
#
# Indices 1 2 3 4 5 6 
#
# 1 0.011474 -0.004965 -0.001395 0.000000 -0.002655 0.000000
# 2 -0.004965 0.013265 -0.003892 0.000000 0.005799 0.000000
# 3 -0.001395 -0.003892 0.012426 0.000000 -0.000248 0.000000
# 4 0.000000 0.000000 0.000000 0.037728 0.000000 0.007196
# 5 -0.002655 0.005799 -0.000248 0.000000 0.029692 0.000000
# 6 0.000000 0.000000 0.000000 0.007196 0.000000 0.034299
#
#
# Mechanical properties :
#
#
# Convention : Reuss Voigt Hill
#
# Bulk Modulus (GPa) = 60.02240 62.39375 61.20808
# Shear Modulus (GPa) = 30.31385 32.55500 31.43442
#
# Velocity S-wave (km/s) = 3.82281 3.96160 3.89282
# Velocity P-wave (km/s) = 6.95853 7.14177 7.05074
#
# Compressibility (1/GPa) = 0.01666045
#
# Stress axis : x y z
#
# Youngs Moduli (GPa) = 87.15514 75.38817 80.47536
#
# Poissons Ratio (x) = 0.37430 0.11228
# Poissons Ratio (y) = 0.43273 0.31320
# Poissons Ratio (z) = 0.12160 0.29340
#
# Static dielectric constant tensor:
#      x y z
#    x 3.787680 0.000000 -0.049540 
#    y 0.000000 3.569350 0.000000 
#    z -0.049540 0.000000 3.869320 
# 
# 
# High freq. dielectric constant tensor:
#      x y z
#    x 1.816910 0.000000 -0.003270 
#    y 0.000000 1.802070 0.000000 
#    z -0.003270 0.000000 1.825490 
# 
# From -- ./inp_files/65736.got.cif
#   From: 2010.06.25/outbox.cif.g09.slc.cpg/sg12_33_cif.got.tgz:65736.got - 2010.06.28 00:19:55.
