data_PCOD8106020
_publ_section_title
;
Structure prediction by ZEFSAII (Michael W. Deem and Ramdas Pophale) SiO2 
 PCOD8106020
Probable space group: C 2/M
;
_chemical_formula_sum "Si O2"
_cell_formula_units_Z 56
_cell_length_a 18.450354
_cell_length_b 8.726105
_cell_length_c 25.720365
_cell_angle_alpha 90.000000
_cell_angle_beta 134.741451
_cell_angle_gamma 90.000000
_cell_volume 2941.292515
_symmetry_space_group_name_H-M "C 2/M"
_symmetry_group_IT_number 12
_symmetry_cell_setting 'monoclinic'
loop_
_space_group_symop_operation_xyz
x,y,z
-x,y,-z
-x,-y,-z
x,-y,z
1/2+x,1/2+y,z
1/2-x,1/2+y,-z
1/2-x,1/2-y,-z
1/2+x,1/2-y,z
loop_
_atom_site_type_symbol
_atom_site_label
_atom_site_fract_x
_atom_site_fract_y
_atom_site_fract_z
Si Si1 0.525353 0.833014 0.291932
Si Si2 0.674353 0.817613 0.919890
Si Si3 0.055369 0.331538 0.189355
Si Si4 0.737947 0.820185 0.733743
Si Si5 0.261954 0.822389 0.560738
Si Si6 0.614332 0.317738 0.575666
Si Si7 0.176030 0.822595 0.809864
O O1 0.568657 0.853741 0.256721
O O2 0.620548 0.783224 0.373160
O O3 0.444994 0.697396 0.257511
O O4 0.479807 0.000000 0.286541
O O5 0.559459 0.766706 0.878653
O O6 0.708512 0.755224 0.880718
O O7 0.680336 0.000000 0.920669
O O8 0.750000 0.750000 0.000000
O O9 0.070004 0.500000 0.170045
O O10 0.143406 0.214858 0.217475
O O11 0.654997 0.747959 0.651619
O O12 0.726583 0.757886 0.786251
O O13 0.720146 0.000000 0.723172
O O14 0.250000 0.750000 0.500000
O O15 0.189779 0.751978 0.569177
O O16 0.236646 0.000000 0.546124
O O17 0.500000 0.265906 0.500000
O O18 0.618962 0.500000 0.583823
O O19 0.206243 0.000000 0.826459
#
# Coordination Sequence:
#
# PCOD8106020 Si02
#       7
#     8   8   8   8   8   8   8
#     4   9  18  36  57  79 111 148 190 244 295 344
#     4  10  21  40  66  95 127 157 191 237 287 345
#     4   9  18  37  62  85 115 155 193 232 286 346
#     4  12  24  38  59  87 120 155 199 251 298 350
#     4  10  21  36  54  79 112 147 190 243 296 350
#     4  10  22  41  60  80 112 157 202 245 301 360
#     4  11  23  38  60  87 118 156 199 240 289 350
#
# _framework density 19.039249000000002
#
# number of rings (size 3 to 8) (size 9 to 14) (size 15 to 20)
#    0.000    1.857    1.429    3.857    2.000    4.286 
#    0.000    0.714    0.000    4.286    0.000    0.000 
#    0.000    0.000    0.000    0.000    0.000    0.000 
#
# Total GULP energy -346927.146157 kJ/mol
# GULP energy per Si atom -12390.255220 kJ/mol
# Density = 1.899591 g / cm^3
# Si number density = 19.039249 Si / 1000 Ang^3
#
#
#
# Elastic Constant Matrix: (Units=GPa)
#
#
# Indices 1 2 3 4 5 6 
#
# 1 122.8517 171.9499 26.4939 0.0000 -161.5174 0.0000
# 2 171.9499 584.0784 -52.3827 0.0000 -586.3831 0.0000
# 3 26.4939 -52.3827 177.8115 0.0000 121.2067 0.0000
# 4 0.0000 0.0000 0.0000 27.2706 0.0000 -6.8169
# 5 -161.5174 -586.3831 121.2067 0.0000 706.1165 0.0000
# 6 0.0000 0.0000 0.0000 -6.8169 0.0000 26.6197
#
#
#
# Elastic Compliance Matrix: (Units=1/GPa)
#
#
# Indices 1 2 3 4 5 6 
#
# 1 0.016195 -0.004163 -0.004313 0.000000 0.000988 0.000000
# 2 -0.004163 0.013223 -0.002628 0.000000 0.010480 0.000000
# 3 -0.004313 -0.002628 0.008666 0.000000 -0.004656 0.000000
# 4 0.000000 0.000000 0.000000 0.039177 0.000000 0.010033
# 5 0.000988 0.010480 -0.004656 0.000000 0.011144 0.000000
# 6 0.000000 0.000000 0.000000 0.010033 0.000000 0.040135
#
#
# Mechanical properties :
#
#
# Convention : Reuss Voigt Hill
#
# Bulk Modulus (GPa) = 62.98180 130.76266 96.87223
# Shear Modulus (GPa) = 32.04280 201.24671 116.64475
#
# Velocity S-wave (km/s) = 4.10687 10.29225 7.83571
# Velocity P-wave (km/s) = 7.45924 14.49380 11.52629
#
# Compressibility (1/GPa) = 0.01587760
#
# Stress axis : x y z
#
# Youngs Moduli (GPa) = 61.74614 75.62621 115.38746
#
# Poissons Ratio (x) = 0.31482 0.49765
# Poissons Ratio (y) = 0.25704 0.30322
# Poissons Ratio (z) = 0.26630 0.19873
#
# Static dielectric constant tensor:
#      x y z
#    x 2.654670 0.000000 -0.646990 
#    y 0.000000 3.368090 0.000000 
#    z -0.646990 0.000000 3.129040 
# 
# 
# High freq. dielectric constant tensor:
#      x y z
#    x 1.740190 0.000000 0.001810 
#    y 0.000000 1.734800 0.000000 
#    z 0.001810 0.000000 1.742160 
# 
# From -- ./inp_files/342511.got.cif
#   From: 2010.06.25/outbox.cif.g09.slc.cpg/sg12_172_cif.got.tgz:342511.got - 2010.06.28 00:19:55.
