data_PCOD8106105
_publ_section_title
;
Structure prediction by ZEFSAII (Michael W. Deem and Ramdas Pophale) SiO2 
 PCOD8106105
Probable space group: C 2/M
;
_chemical_formula_sum "Si O2"
_cell_formula_units_Z 56
_cell_length_a 10.131826
_cell_length_b 9.141858
_cell_length_c 31.867752
_cell_angle_alpha 90.000000
_cell_angle_beta 76.079270
_cell_angle_gamma 90.000000
_cell_volume 2865.016385
_symmetry_space_group_name_H-M "C 2/M"
_symmetry_group_IT_number 12
_symmetry_cell_setting 'monoclinic'
loop_
_space_group_symop_operation_xyz
x,y,z
-x,y,-z
-x,-y,-z
x,-y,z
1/2+x,1/2+y,z
1/2-x,1/2+y,-z
1/2-x,1/2-y,-z
1/2+x,1/2-y,z
loop_
_atom_site_type_symbol
_atom_site_label
_atom_site_fract_x
_atom_site_fract_y
_atom_site_fract_z
Si Si1 0.624484 0.170406 0.185668
Si Si2 0.114585 0.328190 0.524006
Si Si3 0.712583 0.669476 0.333305
Si Si4 0.944803 0.672348 0.377884
Si Si5 0.052560 0.669762 0.950819
Si Si6 0.143687 0.829260 0.096561
Si Si7 0.182092 0.332027 0.766467
O O1 0.648095 0.257242 0.141421
O O2 0.732703 0.224572 0.211099
O O3 0.475697 0.201846 0.214914
O O4 0.648621 0.000000 0.175149
O O5 0.141808 0.500000 0.522064
O O6 0.250000 0.250000 0.500000
O O7 0.068953 0.273025 0.573298
O O8 0.000000 0.281854 0.500000
O O9 0.677128 0.500000 0.340887
O O10 0.810934 0.722571 0.363122
O O11 0.573893 0.757474 0.345936
O O12 0.786079 0.703412 0.284045
O O13 0.964540 0.500000 0.373631
O O14 0.019032 0.500000 0.945464
O O15 0.213146 0.700275 0.937216
O O16 0.978180 0.761617 0.920821
O O17 0.000000 0.722368 0.000000
O O18 0.114966 0.000000 0.104115
O O19 0.216825 0.500000 0.775244
#
# Coordination Sequence:
#
# PCOD8106105 Si02
#       7
#     8   8   8   8   8   8   8
#     4  11  23  39  60  84 113 150 187 227 279 333
#     4  10  21  36  55  81 112 146 186 231 277 329
#     4  10  21  37  57  81 109 143 183 227 276 330
#     4  10  21  37  56  81 113 146 184 230 278 331
#     4  10  22  40  60  84 116 152 190 234 283 334
#     4  11  23  38  59  87 116 148 189 234 279 332
#     4  10  22  39  57  81 112 143 182 230 275 327
#
# _framework density 19.546136000000001
#
# number of rings (size 3 to 8) (size 9 to 14) (size 15 to 20)
#    0.000    1.714    0.000    3.857    0.000    9.143 
#    0.000    0.000    0.000    0.000    0.000    0.000 
#    0.000    0.000    0.000    0.000    0.000    0.000 
#
# Total GULP energy -347375.114483 kJ/mol
# GULP energy per Si atom -12406.254089 kJ/mol
# Density = 1.950165 g / cm^3
# Si number density = 19.546136 Si / 1000 Ang^3
#
#
#
# Elastic Constant Matrix: (Units=GPa)
#
#
# Indices 1 2 3 4 5 6 
#
# 1 105.2242 42.2929 18.6075 0.0000 0.0831 0.0000
# 2 42.2929 58.9715 27.9757 0.0000 0.2490 0.0000
# 3 18.6075 27.9757 92.7698 0.0000 0.3499 0.0000
# 4 0.0000 0.0000 0.0000 33.8493 0.0000 -2.8573
# 5 0.0831 0.2490 0.3499 0.0000 43.8331 0.0000
# 6 0.0000 0.0000 0.0000 -2.8573 0.0000 40.0100
#
#
#
# Elastic Compliance Matrix: (Units=1/GPa)
#
#
# Indices 1 2 3 4 5 6 
#
# 1 0.013357 -0.009696 0.000245 0.000000 0.000028 0.000000
# 2 -0.009696 0.026826 -0.006145 0.000000 -0.000085 0.000000
# 3 0.000245 -0.006145 0.012584 0.000000 -0.000066 0.000000
# 4 0.000000 0.000000 0.000000 0.029722 0.000000 0.002123
# 5 0.000028 -0.000085 -0.000066 0.000000 0.022815 0.000000
# 6 0.000000 0.000000 0.000000 0.002123 0.000000 0.025145
#
#
# Mechanical properties :
#
#
# Convention : Reuss Voigt Hill
#
# Bulk Modulus (GPa) = 46.34890 48.30198 47.32544
# Shear Modulus (GPa) = 29.61523 34.74444 32.17983
#
# Velocity S-wave (km/s) = 3.89671 4.22069 4.06193
# Velocity P-wave (km/s) = 6.63399 6.96546 6.80175
#
# Compressibility (1/GPa) = 0.02157548
#
# Stress axis : x y z
#
# Youngs Moduli (GPa) = 74.86600 37.27709 79.46877
#
# Poissons Ratio (x) = 0.36142 -0.01943
# Poissons Ratio (y) = 0.72587 0.48831
# Poissons Ratio (z) = -0.01831 0.22906
#
# Static dielectric constant tensor:
#      x y z
#    x 3.577110 0.000000 -0.013990 
#    y 0.000000 3.533880 0.000000 
#    z -0.013990 0.000000 3.771470 
# 
# 
# High freq. dielectric constant tensor:
#      x y z
#    x 1.774140 0.000000 -0.000340 
#    y 0.000000 1.758430 0.000000 
#    z -0.000340 0.000000 1.779670 
# 
# From -- ./inp_files/357495.got.cif
#   From: 2010.06.25/outbox.cif.g09.slc.cpg/sg12_179_cif.got.tgz:357495.got - 2010.06.28 00:19:55.
