data_PCOD8106481
_publ_section_title
;
Structure prediction by ZEFSAII (Michael W. Deem and Ramdas Pophale) SiO2 
 PCOD8106481
Probable space group: C 2/M
;
_chemical_formula_sum "Si O2"
_cell_formula_units_Z 48
_cell_length_a 20.216855
_cell_length_b 17.908971
_cell_length_c 15.847346
_cell_angle_alpha 90.000000
_cell_angle_beta 25.869748
_cell_angle_gamma 90.000000
_cell_volume 2503.528976
_symmetry_space_group_name_H-M "C 2/M"
_symmetry_group_IT_number 12
_symmetry_cell_setting 'monoclinic'
loop_
_space_group_symop_operation_xyz
x,y,z
-x,y,-z
-x,-y,-z
x,-y,z
1/2+x,1/2+y,z
1/2-x,1/2+y,-z
1/2-x,1/2-y,-z
1/2+x,1/2-y,z
loop_
_atom_site_type_symbol
_atom_site_label
_atom_site_fract_x
_atom_site_fract_y
_atom_site_fract_z
Si Si1 0.664608 0.085112 0.350963
Si Si2 0.067537 0.810288 0.666217
Si Si3 0.258616 0.683643 0.103880
Si Si4 0.904804 0.161525 0.691825
Si Si5 0.836136 0.646557 0.461540
Si Si6 0.853686 0.412761 0.924497
O O1 0.500000 0.099066 0.500000
O O2 0.778890 0.136735 0.166510
O O3 0.673394 0.106090 0.438186
O O4 0.715542 0.000000 0.282210
O O5 0.147799 0.734992 0.542906
O O6 0.181487 0.864734 0.586093
O O7 0.013503 0.855754 0.646313
O O8 0.923956 0.786839 0.888563
O O9 0.145291 0.752218 0.249324
O O10 0.189880 0.632226 0.109587
O O11 0.000000 0.141074 0.500000
O O12 0.756257 0.109018 0.871288
O O13 0.974006 0.609915 0.250249
O O14 0.841551 0.500000 0.918692
#
# Coordination Sequence:
#
# PCOD8106481 Si02
#       6
#     8   8   8   8   8   8
#     4  11  21  34  58  89 122 156 191 232 290 365
#     4  10  21  36  59  84 117 153 198 248 295 339
#     4  11  19  37  61  91 116 155 198 244 289 357
#     4  11  21  39  63  88 115 152 208 259 289 344
#     4  11  20  37  55  86 121 155 196 240 294 357
#     4  11  21  37  60  85 118 158 198 241 296 359
#
# _framework density 19.172934999999999
#
# number of rings (size 3 to 8) (size 9 to 14) (size 15 to 20)
#    0.000    1.167    5.000    3.500    0.000    1.000 
#    0.000   10.000    0.000    1.000    0.000    0.000 
#    0.000    0.000    0.000    0.000    0.000    0.000 
#
# Total GULP energy -297634.070840 kJ/mol
# GULP energy per Si atom -12401.419618 kJ/mol
# Density = 1.912930 g / cm^3
# Si number density = 19.172935 Si / 1000 Ang^3
#
#
#
# Elastic Constant Matrix: (Units=GPa)
#
#
# Indices 1 2 3 4 5 6 
#
# 1 102.6484 18.5732 54.7195 0.0025 -3.2114 -0.0020
# 2 18.5732 68.3355 4.7871 0.0038 -3.3119 -0.0047
# 3 54.7195 4.7871 96.8660 0.0035 8.1360 -0.0044
# 4 0.0025 0.0038 0.0035 23.8198 -0.0016 1.7213
# 5 -3.2114 -3.3119 8.1360 -0.0016 31.9227 0.0011
# 6 -0.0020 -0.0047 -0.0044 1.7213 0.0011 13.4649
#
#
#
# Elastic Compliance Matrix: (Units=1/GPa)
#
#
# Indices 1 2 3 4 5 6 
#
# 1 0.015041 -0.003321 -0.008615 0.000001 0.003364 -0.000002
# 2 -0.003321 0.015514 0.001024 -0.000003 0.001014 0.000006
# 3 -0.008615 0.001024 0.015536 -0.000002 -0.004720 0.000005
# 4 0.000001 -0.000003 -0.000002 0.042373 0.000003 -0.005417
# 5 0.003364 0.001014 -0.004720 0.000003 0.032972 -0.000004
# 6 -0.000002 0.000006 0.000005 -0.005417 -0.000004 0.074960
#
#
# Mechanical properties :
#
#
# Convention : Reuss Voigt Hill
#
# Bulk Modulus (GPa) = 41.20898 47.11217 44.16057
# Shear Modulus (GPa) = 22.09377 26.49281 24.29329
#
# Velocity S-wave (km/s) = 3.39830 3.72127 3.56344
# Velocity P-wave (km/s) = 6.07765 6.56425 6.32563
#
# Compressibility (1/GPa) = 0.02426655
#
# Stress axis : x y z
#
# Youngs Moduli (GPa) = 66.48678 64.45863 64.36716
#
# Poissons Ratio (x) = 0.21409 0.55451
# Poissons Ratio (y) = 0.22083 -0.06594
# Poissons Ratio (z) = 0.57277 -0.06603
#
# Static dielectric constant tensor:
#      x y z
#    x 3.453480 0.000000 -0.049860 
#    y 0.000000 3.426480 0.000000 
#    z -0.049860 0.000000 3.825440 
# 
# 
# High freq. dielectric constant tensor:
#      x y z
#    x 1.724980 0.000000 0.002700 
#    y 0.000000 1.736430 0.000000 
#    z 0.002700 0.000000 1.752050 
# 
# From -- ./inp_files/63615.got.cif
#   From: 2010.06.25/outbox.cif.g09.slc.cpg/sg12_32_cif.got.tgz:63615.got - 2010.06.28 00:19:55.
