data_PCOD8106926
_publ_section_title
;
Structure prediction by ZEFSAII (Michael W. Deem and Ramdas Pophale) SiO2 
 PCOD8106926
Probable space group: C 2/M
;
_chemical_formula_sum "Si O2"
_cell_formula_units_Z 40
_cell_length_a 14.575531
_cell_length_b 29.758342
_cell_length_c 5.012159
_cell_angle_alpha 90.000000
_cell_angle_beta 117.197707
_cell_angle_gamma 90.000000
_cell_volume 1933.623911
_symmetry_space_group_name_H-M "C 2/M"
_symmetry_group_IT_number 12
_symmetry_cell_setting 'monoclinic'
loop_
_space_group_symop_operation_xyz
x,y,z
-x,y,-z
-x,-y,-z
x,-y,z
1/2+x,1/2+y,z
1/2-x,1/2+y,-z
1/2-x,1/2-y,-z
1/2+x,1/2-y,z
loop_
_atom_site_type_symbol
_atom_site_label
_atom_site_fract_x
_atom_site_fract_y
_atom_site_fract_z
Si Si1 0.118258 0.551831 0.696674
Si Si2 0.885742 0.257875 0.436698
Si Si3 0.303026 0.195713 0.825458
Si Si4 0.568231 0.550246 0.332187
Si Si5 0.282715 0.907511 0.669791
O O1 0.138317 0.500000 0.653689
O O2 0.183643 0.583048 0.587348
O O3 0.000000 0.564877 0.500000
O O4 0.153104 0.560729 0.045648
O O5 0.814048 0.213741 0.349929
O O6 0.881006 0.280126 0.722564
O O7 0.000000 0.242813 0.500000
O O8 0.843810 0.295144 0.176003
O O9 0.304445 0.143281 0.775820
O O10 0.500000 0.547359 0.500000
O O11 0.608335 0.500000 0.308556
O O12 0.661630 0.583125 0.523456
O O13 0.500000 0.570186 0.000000
#
# Coordination Sequence:
#
# PCOD8106926 Si02
#       5
#     8   8   8   8   8
#     4  11  24  40  59  86 121 162 201 238 291 349
#     4  10  21  41  62  82 119 155 183 236 298 349
#     4  10  23  38  59  92 114 146 200 235 285 362
#     4  10  21  37  57  82 113 153 196 235 286 344
#     4  12  23  39  62  88 121 153 196 253 292 336
#
# _framework density 20.686547000000001
#
# number of rings (size 3 to 8) (size 9 to 14) (size 15 to 20)
#    0.000    1.400    0.000    5.400    0.000    8.800 
#    0.000    4.000    0.000    0.000    0.000    0.000 
#    0.000    0.000    0.000    0.000    0.000    0.000 
#
# Total GULP energy -248104.568610 kJ/mol
# GULP energy per Si atom -12405.228431 kJ/mol
# Density = 2.063946 g / cm^3
# Si number density = 20.686547 Si / 1000 Ang^3
#
#
#
# Elastic Constant Matrix: (Units=GPa)
#
#
# Indices 1 2 3 4 5 6 
#
# 1 112.4273 21.0374 13.7393 0.0000 7.5138 0.0000
# 2 21.0374 70.5170 1.0400 0.0000 3.5695 0.0000
# 3 13.7393 1.0400 96.3287 0.0000 2.9341 0.0000
# 4 0.0000 0.0000 0.0000 22.1038 0.0000 -2.2976
# 5 7.5138 3.5695 2.9341 0.0000 37.2965 0.0000
# 6 0.0000 0.0000 0.0000 -2.2976 0.0000 16.4024
#
#
#
# Elastic Compliance Matrix: (Units=1/GPa)
#
#
# Indices 1 2 3 4 5 6 
#
# 1 0.009681 -0.002789 -0.001303 0.000000 -0.001581 0.000000
# 2 -0.002789 0.015055 0.000263 0.000000 -0.000900 0.000000
# 3 -0.001303 0.000263 0.010582 0.000000 -0.000595 0.000000
# 4 0.000000 0.000000 0.000000 0.045910 0.000000 0.006431
# 5 -0.001581 -0.000900 -0.000595 0.000000 0.027264 0.000000
# 6 0.000000 0.000000 0.000000 0.006431 0.000000 0.061868
#
#
# Mechanical properties :
#
#
# Convention : Reuss Voigt Hill
#
# Bulk Modulus (GPa) = 36.15276 38.98960 37.57118
# Shear Modulus (GPa) = 26.70412 31.39096 29.04754
#
# Velocity S-wave (km/s) = 3.59680 3.89968 3.75130
# Velocity P-wave (km/s) = 5.89607 6.25823 6.07985
#
# Compressibility (1/GPa) = 0.02766041
#
# Stress axis : x y z
#
# Youngs Moduli (GPa) = 103.29118 66.42449 94.49825
#
# Poissons Ratio (x) = 0.18526 0.12309
# Poissons Ratio (y) = 0.28808 -0.02482
# Poissons Ratio (z) = 0.13455 -0.01745
#
# Static dielectric constant tensor:
#      x y z
#    x 3.812360 0.000000 -0.086380 
#    y 0.000000 3.543290 0.000000 
#    z -0.086380 0.000000 3.869120 
# 
# 
# High freq. dielectric constant tensor:
#      x y z
#    x 1.819080 0.000000 -0.007490 
#    y 0.000000 1.794310 0.000000 
#    z -0.007490 0.000000 1.824850 
# 
# From -- ./inp_files/12247.got.cif
#   From: 2010.06.25/outbox.cif.g09.slc.cpg/sg12_7_cif.got.tgz:12247.got - 2010.06.28 00:19:55.
