data_PCOD8106682
_publ_section_title
;
Structure prediction by ZEFSAII (Michael W. Deem and Ramdas Pophale) SiO2 
 PCOD8106682
Probable space group: C 2/M
;
_chemical_formula_sum "Si O2"
_cell_formula_units_Z 64
_cell_length_a 16.566785
_cell_length_b 14.523056
_cell_length_c 26.561729
_cell_angle_alpha 90.000000
_cell_angle_beta 145.703053
_cell_angle_gamma 90.000000
_cell_volume 3601.079089
_symmetry_space_group_name_H-M "C 2/M"
_symmetry_group_IT_number 12
_symmetry_cell_setting 'monoclinic'
loop_
_space_group_symop_operation_xyz
x,y,z
-x,y,-z
-x,-y,-z
x,-y,z
1/2+x,1/2+y,z
1/2-x,1/2+y,-z
1/2-x,1/2-y,-z
1/2+x,1/2-y,z
loop_
_atom_site_type_symbol
_atom_site_label
_atom_site_fract_x
_atom_site_fract_y
_atom_site_fract_z
Si Si1 0.104185 0.891843 0.742116
Si Si2 0.035410 0.892864 0.596264
Si Si3 0.733304 0.602073 0.126072
Si Si4 0.441880 0.893124 0.916826
Si Si5 0.477793 0.601033 0.069126
Si Si6 0.486453 0.223297 0.244411
Si Si7 0.732524 0.608836 0.608299
Si Si8 0.583255 0.232810 0.906152
O O1 0.048847 0.854021 0.659618
O O2 0.273337 0.874724 0.830012
O O3 0.023160 0.830130 0.742804
O O4 0.067926 0.000000 0.733107
O O5 0.159183 0.855916 0.622455
O O6 0.877960 0.872497 0.493982
O O7 0.064754 0.000000 0.614095
O O8 0.795475 0.500000 0.147997
O O9 0.626598 0.598505 0.117346
O O10 0.859536 0.669862 0.207432
O O11 0.649671 0.636250 0.033126
O O12 0.523019 0.843616 0.913132
O O13 0.478835 0.000000 0.929615
O O14 0.500000 0.854808 0.000000
O O15 0.440462 0.500000 0.070947
O O16 0.494446 0.670068 0.123896
O O17 0.634827 0.174988 0.335377
O O18 0.458591 0.205676 0.171381
O O19 0.774468 0.500000 0.632142
O O20 0.750000 0.250000 0.000000
#
# Coordination Sequence:
#
# PCOD8106682 Si02
#       8
#     8   8   8   8   8   8   8   8
#     4  10  21  37  54  73 103 144 181 207 251 317
#     4   8  16  35  58  77 104 140 169 205 261 324
#     4   9  18  33  51  69  92 127 169 211 256 304
#     4  10  22  38  55  73 100 141 182 219 259 308
#     4   9  19  35  51  64  90 137 178 206 248 305
#     4  12  22  31  50  81 108 132 167 220 265 302
#     4   9  18  33  56  85 109 127 163 219 272 314
#     4  12  23  32  48  73 103 134 170 216 259 304
#
# _framework density 17.772451
#
# number of rings (size 3 to 8) (size 9 to 14) (size 15 to 20)
#    0.000    2.125    1.250    4.125    1.750    3.500 
#    0.000    0.000    0.000    0.000    0.000    1.750 
#    0.000    0.000    0.000    0.000    0.000    0.000 
#
# Total GULP energy -396652.987206 kJ/mol
# GULP energy per Si atom -12395.405850 kJ/mol
# Density = 1.773200 g / cm^3
# Si number density = 17.772451 Si / 1000 Ang^3
#
#
#
# Elastic Constant Matrix: (Units=GPa)
#
#
# Indices 1 2 3 4 5 6 
#
# 1 77.0124 45.7625 43.2444 0.0000 -6.8264 0.0000
# 2 45.7625 88.7885 36.9570 0.0000 8.5677 0.0000
# 3 43.2444 36.9570 94.4822 0.0002 0.8407 0.0000
# 4 0.0000 0.0000 0.0002 17.9932 0.0000 0.2691
# 5 -6.8264 8.5677 0.8407 0.0000 28.8515 0.0000
# 6 0.0000 0.0000 0.0000 0.2691 0.0000 22.7552
#
#
#
# Elastic Compliance Matrix: (Units=1/GPa)
#
#
# Indices 1 2 3 4 5 6 
#
# 1 0.023727 -0.010188 -0.006953 0.000000 0.008842 0.000000
# 2 -0.010188 0.018268 -0.002413 0.000000 -0.007765 0.000000
# 3 -0.006953 -0.002413 0.014723 0.000000 -0.001358 0.000000
# 4 0.000000 0.000000 0.000000 0.055586 0.000000 -0.000657
# 5 0.008842 -0.007765 -0.001358 0.000000 0.039098 0.000000
# 6 0.000000 0.000000 0.000000 -0.000657 0.000000 0.043954
#
#
# Mechanical properties :
#
#
# Convention : Reuss Voigt Hill
#
# Bulk Modulus (GPa) = 56.79333 56.91234 56.85284
# Shear Modulus (GPa) = 20.80435 22.87459 21.83947
#
# Velocity S-wave (km/s) = 3.42511 3.59148 3.50928
# Velocity P-wave (km/s) = 6.90413 7.02073 6.96267
#
# Compressibility (1/GPa) = 0.01760770
#
# Stress axis : x y z
#
# Youngs Moduli (GPa) = 42.14553 54.74179 67.92270
#
# Poissons Ratio (x) = 0.55772 0.47230
# Poissons Ratio (y) = 0.42939 0.16391
# Poissons Ratio (z) = 0.29306 0.13210
#
# Static dielectric constant tensor:
#      x y z
#    x 3.816680 0.000000 -0.278930 
#    y 0.000000 3.557380 0.000000 
#    z -0.278930 0.000000 3.395090 
# 
# 
# High freq. dielectric constant tensor:
#      x y z
#    x 1.682510 0.000000 0.003450 
#    y 0.000000 1.682640 0.000000 
#    z 0.003450 0.000000 1.676210 
# 
# From -- ./inp_files/379376.got.cif
#   From: 2010.06.25/outbox.cif.g09.slc.cpg/sg12_190_cif.got.tgz:379376.got - 2010.06.28 00:19:55.
