data_PCOD8106251
_publ_section_title
;
Structure prediction by ZEFSAII (Michael W. Deem and Ramdas Pophale) SiO2 
 PCOD8106251
Probable space group: C 2/M
;
_chemical_formula_sum "Si O2"
_cell_formula_units_Z 52
_cell_length_a 11.457324
_cell_length_b 22.283872
_cell_length_c 13.234664
_cell_angle_alpha 90.000000
_cell_angle_beta 125.465306
_cell_angle_gamma 90.000000
_cell_volume 2752.074978
_symmetry_space_group_name_H-M "C 2/M"
_symmetry_group_IT_number 12
_symmetry_cell_setting 'monoclinic'
loop_
_space_group_symop_operation_xyz
x,y,z
-x,y,-z
-x,-y,-z
x,-y,z
1/2+x,1/2+y,z
1/2-x,1/2+y,-z
1/2-x,1/2-y,-z
1/2+x,1/2-y,z
loop_
_atom_site_type_symbol
_atom_site_label
_atom_site_fract_x
_atom_site_fract_y
_atom_site_fract_z
Si Si1 0.153717 0.000000 0.783310
Si Si2 0.915251 0.500000 0.774287
Si Si3 0.100240 0.801282 0.647024
Si Si4 0.202049 0.619648 0.379326
Si Si5 0.744607 0.500000 0.052812
Si Si6 0.766626 0.933366 0.765478
Si Si7 0.058645 0.103065 0.333141
Si Si8 0.949771 0.671892 0.362245
O O1 0.316579 0.000000 0.825180
O O2 0.065750 0.943283 0.697614
O O3 0.156004 0.000000 0.905908
O O4 0.878849 0.559509 0.693660
O O5 0.084284 0.500000 0.884007
O O6 0.230723 0.844837 0.682213
O O7 0.000000 0.795066 0.500000
O O8 0.012164 0.831165 0.695140
O O9 0.139962 0.733676 0.703345
O O10 0.312803 0.598943 0.521756
O O11 0.090530 0.668767 0.364204
O O12 0.694779 0.442047 0.095672
O O13 0.893356 0.909072 0.757745
O O14 0.639961 0.886939 0.701722
O O15 0.717862 0.000000 0.700542
O O16 0.000000 0.670041 0.500000
#
# Coordination Sequence:
#
# PCOD8106251 Si02
#       8
#     4   4   8   8   4   8   8   8
#     4  12  23  40  60  81 118 153 194 247 285 340
#     4  12  22  37  61  88 114 153 182 245 299 341
#     4   9  22  34  51  85 122 160 187 216 277 353
#     4  11  21  35  58  89 127 148 188 228 290 356
#     4  10  24  41  57  86 109 149 206 240 291 336
#     4  10  21  36  56  85 112 148 191 240 294 326
#     4  11  21  35  56  90 118 152 182 233 290 344
#     4  11  21  34  57  83 124 160 186 230 277 350
#
# _framework density 18.894836000000002
#
# number of rings (size 3 to 8) (size 9 to 14) (size 15 to 20)
#    0.462    0.923    5.385    0.692    2.154    4.000 
#    0.000    0.000    0.000    0.923    0.000    0.000 
#    0.000    0.000    0.000    0.000    0.000    0.000 
#
# Total GULP energy -322091.369451 kJ/mol
# GULP energy per Si atom -12388.129594 kJ/mol
# Density = 1.885183 g / cm^3
# Si number density = 18.894836 Si / 1000 Ang^3
#
#
#
# Elastic Constant Matrix: (Units=GPa)
#
#
# Indices 1 2 3 4 5 6 
#
# 1 110.0338 40.1483 25.6349 0.0000 -9.2095 0.0000
# 2 40.1483 124.9824 32.0623 0.0000 -7.1811 0.0000
# 3 25.6349 32.0623 31.4946 0.0000 -3.5311 0.0000
# 4 0.0000 0.0000 0.0000 -0.7777 0.0000 -4.1144
# 5 -9.2095 -7.1811 -3.5311 0.0000 21.4149 0.0000
# 6 0.0000 0.0000 0.0000 -4.1144 0.0000 32.9709
#
#
#
# Elastic Compliance Matrix: (Units=1/GPa)
#
#
# Indices 1 2 3 4 5 6 
#
# 1 0.011706 -0.001655 -0.007479 0.000000 0.003246 0.000000
# 2 -0.001655 0.011136 -0.009832 0.000000 0.001401 0.000000
# 3 -0.007479 -0.009832 0.048006 0.000000 0.001402 0.000000
# 4 0.000000 0.000000 0.000000 -0.774494 0.000000 -0.096647
# 5 0.003246 0.001401 0.001402 0.000000 0.048793 0.000000
# 6 0.000000 0.000000 0.000000 -0.096647 0.000000 0.018269
#
#
# Mechanical properties :
#
#
# Convention : Reuss Voigt Hill
#
# Bulk Modulus (GPa) = 30.38172 51.35575 40.86873
# Shear Modulus (GPa) = -8.50804 21.96596 6.72896
#
# Velocity S-wave (km/s) = -2.12429 3.41330 1.88918
# Velocity P-wave (km/s) = 3.17765 6.54010 5.14152
#
# Compressibility (1/GPa) = 0.03291453
#
# Stress axis : x y z
#
# Youngs Moduli (GPa) = 85.42484 89.80224 20.83092
#
# Poissons Ratio (x) = 0.14864 0.15580
# Poissons Ratio (y) = 0.14140 0.20481
# Poissons Ratio (z) = 0.63891 0.88293
#
# Static dielectric constant tensor:
#      x y z
#    x 3.753160 0.000000 -0.021870 
#    y 0.000000 4.598590 0.000000 
#    z -0.021870 0.000000 2.944170 
# 
# 
# High freq. dielectric constant tensor:
#      x y z
#    x 1.759010 0.000000 -0.002390 
#    y 0.000000 1.742250 0.000000 
#    z -0.002390 0.000000 1.677310 
# 
# From -- ./inp_files/207797.got.cif
#   From: 2010.06.25/outbox.cif.g09.slc.cpg/sg12_104_cif.got.tgz:207797.got - 2010.06.28 00:19:55.
