data_PCOD8106586
_publ_section_title
;
Structure prediction by ZEFSAII (Michael W. Deem and Ramdas Pophale) SiO2 
 PCOD8106586
Probable space group: C 2/M
;
_chemical_formula_sum "Si O2"
_cell_formula_units_Z 64
_cell_length_a 13.159130
_cell_length_b 24.986199
_cell_length_c 14.362536
_cell_angle_alpha 90.000000
_cell_angle_beta 138.559786
_cell_angle_gamma 90.000000
_cell_volume 3125.433908
_symmetry_space_group_name_H-M "C 2/M"
_symmetry_group_IT_number 12
_symmetry_cell_setting 'monoclinic'
loop_
_space_group_symop_operation_xyz
x,y,z
-x,y,-z
-x,-y,-z
x,-y,z
1/2+x,1/2+y,z
1/2-x,1/2+y,-z
1/2-x,1/2-y,-z
1/2+x,1/2-y,z
loop_
_atom_site_type_symbol
_atom_site_label
_atom_site_fract_x
_atom_site_fract_y
_atom_site_fract_z
Si Si1 0.094837 0.766310 0.657728
Si Si2 0.112927 0.939239 0.497958
Si Si3 0.960874 0.440939 0.725180
Si Si4 0.582661 0.669694 0.964361
Si Si5 0.941774 0.870782 0.247192
Si Si6 0.054128 0.716729 0.133901
Si Si7 0.061421 0.667188 0.760644
Si Si8 0.359737 0.939389 0.965091
O O1 0.069044 0.812809 0.714031
O O2 0.272537 0.761935 0.752775
O O3 0.033807 0.711192 0.662048
O O4 0.000000 0.778091 0.500000
O O5 0.289763 0.934241 0.650482
O O6 0.000000 0.916106 0.500000
O O7 0.083883 0.903981 0.386308
O O8 0.067386 0.000000 0.443999
O O9 0.971849 0.500000 0.683745
O O10 0.997512 0.390951 0.681380
O O11 0.088855 0.437392 0.892748
O O12 0.518994 0.635600 0.834367
O O13 0.555460 0.732245 0.928944
O O14 0.500000 0.647909 0.000000
O O15 0.762352 0.661500 0.094028
O O16 0.783252 0.901657 0.154537
O O17 0.031236 0.678805 0.206963
O O18 0.000000 0.687919 0.000000
O O19 0.314366 0.000000 0.905301
O O20 0.500000 0.918335 0.000000
#
# Coordination Sequence:
#
# PCOD8106586 Si02
#       8
#     8   8   8   8   8   8   8   8
#     4  12  28  41  60 100 135 166 218 266 321 390
#     4  10  22  41  62  92 137 180 211 255 326 397
#     4  10  23  40  63  93 127 170 219 263 316 380
#     4  11  22  42  66  93 123 166 221 265 322 386
#     4  12  23  38  64  95 132 167 214 266 325 385
#     4  11  23  40  66  92 127 168 216 256 313 395
#     4  12  23  43  67  92 128 175 207 275 333 375
#     4  10  21  36  60  95 130 169 215 263 317 381
#
# _framework density 20.477157999999999
#
# number of rings (size 3 to 8) (size 9 to 14) (size 15 to 20)
#    0.000    1.000    5.000    2.625    5.250    3.500 
#    0.000    0.000    0.000    3.750    0.000    0.000 
#    0.000    0.000    0.000    0.000    0.000    0.000 
#
# Total GULP energy -396816.353903 kJ/mol
# GULP energy per Si atom -12400.511059 kJ/mol
# Density = 2.043055 g / cm^3
# Si number density = 20.477158 Si / 1000 Ang^3
#
#
#
# Elastic Constant Matrix: (Units=GPa)
#
#
# Indices 1 2 3 4 5 6 
#
# 1 88.4540 49.2232 22.1014 0.0000 -8.4602 0.0000
# 2 49.2232 130.9595 35.6380 0.0000 4.8365 0.0000
# 3 22.1014 35.6380 83.2022 0.0000 0.4717 0.0000
# 4 0.0000 0.0000 0.0000 18.3295 0.0000 55.0729
# 5 -8.4602 4.8365 0.4717 0.0000 30.5095 0.0000
# 6 0.0000 0.0000 0.0000 55.0729 0.0000 138.1618
#
#
#
# Elastic Compliance Matrix: (Units=1/GPa)
#
#
# Indices 1 2 3 4 5 6 
#
# 1 0.015266 -0.005451 -0.001749 0.000000 0.005124 0.000000
# 2 -0.005451 0.010643 -0.003093 0.000000 -0.003151 0.000000
# 3 -0.001749 -0.003093 0.013810 0.000000 -0.000208 0.000000
# 4 0.000000 0.000000 0.000000 -0.276002 0.000000 0.110017
# 5 0.005124 -0.003151 -0.000208 0.000000 0.034700 0.000000
# 6 0.000000 0.000000 0.000000 0.110017 0.000000 -0.036616
#
#
# Mechanical properties :
#
#
# Convention : Reuss Voigt Hill
#
# Bulk Modulus (GPa) = 52.26895 57.39343 54.83119
# Shear Modulus (GPa) = -23.67030 50.44370 13.38670
#
# Velocity S-wave (km/s) = -3.40360 4.96866 2.55960
# Velocity P-wave (km/s) = 3.18354 7.81061 5.96409
#
# Compressibility (1/GPa) = 0.01913182
#
# Stress axis : x y z
#
# Youngs Moduli (GPa) = 65.50488 93.95963 72.41389
#
# Poissons Ratio (x) = 0.51219 0.12668
# Poissons Ratio (y) = 0.35708 0.22396
# Poissons Ratio (z) = 0.11459 0.29060
#
# Static dielectric constant tensor:
#      x y z
#    x 3.661930 0.000000 -0.058160 
#    y 0.000000 3.993810 0.000000 
#    z -0.058160 0.000000 3.760310 
# 
# 
# High freq. dielectric constant tensor:
#      x y z
#    x 1.775250 0.000000 0.010250 
#    y 0.000000 1.811780 0.000000 
#    z 0.010250 0.000000 1.801650 
# 
# From -- ./inp_files/209433.got.cif
#   From: 2010.06.25/outbox.cif.g09.slc.cpg/sg12_105_cif.got.tgz:209433.got - 2010.06.28 00:19:55.
