data_PCOD8106858
_publ_section_title
;
Structure prediction by ZEFSAII (Michael W. Deem and Ramdas Pophale) SiO2 
 PCOD8106858
Probable space group: C 2/M
;
_chemical_formula_sum "Si O2"
_cell_formula_units_Z 56
_cell_length_a 18.702402
_cell_length_b 7.818862
_cell_length_c 28.901023
_cell_angle_alpha 90.000000
_cell_angle_beta 140.770875
_cell_angle_gamma 90.000000
_cell_volume 2672.771969
_symmetry_space_group_name_H-M "C 2/M"
_symmetry_group_IT_number 12
_symmetry_cell_setting 'monoclinic'
loop_
_space_group_symop_operation_xyz
x,y,z
-x,y,-z
-x,-y,-z
x,-y,z
1/2+x,1/2+y,z
1/2-x,1/2+y,-z
1/2-x,1/2-y,-z
1/2+x,1/2-y,z
loop_
_atom_site_type_symbol
_atom_site_label
_atom_site_fract_x
_atom_site_fract_y
_atom_site_fract_z
Si Si1 0.348324 0.196542 0.648933
Si Si2 0.876456 0.302339 0.055559
Si Si3 0.509194 0.797413 0.366947
Si Si4 0.239648 0.804033 0.772268
Si Si5 0.178605 0.000000 0.131042
Si Si6 0.930161 0.000000 0.021859
Si Si7 0.911807 0.700099 0.779585
Si Si8 0.405738 0.798942 0.489353
O O1 0.410551 0.274075 0.634543
O O2 0.393234 0.283749 0.719361
O O3 0.213895 0.213448 0.580879
O O4 0.382582 0.000000 0.666500
O O5 0.889171 0.500000 0.048122
O O6 0.959973 0.257569 0.140159
O O7 0.902596 0.185447 0.026044
O O8 0.750000 0.250000 0.000000
O O9 0.390610 0.699711 0.307327
O O10 0.564360 0.747200 0.443402
O O11 0.489184 0.000000 0.353538
O O12 0.253343 0.673500 0.822248
O O13 0.318669 0.734044 0.769920
O O14 0.272824 0.000000 0.802595
O O15 0.061455 0.000000 0.097864
O O16 0.141414 0.000000 0.059945
O O17 0.891841 0.500000 0.765048
O O18 0.500000 0.731113 0.500000
O O19 0.391847 0.000000 0.476522
#
# Coordination Sequence:
#
# PCOD8106858 Si02
#       8
#     8   8   8   8   4   4   8   8
#     4  10  21  38  59  86 120 160 206 256 317 366
#     4  11  22  40  64  93 128 164 210 264 321 384
#     4  10  21  37  59  86 127 167 202 257 318 369
#     4  11  22  40  66  91 122 167 212 256 316 374
#     4  11  24  42  66  90 130 163 209 267 310 380
#     4  11  24  42  64  96 121 169 213 250 328 383
#     4   9  20  38  60  87 117 155 208 262 304 377
#     4  10  21  37  56  87 123 162 210 257 304 365
#
# _framework density 20.952031000000002
#
# number of rings (size 3 to 8) (size 9 to 14) (size 15 to 20)
#    0.000    1.714    2.857    1.286    0.000    3.143 
#    2.571    1.429    0.000    0.000    0.000    0.000 
#    0.000    0.000    0.000    0.000    0.000    0.000 
#
# Total GULP energy -346883.932642 kJ/mol
# GULP energy per Si atom -12388.711880 kJ/mol
# Density = 2.090434 g / cm^3
# Si number density = 20.952031 Si / 1000 Ang^3
#
#
#
# Elastic Constant Matrix: (Units=GPa)
#
#
# Indices 1 2 3 4 5 6 
#
# 1 121.5150 28.2796 71.5004 0.0002 2.3586 -0.0006
# 2 28.2796 87.5132 43.5526 -0.0002 -14.4550 -0.0002
# 3 71.5004 43.5526 167.3275 0.0001 -9.1928 -0.0002
# 4 0.0002 -0.0002 0.0001 28.9996 0.0000 5.1665
# 5 2.3586 -14.4550 -9.1928 0.0000 47.9776 -0.0001
# 6 -0.0006 -0.0002 -0.0002 5.1665 -0.0001 22.0222
#
#
#
# Elastic Compliance Matrix: (Units=1/GPa)
#
#
# Indices 1 2 3 4 5 6 
#
# 1 0.011313 -0.001743 -0.004487 0.000000 -0.001941 0.000000
# 2 -0.001743 0.013946 -0.002678 0.000000 0.003774 0.000000
# 3 -0.004487 -0.002678 0.008649 0.000000 0.001071 0.000000
# 4 0.000000 0.000000 0.000000 0.035987 0.000000 -0.008443
# 5 -0.001941 0.003774 0.001071 0.000000 0.022281 0.000000
# 6 0.000000 0.000000 0.000000 -0.008443 0.000000 0.047389
#
#
# Mechanical properties :
#
#
# Convention : Reuss Voigt Hill
#
# Bulk Modulus (GPa) = 62.14020 73.66899 67.90460
# Shear Modulus (GPa) = 30.72260 35.33475 33.02868
#
# Velocity S-wave (km/s) = 3.83342 4.11111 3.97469
# Velocity P-wave (km/s) = 7.02255 7.60079 7.31739
#
# Compressibility (1/GPa) = 0.01609264
#
# Stress axis : x y z
#
# Youngs Moduli (GPa) = 88.39348 71.70390 115.61424
#
# Poissons Ratio (x) = 0.12500 0.51877
# Poissons Ratio (y) = 0.15410 0.30958
# Poissons Ratio (z) = 0.39663 0.19200
#
# Static dielectric constant tensor:
#      x y z
#    x 4.118270 -0.000010 0.199070 
#    y -0.000010 3.864050 -0.000010 
#    z 0.199070 -0.000010 4.429860 
# 
# 
# High freq. dielectric constant tensor:
#      x y z
#    x 1.818540 0.000000 0.007600 
#    y 0.000000 1.810830 0.000000 
#    z 0.007600 0.000000 1.834660 
# 
# From -- ./inp_files/363272.got.cif
#   From: 2010.06.25/outbox.cif.g09.slc.cpg/sg12_182_cif.got.tgz:363272.got - 2010.06.28 00:19:55.
