data_PCOD8106069
_publ_section_title
;
Structure prediction by ZEFSAII (Michael W. Deem and Ramdas Pophale) SiO2 
 PCOD8106069
Probable space group: C 2/M
;
_chemical_formula_sum "Si O2"
_cell_formula_units_Z 40
_cell_length_a 21.159148
_cell_length_b 9.554796
_cell_length_c 13.690006
_cell_angle_alpha 90.000000
_cell_angle_beta 131.141943
_cell_angle_gamma 90.000000
_cell_volume 2084.325203
_symmetry_space_group_name_H-M "C 2/M"
_symmetry_group_IT_number 12
_symmetry_cell_setting 'monoclinic'
loop_
_space_group_symop_operation_xyz
x,y,z
-x,y,-z
-x,-y,-z
x,-y,z
1/2+x,1/2+y,z
1/2-x,1/2+y,-z
1/2-x,1/2-y,-z
1/2+x,1/2-y,z
loop_
_atom_site_type_symbol
_atom_site_label
_atom_site_fract_x
_atom_site_fract_y
_atom_site_fract_z
Si Si1 0.645889 0.158020 0.333128
Si Si2 0.779310 0.336901 0.384077
Si Si3 0.913268 0.665220 0.368057
Si Si4 0.336752 0.166923 0.085371
Si Si5 0.971415 0.660644 0.072913
O O1 0.691360 0.254774 0.298736
O O2 0.669150 0.200040 0.466162
O O3 0.546426 0.177123 0.226162
O O4 0.673196 0.000000 0.337104
O O5 0.758842 0.500000 0.353168
O O6 0.834270 0.279282 0.350405
O O7 0.918688 0.500000 0.386891
O O8 0.895148 0.706587 0.237690
O O9 0.000000 0.730426 0.500000
O O10 0.387737 0.219679 0.040765
O O11 0.319560 0.000000 0.066668
O O12 0.250000 0.250000 0.000000
O O13 0.951919 0.500000 0.028654
O O14 0.000000 0.735393 0.000000
#
# Coordination Sequence:
#
# PCOD8106069 Si02
#       5
#     8   8   8   8   8
#     4   9  17  30  49  72  98 129 167 206 247 296
#     4   9  17  29  48  74 100 126 161 209 257 298
#     4   9  17  31  53  76 100 134 176 215 254 304
#     4  10  21  36  55  79 107 138 175 218 263 311
#     4   9  18  32  51  73  98 133 174 208 242 297
#
# _framework density 19.190863
#
# number of rings (size 3 to 8) (size 9 to 14) (size 15 to 20)
#    0.000    2.800    0.000    1.200    2.800    4.800 
#    0.000    1.000    0.000    6.000    0.000    0.000 
#    0.000    0.000    0.000    0.000    0.000    0.000 
#
# Total GULP energy -247858.824528 kJ/mol
# GULP energy per Si atom -12392.941226 kJ/mol
# Density = 1.914718 g / cm^3
# Si number density = 19.190863 Si / 1000 Ang^3
#
#
#
# Elastic Constant Matrix: (Units=GPa)
#
#
# Indices 1 2 3 4 5 6 
#
# 1 181.1054 36.8910 48.9214 0.0000 -2.1489 0.0000
# 2 36.8910 30.8007 18.4920 0.0000 1.8102 0.0000
# 3 48.9214 18.4920 76.4856 0.0000 1.1809 0.0000
# 4 0.0000 0.0000 0.0000 16.5877 0.0000 5.0295
# 5 -2.1489 1.8102 1.1809 0.0000 26.5981 0.0000
# 6 0.0000 0.0000 0.0000 5.0295 0.0000 21.5654
#
#
#
# Elastic Compliance Matrix: (Units=1/GPa)
#
#
# Indices 1 2 3 4 5 6 
#
# 1 0.007985 -0.007677 -0.003271 0.000000 0.001313 0.000000
# 2 -0.007677 0.045487 -0.006034 0.000000 -0.003448 0.000000
# 3 -0.003271 -0.006034 0.016635 0.000000 -0.000592 0.000000
# 4 0.000000 0.000000 0.000000 0.064873 0.000000 -0.015130
# 5 0.001313 -0.003448 -0.000592 0.000000 0.037964 0.000000
# 6 0.000000 0.000000 0.000000 -0.015130 0.000000 0.049899
#
#
# Mechanical properties :
#
#
# Convention : Reuss Voigt Hill
#
# Bulk Modulus (GPa) = 27.66863 55.22228 41.44546
# Shear Modulus (GPa) = 18.59752 25.22272 21.91012
#
# Velocity S-wave (km/s) = 3.11639 3.62927 3.38256
# Velocity P-wave (km/s) = 5.23431 6.81175 6.07445
#
# Compressibility (1/GPa) = 0.03614201
#
# Stress axis : x y z
#
# Youngs Moduli (GPa) = 125.24074 21.98452 60.11498
#
# Poissons Ratio (x) = 0.16876 0.19666
# Poissons Ratio (y) = 0.96142 0.36274
# Poissons Ratio (z) = 0.40971 0.13266
#
# Static dielectric constant tensor:
#      x y z
#    x 3.855720 0.000000 -0.078180 
#    y 0.000000 3.086200 0.000000 
#    z -0.078180 0.000000 3.524970 
# 
# 
# High freq. dielectric constant tensor:
#      x y z
#    x 1.764510 0.000000 -0.002390 
#    y 0.000000 1.685810 0.000000 
#    z -0.002390 0.000000 1.748080 
# 
# From -- ./inp_files/153884.got.cif
#   From: 2010.06.25/outbox.cif.g09.slc.cpg/sg12_77_cif.got.tgz:153884.got - 2010.06.28 00:19:55.
