data_PCOD8106186
_publ_section_title
;
Structure prediction by ZEFSAII (Michael W. Deem and Ramdas Pophale) SiO2 
 PCOD8106186
Probable space group: C 2/M
;
_chemical_formula_sum "Si O2"
_cell_formula_units_Z 64
_cell_length_a 31.460189
_cell_length_b 8.887396
_cell_length_c 25.475579
_cell_angle_alpha 90.000000
_cell_angle_beta 28.967611
_cell_angle_gamma 90.000000
_cell_volume 3449.752630
_symmetry_space_group_name_H-M "C 2/M"
_symmetry_group_IT_number 12
_symmetry_cell_setting 'monoclinic'
loop_
_space_group_symop_operation_xyz
x,y,z
-x,y,-z
-x,-y,-z
x,-y,z
1/2+x,1/2+y,z
1/2-x,1/2+y,-z
1/2-x,1/2-y,-z
1/2+x,1/2-y,z
loop_
_atom_site_type_symbol
_atom_site_label
_atom_site_fract_x
_atom_site_fract_y
_atom_site_fract_z
Si Si1 0.517836 0.826039 0.220721
Si Si2 0.055569 0.174096 0.284467
Si Si3 0.086171 0.674993 0.940086
Si Si4 0.763643 0.674762 0.723750
Si Si5 0.818207 0.325469 0.464921
Si Si6 0.359254 0.324671 0.525843
Si Si7 0.802301 0.671123 0.801376
Si Si8 0.897008 0.174930 0.969751
O O1 0.568202 0.772069 0.218426
O O2 0.414708 0.796907 0.337924
O O3 0.549652 0.727254 0.138107
O O4 0.540105 0.000000 0.186859
O O5 0.130653 0.214968 0.244471
O O6 0.962483 0.210301 0.411605
O O7 0.063054 0.000000 0.260851
O O8 0.110051 0.500000 0.916098
O O9 0.165385 0.762074 0.826538
O O10 0.068555 0.732676 0.017727
O O11 0.000000 0.707971 0.000000
O O12 0.760476 0.500000 0.712840
O O13 0.826323 0.759721 0.616049
O O14 0.803446 0.702368 0.738195
O O15 0.796170 0.500000 0.493723
O O16 0.750000 0.250000 0.500000
O O17 0.808182 0.252966 0.533076
O O18 0.338450 0.500000 0.545488
O O19 0.830839 0.500000 0.782471
O O20 0.705990 0.704170 0.928493
O O21 0.914418 0.000000 0.962050
#
# Coordination Sequence:
#
# PCOD8106186 Si02
#       8
#     8   8   8   8   8   8   8   8
#     4  10  21  37  57  80 108 142 179 221 269 319
#     4  10  21  36  56  81 108 141 180 222 268 318
#     4  10  21  37  57  81 110 143 179 221 269 319
#     4  10  21  37  57  81 109 143 182 222 267 318
#     4  10  21  37  57  81 109 142 180 222 270 321
#     4  10  21  37  56  80 110 142 180 224 268 318
#     4   9  20  37  55  78 108 141 178 220 266 319
#     4  10  21  37  57  81 109 142 181 222 266 318
#
# _framework density 18.552053000000001
#
# number of rings (size 3 to 8) (size 9 to 14) (size 15 to 20)
#    0.000    2.125    0.000    3.375    0.000    9.000 
#    0.000    3.750    0.000    0.000    0.000    0.000 
#    0.000    0.000    0.000    0.000    0.000    0.000 
#
# Total GULP energy -396965.245611 kJ/mol
# GULP energy per Si atom -12405.163925 kJ/mol
# Density = 1.850983 g / cm^3
# Si number density = 18.552053 Si / 1000 Ang^3
#
#
#
# Elastic Constant Matrix: (Units=GPa)
#
#
# Indices 1 2 3 4 5 6 
#
# 1 101.6468 48.4153 43.8301 -0.0061 -9.2605 0.0043
# 2 48.4153 82.7499 38.3123 0.1000 -5.9518 -0.0311
# 3 43.8301 38.3123 76.2159 0.0485 14.4234 -0.0219
# 4 -0.0061 0.1000 0.0485 35.9003 -0.0094 3.3576
# 5 -9.2605 -5.9518 14.4234 -0.0094 26.1090 -0.0034
# 6 0.0043 -0.0311 -0.0219 3.3576 -0.0034 37.4207
#
#
#
# Elastic Compliance Matrix: (Units=1/GPa)
#
#
# Indices 1 2 3 4 5 6 
#
# 1 0.017118 -0.005031 -0.009210 0.000033 0.010012 -0.000014
# 2 -0.005031 0.019324 -0.008171 -0.000043 0.007135 0.000016
# 3 -0.009210 -0.008171 0.026238 -0.000020 -0.019624 0.000010
# 4 0.000033 -0.000043 -0.000020 0.028091 0.000023 -0.002521
# 5 0.010012 0.007135 -0.019624 0.000023 0.054320 -0.000004
# 6 -0.000014 0.000016 0.000010 -0.002521 -0.000004 0.026949
#
#
# Mechanical properties :
#
#
# Convention : Reuss Voigt Hill
#
# Bulk Modulus (GPa) = 56.00157 57.96977 56.98567
# Shear Modulus (GPa) = 22.44004 28.55632 25.49818
#
# Velocity S-wave (km/s) = 3.48166 3.92759 3.71133
# Velocity P-wave (km/s) = 6.81281 7.20298 7.01061
#
# Compressibility (1/GPa) = 0.01785664
#
# Stress axis : x y z
#
# Youngs Moduli (GPa) = 58.41865 51.74782 38.11256
#
# Poissons Ratio (x) = 0.26035 0.35101
# Poissons Ratio (y) = 0.29391 0.31141
# Poissons Ratio (z) = 0.53803 0.42283
#
# Static dielectric constant tensor:
#      x y z
#    x 3.321130 -0.000040 0.052490 
#    y -0.000040 3.551410 0.000050 
#    z 0.052490 0.000050 3.391750 
# 
# 
# High freq. dielectric constant tensor:
#      x y z
#    x 1.722170 0.000000 0.004100 
#    y 0.000000 1.737220 0.000000 
#    z 0.004100 0.000000 1.719180 
# 
# From -- ./inp_files/353265.got.cif
#   From: 2010.06.25/outbox.cif.g09.slc.cpg/sg12_177_cif.got.tgz:353265.got - 2010.06.28 00:19:55.
