data_PCOD8106714
_publ_section_title
;
Structure prediction by ZEFSAII (Michael W. Deem and Ramdas Pophale) SiO2 
 PCOD8106714
Probable space group: C 2/M
;
_chemical_formula_sum "Si O2"
_cell_formula_units_Z 56
_cell_length_a 8.625272
_cell_length_b 29.292602
_cell_length_c 15.281418
_cell_angle_alpha 90.000000
_cell_angle_beta 124.362637
_cell_angle_gamma 90.000000
_cell_volume 3187.145407
_symmetry_space_group_name_H-M "C 2/M"
_symmetry_group_IT_number 12
_symmetry_cell_setting 'monoclinic'
loop_
_space_group_symop_operation_xyz
x,y,z
-x,y,-z
-x,-y,-z
x,-y,z
1/2+x,1/2+y,z
1/2-x,1/2+y,-z
1/2-x,1/2-y,-z
1/2+x,1/2-y,z
loop_
_atom_site_type_symbol
_atom_site_label
_atom_site_fract_x
_atom_site_fract_y
_atom_site_fract_z
Si Si1 0.564743 0.450522 0.880876
Si Si2 0.013262 0.144838 0.196764
Si Si3 0.697010 0.049478 0.880876
Si Si4 0.380265 0.855162 0.196764
Si Si5 0.303838 0.798351 0.622405
Si Si6 0.940971 0.201649 0.622405
Si Si7 0.183303 0.699587 1.000000
O O1 0.578753 0.500000 0.836250
O O2 0.551036 0.407945 0.810178
O O3 0.384199 0.450700 0.884199
O O4 0.747899 0.443669 1.000000
O O5 0.184062 0.149037 0.184062
O O6 0.074758 0.162056 0.311315
O O7 0.843406 0.173985 0.104778
O O8 0.569319 0.092055 0.810178
O O9 0.593747 0.000000 0.836250
O O10 0.547872 0.837944 0.311315
O O11 0.366150 0.826015 0.104778
O O12 0.219587 0.807979 0.500000
O O13 0.408825 0.750000 0.658825
O O14 0.145681 0.798020 0.645681
O O15 0.250000 0.750000 0.000000
O O16 0.000000 0.702270 0.000000
#
# Coordination Sequence:
#
# PCOD8106714 Si02
#       7
#     8   8   8   8   8   8   8
#     4   8  14  27  49  76 104 133 167 207 250 298
#     4  11  20  33  54  79 105 133 170 212 258 304
#     4   8  14  27  49  76 104 133 167 207 250 298
#     4  11  20  33  54  79 105 133 170 212 258 304
#     4  10  21  37  55  75 101 135 175 215 256 304
#     4  10  21  37  55  75 101 135 175 215 256 304
#     4  12  24  36  49  70 105 141 172 205 251 308
#
# _framework density 17.570582999999999
#
# number of rings (size 3 to 8) (size 9 to 14) (size 15 to 20)
#    0.000    2.000    1.429    4.714    0.000    1.714 
#    0.000    0.000    0.000    5.143    0.000    6.000 
#    0.000    0.000    0.000    0.000    0.000    0.000 
#
# Total GULP energy -347119.114702 kJ/mol
# GULP energy per Si atom -12397.111239 kJ/mol
# Density = 1.753059 g / cm^3
# Si number density = 17.570583 Si / 1000 Ang^3
#
#
#
# Elastic Constant Matrix: (Units=GPa)
#
#
# Indices 1 2 3 4 5 6 
#
# 1 81.5160 50.2007 32.1704 0.0000 -0.1922 0.0000
# 2 50.2007 192.4002 75.0615 0.0000 -0.6477 0.0000
# 3 32.1704 75.0615 82.1485 0.0000 0.1757 0.0000
# 4 0.0000 0.0000 0.0000 28.4602 0.0000 -0.2385
# 5 -0.1922 -0.6477 0.1757 0.0000 28.3513 0.0000
# 6 0.0000 0.0000 0.0000 -0.2385 0.0000 19.3063
#
#
#
# Elastic Compliance Matrix: (Units=1/GPa)
#
#
# Indices 1 2 3 4 5 6 
#
# 1 0.015286 -0.002568 -0.003640 0.000000 0.000067 0.000000
# 2 -0.002568 0.008510 -0.006770 0.000000 0.000219 0.000000
# 3 -0.003640 -0.006770 0.019785 0.000000 -0.000302 0.000000
# 4 0.000000 0.000000 0.000000 0.035140 0.000000 0.000434
# 5 0.000067 0.000219 -0.000302 0.000000 0.035279 0.000000
# 6 0.000000 0.000000 0.000000 0.000434 0.000000 0.051802
#
#
# Mechanical properties :
#
#
# Convention : Reuss Voigt Hill
#
# Bulk Modulus (GPa) = 56.73928 74.54777 65.64352
# Shear Modulus (GPa) = 25.29948 28.46572 26.88260
#
# Velocity S-wave (km/s) = 3.79869 4.02939 3.91574
# Velocity P-wave (km/s) = 7.18348 8.01047 7.60822
#
# Compressibility (1/GPa) = 0.01762448
#
# Stress axis : x y z
#
# Youngs Moduli (GPa) = 65.42094 117.51457 50.54292
#
# Poissons Ratio (x) = 0.30179 0.18396
# Poissons Ratio (y) = 0.16801 0.34219
# Poissons Ratio (z) = 0.23811 0.79560
#
# Static dielectric constant tensor:
#      x y z
#    x 3.166120 0.000000 -0.000780 
#    y 0.000000 3.781250 0.000000 
#    z -0.000780 0.000000 3.196020 
# 
# 
# High freq. dielectric constant tensor:
#      x y z
#    x 1.669770 0.000000 0.000270 
#    y 0.000000 1.691290 0.000000 
#    z 0.000270 0.000000 1.659350 
# 
# From -- ./inp_files/200989.got.cif
#   From: 2010.06.25/outbox.cif.g09.slc.cpg/sg12_101_cif.got.tgz:200989.got - 2010.06.28 00:19:55.
