data_PCOD8106822
_publ_section_title
;
Structure prediction by ZEFSAII (Michael W. Deem and Ramdas Pophale) SiO2 
 PCOD8106822
Probable space group: C 2/M
;
_chemical_formula_sum "Si O2"
_cell_formula_units_Z 56
_cell_length_a 17.883727
_cell_length_b 8.825482
_cell_length_c 28.794992
_cell_angle_alpha 90.000000
_cell_angle_beta 140.685981
_cell_angle_gamma 90.000000
_cell_volume 2879.440879
_symmetry_space_group_name_H-M "C 2/M"
_symmetry_group_IT_number 12
_symmetry_cell_setting 'monoclinic'
loop_
_space_group_symop_operation_xyz
x,y,z
-x,y,-z
-x,-y,-z
x,-y,z
1/2+x,1/2+y,z
1/2-x,1/2+y,-z
1/2-x,1/2-y,-z
1/2+x,1/2-y,z
loop_
_atom_site_type_symbol
_atom_site_label
_atom_site_fract_x
_atom_site_fract_y
_atom_site_fract_z
Si Si1 0.163234 0.177474 0.995117
Si Si2 0.205970 0.821760 0.431524
Si Si3 0.637868 0.326023 0.568944
Si Si4 0.709460 0.676475 0.707714
Si Si5 0.638117 0.177478 0.845224
Si Si6 0.454116 0.179625 0.296178
Si Si7 0.523895 0.820887 0.149299
O O1 0.034175 0.251808 0.925857
O O2 0.152833 0.000000 0.981423
O O3 0.250000 0.250000 0.000000
O O4 0.224861 0.211821 0.074767
O O5 0.250000 0.750000 0.500000
O O6 0.299290 0.785967 0.436323
O O7 0.081563 0.753282 0.357526
O O8 0.193814 0.000000 0.432479
O O9 0.500000 0.292565 0.500000
O O10 0.665505 0.500000 0.568703
O O11 0.685871 0.288696 0.642854
O O12 0.690851 0.500000 0.709953
O O13 0.618239 0.773079 0.693514
O O14 0.841084 0.731410 0.783198
O O15 0.612533 0.243265 0.781846
O O16 0.546104 0.243742 0.839209
O O17 0.615191 0.000000 0.832864
O O18 0.468325 0.000000 0.302489
O O19 0.513064 0.000000 0.141376
#
# Coordination Sequence:
#
# PCOD8106822 Si02
#       7
#     8   8   8   8   8   8   8
#     4   9  16  29  50  76 105 137 180 230 279 332
#     4  12  25  41  62  88 117 147 184 227 272 324
#     4  10  21  39  63  87 113 147 184 224 275 330
#     4  10  21  37  56  81 116 152 185 228 282 335
#     4   8  16  32  54  78 104 140 182 225 277 333
#     4  11  22  38  59  82 112 149 189 230 276 331
#     4   9  17  32  53  76 106 144 185 228 278 334
#
# _framework density 19.448219999999999
#
# number of rings (size 3 to 8) (size 9 to 14) (size 15 to 20)
#    0.000    2.143    0.000    4.714    0.000    4.857 
#    0.000   10.714    0.000    4.286    0.000    0.000 
#    0.000    0.000    0.000    0.000    0.000    0.000 
#
# Total GULP energy -347139.911580 kJ/mol
# GULP energy per Si atom -12397.853985 kJ/mol
# Density = 1.940396 g / cm^3
# Si number density = 19.448220 Si / 1000 Ang^3
#
#
#
# Elastic Constant Matrix: (Units=GPa)
#
#
# Indices 1 2 3 4 5 6 
#
# 1 87.0457 35.9370 51.4024 0.0000 1.1766 0.0000
# 2 35.9370 73.7278 51.1391 0.0001 -1.0749 -0.0003
# 3 51.4024 51.1391 172.3870 0.0000 4.3356 0.0000
# 4 0.0000 0.0001 0.0000 30.8977 0.0000 3.6929
# 5 1.1766 -1.0749 4.3356 0.0000 26.5514 0.0000
# 6 0.0000 -0.0003 0.0000 3.6929 0.0000 28.8556
#
#
#
# Elastic Compliance Matrix: (Units=1/GPa)
#
#
# Indices 1 2 3 4 5 6 
#
# 1 0.015530 -0.005504 -0.002987 0.000000 -0.000423 0.000000
# 2 -0.005504 0.019090 -0.004064 0.000000 0.001680 0.000000
# 3 -0.002987 -0.004064 0.007931 0.000000 -0.001327 0.000000
# 4 0.000000 0.000000 0.000000 0.032868 0.000000 -0.004206
# 5 -0.000423 0.001680 -0.001327 0.000000 0.037966 0.000000
# 6 0.000000 0.000000 0.000000 -0.004206 0.000000 0.035194
#
#
# Mechanical properties :
#
#
# Convention : Reuss Voigt Hill
#
# Bulk Modulus (GPa) = 57.34031 67.79083 62.56557
# Shear Modulus (GPa) = 27.85477 30.23975 29.04726
#
# Velocity S-wave (km/s) = 3.78862 3.94748 3.86886
# Velocity P-wave (km/s) = 6.97752 7.46388 7.22479
#
# Compressibility (1/GPa) = 0.01743974
#
# Stress axis : x y z
#
# Youngs Moduli (GPa) = 64.38974 52.38450 126.09231
#
# Poissons Ratio (x) = 0.28832 0.37669
# Poissons Ratio (y) = 0.35440 0.51245
# Poissons Ratio (z) = 0.19236 0.21289
#
# Static dielectric constant tensor:
#      x y z
#    x 3.394490 0.000000 -0.027830 
#    y 0.000000 3.470150 0.000000 
#    z -0.027830 0.000000 4.138430 
# 
# 
# High freq. dielectric constant tensor:
#      x y z
#    x 1.737320 0.000000 0.003490 
#    y 0.000000 1.742880 0.000000 
#    z 0.003490 0.000000 1.785440 
# 
# From -- ./inp_files/275683.got.cif
#   From: 2010.06.25/outbox.cif.g09.slc.cpg/sg12_138_cif.got.tgz:275683.got - 2010.06.28 00:19:55.
