data_PCOD8106911
_publ_section_title
;
Structure prediction by ZEFSAII (Michael W. Deem and Ramdas Pophale) SiO2 
 PCOD8106911
Probable space group: C 2/M
;
_chemical_formula_sum "Si O2"
_cell_formula_units_Z 60
_cell_length_a 27.629676
_cell_length_b 9.378812
_cell_length_c 12.709093
_cell_angle_alpha 90.000000
_cell_angle_beta 119.347989
_cell_angle_gamma 90.000000
_cell_volume 2870.680354
_symmetry_space_group_name_H-M "C 2/M"
_symmetry_group_IT_number 12
_symmetry_cell_setting 'monoclinic'
loop_
_space_group_symop_operation_xyz
x,y,z
-x,y,-z
-x,-y,-z
x,-y,z
1/2+x,1/2+y,z
1/2-x,1/2+y,-z
1/2-x,1/2-y,-z
1/2+x,1/2-y,z
loop_
_atom_site_type_symbol
_atom_site_label
_atom_site_fract_x
_atom_site_fract_y
_atom_site_fract_z
Si Si1 0.981831 0.651835 0.267190
Si Si2 0.500000 0.270729 0.500000
Si Si3 0.797274 0.163980 0.680640
Si Si4 0.148363 0.660975 0.838689
Si Si5 0.842416 0.164530 0.952933
Si Si6 0.527942 0.663080 0.927835
Si Si7 0.122616 0.160462 0.615094
Si Si8 0.171157 0.333977 0.482639
O O1 0.002152 0.500000 0.245022
O O2 0.916148 0.651698 0.207932
O O3 0.010218 0.673458 0.409570
O O4 0.000871 0.770586 0.205457
O O5 0.442919 0.359249 0.425457
O O6 0.809748 0.211769 0.813496
O O7 0.831089 0.264427 0.636030
O O8 0.732154 0.183333 0.595284
O O9 0.815873 0.000000 0.682281
O O10 0.172931 0.500000 0.849856
O O11 0.156544 0.754199 0.741689
O O12 0.177572 0.739067 0.969558
O O13 0.906880 0.189469 0.998138
O O14 0.830669 0.000000 0.969366
O O15 0.511220 0.500000 0.903957
O O16 0.500000 0.734487 0.000000
O O17 0.129492 0.246810 0.513570
O O18 0.147081 0.000000 0.631601
O O19 0.153402 0.500000 0.457105
#
# Coordination Sequence:
#
# PCOD8106911 Si02
#       8
#     8   4   8   8   8   8   8   8
#     4   9  18  32  50  71 100 137 172 211 260 313
#     4  10  22  36  54  80 108 140 180 224 266 320
#     4   9  19  37  59  82 110 145 185 227 271 323
#     4   9  18  33  52  76 106 137 171 214 265 317
#     4   9  17  32  54  76 101 138 181 221 263 314
#     4   9  18  31  47  71 104 138 173 216 263 311
#     4  11  22  37  57  80 108 143 183 224 271 327
#     4  10  21  37  57  82 112 144 180 226 278 325
#
# _framework density 20.900969
#
# number of rings (size 3 to 8) (size 9 to 14) (size 15 to 20)
#    0.000    2.533    0.000    1.600    0.000    7.733 
#    0.000    2.000    0.000    0.000    0.000    0.000 
#    0.000    0.000    0.000    0.000    0.000    0.000 
#
# Total GULP energy -371872.327961 kJ/mol
# GULP energy per Si atom -12395.744265 kJ/mol
# Density = 2.085340 g / cm^3
# Si number density = 20.900969 Si / 1000 Ang^3
#
#
#
# Elastic Constant Matrix: (Units=GPa)
#
#
# Indices 1 2 3 4 5 6 
#
# 1 41.4802 23.4839 11.9863 0.0000 -14.7243 0.0000
# 2 23.4839 121.1946 41.6978 0.0000 -8.2716 0.0000
# 3 11.9863 41.6978 126.1071 0.0000 -5.6873 0.0000
# 4 0.0000 0.0000 0.0000 -16.4689 0.0000 29.5684
# 5 -14.7243 -8.2716 -5.6873 0.0000 18.7967 0.0000
# 6 0.0000 0.0000 0.0000 29.5684 0.0000 -13.9070
#
#
#
# Elastic Compliance Matrix: (Units=1/GPa)
#
#
# Indices 1 2 3 4 5 6 
#
# 1 0.036423 -0.005066 -0.000609 0.000000 0.026118 0.000000
# 2 -0.005066 0.010210 -0.002910 0.000000 -0.000356 0.000000
# 3 -0.000609 -0.002910 0.008993 0.000000 0.000963 0.000000
# 4 0.000000 0.000000 0.000000 0.021553 0.000000 0.045824
# 5 0.026118 -0.000356 0.000963 0.000000 0.073795 0.000000
# 6 0.000000 0.000000 0.000000 0.045824 0.000000 0.025523
#
#
# Mechanical properties :
#
#
# Convention : Reuss Voigt Hill
#
# Bulk Modulus (GPa) = 26.00374 49.23532 37.61953
# Shear Modulus (GPa) = 24.21471 11.79176 18.00323
#
# Velocity S-wave (km/s) = 3.40743 2.37781 2.93808
# Velocity P-wave (km/s) = 5.28670 5.58088 5.43578
#
# Compressibility (1/GPa) = 0.03845601
#
# Stress axis : x y z
#
# Youngs Moduli (GPa) = 27.45523 97.94488 111.19178
#
# Poissons Ratio (x) = 0.49614 0.06773
# Poissons Ratio (y) = 0.13907 0.32362
# Poissons Ratio (z) = 0.01672 0.28507
#
# Static dielectric constant tensor:
#      x y z
#    x 3.460530 0.000000 -0.149190 
#    y 0.000000 3.935070 0.000000 
#    z -0.149190 0.000000 3.980050 
# 
# 
# High freq. dielectric constant tensor:
#      x y z
#    x 1.790970 0.000000 -0.011690 
#    y 0.000000 1.817230 0.000000 
#    z -0.011690 0.000000 1.823790 
# 
# From -- ./inp_files/187668.got.cif
#   From: 2010.06.25/outbox.cif.g09.slc.cpg/sg12_94_cif.got.tgz:187668.got - 2010.06.28 00:19:55.
