data_PCOD8106248
_publ_section_title
;
Structure prediction by ZEFSAII (Michael W. Deem and Ramdas Pophale) SiO2 
 PCOD8106248
Probable space group: C 2/M
;
_chemical_formula_sum "Si O2"
_cell_formula_units_Z 64
_cell_length_a 29.518373
_cell_length_b 14.152717
_cell_length_c 9.063873
_cell_angle_alpha 90.000000
_cell_angle_beta 63.534514
_cell_angle_gamma 90.000000
_cell_volume 3389.749227
_symmetry_space_group_name_H-M "C 2/M"
_symmetry_group_IT_number 12
_symmetry_cell_setting 'monoclinic'
loop_
_space_group_symop_operation_xyz
x,y,z
-x,y,-z
-x,-y,-z
x,-y,z
1/2+x,1/2+y,z
1/2-x,1/2+y,-z
1/2-x,1/2-y,-z
1/2+x,1/2-y,z
loop_
_atom_site_type_symbol
_atom_site_label
_atom_site_fract_x
_atom_site_fract_y
_atom_site_fract_z
Si Si1 0.279400 0.889101 0.376871
Si Si2 0.541133 0.895516 0.336799
Si Si3 0.531208 0.894186 0.821858
Si Si4 0.861971 0.723042 0.757664
Si Si5 0.324287 0.610097 0.314485
Si Si6 0.170783 0.894833 0.036253
Si Si7 0.722324 0.893310 0.961353
Si Si8 0.630331 0.778255 0.602229
O O1 0.228661 0.857876 0.535577
O O2 0.275424 0.858659 0.211459
O O3 0.327432 0.841238 0.381402
O O4 0.287064 0.000000 0.382198
O O5 0.500000 0.843840 0.500000
O O6 0.515083 0.905570 0.220159
O O7 0.591347 0.836046 0.251486
O O8 0.554907 0.000000 0.381772
O O9 0.575633 0.825040 0.705524
O O10 0.553152 0.000000 0.824278
O O11 0.500000 0.847731 0.000000
O O12 0.868078 0.825720 0.824123
O O13 0.859216 0.729461 0.586251
O O14 0.811422 0.675627 0.892560
O O15 0.336144 0.500000 0.328224
O O16 0.368085 0.673609 0.327146
O O17 0.321144 0.633118 0.145844
O O18 0.222736 0.888678 0.048949
O O19 0.147897 0.000000 0.079305
O O20 0.700639 0.000000 0.001119
#
# Coordination Sequence:
#
# PCOD8106248 Si02
#       8
#     8   8   8   8   8   8   8   8
#     4  10  21  36  56  84 119 153 188 230 277 334
#     4  10  21  40  60  84 117 149 183 224 276 335
#     4  10  23  40  60  86 117 149 182 227 280 333
#     4  12  23  35  59  86 114 151 190 231 280 336
#     4  10  22  40  59  80 112 151 190 236 284 331
#     4  10  22  40  59  81 112 149 191 237 282 331
#     4  10  21  36  56  85 118 152 189 230 277 333
#     4  12  23  36  58  86 115 150 190 230 280 340
#
# _framework density 18.880451999999998
#
# number of rings (size 3 to 8) (size 9 to 14) (size 15 to 20)
#    0.000    1.500    1.250    3.750    3.500    4.000 
#    0.000    0.000    0.000    1.500    0.000    0.000 
#    0.000    0.000    0.000    0.000    0.000    0.000 
#
# Total GULP energy -396731.380606 kJ/mol
# GULP energy per Si atom -12397.855644 kJ/mol
# Density = 1.883748 g / cm^3
# Si number density = 18.880452 Si / 1000 Ang^3
#
#
#
# Elastic Constant Matrix: (Units=GPa)
#
#
# Indices 1 2 3 4 5 6 
#
# 1 75.6141 42.5704 35.2030 0.0000 10.9398 0.0000
# 2 42.5704 93.2682 49.3844 0.0000 1.6316 0.0000
# 3 35.2030 49.3844 147.5359 0.0000 18.4008 0.0000
# 4 0.0000 0.0000 0.0000 27.4604 0.0000 -2.4444
# 5 10.9398 1.6316 18.4008 0.0000 25.2345 0.0000
# 6 0.0000 0.0000 0.0000 -2.4444 0.0000 39.1587
#
#
#
# Elastic Compliance Matrix: (Units=1/GPa)
#
#
# Indices 1 2 3 4 5 6 
#
# 1 0.019314 -0.008169 -0.000985 0.000000 -0.007126 0.000000
# 2 -0.008169 0.016640 -0.004321 0.000000 0.005617 0.000000
# 3 -0.000985 -0.004321 0.009209 0.000000 -0.006009 0.000000
# 4 0.000000 0.000000 0.000000 0.036620 0.000000 0.002286
# 5 -0.007126 0.005617 -0.006009 0.000000 0.046736 0.000000
# 6 0.000000 0.000000 0.000000 0.002286 0.000000 0.025680
#
#
# Mechanical properties :
#
#
# Convention : Reuss Voigt Hill
#
# Bulk Modulus (GPa) = 54.90902 63.41486 59.16194
# Shear Modulus (GPa) = 26.70650 30.98808 28.84729
#
# Velocity S-wave (km/s) = 3.76507 4.05566 3.91307
# Velocity P-wave (km/s) = 6.93157 7.45598 7.19855
#
# Compressibility (1/GPa) = 0.01821194
#
# Stress axis : x y z
#
# Youngs Moduli (GPa) = 51.77600 60.09536 108.59039
#
# Poissons Ratio (x) = 0.49093 0.10698
# Poissons Ratio (y) = 0.42297 0.46925
# Poissons Ratio (z) = 0.05101 0.25969
#
# Static dielectric constant tensor:
#      x y z
#    x 3.264110 0.000000 0.132600 
#    y 0.000000 3.792190 0.000000 
#    z 0.132600 0.000000 3.648130 
# 
# 
# High freq. dielectric constant tensor:
#      x y z
#    x 1.716680 0.000000 0.016870 
#    y 0.000000 1.736780 0.000000 
#    z 0.016870 0.000000 1.749490 
# 
# From -- ./inp_files/104489.got.cif
#   From: 2010.06.25/outbox.cif.g09.slc.cpg/sg12_53_cif.got.tgz:104489.got - 2010.06.28 00:19:55.
