data_PCOD8106055
_publ_section_title
;
Structure prediction by ZEFSAII (Michael W. Deem and Ramdas Pophale) SiO2 
 PCOD8106055
Probable space group: C 2/M
;
_chemical_formula_sum "Si O2"
_cell_formula_units_Z 56
_cell_length_a 22.982645
_cell_length_b 9.008266
_cell_length_c 15.305891
_cell_angle_alpha 90.000000
_cell_angle_beta 91.572088
_cell_angle_gamma 90.000000
_cell_volume 3167.643709
_symmetry_space_group_name_H-M "C 2/M"
_symmetry_group_IT_number 12
_symmetry_cell_setting 'monoclinic'
loop_
_space_group_symop_operation_xyz
x,y,z
-x,y,-z
-x,-y,-z
x,-y,z
1/2+x,1/2+y,z
1/2-x,1/2+y,-z
1/2-x,1/2-y,-z
1/2+x,1/2-y,z
loop_
_atom_site_type_symbol
_atom_site_label
_atom_site_fract_x
_atom_site_fract_y
_atom_site_fract_z
Si Si1 0.628968 0.170415 0.162161
Si Si2 0.926702 0.671884 0.660225
Si Si3 0.559106 0.825800 0.682379
Si Si4 0.067919 0.828039 0.008168
Si Si5 0.254657 0.327022 0.093639
Si Si6 0.868448 0.675922 0.146934
Si Si7 0.069015 0.167379 0.510611
O O1 0.617054 0.207740 0.262761
O O2 0.696421 0.199299 0.146271
O O3 0.611479 0.000000 0.140811
O O4 0.589203 0.280076 0.104369
O O5 0.927280 0.500000 0.635297
O O6 0.903261 0.758288 0.574274
O O7 0.991843 0.722805 0.690106
O O8 0.592973 0.771756 0.769692
O O9 0.588912 0.750168 0.599460
O O10 0.565152 0.000000 0.669899
O O11 0.100757 0.726826 0.940123
O O12 0.082810 0.000000 0.992096
O O13 0.000000 0.796455 0.000000
O O14 0.267500 0.500000 0.079142
O O15 0.305841 0.253280 0.152147
O O16 0.250000 0.250000 0.000000
O O17 0.860276 0.500000 0.143145
O O18 0.000000 0.178682 0.500000
O O19 0.091567 0.000000 0.516884
#
# Coordination Sequence:
#
# PCOD8106055 Si02
#       7
#     8   8   8   8   8   8   8
#     4  10  21  36  55  76 101 138 179 218 260 312
#     4   9  17  32  53  77 104 135 172 212 256 312
#     4   9  18  32  52  77 104 136 173 211 256 312
#     4  11  23  35  50  76 108 139 170 212 266 317
#     4  11  22  37  56  77 102 137 182 225 266 310
#     4  11  22  36  55  77 103 139 180 221 263 311
#     4   9  17  29  48  76 108 138 166 203 256 314
#
# _framework density 17.678756
#
# number of rings (size 3 to 8) (size 9 to 14) (size 15 to 20)
#    0.000    2.000    1.429    2.571    0.000    6.286 
#    0.000    2.857    0.000    0.857    0.000    0.000 
#    0.000    0.000    0.000    0.000    0.000    0.000 
#
# Total GULP energy -347285.384922 kJ/mol
# GULP energy per Si atom -12403.049462 kJ/mol
# Density = 1.763852 g / cm^3
# Si number density = 17.678756 Si / 1000 Ang^3
#
#
#
# Elastic Constant Matrix: (Units=GPa)
#
#
# Indices 1 2 3 4 5 6 
#
# 1 76.0009 34.7186 33.2261 0.0000 -14.9608 0.0000
# 2 34.7186 67.4967 34.8456 0.0000 -7.4862 0.0000
# 3 33.2261 34.8456 105.4312 0.0000 -22.2076 0.0000
# 4 0.0000 0.0000 0.0000 24.8385 0.0000 5.0176
# 5 -14.9608 -7.4862 -22.2076 0.0000 18.6084 0.0000
# 6 0.0000 0.0000 0.0000 5.0176 0.0000 22.3021
#
#
#
# Elastic Compliance Matrix: (Units=1/GPa)
#
#
# Indices 1 2 3 4 5 6 
#
# 1 0.019614 -0.008288 -0.001099 0.000000 0.011123 0.000000
# 2 -0.008288 0.021366 -0.005400 0.000000 -0.004512 0.000000
# 3 -0.001099 -0.005400 0.014657 0.000000 0.014435 0.000000
# 4 0.000000 0.000000 0.000000 0.042177 0.000000 -0.009489
# 5 0.011123 -0.004512 0.014435 0.000000 0.078094 0.000000
# 6 0.000000 0.000000 0.000000 -0.009489 0.000000 0.046974
#
#
# Mechanical properties :
#
#
# Convention : Reuss Voigt Hill
#
# Bulk Modulus (GPa) = 38.36946 50.50105 44.43526
# Shear Modulus (GPa) = 19.14660 22.89236 21.01948
#
# Velocity S-wave (km/s) = 3.29451 3.60239 3.45188
# Velocity P-wave (km/s) = 6.01852 6.77723 6.40911
#
# Compressibility (1/GPa) = 0.02606239
#
# Stress axis : x y z
#
# Youngs Moduli (GPa) = 50.98434 46.80341 68.22851
#
# Poissons Ratio (x) = 0.38790 0.07499
# Poissons Ratio (y) = 0.42255 0.36845
# Poissons Ratio (z) = 0.05604 0.25275
#
# Static dielectric constant tensor:
#      x y z
#    x 3.269070 0.000000 -0.021460 
#    y 0.000000 3.351870 0.000000 
#    z -0.021460 0.000000 3.370640 
# 
# 
# High freq. dielectric constant tensor:
#      x y z
#    x 1.660740 0.000000 -0.004230 
#    y 0.000000 1.691180 0.000000 
#    z -0.004230 0.000000 1.687500 
# 
# From -- ./inp_files/231006.got.cif
#   From: 2010.06.25/outbox.cif.g09.slc.cpg/sg12_116_cif.got.tgz:231006.got - 2010.06.28 00:19:55.
