data_PCOD8106456
_publ_section_title
;
Structure prediction by ZEFSAII (Michael W. Deem and Ramdas Pophale) SiO2 
 PCOD8106456
Probable space group: C 2/M
;
_chemical_formula_sum "Si O2"
_cell_formula_units_Z 48
_cell_length_a 19.455029
_cell_length_b 24.591230
_cell_length_c 12.926588
_cell_angle_alpha 90.000000
_cell_angle_beta 25.767151
_cell_angle_gamma 90.000000
_cell_volume 2688.441072
_symmetry_space_group_name_H-M "C 2/M"
_symmetry_group_IT_number 12
_symmetry_cell_setting 'monoclinic'
loop_
_space_group_symop_operation_xyz
x,y,z
-x,y,-z
-x,-y,-z
x,-y,z
1/2+x,1/2+y,z
1/2-x,1/2+y,-z
1/2-x,1/2-y,-z
1/2+x,1/2-y,z
loop_
_atom_site_type_symbol
_atom_site_label
_atom_site_fract_x
_atom_site_fract_y
_atom_site_fract_z
Si Si1 0.115606 0.561608 0.931724
Si Si2 0.891091 0.748189 0.389320
Si Si3 0.867371 0.678705 0.603806
Si Si4 0.589188 0.150304 0.141846
Si Si5 0.373791 0.654455 0.901220
Si Si6 0.027968 0.061187 0.577519
O O1 0.069742 0.500000 0.026915
O O2 0.287326 0.562751 0.647828
O O3 0.109994 0.599060 0.040114
O O4 0.000000 0.584233 0.000000
O O5 0.750000 0.750000 0.500000
O O6 0.813457 0.728931 0.603705
O O7 0.021978 0.703786 0.173572
O O8 0.977739 0.805341 0.290195
O O9 0.000000 0.703408 0.500000
O O10 0.959980 0.633988 0.406315
O O11 0.718133 0.652486 0.864456
O O12 0.753900 0.169696 0.970906
O O13 0.440206 0.594913 0.785381
O O14 0.000000 0.085195 0.500000
O O15 0.959240 0.000000 0.675236
#
# Coordination Sequence:
#
# PCOD8106456 Si02
#       6
#     8   8   8   8   8   8
#     4  10  21  38  60  87 120 155 195 250 300 353
#     4  10  23  37  54  85 116 152 197 243 291 353
#     4   8  20  37  55  81 116 147 196 232 283 356
#     4   9  20  39  56  82 117 152 195 240 289 359
#     4  11  20  38  62  81 116 160 185 245 301 342
#     4  10  21  36  58  90 118 148 197 244 295 355
#
# _framework density 17.854213000000001
#
# number of rings (size 3 to 8) (size 9 to 14) (size 15 to 20)
#    1.000    1.333    1.667    0.500    2.333    2.667 
#    0.000    0.833    0.000    3.000    0.000    4.667 
#    0.000    0.000    0.000    0.000    0.000    0.000 
#
# Total GULP energy -297336.506846 kJ/mol
# GULP energy per Si atom -12389.021119 kJ/mol
# Density = 1.781358 g / cm^3
# Si number density = 17.854213 Si / 1000 Ang^3
#
#
#
# Elastic Constant Matrix: (Units=GPa)
#
#
# Indices 1 2 3 4 5 6 
#
# 1 119.3519 41.5287 52.3298 0.0020 -10.8372 0.0013
# 2 41.5287 89.2670 50.8268 0.0217 6.6082 -0.0144
# 3 52.3298 50.8268 100.5734 0.0121 5.7661 -0.0083
# 4 0.0020 0.0217 0.0121 30.9050 -0.0132 1.8619
# 5 -10.8372 6.6082 5.7661 -0.0132 33.2475 0.0032
# 6 0.0013 -0.0144 -0.0083 1.8619 0.0032 28.0244
#
#
#
# Elastic Compliance Matrix: (Units=1/GPa)
#
#
# Indices 1 2 3 4 5 6 
#
# 1 0.012206 -0.003215 -0.005041 0.000006 0.005492 -0.000005
# 2 -0.003215 0.016678 -0.006571 -0.000011 -0.003223 0.000008
# 3 -0.005041 -0.006571 0.016066 -0.000003 -0.003123 0.000002
# 4 0.000006 -0.000011 -0.000003 0.032487 0.000018 -0.002158
# 5 0.005492 -0.003223 -0.003123 0.000018 0.033050 -0.000008
# 6 -0.000005 0.000008 0.000002 -0.002158 -0.000008 0.035827
#
#
# Mechanical properties :
#
#
# Convention : Reuss Voigt Hill
#
# Bulk Modulus (GPa) = 65.37701 66.50699 65.94200
# Shear Modulus (GPa) = 27.61414 29.40251 28.50832
#
# Velocity S-wave (km/s) = 3.93701 4.06249 4.00024
# Velocity P-wave (km/s) = 7.57386 7.70299 7.63870
#
# Compressibility (1/GPa) = 0.01529590
#
# Stress axis : x y z
#
# Youngs Moduli (GPa) = 81.92578 59.95948 62.24334
#
# Poissons Ratio (x) = 0.19275 0.31379
# Poissons Ratio (y) = 0.26337 0.40901
# Poissons Ratio (z) = 0.41301 0.39400
#
# Static dielectric constant tensor:
#      x y z
#    x 3.319950 -0.000050 -0.048220 
#    y -0.000050 3.109730 0.000060 
#    z -0.048220 0.000060 3.325910 
# 
# 
# High freq. dielectric constant tensor:
#      x y z
#    x 1.691010 -0.000010 -0.012040 
#    y -0.000010 1.668930 0.000010 
#    z -0.012040 0.000010 1.687020 
# 
# From -- ./inp_files/160430.got.cif
#   From: 2010.06.25/outbox.cif.g09.slc.cpg/sg12_81_cif.got.tgz:160430.got - 2010.06.28 00:19:55.
