data_PCOD8106425
_publ_section_title
;
Structure prediction by ZEFSAII (Michael W. Deem and Ramdas Pophale) SiO2 
 PCOD8106425
Probable space group: C 2/M
;
_chemical_formula_sum "Si O2"
_cell_formula_units_Z 64
_cell_length_a 24.142928
_cell_length_b 8.820451
_cell_length_c 28.828326
_cell_angle_alpha 90.000000
_cell_angle_beta 32.497737
_cell_angle_gamma 90.000000
_cell_volume 3298.296949
_symmetry_space_group_name_H-M "C 2/M"
_symmetry_group_IT_number 12
_symmetry_cell_setting 'monoclinic'
loop_
_space_group_symop_operation_xyz
x,y,z
-x,y,-z
-x,-y,-z
x,-y,z
1/2+x,1/2+y,z
1/2-x,1/2+y,-z
1/2-x,1/2-y,-z
1/2+x,1/2-y,z
loop_
_atom_site_type_symbol
_atom_site_label
_atom_site_fract_x
_atom_site_fract_y
_atom_site_fract_z
Si Si1 0.850448 0.677701 0.907046
Si Si2 0.432729 0.819045 0.750480
Si Si3 0.382776 0.826848 0.596732
Si Si4 0.711548 0.174186 0.665126
Si Si5 0.334445 0.824900 0.408263
Si Si6 0.975191 0.175025 0.158228
Si Si7 0.808329 0.320170 0.749400
Si Si8 0.577033 0.321782 0.907855
O O1 0.832876 0.500000 0.917666
O O2 0.874801 0.739498 0.837987
O O3 0.945913 0.714539 0.872438
O O4 0.750000 0.750000 0.000000
O O5 0.550366 0.756192 0.666079
O O6 0.371295 0.755446 0.749164
O O7 0.435974 0.000000 0.749256
O O8 0.500000 0.813183 0.500000
O O9 0.325391 0.715920 0.601661
O O10 0.365632 0.770723 0.661695
O O11 0.343332 0.000000 0.619342
O O12 0.702726 0.204894 0.617259
O O13 0.638266 0.290214 0.743548
O O14 0.684544 0.000000 0.696005
O O15 0.250000 0.750000 0.500000
O O16 0.337606 0.000000 0.418937
O O17 0.975914 0.213775 0.103575
O O18 0.003794 0.000000 0.147356
O O19 0.805137 0.500000 0.755608
O O20 0.692116 0.251877 0.831169
O O21 0.587792 0.500000 0.908259
O O22 0.500000 0.248907 0.000000
#
# Coordination Sequence:
#
# PCOD8106425 Si02
#       8
#     8   8   8   8   8   8   8   8
#     4  11  23  40  60  87 119 155 198 241 292 352
#     4   9  19  36  57  80 115 154 189 233 289 344
#     4  10  21  36  58  88 114 144 193 244 284 333
#     4  11  22  39  60  83 119 157 191 236 294 351
#     4  10  22  39  58  85 114 151 195 236 288 346
#     4  11  21  37  62  88 114 150 197 245 291 340
#     4   9  17  32  53  80 113 146 184 234 283 331
#     4   9  18  31  53  86 115 141 185 237 285 338
#
# _framework density 19.403952
#
# number of rings (size 3 to 8) (size 9 to 14) (size 15 to 20)
#    0.000    2.000    2.500    1.125    3.500    1.250 
#    0.000    0.000    0.000    4.500    0.000    0.000 
#    0.000    0.000    0.000    0.000    0.000    0.000 
#
# Total GULP energy -396786.622064 kJ/mol
# GULP energy per Si atom -12399.581939 kJ/mol
# Density = 1.935979 g / cm^3
# Si number density = 19.403952 Si / 1000 Ang^3
#
#
#
# Elastic Constant Matrix: (Units=GPa)
#
#
# Indices 1 2 3 4 5 6 
#
# 1 128.8352 28.4318 53.4780 -0.0003 2.3177 0.0101
# 2 28.4318 27.8883 21.7424 -0.0076 7.7646 0.0271
# 3 53.4780 21.7424 140.8320 0.0039 14.6547 -0.0006
# 4 -0.0003 -0.0076 0.0039 24.8231 -0.0005 -3.0037
# 5 2.3177 7.7646 14.6547 -0.0005 30.0453 -0.0037
# 6 0.0101 0.0271 -0.0006 -3.0037 -0.0037 27.1035
#
#
#
# Elastic Compliance Matrix: (Units=1/GPa)
#
#
# Indices 1 2 3 4 5 6 
#
# 1 0.011146 -0.009879 -0.003038 -0.000002 0.003175 0.000006
# 2 -0.009879 0.051363 -0.003030 0.000010 -0.011034 -0.000048
# 3 -0.003038 -0.003030 0.009077 -0.000002 -0.003410 0.000004
# 4 -0.000002 0.000010 -0.000002 0.040833 0.000000 0.004525
# 5 0.003175 -0.011034 -0.003410 0.000000 0.037553 0.000015
# 6 0.000006 -0.000048 0.000004 0.004525 0.000015 0.037397
#
#
# Mechanical properties :
#
#
# Convention : Reuss Voigt Hill
#
# Bulk Modulus (GPa) = 25.19380 56.09553 40.64467
# Shear Modulus (GPa) = 21.50614 29.32127 25.41371
#
# Velocity S-wave (km/s) = 3.33278 3.89150 3.62293
# Velocity P-wave (km/s) = 5.27465 7.01169 6.20426
#
# Compressibility (1/GPa) = 0.03969231
#
# Stress axis : x y z
#
# Youngs Moduli (GPa) = 89.72108 19.46928 110.17135
#
# Poissons Ratio (x) = 0.19233 0.33465
# Poissons Ratio (y) = 0.88632 0.33386
# Poissons Ratio (z) = 0.27253 0.05900
#
# Static dielectric constant tensor:
#      x y z
#    x 4.302020 -0.000460 -0.082860 
#    y -0.000460 2.870990 0.000660 
#    z -0.082860 0.000660 3.837620 
# 
# 
# High freq. dielectric constant tensor:
#      x y z
#    x 1.769590 0.000000 0.000340 
#    y 0.000000 1.712870 0.000000 
#    z 0.000340 0.000000 1.768600 
# 
# From -- ./inp_files/382246.got.cif
#   From: 2010.06.25/outbox.cif.g09.slc.cpg/sg12_192_cif.got.tgz:382246.got - 2010.06.28 00:19:55.
