data_PCOD8106511
_publ_section_title
;
Structure prediction by ZEFSAII (Michael W. Deem and Ramdas Pophale) SiO2 
 PCOD8106511
Probable space group: C 2/M
;
_chemical_formula_sum "Si O2"
_cell_formula_units_Z 48
_cell_length_a 14.686342
_cell_length_b 8.883665
_cell_length_c 29.672341
_cell_angle_alpha 90.000000
_cell_angle_beta 141.535937
_cell_angle_gamma 90.000000
_cell_volume 2408.044551
_symmetry_space_group_name_H-M "C 2/M"
_symmetry_group_IT_number 12
_symmetry_cell_setting 'monoclinic'
loop_
_space_group_symop_operation_xyz
x,y,z
-x,y,-z
-x,-y,-z
x,-y,z
1/2+x,1/2+y,z
1/2-x,1/2+y,-z
1/2-x,1/2-y,-z
1/2+x,1/2-y,z
loop_
_atom_site_type_symbol
_atom_site_label
_atom_site_fract_x
_atom_site_fract_y
_atom_site_fract_z
Si Si1 0.116252 0.174608 0.006737
Si Si2 0.115287 0.828708 0.753451
Si Si3 0.092237 0.177794 0.492665
Si Si4 0.905495 0.174187 0.153266
Si Si5 0.554006 0.174143 0.136243
Si Si6 0.576959 0.824052 0.393645
O O1 0.272507 0.223052 0.085589
O O2 0.118970 0.000000 0.994170
O O3 0.000000 0.209690 0.000000
O O4 0.073427 0.271519 0.946608
O O5 0.052271 0.796656 0.778561
O O6 0.287749 0.795921 0.823623
O O7 0.040170 0.716998 0.689557
O O8 0.084820 0.000000 0.726299
O O9 0.262669 0.227018 0.562073
O O10 0.029720 0.245103 0.421970
O O11 0.000000 0.240096 0.500000
O O12 0.074497 0.000000 0.483258
O O13 0.045294 0.228084 0.178677
O O14 0.866544 0.000000 0.130176
O O15 0.528606 0.000000 0.137470
O O16 0.574287 0.000000 0.401658
#
# Coordination Sequence:
#
# PCOD8106511 Si02
#       6
#     8   8   8   8   8   8
#     4  11  22  37  60  86 112 147 193 246 295 342
#     4  10  23  41  59  80 116 158 190 230 286 347
#     4   9  19  38  62  87 117 153 190 226 275 336
#     4  11  23  40  60  84 114 151 195 241 293 347
#     4  11  23  40  60  83 112 151 196 240 293 349
#     4  10  21  36  59  89 118 149 188 236 279 328
#
# _framework density 19.933185000000002
#
# number of rings (size 3 to 8) (size 9 to 14) (size 15 to 20)
#    0.000    1.667    1.667    2.500    0.000    5.667 
#    0.000    5.000    0.000    0.000    0.000    0.000 
#    0.000    0.000    0.000    0.000    0.000    0.000 
#
# Total GULP energy -297687.732783 kJ/mol
# GULP energy per Si atom -12403.655533 kJ/mol
# Density = 1.988782 g / cm^3
# Si number density = 19.933185 Si / 1000 Ang^3
#
#
#
# Elastic Constant Matrix: (Units=GPa)
#
#
# Indices 1 2 3 4 5 6 
#
# 1 110.1620 40.8835 23.8838 0.0000 -26.9027 0.0000
# 2 40.8835 45.5970 26.9166 0.0000 -11.9929 0.0000
# 3 23.8838 26.9166 85.9756 0.0000 -17.4870 0.0000
# 4 0.0000 0.0000 0.0000 31.6835 0.0000 -0.7298
# 5 -26.9027 -11.9929 -17.4870 0.0000 24.9260 0.0000
# 6 0.0000 0.0000 0.0000 -0.7298 0.0000 30.4715
#
#
#
# Elastic Compliance Matrix: (Units=1/GPa)
#
#
# Indices 1 2 3 4 5 6 
#
# 1 0.016515 -0.012525 0.002022 0.000000 0.013217 0.000000
# 2 -0.012525 0.037923 -0.008668 0.000000 -0.001354 0.000000
# 3 0.002022 -0.008668 0.015606 0.000000 0.008960 0.000000
# 4 0.000000 0.000000 0.000000 0.031580 0.000000 0.000756
# 5 0.013217 -0.001354 0.008960 0.000000 0.060018 0.000000
# 6 0.000000 0.000000 0.000000 0.000756 0.000000 0.032836
#
#
# Mechanical properties :
#
#
# Convention : Reuss Voigt Hill
#
# Bulk Modulus (GPa) = 31.54583 47.23361 39.38972
# Shear Modulus (GPa) = 20.54334 27.41957 23.98145
#
# Velocity S-wave (km/s) = 3.21379 3.71290 3.47232
# Velocity P-wave (km/s) = 5.44348 6.49062 5.98998
#
# Compressibility (1/GPa) = 0.03169991
#
# Stress axis : x y z
#
# Youngs Moduli (GPa) = 60.54989 26.36940 64.07880
#
# Poissons Ratio (x) = 0.33028 -0.12954
# Poissons Ratio (y) = 0.75840 0.55546
# Poissons Ratio (z) = -0.12241 0.22858
#
# Static dielectric constant tensor:
#      x y z
#    x 4.007600 0.000000 -0.070740 
#    y 0.000000 3.585210 0.000000 
#    z -0.070740 0.000000 3.393960 
# 
# 
# High freq. dielectric constant tensor:
#      x y z
#    x 1.791550 0.000000 -0.009350 
#    y 0.000000 1.780660 0.000000 
#    z -0.009350 0.000000 1.764060 
# 
# From -- ./inp_files/360216.got.cif
#   From: 2010.06.25/outbox.cif.g09.slc.cpg/sg12_181_cif.got.tgz:360216.got - 2010.06.28 00:19:55.
