data_PCOD8106405
_publ_section_title
;
Structure prediction by ZEFSAII (Michael W. Deem and Ramdas Pophale) SiO2 
 PCOD8106405
Probable space group: C 2/M
;
_chemical_formula_sum "Si O2"
_cell_formula_units_Z 52
_cell_length_a 30.674973
_cell_length_b 10.912164
_cell_length_c 13.346788
_cell_angle_alpha 90.000000
_cell_angle_beta 39.726227
_cell_angle_gamma 90.000000
_cell_volume 2855.316165
_symmetry_space_group_name_H-M "C 2/M"
_symmetry_group_IT_number 12
_symmetry_cell_setting 'monoclinic'
loop_
_space_group_symop_operation_xyz
x,y,z
-x,y,-z
-x,-y,-z
x,-y,z
1/2+x,1/2+y,z
1/2-x,1/2+y,-z
1/2-x,1/2-y,-z
1/2+x,1/2-y,z
loop_
_atom_site_type_symbol
_atom_site_label
_atom_site_fract_x
_atom_site_fract_y
_atom_site_fract_z
Si Si1 0.992497 0.500000 0.763578
Si Si2 0.215584 0.730128 0.816154
Si Si3 0.484199 0.229733 0.415495
Si Si4 0.346791 0.357973 0.699141
Si Si5 0.619183 0.360375 0.136687
Si Si6 0.231967 0.636330 0.461558
Si Si7 0.893492 0.500000 0.282323
Si Si8 0.639014 0.000000 0.883247
O O1 0.011914 0.617011 0.665519
O O2 0.033407 0.500000 0.795425
O O3 0.912543 0.500000 0.931691
O O4 0.276304 0.690275 0.780797
O O5 0.241560 0.836410 0.696652
O O6 0.188388 0.617032 0.798892
O O7 0.153103 0.777015 0.992778
O O8 0.500000 0.183786 0.500000
O O9 0.409348 0.286685 0.538005
O O10 0.539021 0.331874 0.286705
O O11 0.356667 0.500000 0.656579
O O12 0.344231 0.334817 0.822348
O O13 0.627757 0.500000 0.088647
O O14 0.261569 0.500000 0.442937
O O15 0.250000 0.750000 0.500000
O O16 0.149532 0.621324 0.607700
O O17 0.903153 0.500000 0.145373
#
# Coordination Sequence:
#
# PCOD8106405 Si02
#       8
#     4   8   8   8   8   8   4   4
#     4  12  22  40  58  88 118 153 203 243 300 360
#     4  12  20  38  58  88 118 154 198 244 306 354
#     4  10  21  38  59  84 118 159 200 245 297 355
#     4  10  21  36  58  85 117 159 201 245 290 361
#     4  10  21  37  57  84 119 157 201 244 299 357
#     4  10  21  38  62  88 116 149 193 244 298 356
#     4  10  23  41  61  90 112 154 199 246 298 358
#     4  12  23  37  63  84 117 161 193 247 304 369
#
# _framework density 18.211642999999999
#
# number of rings (size 3 to 8) (size 9 to 14) (size 15 to 20)
#    0.462    0.923    3.846    2.769    0.000    1.846 
#    1.385    0.000    0.000    0.000    0.000    2.154 
#    0.000    0.000    0.000    0.000    0.000    0.000 
#
# Total GULP energy -322353.634736 kJ/mol
# GULP energy per Si atom -12398.216721 kJ/mol
# Density = 1.817019 g / cm^3
# Si number density = 18.211643 Si / 1000 Ang^3
#
#
#
# Elastic Constant Matrix: (Units=GPa)
#
#
# Indices 1 2 3 4 5 6 
#
# 1 72.2786 28.5499 14.6104 0.0000 0.7215 0.0000
# 2 28.5499 104.4147 28.5847 0.0000 11.1001 0.0000
# 3 14.6104 28.5847 84.2212 0.0000 6.1609 0.0000
# 4 0.0000 0.0000 0.0000 13.7973 0.0000 12.3990
# 5 0.7215 11.1001 6.1609 0.0000 24.9414 0.0000
# 6 0.0000 0.0000 0.0000 12.3990 0.0000 9.1331
#
#
#
# Elastic Compliance Matrix: (Units=1/GPa)
#
#
# Indices 1 2 3 4 5 6 
#
# 1 0.015727 -0.004081 -0.001469 0.000000 0.001724 0.000000
# 2 -0.004081 0.012000 -0.003038 0.000000 -0.004472 0.000000
# 3 -0.001469 -0.003038 0.013298 0.000000 -0.001890 0.000000
# 4 0.000000 0.000000 0.000000 -0.329449 0.000000 0.447255
# 5 0.001724 -0.004472 -0.001890 0.000000 0.042501 0.000000
# 6 0.000000 0.000000 0.000000 0.447255 0.000000 -0.497694
#
#
# Mechanical properties :
#
#
# Convention : Reuss Voigt Hill
#
# Bulk Modulus (GPa) = 41.93134 44.93382 43.43258
# Shear Modulus (GPa) = -6.95904 22.18565 7.61331
#
# Velocity S-wave (km/s) = -1.95691 3.49408 2.04684
# Velocity P-wave (km/s) = 4.23892 6.40350 5.43016
#
# Compressibility (1/GPa) = 0.02384851
#
# Stress axis : x y z
#
# Youngs Moduli (GPa) = 63.58384 83.33191 75.20132
#
# Poissons Ratio (x) = 0.34011 0.11049
# Poissons Ratio (y) = 0.25951 0.22844
# Poissons Ratio (z) = 0.09342 0.25314
#
# Static dielectric constant tensor:
#      x y z
#    x 3.227790 0.000000 0.032110 
#    y 0.000000 3.472160 0.000000 
#    z 0.032110 0.000000 3.378690 
# 
# 
# High freq. dielectric constant tensor:
#      x y z
#    x 1.693800 0.000000 0.002940 
#    y 0.000000 1.710000 0.000000 
#    z 0.002940 0.000000 1.718100 
# 
# From -- ./inp_files/188679.got.cif
#   From: 2010.06.25/outbox.cif.g09.slc.cpg/sg12_95_cif.got.tgz:188679.got - 2010.06.28 00:19:55.
