data_PCOD8106874
_publ_section_title
;
Structure prediction by ZEFSAII (Michael W. Deem and Ramdas Pophale) SiO2 
 PCOD8106874
Probable space group: C 2/M
;
_chemical_formula_sum "Si O2"
_cell_formula_units_Z 64
_cell_length_a 29.345409
_cell_length_b 8.717541
_cell_length_c 25.104992
_cell_angle_alpha 90.000000
_cell_angle_beta 149.111194
_cell_angle_gamma 90.000000
_cell_volume 3297.067091
_symmetry_space_group_name_H-M "C 2/M"
_symmetry_group_IT_number 12
_symmetry_cell_setting 'monoclinic'
loop_
_space_group_symop_operation_xyz
x,y,z
-x,y,-z
-x,-y,-z
x,-y,z
1/2+x,1/2+y,z
1/2-x,1/2+y,-z
1/2-x,1/2-y,-z
1/2+x,1/2-y,z
loop_
_atom_site_type_symbol
_atom_site_label
_atom_site_fract_x
_atom_site_fract_y
_atom_site_fract_z
Si Si1 0.339515 0.823461 0.570042
Si Si2 0.519845 0.679093 0.775783
Si Si3 0.739792 0.681787 0.824379
Si Si4 0.452896 0.318570 0.898816
Si Si5 0.559383 0.680734 0.695417
Si Si6 0.081418 0.318725 0.942669
Si Si7 0.120730 0.324287 0.512349
Si Si8 0.734603 0.819543 0.269757
O O1 0.250000 0.750000 0.500000
O O2 0.418214 0.731670 0.677333
O O3 0.342767 0.804344 0.510239
O O4 0.345748 0.000000 0.593797
O O5 0.525367 0.500000 0.793471
O O6 0.560209 0.721397 0.758797
O O7 0.576417 0.769474 0.876288
O O8 0.737655 0.500000 0.824597
O O9 0.650528 0.745337 0.762169
O O10 0.745663 0.740338 0.769862
O O11 0.825142 0.744798 0.941499
O O12 0.456533 0.500000 0.900104
O O13 0.501519 0.253112 0.895998
O O14 0.351582 0.265127 0.794197
O O15 0.500000 0.256591 0.000000
O O16 0.546700 0.500000 0.673886
O O17 0.480215 0.766407 0.585490
O O18 0.075379 0.500000 0.941852
O O19 0.125131 0.500000 0.535667
O O20 0.180251 0.219656 0.609772
O O21 0.716628 0.000000 0.252813
#
# Coordination Sequence:
#
# PCOD8106874 Si02
#       8
#     8   8   8   8   8   8   8   8
#     4  10  21  37  57  80 111 150 192 238 289 348
#     4  10  21  37  58  85 117 150 191 240 292 345
#     4   9  20  38  61  87 114 150 199 245 283 339
#     4  11  23  39  59  84 119 155 190 241 295 342
#     4   9  19  40  64  84 113 154 196 241 290 343
#     4  11  22  38  60  86 118 156 197 238 286 348
#     4  10  22  39  57  84 119 151 189 241 294 343
#     4  11  22  38  61  87 116 155 199 237 284 347
#
# _framework density 19.411192
#
# number of rings (size 3 to 8) (size 9 to 14) (size 15 to 20)
#    0.000    1.875    1.250    2.250    1.750    3.500 
#    0.000    5.000    0.000    0.000    0.000    0.000 
#    0.000    0.000    0.000    0.000    0.000    0.000 
#
# Total GULP energy -396959.553218 kJ/mol
# GULP energy per Si atom -12404.986038 kJ/mol
# Density = 1.936701 g / cm^3
# Si number density = 19.411192 Si / 1000 Ang^3
#
#
#
# Elastic Constant Matrix: (Units=GPa)
#
#
# Indices 1 2 3 4 5 6 
#
# 1 105.7822 30.6034 66.3665 0.0000 28.0929 0.0000
# 2 30.6034 60.3345 30.7080 0.0000 1.7292 0.0000
# 3 66.3665 30.7080 131.1925 0.0000 3.5859 0.0000
# 4 0.0000 0.0000 0.0000 32.7052 0.0000 -3.9367
# 5 28.0929 1.7292 3.5859 0.0000 34.1799 0.0000
# 6 0.0000 0.0000 0.0000 -3.9367 0.0000 22.0374
#
#
#
# Elastic Compliance Matrix: (Units=1/GPa)
#
#
# Indices 1 2 3 4 5 6 
#
# 1 0.020810 -0.005634 -0.008774 0.000000 -0.015899 0.000000
# 2 -0.005634 0.020350 -0.002017 0.000000 0.003813 0.000000
# 3 -0.008774 -0.002017 0.012369 0.000000 0.006016 0.000000
# 4 0.000000 0.000000 0.000000 0.031248 0.000000 0.005582
# 5 -0.015899 0.003813 0.006016 0.000000 0.041500 0.000000
# 6 0.000000 0.000000 0.000000 0.005582 0.000000 0.046374
#
#
# Mechanical properties :
#
#
# Convention : Reuss Voigt Hill
#
# Bulk Modulus (GPa) = 48.36157 61.40723 54.88440
# Shear Modulus (GPa) = 23.54105 29.09327 26.31716
#
# Velocity S-wave (km/s) = 3.48624 3.87562 3.68608
# Velocity P-wave (km/s) = 6.41666 7.19242 6.81559
#
# Compressibility (1/GPa) = 0.02067757
#
# Stress axis : x y z
#
# Youngs Moduli (GPa) = 48.05283 49.14110 80.84981
#
# Poissons Ratio (x) = 0.27688 0.70938
# Poissons Ratio (y) = 0.27075 0.16309
# Poissons Ratio (z) = 0.42162 0.09913
#
# Static dielectric constant tensor:
#      x y z
#    x 3.628880 0.000000 0.007650 
#    y 0.000000 3.482480 0.000000 
#    z 0.007650 0.000000 3.636420 
# 
# 
# High freq. dielectric constant tensor:
#      x y z
#    x 1.758360 0.000000 0.001110 
#    y 0.000000 1.753090 0.000000 
#    z 0.001110 0.000000 1.764660 
# 
# From -- ./inp_files/353507.got.cif
#   From: 2010.06.25/outbox.cif.g09.slc.cpg/sg12_177_cif.got.tgz:353507.got - 2010.06.28 00:19:55.
