data_PCOD8106740
_publ_section_title
;
Structure prediction by ZEFSAII (Michael W. Deem and Ramdas Pophale) SiO2 
 PCOD8106740
Probable space group: C 2/M
;
_chemical_formula_sum "Si O2"
_cell_formula_units_Z 40
_cell_length_a 19.223508
_cell_length_b 8.854765
_cell_length_c 26.965788
_cell_angle_alpha 90.000000
_cell_angle_beta 151.979556
_cell_angle_gamma 90.000000
_cell_volume 2156.370623
_symmetry_space_group_name_H-M "C 2/M"
_symmetry_group_IT_number 12
_symmetry_cell_setting 'monoclinic'
loop_
_space_group_symop_operation_xyz
x,y,z
-x,y,-z
-x,-y,-z
x,-y,z
1/2+x,1/2+y,z
1/2-x,1/2+y,-z
1/2-x,1/2-y,-z
1/2+x,1/2-y,z
loop_
_atom_site_type_symbol
_atom_site_label
_atom_site_fract_x
_atom_site_fract_y
_atom_site_fract_z
Si Si1 0.394253 0.677999 0.113966
Si Si2 0.990092 0.675255 0.272233
Si Si3 0.684482 0.671824 0.552793
Si Si4 0.814775 0.674278 0.740356
Si Si5 0.089655 0.324110 0.667235
O O1 0.382881 0.500000 0.103231
O O2 0.405337 0.726084 0.178293
O O3 0.535494 0.732317 0.171657
O O4 0.250000 0.750000 0.000000
O O5 0.964996 0.500000 0.243154
O O6 0.926210 0.719544 0.285286
O O7 0.164994 0.710616 0.381761
O O8 0.633858 0.500000 0.510407
O O9 0.707763 0.697372 0.625913
O O10 0.559578 0.784827 0.455837
O O11 0.858057 0.500000 0.774011
O O12 0.729444 0.731873 0.735039
O O13 0.120491 0.500000 0.679490
#
# Coordination Sequence:
#
# PCOD8106740 Si02
#       5
#     8   8   8   8   8
#     4  11  22  39  63  84 103 133 175 221 270 325
#     4   9  20  37  54  78 112 145 180 222 267 314
#     4   9  18  33  52  74 107 152 189 219 261 312
#     4  10  21  37  55  78 110 145 182 223 266 314
#     4  11  21  32  51  81 115 147 180 222 266 311
#
# _framework density 18.549686000000001
#
# number of rings (size 3 to 8) (size 9 to 14) (size 15 to 20)
#    0.000    2.000    0.000    5.400    0.000    8.000 
#    0.000    1.000    0.000    6.000    0.000    0.000 
#    0.000    0.000    0.000    0.000    0.000    0.000 
#
# Total GULP energy -248090.623660 kJ/mol
# GULP energy per Si atom -12404.531183 kJ/mol
# Density = 1.850747 g / cm^3
# Si number density = 18.549686 Si / 1000 Ang^3
#
#
#
# Elastic Constant Matrix: (Units=GPa)
#
#
# Indices 1 2 3 4 5 6 
#
# 1 140.6313 56.8630 47.2551 0.0000 9.7833 0.0000
# 2 56.8630 109.2448 51.1207 0.0004 3.7352 -0.0003
# 3 47.2551 51.1207 100.8452 0.0015 6.4012 -0.0001
# 4 0.0000 0.0004 0.0015 35.2642 -0.0001 1.6836
# 5 9.7833 3.7352 6.4012 -0.0001 9.6197 -0.0001
# 6 0.0000 -0.0003 -0.0001 1.6836 -0.0001 33.0030
#
#
#
# Elastic Compliance Matrix: (Units=1/GPa)
#
#
# Indices 1 2 3 4 5 6 
#
# 1 0.009923 -0.003877 -0.002234 0.000000 -0.007100 0.000000
# 2 -0.003877 0.013519 -0.005172 0.000000 0.002135 0.000000
# 3 -0.002234 -0.005172 0.013900 -0.000001 -0.004970 0.000000
# 4 0.000000 0.000000 -0.000001 0.028427 0.000000 -0.001450
# 5 -0.007100 0.002135 -0.004970 0.000000 0.113652 0.000000
# 6 0.000000 0.000000 0.000000 -0.001450 0.000000 0.030374
#
#
# Mechanical properties :
#
#
# Convention : Reuss Voigt Hill
#
# Bulk Modulus (GPa) = 67.67406 73.46653 70.57029
# Shear Modulus (GPa) = 21.07166 28.60954 24.84060
#
# Velocity S-wave (km/s) = 3.37405 3.93150 3.66339
# Velocity P-wave (km/s) = 7.19311 7.76532 7.48468
#
# Compressibility (1/GPa) = 0.01477671
#
# Stress axis : x y z
#
# Youngs Moduli (GPa) = 100.77689 73.97066 71.94186
#
# Poissons Ratio (x) = 0.28678 0.16071
# Poissons Ratio (y) = 0.39070 0.37207
# Poissons Ratio (z) = 0.22512 0.38257
#
# Static dielectric constant tensor:
#      x y z
#    x 3.724850 0.000000 0.062710 
#    y 0.000000 3.429530 0.000000 
#    z 0.062710 0.000000 3.244680 
# 
# 
# High freq. dielectric constant tensor:
#      x y z
#    x 1.728000 0.000000 0.007130 
#    y 0.000000 1.727260 0.000000 
#    z 0.007130 0.000000 1.702730 
# 
# From -- ./inp_files/151647.got.cif
#   From: 2010.06.25/outbox.cif.g09.slc.cpg/sg12_76_cif.got.tgz:151647.got - 2010.06.28 00:19:55.
