data_PCOD8106754
_publ_section_title
;
Structure prediction by ZEFSAII (Michael W. Deem and Ramdas Pophale) SiO2 
 PCOD8106754
Probable space group: C 2/M
;
_chemical_formula_sum "Si O2"
_cell_formula_units_Z 56
_cell_length_a 10.054541
_cell_length_b 14.086325
_cell_length_c 25.231614
_cell_angle_alpha 90.000000
_cell_angle_beta 53.507688
_cell_angle_gamma 90.000000
_cell_volume 2872.941765
_symmetry_space_group_name_H-M "C 2/M"
_symmetry_group_IT_number 12
_symmetry_cell_setting 'monoclinic'
loop_
_space_group_symop_operation_xyz
x,y,z
-x,y,-z
-x,-y,-z
x,-y,z
1/2+x,1/2+y,z
1/2-x,1/2+y,-z
1/2-x,1/2-y,-z
1/2+x,1/2-y,z
loop_
_atom_site_type_symbol
_atom_site_label
_atom_site_fract_x
_atom_site_fract_y
_atom_site_fract_z
Si Si1 0.311695 0.764725 0.044293
Si Si2 0.962733 0.110529 0.840516
Si Si3 0.987008 0.737843 0.258066
Si Si4 0.388057 0.262907 0.654993
Si Si5 0.532176 0.890463 0.551339
Si Si6 0.749009 0.889534 0.143149
Si Si7 0.913220 0.109798 0.467695
O O1 0.208458 0.847277 0.097283
O O2 0.296360 0.664167 0.077995
O O3 0.500000 0.799818 0.000000
O O4 0.250000 0.750000 0.000000
O O5 0.012908 0.164464 0.775000
O O6 0.105633 0.127075 0.849401
O O7 0.938043 0.000000 0.833206
O O8 0.799205 0.704038 0.311796
O O9 0.081047 0.756910 0.290210
O O10 0.078138 0.652724 0.205880
O O11 0.415367 0.160977 0.621201
O O12 0.515676 0.337645 0.600172
O O13 0.500000 0.851716 0.500000
O O14 0.720964 0.868981 0.520773
O O15 0.484763 0.000000 0.566605
O O16 0.723089 0.000000 0.136201
O O17 0.000000 0.148422 0.500000
O O18 0.949656 0.000000 0.449786
#
# Coordination Sequence:
#
# PCOD8106754 Si02
#       7
#     8   8   8   8   8   8   8
#     4  11  22  39  65 100 128 153 199 251 291 347
#     4  10  22  42  64  87 125 168 199 243 300 347
#     4  11  24  39  58  90 119 156 206 256 289 349
#     4  12  22  36  60  84 115 153 199 247 307 353
#     4  10  21  37  57  83 113 149 194 244 302 369
#     4  10  22  42  65  87 123 170 202 237 297 356
#     4  10  21  37  55  79 113 148 188 245 308 364
#
# _framework density 19.492215000000002
#
# number of rings (size 3 to 8) (size 9 to 14) (size 15 to 20)
#    0.000    1.429    2.857    2.571    0.000    3.429 
#    0.000    1.429    0.000    0.000    0.000    0.000 
#    0.000    0.000    0.000    0.000    0.000    0.000 
#
# Total GULP energy -347358.582530 kJ/mol
# GULP energy per Si atom -12405.663662 kJ/mol
# Density = 1.944785 g / cm^3
# Si number density = 19.492215 Si / 1000 Ang^3
#
#
#
# Elastic Constant Matrix: (Units=GPa)
#
#
# Indices 1 2 3 4 5 6 
#
# 1 103.5428 31.9272 28.7151 0.0000 7.0860 0.0001
# 2 31.9272 123.7510 46.1225 0.0000 2.9847 0.0000
# 3 28.7151 46.1225 93.5337 0.0000 4.2604 0.0000
# 4 0.0000 0.0000 0.0000 20.2527 0.0000 6.1774
# 5 7.0860 2.9847 4.2604 0.0000 40.4330 0.0000
# 6 0.0001 0.0000 0.0000 6.1774 0.0000 17.1329
#
#
#
# Elastic Compliance Matrix: (Units=1/GPa)
#
#
# Indices 1 2 3 4 5 6 
#
# 1 0.011011 -0.001923 -0.002362 0.000000 -0.001539 0.000000
# 2 -0.001923 0.010238 -0.004460 0.000000 0.000051 0.000000
# 3 -0.002362 -0.004460 0.013648 0.000000 -0.000695 0.000000
# 4 0.000000 0.000000 0.000000 0.055477 0.000000 -0.020003
# 5 -0.001539 0.000051 -0.000695 0.000000 0.025071 0.000000
# 6 0.000000 0.000000 0.000000 -0.020003 0.000000 0.065579
#
#
# Mechanical properties :
#
#
# Convention : Reuss Voigt Hill
#
# Bulk Modulus (GPa) = 57.45314 59.37301 58.41307
# Shear Modulus (GPa) = 24.47159 29.83455 27.15307
#
# Velocity S-wave (km/s) = 3.54708 3.91652 3.73637
# Velocity P-wave (km/s) = 6.80549 7.13990 6.97470
#
# Compressibility (1/GPa) = 0.01740549
#
# Stress axis : x y z
#
# Youngs Moduli (GPa) = 90.81600 97.67389 73.27317
#
# Poissons Ratio (x) = 0.18787 0.17307
# Poissons Ratio (y) = 0.17468 0.32683
# Poissons Ratio (z) = 0.21450 0.43566
#
# Static dielectric constant tensor:
#      x y z
#    x 3.721900 0.000000 -0.068890 
#    y 0.000000 3.535570 0.000000 
#    z -0.068890 0.000000 3.694280 
# 
# 
# High freq. dielectric constant tensor:
#      x y z
#    x 1.772580 0.000000 -0.001330 
#    y 0.000000 1.759570 0.000000 
#    z -0.001330 0.000000 1.766880 
# 
# From -- ./inp_files/332813.got.cif
#   From: 2010.06.25/outbox.cif.g09.slc.cpg/sg12_167_cif.got.tgz:332813.got - 2010.06.28 00:19:55.
