data_PCOD8106368
_publ_section_title
;
Structure prediction by ZEFSAII (Michael W. Deem and Ramdas Pophale) SiO2 
 PCOD8106368
Probable space group: C 2/M
;
_chemical_formula_sum "Si O2"
_cell_formula_units_Z 64
_cell_length_a 14.619621
_cell_length_b 8.605291
_cell_length_c 33.674612
_cell_angle_alpha 90.000000
_cell_angle_beta 130.544646
_cell_angle_gamma 90.000000
_cell_volume 3219.293204
_symmetry_space_group_name_H-M "C 2/M"
_symmetry_group_IT_number 12
_symmetry_cell_setting 'monoclinic'
loop_
_space_group_symop_operation_xyz
x,y,z
-x,y,-z
-x,-y,-z
x,-y,z
1/2+x,1/2+y,z
1/2-x,1/2+y,-z
1/2-x,1/2-y,-z
1/2+x,1/2-y,z
loop_
_atom_site_type_symbol
_atom_site_label
_atom_site_fract_x
_atom_site_fract_y
_atom_site_fract_z
Si Si1 0.639706 0.180859 0.923539
Si Si2 0.021983 0.180797 0.269797
Si Si3 0.323022 0.821540 0.264695
Si Si4 0.075271 0.180707 0.629508
Si Si5 0.185003 0.682409 0.443572
Si Si6 0.257549 0.818960 0.385491
Si Si7 0.051345 0.822260 0.186493
Si Si8 0.890918 0.683645 0.995983
O O1 0.533853 0.211784 0.862783
O O2 0.761698 0.262763 0.942627
O O3 0.667032 0.000000 0.933602
O O4 0.598737 0.243131 0.955476
O O5 0.140404 0.229720 0.327341
O O6 0.041999 0.222419 0.229847
O O7 0.910108 0.281964 0.252949
O O8 0.993395 0.000000 0.268209
O O9 0.349044 0.712932 0.309546
O O10 0.187961 0.792862 0.211221
O O11 0.339718 0.000000 0.282999
O O12 0.124691 0.279564 0.606672
O O13 0.939218 0.229480 0.598917
O O14 0.082996 0.000000 0.621302
O O15 0.164159 0.500000 0.442745
O O16 0.250000 0.750000 0.500000
O O17 0.265871 0.718244 0.427881
O O18 0.257030 0.000000 0.396169
O O19 0.012583 0.000000 0.168379
O O20 0.897623 0.500000 0.995740
O O21 0.000000 0.754131 0.000000
#
# Coordination Sequence:
#
# PCOD8106368 Si02
#       8
#     8   8   8   8   8   8   8   8
#     4  10  21  36  57  88 119 150 197 252 297 349
#     4  10  21  38  60  86 118 158 202 244 298 364
#     4  11  22  38  60  88 120 159 205 250 300 359
#     4  12  24  40  64  93 124 162 204 249 301 364
#     4  12  26  45  67  94 125 160 202 254 311 368
#     4  11  22  41  66  93 123 158 203 252 304 364
#     4  10  22  40  58  82 123 165 198 242 300 360
#     4   9  19  38  62  84 113 157 200 240 298 363
#
# _framework density 19.880140999999998
#
# number of rings (size 3 to 8) (size 9 to 14) (size 15 to 20)
#    0.000    1.375    2.500    3.375    0.000    4.250 
#    0.000    6.250    0.000    0.000    0.000    0.000 
#    0.000    0.000    0.000    0.000    0.000    0.000 
#
# Total GULP energy -396975.306070 kJ/mol
# GULP energy per Si atom -12405.478315 kJ/mol
# Density = 1.983489 g / cm^3
# Si number density = 19.880141 Si / 1000 Ang^3
#
#
#
# Elastic Constant Matrix: (Units=GPa)
#
#
# Indices 1 2 3 4 5 6 
#
# 1 98.6135 23.3333 1.6274 0.0000 -3.4037 0.0000
# 2 23.3333 61.1209 27.8069 0.0000 3.4531 0.0000
# 3 1.6274 27.8069 67.0637 0.0000 -4.1580 0.0000
# 4 0.0000 0.0000 0.0000 33.1183 0.0000 0.0323
# 5 -3.4037 3.4531 -4.1580 0.0000 22.8742 0.0000
# 6 0.0000 0.0000 0.0000 0.0323 0.0000 34.3822
#
#
#
# Elastic Compliance Matrix: (Units=1/GPa)
#
#
# Indices 1 2 3 4 5 6 
#
# 1 0.011525 -0.005575 0.002215 0.000000 0.002959 0.000000
# 2 -0.005575 0.023355 -0.009931 0.000000 -0.006160 0.000000
# 3 0.002215 -0.009931 0.019306 0.000000 0.005338 0.000000
# 4 0.000000 0.000000 0.000000 0.030195 0.000000 -0.000028
# 5 0.002959 -0.006160 0.005338 0.000000 0.046058 0.000000
# 6 0.000000 0.000000 0.000000 -0.000028 0.000000 0.029085
#
#
# Mechanical properties :
#
#
# Convention : Reuss Voigt Hill
#
# Bulk Modulus (GPa) = 36.22369 36.92592 36.57481
# Shear Modulus (GPa) = 25.60078 29.67696 27.63887
#
# Velocity S-wave (km/s) = 3.59243 3.86786 3.73268
# Velocity P-wave (km/s) = 5.95550 6.20981 6.08398
#
# Compressibility (1/GPa) = 0.02760624
#
# Stress axis : x y z
#
# Youngs Moduli (GPa) = 86.76577 42.81695 51.79746
#
# Poissons Ratio (x) = 0.23870 -0.11475
# Poissons Ratio (y) = 0.48371 0.51438
# Poissons Ratio (z) = -0.19222 0.42520
#
# Static dielectric constant tensor:
#      x y z
#    x 3.851860 0.000000 -0.063850 
#    y 0.000000 3.623770 0.000000 
#    z -0.063850 0.000000 3.498610 
# 
# 
# High freq. dielectric constant tensor:
#      x y z
#    x 1.787650 0.000000 -0.001420 
#    y 0.000000 1.775480 0.000000 
#    z -0.001420 0.000000 1.767870 
# 
# From -- ./inp_files/375691.got.cif
#   From: 2010.06.25/outbox.cif.g09.slc.cpg/sg12_188_cif.got.tgz:375691.got - 2010.06.28 00:19:55.
