data_PCOD8106668
_publ_section_title
;
Structure prediction by ZEFSAII (Michael W. Deem and Ramdas Pophale) SiO2 
 PCOD8106668
Probable space group: C 2/M
;
_chemical_formula_sum "Si O2"
_cell_formula_units_Z 64
_cell_length_a 19.926536
_cell_length_b 9.194686
_cell_length_c 25.149588
_cell_angle_alpha 90.000000
_cell_angle_beta 50.530851
_cell_angle_gamma 90.000000
_cell_volume 3557.118257
_symmetry_space_group_name_H-M "C 2/M"
_symmetry_group_IT_number 12
_symmetry_cell_setting 'monoclinic'
loop_
_space_group_symop_operation_xyz
x,y,z
-x,y,-z
-x,-y,-z
x,-y,z
1/2+x,1/2+y,z
1/2-x,1/2+y,-z
1/2-x,1/2-y,-z
1/2+x,1/2-y,z
loop_
_atom_site_type_symbol
_atom_site_label
_atom_site_fract_x
_atom_site_fract_y
_atom_site_fract_z
Si Si1 0.967495 0.172720 0.436527
Si Si2 0.108398 0.666938 0.165512
Si Si3 0.883168 0.831187 0.135969
Si Si4 0.761643 0.829745 0.729831
Si Si5 0.131668 0.172406 0.418969
Si Si6 0.066115 0.830237 0.289298
Si Si7 0.555336 0.831273 0.075123
Si Si8 0.195094 0.831349 0.940157
O O1 0.878756 0.223709 0.513135
O O2 0.048109 0.232422 0.429969
O O3 0.983978 0.225307 0.367425
O O4 0.970664 0.000000 0.433580
O O5 0.113575 0.500000 0.180142
O O6 0.058616 0.750480 0.237108
O O7 0.053834 0.689221 0.139344
O O8 0.206170 0.725733 0.108743
O O9 0.821507 0.762236 0.211554
O O10 0.842590 0.805124 0.099087
O O11 0.976014 0.754354 0.089153
O O12 0.895977 0.000000 0.142458
O O13 0.783454 0.779164 0.657570
O O14 0.843079 0.794658 0.727048
O O15 0.737998 0.000000 0.744501
O O16 0.129864 0.000000 0.417981
O O17 0.058796 0.000000 0.281518
O O18 0.549176 0.000000 0.062473
O O19 0.644629 0.766586 0.007793
O O20 0.188314 0.000000 0.960521
#
# Coordination Sequence:
#
# PCOD8106668 Si02
#       8
#     8   8   8   8   8   8   8   8
#     4   7  10  18  34  62  97 128 158 194 239 282
#     4  10  21  37  53  73 102 134 163 198 249 299
#     4  11  22  36  54  74 101 135 163 198 250 301
#     4   9  16  27  46  73 100 129 168 206 239 282
#     4   7  10  18  35  61  96 130 157 194 240 282
#     4   9  16  26  46  74 100 129 167 206 238 282
#     4  11  24  38  54  75  99 127 165 210 247 288
#     4  10  21  38  57  75  97 128 163 198 248 306
#
# _framework density 17.992093000000001
#
# number of rings (size 3 to 8) (size 9 to 14) (size 15 to 20)
#    0.000    2.750    1.250    3.750    0.000    4.000 
#    0.000    0.000    0.000    0.750    0.000    4.375 
#    0.000    0.000    0.000    0.000    0.000    0.000 
#
# Total GULP energy -396424.078210 kJ/mol
# GULP energy per Si atom -12388.252444 kJ/mol
# Density = 1.795114 g / cm^3
# Si number density = 17.992093 Si / 1000 Ang^3
#
#
#
# Elastic Constant Matrix: (Units=GPa)
#
#
# Indices 1 2 3 4 5 6 
#
# 1 30.0274 13.4714 -3.7526 0.0000 2.4326 0.0002
# 2 13.4714 52.8284 34.9276 0.0000 5.6845 0.0003
# 3 -3.7526 34.9276 118.4261 0.0000 12.0836 0.0001
# 4 0.0000 0.0000 0.0000 20.5206 0.0000 0.3327
# 5 2.4326 5.6845 12.0836 0.0000 7.2497 -0.0001
# 6 0.0002 0.0003 0.0001 0.3327 -0.0001 20.1251
#
#
#
# Elastic Compliance Matrix: (Units=1/GPa)
#
#
# Indices 1 2 3 4 5 6 
#
# 1 0.041368 -0.013452 0.006770 0.000000 -0.014616 0.000000
# 2 -0.013452 0.028309 -0.008400 0.000000 -0.003683 0.000000
# 3 0.006770 -0.008400 0.012887 0.000000 -0.017166 0.000000
# 4 0.000000 0.000000 0.000000 0.048745 0.000000 -0.000806
# 5 -0.014616 -0.003683 -0.017166 0.000000 0.174341 0.000001
# 6 0.000000 0.000000 0.000000 -0.000806 0.000001 0.049703
#
#
# Mechanical properties :
#
#
# Convention : Reuss Voigt Hill
#
# Bulk Modulus (GPa) = 19.08374 32.28608 25.68491
# Shear Modulus (GPa) = 12.40745 20.02144 16.21445
#
# Velocity S-wave (km/s) = 2.62888 3.33947 3.00525
# Velocity P-wave (km/s) = 4.45471 5.73175 5.13310
#
# Compressibility (1/GPa) = 0.05240064
#
# Stress axis : x y z
#
# Youngs Moduli (GPa) = 24.17322 35.32401 77.59493
#
# Poissons Ratio (x) = 0.47518 -0.52529
# Poissons Ratio (y) = 0.32518 0.65178
# Poissons Ratio (z) = -0.16364 0.29671
#
# Static dielectric constant tensor:
#      x y z
#    x 2.910910 0.000000 0.052510 
#    y 0.000000 3.053490 0.000000 
#    z 0.052510 0.000000 3.895850 
# 
# 
# High freq. dielectric constant tensor:
#      x y z
#    x 1.647060 0.000000 0.006970 
#    y 0.000000 1.668940 0.000000 
#    z 0.006970 0.000000 1.724390 
# 
# From -- ./inp_files/345966.got.cif
#   From: 2010.06.25/outbox.cif.g09.slc.cpg/sg12_173_cif.got.tgz:345966.got - 2010.06.28 00:19:55.
