data_PCOD8106243
_publ_section_title
;
Structure prediction by ZEFSAII (Michael W. Deem and Ramdas Pophale) SiO2 
 PCOD8106243
Probable space group: C 2/M
;
_chemical_formula_sum "Si O2"
_cell_formula_units_Z 56
_cell_length_a 22.260861
_cell_length_b 9.472226
_cell_length_c 16.736201
_cell_angle_alpha 90.000000
_cell_angle_beta 49.534619
_cell_angle_gamma 90.000000
_cell_volume 2684.852230
_symmetry_space_group_name_H-M "C 2/M"
_symmetry_group_IT_number 12
_symmetry_cell_setting 'monoclinic'
loop_
_space_group_symop_operation_xyz
x,y,z
-x,y,-z
-x,-y,-z
x,-y,z
1/2+x,1/2+y,z
1/2-x,1/2+y,-z
1/2-x,1/2-y,-z
1/2+x,1/2-y,z
loop_
_atom_site_type_symbol
_atom_site_label
_atom_site_fract_x
_atom_site_fract_y
_atom_site_fract_z
Si Si1 0.586596 0.847651 0.096965
Si Si2 0.914291 0.664756 0.284984
Si Si3 0.883494 0.653525 0.578314
Si Si4 0.464659 0.658377 0.390014
Si Si5 0.795817 0.834773 0.100743
Si Si6 0.123766 0.720548 0.237864
Si Si7 0.297639 0.339189 0.281093
O O1 0.494198 0.812950 0.164760
O O2 0.602945 0.867878 0.177107
O O3 0.606547 0.000000 0.039797
O O4 0.636278 0.721379 0.016051
O O5 0.897979 0.500000 0.315999
O O6 0.920062 0.747000 0.363305
O O7 0.842532 0.728448 0.297141
O O8 0.906501 0.500000 0.523004
O O9 0.942864 0.772125 0.494178
O O10 0.889082 0.635174 0.669203
O O11 0.794701 0.694010 0.630132
O O12 0.431816 0.500000 0.414775
O O13 0.560092 0.651281 0.295554
O O14 0.716911 0.740432 0.152776
O O15 0.824821 0.816441 0.166158
O O16 0.778555 0.000000 0.096513
O O17 0.316763 0.500000 0.290674
#
# Coordination Sequence:
#
# PCOD8106243 Si02
#       7
#     8   8   8   8   8   8   8
#     4  10  21  36  56  84 115 148 190 237 283 333
#     4  10  22  40  61  84 112 150 193 235 283 338
#     4  10  21  38  61  85 113 152 192 232 282 338
#     4  11  24  39  58  86 117 149 188 235 286 339
#     4  10  21  37  59  86 115 151 192 232 281 338
#     4  10  21  37  58  83 115 150 189 231 277 335
#     4   9  20  39  60  84 114 149 191 236 282 335
#
# _framework density 20.857759000000001
#
# number of rings (size 3 to 8) (size 9 to 14) (size 15 to 20)
#    0.000    2.000    0.000    3.857    0.000   10.286 
#    0.000    5.714    0.000    0.000    0.000    0.000 
#    0.000    0.000    0.000    0.000    0.000    0.000 
#
# Total GULP energy -347011.292599 kJ/mol
# GULP energy per Si atom -12393.260450 kJ/mol
# Density = 2.081029 g / cm^3
# Si number density = 20.857759 Si / 1000 Ang^3
#
#
#
# Elastic Constant Matrix: (Units=GPa)
#
#
# Indices 1 2 3 4 5 6 
#
# 1 90.7251 40.1417 16.7941 -0.0001 -2.2459 0.0000
# 2 40.1417 125.1867 49.0534 -0.0003 0.9003 0.0000
# 3 16.7941 49.0534 86.5890 -0.0002 -3.0737 0.0003
# 4 -0.0001 -0.0003 -0.0002 21.7920 0.0001 -2.5341
# 5 -2.2459 0.9003 -3.0737 0.0001 20.0298 0.0000
# 6 0.0000 0.0000 0.0003 -2.5341 0.0000 18.3400
#
#
#
# Elastic Compliance Matrix: (Units=1/GPa)
#
#
# Indices 1 2 3 4 5 6 
#
# 1 0.012899 -0.004100 -0.000122 0.000000 0.001612 0.000000
# 2 -0.004100 0.011607 -0.005847 0.000000 -0.001879 0.000000
# 3 -0.000122 -0.005847 0.014975 0.000000 0.002547 0.000000
# 4 0.000000 0.000000 0.000000 0.046638 0.000000 0.006444
# 5 0.001612 -0.001879 0.002547 0.000000 0.050582 0.000000
# 6 0.000000 0.000000 0.000000 0.006444 0.000000 0.055416
#
#
# Mechanical properties :
#
#
# Convention : Reuss Voigt Hill
#
# Bulk Modulus (GPa) = 51.69677 57.16435 54.43056
# Shear Modulus (GPa) = 22.86209 25.13314 23.99761
#
# Velocity S-wave (km/s) = 3.31432 3.47504 3.39564
# Velocity P-wave (km/s) = 6.28375 6.60057 6.44411
#
# Compressibility (1/GPa) = 0.01934357
#
# Stress axis : x y z
#
# Youngs Moduli (GPa) = 77.52663 86.15191 66.77636
#
# Poissons Ratio (x) = 0.35321 0.00814
# Poissons Ratio (y) = 0.31785 0.39045
# Poissons Ratio (z) = 0.00945 0.50375
#
# Static dielectric constant tensor:
#      x y z
#    x 3.754550 0.000000 -0.077120 
#    y 0.000000 3.469190 0.000000 
#    z -0.077120 0.000000 3.734100 
# 
# 
# High freq. dielectric constant tensor:
#      x y z
#    x 1.818790 0.000000 -0.003670 
#    y 0.000000 1.801260 0.000000 
#    z -0.003670 0.000000 1.814970 
# 
# From -- ./inp_files/288228.got.cif
#   From: 2010.06.25/outbox.cif.g09.slc.cpg/sg12_145_cif.got.tgz:288228.got - 2010.06.28 00:19:55.
