data_PCOD8106713
_publ_section_title
;
Structure prediction by ZEFSAII (Michael W. Deem and Ramdas Pophale) SiO2 
 PCOD8106713
Probable space group: C 2/M
;
_chemical_formula_sum "Si O2"
_cell_formula_units_Z 64
_cell_length_a 18.396562
_cell_length_b 17.968764
_cell_length_c 21.452791
_cell_angle_alpha 90.000000
_cell_angle_beta 28.495302
_cell_angle_gamma 90.000000
_cell_volume 3383.264752
_symmetry_space_group_name_H-M "C 2/M"
_symmetry_group_IT_number 12
_symmetry_cell_setting 'monoclinic'
loop_
_space_group_symop_operation_xyz
x,y,z
-x,y,-z
-x,-y,-z
x,-y,z
1/2+x,1/2+y,z
1/2-x,1/2+y,-z
1/2-x,1/2-y,-z
1/2+x,1/2-y,z
loop_
_atom_site_type_symbol
_atom_site_label
_atom_site_fract_x
_atom_site_fract_y
_atom_site_fract_z
Si Si1 0.094399 0.912283 0.746931
Si Si2 0.845779 0.331280 0.490545
Si Si3 0.600560 0.342554 0.214272
Si Si4 0.394965 0.167196 0.790310
Si Si5 0.547657 0.330338 0.033828
Si Si6 0.948230 0.343501 0.970015
Si Si7 0.085754 0.413103 0.749969
Si Si8 0.657083 0.667417 0.506550
O O1 0.266269 0.888852 0.597542
O O2 0.968542 0.886108 0.792190
O O3 0.061265 0.875669 0.838358
O O4 0.087978 0.000000 0.758316
O O5 0.749699 0.326944 0.500284
O O6 0.851761 0.249505 0.517882
O O7 0.015376 0.356374 0.340912
O O8 0.584980 0.254884 0.212457
O O9 0.510674 0.361760 0.346608
O O10 0.773421 0.367542 0.092927
O O11 0.460953 0.126535 0.800922
O O12 0.220937 0.143811 0.913382
O O13 0.528255 0.243220 0.062521
O O14 0.500000 0.350246 0.000000
O O15 0.053000 0.391936 0.845685
O O16 0.000000 0.363778 0.000000
O O17 0.072457 0.500000 0.748927
O O18 0.259003 0.388186 0.603936
#
# Coordination Sequence:
#
# PCOD8106713 Si02
#       8
#     8   8   8   8   8   8   8   8
#     4  11  21  32  51  79 107 135 166 203 252 306
#     4   8  15  30  52  76 101 129 165 210 252 291
#     4   9  18  34  56  79 101 129 169 213 252 294
#     4   9  18  34  56  79 101 129 169 213 252 294
#     4  10  21  37  55  74  99 134 174 213 252 295
#     4  10  21  37  55  74  99 134 174 213 252 295
#     4  11  21  32  51  79 107 135 166 203 252 306
#     4   8  15  30  52  76 101 129 165 210 252 291
#
# _framework density 18.916640000000001
#
# number of rings (size 3 to 8) (size 9 to 14) (size 15 to 20)
#    0.000    2.500    0.000    4.500    0.000    9.000 
#    0.000    1.250    0.000    7.500    0.000    0.000 
#    0.000    0.000    0.000    0.000    0.000    0.000 
#
# Total GULP energy -396737.117839 kJ/mol
# GULP energy per Si atom -12398.034932 kJ/mol
# Density = 1.887358 g / cm^3
# Si number density = 18.916640 Si / 1000 Ang^3
#
#
#
# Elastic Constant Matrix: (Units=GPa)
#
#
# Indices 1 2 3 4 5 6 
#
# 1 48.2089 15.1065 23.2041 0.0000 13.4178 0.0098
# 2 15.1065 46.7717 26.5517 0.0015 6.4238 0.0003
# 3 23.2041 26.5517 110.8416 -0.0064 23.1689 -0.0024
# 4 0.0000 0.0015 -0.0064 5.5370 0.0008 -1.9946
# 5 13.4178 6.4238 23.1689 0.0008 11.1255 -0.0016
# 6 0.0098 0.0003 -0.0024 -1.9946 -0.0016 5.2538
#
#
#
# Elastic Compliance Matrix: (Units=1/GPa)
#
#
# Indices 1 2 3 4 5 6 
#
# 1 0.033406 -0.006929 0.003987 -0.000016 -0.044593 -0.000080
# 2 -0.006929 0.026257 -0.006051 -0.000013 0.005797 0.000006
# 3 0.003987 -0.006051 0.017552 0.000027 -0.037867 0.000000
# 4 -0.000016 -0.000013 0.000027 0.209217 -0.000032 0.079429
# 5 -0.044593 0.005797 -0.037867 -0.000032 0.219175 0.000120
# 6 -0.000080 0.000006 0.000000 0.079429 0.000120 0.220495
#
#
# Mechanical properties :
#
#
# Convention : Reuss Voigt Hill
#
# Bulk Modulus (GPa) = 16.88322 37.28300 27.08311
# Shear Modulus (GPa) = 6.54596 13.78058 10.16327
#
# Velocity S-wave (km/s) = 1.86224 2.70198 2.32041
# Velocity P-wave (km/s) = 3.68352 5.43012 4.63975
#
# Compressibility (1/GPa) = 0.05923041
#
# Stress axis : x y z
#
# Youngs Moduli (GPa) = 29.93444 38.08471 56.97407
#
# Poissons Ratio (x) = 0.26388 -0.22718
# Poissons Ratio (y) = 0.20741 0.34475
# Poissons Ratio (z) = -0.11936 0.23045
#
# Static dielectric constant tensor:
#      x y z
#    x 3.093910 -0.000010 -0.030110 
#    y -0.000010 3.279730 0.000120 
#    z -0.030110 0.000120 4.115180 
# 
# 
# High freq. dielectric constant tensor:
#      x y z
#    x 1.695370 0.000000 0.006490 
#    y 0.000000 1.717120 0.000000 
#    z 0.006490 0.000000 1.758430 
# 
# From -- ./inp_files/317343.got.cif
#   From: 2010.06.25/outbox.cif.g09.slc.cpg/sg12_159_cif.got.tgz:317343.got - 2010.06.28 00:19:55.
