data_PCOD8106873
_publ_section_title
;
Structure prediction by ZEFSAII (Michael W. Deem and Ramdas Pophale) SiO2 
 PCOD8106873
Probable space group: C 2/M
;
_chemical_formula_sum "Si O2"
_cell_formula_units_Z 56
_cell_length_a 18.074430
_cell_length_b 13.866417
_cell_length_c 17.114417
_cell_angle_alpha 90.000000
_cell_angle_beta 138.490891
_cell_angle_gamma 90.000000
_cell_volume 2842.716672
_symmetry_space_group_name_H-M "C 2/M"
_symmetry_group_IT_number 12
_symmetry_cell_setting 'monoclinic'
loop_
_space_group_symop_operation_xyz
x,y,z
-x,y,-z
-x,-y,-z
x,-y,z
1/2+x,1/2+y,z
1/2-x,1/2+y,-z
1/2-x,1/2-y,-z
1/2+x,1/2-y,z
loop_
_atom_site_type_symbol
_atom_site_label
_atom_site_fract_x
_atom_site_fract_y
_atom_site_fract_z
Si Si1 0.250925 0.784742 0.826462
Si Si2 0.910398 0.612268 0.070642
Si Si3 0.537127 0.762434 0.745407
Si Si4 0.374437 0.391946 0.872451
Si Si5 0.334491 0.112650 0.569625
Si Si6 0.381680 0.612677 0.699047
Si Si7 0.336101 0.110422 0.749882
O O1 0.121844 0.777212 0.747546
O O2 0.302019 0.677505 0.869749
O O3 0.259364 0.826330 0.745782
O O4 0.316589 0.855616 0.935987
O O5 0.894388 0.500000 0.078218
O O6 0.896652 0.672558 0.139366
O O7 0.032746 0.629953 0.129914
O O8 0.442139 0.826343 0.627489
O O9 0.486199 0.669221 0.747278
O O10 0.326554 0.500000 0.843575
O O11 0.365996 0.357391 0.776316
O O12 0.500000 0.386823 0.000000
O O13 0.229761 0.143033 0.434944
O O14 0.308532 0.139528 0.639073
O O15 0.363556 0.000000 0.584058
O O16 0.407993 0.500000 0.710797
O O17 0.305518 0.000000 0.741306
#
# Coordination Sequence:
#
# PCOD8106873 Si02
#       7
#     8   8   8   8   8   8   8
#     4  12  22  33  53  84 118 145 176 228 290 340
#     4  10  21  38  59  80 108 151 195 229 270 333
#     4  11  22  35  55  84 115 145 180 233 289 333
#     4  10  21  37  57  80 110 149 189 228 270 328
#     4   9  19  39  63  80 102 145 197 239 273 324
#     4  10  21  39  61  81 106 149 197 230 267 331
#     4   9  18  34  57  81 106 142 188 235 278 326
#
# _framework density 19.699466000000001
#
# number of rings (size 3 to 8) (size 9 to 14) (size 15 to 20)
#    0.000    1.857    0.000    6.429    0.000    3.429 
#    0.000    4.286    0.000    5.143    0.000    0.000 
#    0.000    0.000    0.000    0.000    0.000    0.000 
#
# Total GULP energy -347313.550424 kJ/mol
# GULP energy per Si atom -12404.055372 kJ/mol
# Density = 1.965463 g / cm^3
# Si number density = 19.699466 Si / 1000 Ang^3
#
#
#
# Elastic Constant Matrix: (Units=GPa)
#
#
# Indices 1 2 3 4 5 6 
#
# 1 97.1212 54.6627 45.3720 0.0000 10.8731 0.0000
# 2 54.6627 83.0864 37.7780 0.0000 10.2102 0.0000
# 3 45.3720 37.7780 110.1922 0.0000 -9.0271 0.0000
# 4 0.0000 0.0000 0.0000 29.9271 0.0000 -6.2152
# 5 10.8731 10.2102 -9.0271 0.0000 16.9999 0.0000
# 6 0.0000 0.0000 0.0000 -6.2152 0.0000 20.9711
#
#
#
# Elastic Compliance Matrix: (Units=1/GPa)
#
#
# Indices 1 2 3 4 5 6 
#
# 1 0.018908 -0.008670 -0.005621 0.000000 -0.009871 0.000000
# 2 -0.008670 0.020854 -0.004340 0.000000 -0.009284 0.000000
# 3 -0.005621 -0.004340 0.013994 0.000000 0.013633 0.000000
# 4 0.000000 0.000000 0.000000 0.035606 0.000000 0.010553
# 5 -0.009871 -0.009284 0.013633 0.000000 0.077953 0.000000
# 6 0.000000 0.000000 0.000000 0.010553 0.000000 0.050812
#
#
# Mechanical properties :
#
#
# Convention : Reuss Voigt Hill
#
# Bulk Modulus (GPa) = 60.63351 62.89170 61.76261
# Shear Modulus (GPa) = 19.16530 23.75209 21.45870
#
# Velocity S-wave (km/s) = 3.12249 3.47612 3.30404
# Velocity P-wave (km/s) = 6.62163 6.93586 6.78057
#
# Compressibility (1/GPa) = 0.01649253
#
# Stress axis : x y z
#
# Youngs Moduli (GPa) = 52.88896 47.95186 71.45689
#
# Poissons Ratio (x) = 0.41576 0.40168
# Poissons Ratio (y) = 0.45857 0.31013
# Poissons Ratio (z) = 0.29731 0.20812
#
# Static dielectric constant tensor:
#      x y z
#    x 3.317320 0.000000 -0.105720 
#    y 0.000000 3.869600 0.000000 
#    z -0.105720 0.000000 3.560910 
# 
# 
# High freq. dielectric constant tensor:
#      x y z
#    x 1.740310 0.000000 -0.010760 
#    y 0.000000 1.794360 0.000000 
#    z -0.010760 0.000000 1.761160 
# 
# From -- ./inp_files/277869.got.cif
#   From: 2010.06.25/outbox.cif.g09.slc.cpg/sg12_139_cif.got.tgz:277869.got - 2010.06.28 00:19:55.
