data_PCOD8106487
_publ_section_title
;
Structure prediction by ZEFSAII (Michael W. Deem and Ramdas Pophale) SiO2 
 PCOD8106487
Probable space group: C 2/M
;
_chemical_formula_sum "Si O2"
_cell_formula_units_Z 56
_cell_length_a 28.842539
_cell_length_b 9.503766
_cell_length_c 16.890126
_cell_angle_alpha 90.000000
_cell_angle_beta 143.778801
_cell_angle_gamma 90.000000
_cell_volume 2735.767505
_symmetry_space_group_name_H-M "C 2/M"
_symmetry_group_IT_number 12
_symmetry_cell_setting 'monoclinic'
loop_
_space_group_symop_operation_xyz
x,y,z
-x,y,-z
-x,-y,-z
x,-y,z
1/2+x,1/2+y,z
1/2-x,1/2+y,-z
1/2-x,1/2-y,-z
1/2+x,1/2-y,z
loop_
_atom_site_type_symbol
_atom_site_label
_atom_site_fract_x
_atom_site_fract_y
_atom_site_fract_z
Si Si1 0.803690 0.843639 0.669492
Si Si2 0.311843 0.662266 0.237163
Si Si3 0.843727 0.161734 0.554157
Si Si4 0.563143 0.659547 0.025766
Si Si5 0.094635 0.334302 0.755846
Si Si6 0.631911 0.161737 0.988315
Si Si7 0.057878 0.837676 0.453184
O O1 0.857258 0.804829 0.665844
O O2 0.732504 0.739734 0.582631
O O3 0.853409 0.836495 0.816871
O O4 0.769523 0.000000 0.609243
O O5 0.318383 0.500000 0.217802
O O6 0.336543 0.765436 0.200591
O O7 0.221815 0.698661 0.133970
O O8 0.366272 0.690641 0.388061
O O9 0.919041 0.204557 0.605372
O O10 0.825919 0.000000 0.512664
O O11 0.538056 0.500000 0.968613
O O12 0.570874 0.748688 0.956613
O O13 0.500000 0.724579 0.000000
O O14 0.089535 0.500000 0.731412
O O15 0.012889 0.261969 0.617575
O O16 0.114878 0.301237 0.874171
O O17 0.613889 0.000000 0.981672
O O18 0.030360 0.000000 0.422211
#
# Coordination Sequence:
#
# PCOD8106487 Si02
#       7
#     8   8   8   8   8   8   8
#     4   9  18  33  52  79 112 144 186 234 278 328
#     4  10  21  40  63  86 114 152 199 241 282 344
#     4   9  18  33  55  80 108 148 189 228 276 333
#     4  10  22  37  57  85 116 150 190 234 281 337
#     4  11  24  39  58  88 121 151 189 240 296 346
#     4  10  23  42  62  86 116 152 196 240 287 346
#     4  10  21  36  59  86 114 152 194 234 284 344
#
# _framework density 20.469577000000001
#
# number of rings (size 3 to 8) (size 9 to 14) (size 15 to 20)
#    0.000    2.143    0.000    2.143    2.000    6.571 
#    0.000    0.000    0.000    0.000    0.000    0.000 
#    0.000    0.000    0.000    0.000    0.000    0.000 
#
# Total GULP energy -347216.360609 kJ/mol
# GULP energy per Si atom -12400.584307 kJ/mol
# Density = 2.042299 g / cm^3
# Si number density = 20.469577 Si / 1000 Ang^3
#
#
#
# Elastic Constant Matrix: (Units=GPa)
#
#
# Indices 1 2 3 4 5 6 
#
# 1 112.9600 59.9436 10.9800 0.0000 1.4213 0.0000
# 2 59.9436 76.7006 21.0431 0.0000 -1.7416 0.0000
# 3 10.9800 21.0431 53.7218 0.0000 -2.3694 0.0000
# 4 0.0000 0.0000 0.0000 26.4648 0.0000 -0.0675
# 5 1.4213 -1.7416 -2.3694 0.0000 25.3760 0.0000
# 6 0.0000 0.0000 0.0000 -0.0675 0.0000 35.6431
#
#
#
# Elastic Compliance Matrix: (Units=1/GPa)
#
#
# Indices 1 2 3 4 5 6 
#
# 1 0.015331 -0.012479 0.001686 0.000000 -0.001558 0.000000
# 2 -0.012479 0.024771 -0.007076 0.000000 0.001738 0.000000
# 3 0.001686 -0.007076 0.021103 0.000000 0.001390 0.000000
# 4 0.000000 0.000000 0.000000 0.037786 0.000000 0.000072
# 5 -0.001558 0.001738 0.001390 0.000000 0.039744 0.000000
# 6 0.000000 0.000000 0.000000 0.000072 0.000000 0.028056
#
#
# Mechanical properties :
#
#
# Convention : Reuss Voigt Hill
#
# Bulk Modulus (GPa) = 39.26677 47.47954 43.37316
# Shear Modulus (GPa) = 23.69470 27.59116 25.64293
#
# Velocity S-wave (km/s) = 3.40598 3.67537 3.54324
# Velocity P-wave (km/s) = 5.89001 6.42314 6.16234
#
# Compressibility (1/GPa) = 0.02546682
#
# Stress axis : x y z
#
# Youngs Moduli (GPa) = 65.22858 40.36915 47.38725
#
# Poissons Ratio (x) = 0.50378 -0.07990
# Poissons Ratio (y) = 0.81401 0.33530
# Poissons Ratio (z) = -0.10998 0.28564
#
# Static dielectric constant tensor:
#      x y z
#    x 3.809660 0.000000 -0.060540 
#    y 0.000000 3.669420 0.000000 
#    z -0.060540 0.000000 3.582480 
# 
# 
# High freq. dielectric constant tensor:
#      x y z
#    x 1.809850 0.000000 -0.005260 
#    y 0.000000 1.790580 0.000000 
#    z -0.005260 0.000000 1.796110 
# 
# From -- ./inp_files/292504.got.cif
#   From: 2010.06.25/outbox.cif.g09.slc.cpg/sg12_147_cif.got.tgz:292504.got - 2010.06.28 00:19:55.
