data_PCOD8106162
_publ_section_title
;
Structure prediction by ZEFSAII (Michael W. Deem and Ramdas Pophale) SiO2 
 PCOD8106162
Probable space group: C 2/M
;
_chemical_formula_sum "Si O2"
_cell_formula_units_Z 48
_cell_length_a 9.572667
_cell_length_b 18.704361
_cell_length_c 16.995026
_cell_angle_alpha 90.000000
_cell_angle_beta 49.543841
_cell_angle_gamma 90.000000
_cell_volume 2315.403978
_symmetry_space_group_name_H-M "C 2/M"
_symmetry_group_IT_number 12
_symmetry_cell_setting 'monoclinic'
loop_
_space_group_symop_operation_xyz
x,y,z
-x,y,-z
-x,-y,-z
x,-y,z
1/2+x,1/2+y,z
1/2-x,1/2+y,-z
1/2-x,1/2-y,-z
1/2+x,1/2-y,z
loop_
_atom_site_type_symbol
_atom_site_label
_atom_site_fract_x
_atom_site_fract_y
_atom_site_fract_z
Si Si1 0.762432 0.084557 0.817373
Si Si2 0.838394 0.816282 0.121643
Si Si3 0.506240 0.684432 0.626307
Si Si4 0.020340 0.417926 0.212677
Si Si5 0.661851 0.298490 0.101874
Si Si6 0.710840 0.182336 0.606411
O O1 0.936840 0.119920 0.708150
O O2 0.574212 0.097811 0.837525
O O3 0.745732 0.124429 0.909317
O O4 0.797379 0.000000 0.817154
O O5 0.725902 0.887404 0.143545
O O6 0.697705 0.749097 0.167118
O O7 0.944198 0.812246 0.166840
O O8 0.000000 0.811979 0.000000
O O9 0.562063 0.755090 0.653093
O O10 0.350674 0.707896 0.622125
O O11 0.686977 0.659841 0.511541
O O12 0.041381 0.500000 0.221075
O O13 0.895291 0.388373 0.328174
O O14 0.750000 0.250000 0.000000
#
# Coordination Sequence:
#
# PCOD8106162 Si02
#       6
#     8   8   8   8   8   8
#     4  10  21  37  58  85 117 152 191 236 287 343
#     4  10  21  37  59  81 106 142 189 238 286 342
#     4   9  18  33  55  82 113 149 192 236 279 330
#     4  10  21  36  55  83 119 154 188 231 283 339
#     4  10  21  38  60  83 107 141 187 237 287 339
#     4   9  18  33  54  82 114 151 192 234 278 331
#
# _framework density 20.730723000000001
#
# number of rings (size 3 to 8) (size 9 to 14) (size 15 to 20)
#    0.000    2.333    0.000    2.000    0.000    7.000 
#    0.000    5.833    0.000   12.500    0.000    7.000 
#    0.000    0.000    0.000    0.000    0.000    0.000 
#
# Total GULP energy -297326.683458 kJ/mol
# GULP energy per Si atom -12388.611811 kJ/mol
# Density = 2.068354 g / cm^3
# Si number density = 20.730723 Si / 1000 Ang^3
#
#
#
# Elastic Constant Matrix: (Units=GPa)
#
#
# Indices 1 2 3 4 5 6 
#
# 1 156.1380 92.3361 35.5253 0.0000 -15.0763 -0.0001
# 2 92.3361 168.3741 41.1849 0.0000 -4.2187 0.0000
# 3 35.5253 41.1849 60.8022 0.0000 -8.5124 0.0000
# 4 0.0000 0.0000 0.0000 29.7411 0.0000 2.3127
# 5 -15.0763 -4.2187 -8.5124 0.0000 24.7572 0.0001
# 6 -0.0001 0.0000 0.0000 2.3127 0.0001 38.1910
#
#
#
# Elastic Compliance Matrix: (Units=1/GPa)
#
#
# Indices 1 2 3 4 5 6 
#
# 1 0.010288 -0.005052 -0.001925 0.000000 0.004742 0.000000
# 2 -0.005052 0.009605 -0.003945 0.000000 -0.002797 0.000000
# 3 -0.001925 -0.003945 0.020996 0.000000 0.005375 0.000000
# 4 0.000000 0.000000 0.000000 0.033783 0.000000 -0.002046
# 5 0.004742 -0.002797 0.005375 0.000000 0.044652 0.000000
# 6 0.000000 0.000000 0.000000 -0.002046 0.000000 0.026308
#
#
# Mechanical properties :
#
#
# Convention : Reuss Voigt Hill
#
# Bulk Modulus (GPa) = 52.51018 80.37854 66.44436
# Shear Modulus (GPa) = 28.76439 32.95572 30.86006
#
# Velocity S-wave (km/s) = 3.72899 3.99144 3.86244
# Velocity P-wave (km/s) = 6.62760 7.75235 7.21194
#
# Compressibility (1/GPa) = 0.01904393
#
# Stress axis : x y z
#
# Youngs Moduli (GPa) = 97.19691 104.11325 47.62707
#
# Poissons Ratio (x) = 0.52603 0.09168
# Poissons Ratio (y) = 0.49108 0.18791
# Poissons Ratio (z) = 0.18710 0.41078
#
# Static dielectric constant tensor:
#      x y z
#    x -6.869220 0.000000 0.990180 
#    y 0.000000 3.719570 0.000000 
#    z 0.990180 0.000000 3.690820 
# 
# 
# High freq. dielectric constant tensor:
#      x y z
#    x 1.825250 0.000000 -0.004050 
#    y 0.000000 1.794910 0.000000 
#    z -0.004050 0.000000 1.808120 
# 
# From -- ./inp_files/257918.got.cif
#   From: 2010.06.25/outbox.cif.g09.slc.cpg/sg12_129_cif.got.tgz:257918.got - 2010.06.28 00:19:55.
