data_PCOD8106730
_publ_section_title
;
Structure prediction by ZEFSAII (Michael W. Deem and Ramdas Pophale) SiO2 
 PCOD8106730
Probable space group: C 2/M
;
_chemical_formula_sum "Si O2"
_cell_formula_units_Z 56
_cell_length_a 29.685300
_cell_length_b 9.093600
_cell_length_c 16.651257
_cell_angle_alpha 90.000000
_cell_angle_beta 133.857633
_cell_angle_gamma 90.000000
_cell_volume 3241.140917
_symmetry_space_group_name_H-M "C 2/M"
_symmetry_group_IT_number 12
_symmetry_cell_setting 'monoclinic'
loop_
_space_group_symop_operation_xyz
x,y,z
-x,y,-z
-x,-y,-z
x,-y,z
1/2+x,1/2+y,z
1/2-x,1/2+y,-z
1/2-x,1/2-y,-z
1/2+x,1/2-y,z
loop_
_atom_site_type_symbol
_atom_site_label
_atom_site_fract_x
_atom_site_fract_y
_atom_site_fract_z
Si Si1 0.126129 0.325682 0.365884
Si Si2 0.531720 0.830918 0.663426
Si Si3 0.902410 0.330803 0.416349
Si Si4 0.057908 0.830120 0.020363
Si Si5 0.665915 0.170118 0.239089
Si Si6 0.994777 0.829728 0.216984
Si Si7 0.309225 0.328481 0.408092
O O1 0.125117 0.500000 0.375825
O O2 0.153707 0.275477 0.314585
O O3 0.170443 0.258278 0.487899
O O4 0.056583 0.266389 0.287632
O O5 0.460966 0.806553 0.547131
O O6 0.579416 0.785945 0.651760
O O7 0.545052 0.726400 0.755859
O O8 0.542138 0.000000 0.700695
O O9 0.880993 0.500000 0.393274
O O10 0.846336 0.227309 0.375785
O O11 0.122160 0.752839 0.122337
O O12 0.065049 0.000000 0.051478
O O13 0.047118 0.804255 0.913014
O O14 0.000000 0.763576 0.000000
O O15 0.736794 0.203629 0.302412
O O16 0.649435 0.000000 0.212102
O O17 0.012881 0.000000 0.249833
O O18 0.322354 0.500000 0.437975
#
# Coordination Sequence:
#
# PCOD8106730 Si02
#       7
#     8   8   8   8   8   8   8
#     4  11  21  34  52  76 107 145 180 210 256 316
#     4   9  18  33  53  78 108 138 173 215 260 316
#     4   9  18  33  53  78 107 139 174 212 260 318
#     4  10  21  37  55  77 106 139 177 222 266 306
#     4  10  23  38  53  76 106 143 184 219 257 309
#     4  11  21  33  53  81 110 137 172 220 266 308
#     4  11  22  35  52  79 111 140 175 220 263 310
#
# _framework density 17.277866
#
# number of rings (size 3 to 8) (size 9 to 14) (size 15 to 20)
#    0.000    1.857    2.857    2.571    0.000    3.714 
#    0.000    1.429    0.000    0.857    0.000    0.000 
#    0.000    0.000    0.000    0.000    0.000    0.000 
#
# Total GULP energy -347289.309337 kJ/mol
# GULP energy per Si atom -12403.189619 kJ/mol
# Density = 1.723854 g / cm^3
# Si number density = 17.277866 Si / 1000 Ang^3
#
#
#
# Elastic Constant Matrix: (Units=GPa)
#
#
# Indices 1 2 3 4 5 6 
#
# 1 117.9713 48.4876 54.6808 0.0000 -13.5886 0.0000
# 2 48.4876 73.4613 55.6213 0.0000 -8.3781 0.0000
# 3 54.6808 55.6213 93.8708 0.0000 0.5319 0.0000
# 4 0.0000 0.0000 0.0000 31.7476 0.0000 -1.6513
# 5 -13.5886 -8.3781 0.5319 0.0000 19.9272 0.0000
# 6 0.0000 0.0000 0.0000 -1.6513 0.0000 31.6707
#
#
#
# Elastic Compliance Matrix: (Units=1/GPa)
#
#
# Indices 1 2 3 4 5 6 
#
# 1 0.013571 -0.003705 -0.005754 0.000000 0.007850 0.000000
# 2 -0.003705 0.028252 -0.014637 0.000000 0.009742 0.000000
# 3 -0.005754 -0.014637 0.022738 0.000000 -0.010685 0.000000
# 4 0.000000 0.000000 0.000000 0.031584 0.000000 0.001647
# 5 0.007850 0.009742 -0.010685 0.000000 0.059917 0.000000
# 6 0.000000 0.000000 0.000000 0.001647 0.000000 0.031661
#
#
# Mechanical properties :
#
#
# Convention : Reuss Voigt Hill
#
# Bulk Modulus (GPa) = 61.09451 66.98698 64.04075
# Shear Modulus (GPa) = 20.71502 25.10333 22.90917
#
# Velocity S-wave (km/s) = 3.46632 3.81585 3.64528
# Velocity P-wave (km/s) = 7.17337 7.63340 7.40696
#
# Compressibility (1/GPa) = 0.01636808
#
# Stress axis : x y z
#
# Youngs Moduli (GPa) = 73.68728 35.39621 43.97909
#
# Poissons Ratio (x) = 0.13115 0.25306
# Poissons Ratio (y) = 0.27304 0.64371
# Poissons Ratio (z) = 0.42401 0.51809
#
# Static dielectric constant tensor:
#      x y z
#    x 3.366920 0.000000 -0.141960 
#    y 0.000000 3.236220 0.000000 
#    z -0.141960 0.000000 3.051940 
# 
# 
# High freq. dielectric constant tensor:
#      x y z
#    x 1.671550 0.000000 -0.009780 
#    y 0.000000 1.672090 0.000000 
#    z -0.009780 0.000000 1.646610 
# 
# From -- ./inp_files/237785.got.cif
#   From: 2010.06.25/outbox.cif.g09.slc.cpg/sg12_119_cif.got.tgz:237785.got - 2010.06.28 00:19:55.
