data_PCOD8106315
_publ_section_title
;
Structure prediction by ZEFSAII (Michael W. Deem and Ramdas Pophale) SiO2 
 PCOD8106315
Probable space group: C 2/M
;
_chemical_formula_sum "Si O2"
_cell_formula_units_Z 56
_cell_length_a 19.045370
_cell_length_b 8.459651
_cell_length_c 19.734708
_cell_angle_alpha 90.000000
_cell_angle_beta 115.183095
_cell_angle_gamma 90.000000
_cell_volume 2877.387923
_symmetry_space_group_name_H-M "C 2/M"
_symmetry_group_IT_number 12
_symmetry_cell_setting 'monoclinic'
loop_
_space_group_symop_operation_xyz
x,y,z
-x,y,-z
-x,-y,-z
x,-y,z
1/2+x,1/2+y,z
1/2-x,1/2+y,-z
1/2-x,1/2-y,-z
1/2+x,1/2-y,z
loop_
_atom_site_type_symbol
_atom_site_label
_atom_site_fract_x
_atom_site_fract_y
_atom_site_fract_z
Si Si1 0.041558 0.181782 0.581519
Si Si2 0.796969 0.180612 0.303273
Si Si3 0.655297 0.178066 0.809406
Si Si4 0.924814 0.184519 0.927568
Si Si5 0.217958 0.319640 0.055083
Si Si6 0.880826 0.683730 0.762219
Si Si7 0.501626 0.685234 0.713884
O O1 0.135665 0.199018 0.611860
O O2 0.007721 0.250636 0.638997
O O3 0.000000 0.266556 0.500000
O O4 0.016773 0.000000 0.571141
O O5 0.823642 0.310532 0.260455
O O6 0.709668 0.221825 0.289089
O O7 0.799545 0.000000 0.276074
O O8 0.710094 0.308040 0.865343
O O9 0.566507 0.226573 0.785959
O O10 0.669919 0.000000 0.842296
O O11 0.852554 0.215113 0.946771
O O12 0.911158 0.267488 0.849343
O O13 0.933669 0.000000 0.916132
O O14 0.000000 0.247993 0.000000
O O15 0.190353 0.500000 0.036294
O O16 0.250000 0.250000 0.000000
O O17 0.898452 0.500000 0.761365
O O18 0.920929 0.777551 0.717337
O O19 0.518960 0.500000 0.721952
#
# Coordination Sequence:
#
# PCOD8106315 Si02
#       7
#     8   8   8   8   8   8   8
#     4   8  15  32  59  87 114 149 193 237 286 344
#     4   9  18  34  57  84 112 148 189 233 283 339
#     4  11  21  36  58  82 109 145 191 239 288 341
#     4  11  25  43  61  84 116 153 196 245 296 345
#     4  12  25  41  60  83 114 148 192 240 290 345
#     4  11  22  37  58  83 117 155 196 242 289 347
#     4  10  21  36  57  84 116 151 194 241 288 343
#
# _framework density 19.462097
#
# number of rings (size 3 to 8) (size 9 to 14) (size 15 to 20)
#    0.000    1.714    1.429    4.714    2.000    1.714 
#    0.000    0.714    0.000   10.714    0.000    0.000 
#    0.000    0.000    0.000    0.000    0.000    0.000 
#
# Total GULP energy -346975.155792 kJ/mol
# GULP energy per Si atom -12391.969850 kJ/mol
# Density = 1.941780 g / cm^3
# Si number density = 19.462097 Si / 1000 Ang^3
#
#
#
# Elastic Constant Matrix: (Units=GPa)
#
#
# Indices 1 2 3 4 5 6 
#
# 1 139.7877 15.1161 66.4185 0.0000 3.8606 0.0000
# 2 15.1161 55.8666 12.3151 0.0000 2.0686 0.0000
# 3 66.4185 12.3151 114.8236 0.0000 15.7987 0.0000
# 4 0.0000 0.0000 0.0000 15.4509 0.0000 0.4886
# 5 3.8606 2.0686 15.7987 0.0000 28.3388 0.0000
# 6 0.0000 0.0000 0.0000 0.4886 0.0000 28.4748
#
#
#
# Elastic Compliance Matrix: (Units=1/GPa)
#
#
# Indices 1 2 3 4 5 6 
#
# 1 0.010090 -0.001493 -0.005959 0.000000 0.002057 0.000000
# 2 -0.001493 0.018556 -0.001049 0.000000 -0.000566 0.000000
# 3 -0.005959 -0.001049 0.013155 0.000000 -0.006446 0.000000
# 4 0.000000 0.000000 0.000000 0.064756 0.000000 -0.001111
# 5 0.002057 -0.000566 -0.006446 0.000000 0.038642 0.000000
# 6 0.000000 0.000000 0.000000 -0.001111 0.000000 0.035138
#
#
# Mechanical properties :
#
#
# Convention : Reuss Voigt Hill
#
# Bulk Modulus (GPa) = 40.32306 55.35307 47.83807
# Shear Modulus (GPa) = 24.31851 28.89478 26.60664
#
# Velocity S-wave (km/s) = 3.53871 3.85732 3.70144
# Velocity P-wave (km/s) = 6.12049 6.95283 6.54989
#
# Compressibility (1/GPa) = 0.02479970
#
# Stress axis : x y z
#
# Youngs Moduli (GPa) = 99.11047 53.89150 76.01437
#
# Poissons Ratio (x) = 0.08044 0.45299
# Poissons Ratio (y) = 0.14793 0.07973
# Poissons Ratio (z) = 0.59062 0.05652
#
# Static dielectric constant tensor:
#      x y z
#    x 3.699770 0.000000 0.216690 
#    y 0.000000 3.400820 0.000000 
#    z 0.216690 0.000000 3.698610 
# 
# 
# High freq. dielectric constant tensor:
#      x y z
#    x 1.762740 0.000000 0.011810 
#    y 0.000000 1.749940 0.000000 
#    z 0.011810 0.000000 1.745700 
# 
# From -- ./inp_files/275572.got.cif
#   From: 2010.06.25/outbox.cif.g09.slc.cpg/sg12_138_cif.got.tgz:275572.got - 2010.06.28 00:19:55.
