data_PCOD8106641
_publ_section_title
;
Structure prediction by ZEFSAII (Michael W. Deem and Ramdas Pophale) SiO2 
 PCOD8106641
Probable space group: C 2/M
;
_chemical_formula_sum "Si O2"
_cell_formula_units_Z 48
_cell_length_a 12.931535
_cell_length_b 30.261065
_cell_length_c 6.219842
_cell_angle_alpha 90.000000
_cell_angle_beta 85.573580
_cell_angle_gamma 90.000000
_cell_volume 2426.701294
_symmetry_space_group_name_H-M "C 2/M"
_symmetry_group_IT_number 12
_symmetry_cell_setting 'monoclinic'
loop_
_space_group_symop_operation_xyz
x,y,z
-x,y,-z
-x,-y,-z
x,-y,z
1/2+x,1/2+y,z
1/2-x,1/2+y,-z
1/2-x,1/2-y,-z
1/2+x,1/2-y,z
loop_
_atom_site_type_symbol
_atom_site_label
_atom_site_fract_x
_atom_site_fract_y
_atom_site_fract_z
Si Si1 0.797801 0.618951 0.919243
Si Si2 0.319393 0.449554 0.308396
Si Si3 0.903217 0.724627 0.369558
Si Si4 0.000000 0.663285 0.000000
Si Si5 0.207010 0.813216 0.629035
Si Si6 0.848305 0.885402 0.682910
Si Si7 0.500000 0.416657 0.000000
O O1 0.780905 0.575366 0.775769
O O2 0.918803 0.631822 0.888648
O O3 0.722805 0.657120 0.836897
O O4 0.760201 0.611648 0.169444
O O5 0.288733 0.500000 0.355545
O O6 0.353053 0.428018 0.528205
O O7 0.413532 0.447321 0.123249
O O8 0.857164 0.770451 0.287311
O O9 0.820207 0.699549 0.527232
O O10 0.000000 0.736461 0.500000
O O11 0.933728 0.693848 0.167325
O O12 0.146152 0.840324 0.454579
O O13 0.946690 0.885748 0.827497
#
# Coordination Sequence:
#
# PCOD8106641 Si02
#       7
#     8   8   8   4   8   8   4
#     4  10  22  39  64  86 121 157 204 247 298 359
#     4  10  22  40  62  91 123 157 195 245 300 361
#     4  11  23  37  61  87 117 157 205 254 293 348
#     4  12  22  40  64  89 112 164 210 250 299 344
#     4  10  22  40  58  87 123 158 201 246 299 347
#     4  10  21  38  59  88 124 162 191 249 295 360
#     4  10  21  36  63  93 120 162 195 234 295 366
#
# _framework density 19.779937
#
# number of rings (size 3 to 8) (size 9 to 14) (size 15 to 20)
#    0.000    1.667    3.333    0.750    0.000   10.000 
#    0.000    3.750    0.000    1.000    0.000    0.000 
#    0.000    0.000    0.000    0.000    0.000    0.000 
#
# Total GULP energy -297668.605325 kJ/mol
# GULP energy per Si atom -12402.858555 kJ/mol
# Density = 1.973492 g / cm^3
# Si number density = 19.779937 Si / 1000 Ang^3
#
#
#
# Elastic Constant Matrix: (Units=GPa)
#
#
# Indices 1 2 3 4 5 6 
#
# 1 110.0181 59.6394 42.2014 0.0000 16.1681 0.0000
# 2 59.6394 126.6929 43.0955 0.0000 3.8433 0.0000
# 3 42.2014 43.0955 93.5574 0.0000 8.0145 0.0000
# 4 0.0000 0.0000 0.0000 8.8254 0.0000 -9.8952
# 5 16.1681 3.8433 8.0145 0.0000 30.4023 0.0000
# 6 0.0000 0.0000 0.0000 -9.8952 0.0000 11.9607
#
#
#
# Elastic Compliance Matrix: (Units=1/GPa)
#
#
# Indices 1 2 3 4 5 6 
#
# 1 0.014164 -0.005321 -0.003428 0.000000 -0.005956 0.000000
# 2 -0.005321 0.011359 -0.003020 0.000000 0.002190 0.000000
# 3 -0.003428 -0.003020 0.013747 0.000000 -0.001419 0.000000
# 4 0.000000 0.000000 0.000000 1.564980 0.000000 1.294724
# 5 -0.005956 0.002190 -0.001419 0.000000 0.036157 0.000000
# 6 0.000000 0.000000 0.000000 1.294724 0.000000 1.154746
#
#
# Mechanical properties :
#
#
# Convention : Reuss Voigt Hill
#
# Bulk Modulus (GPa) = 63.55942 68.90456 66.23199
# Shear Modulus (GPa) = 1.77058 22.59316 12.18187
#
# Velocity S-wave (km/s) = 0.94714 3.38335 2.48436
# Velocity P-wave (km/s) = 5.77920 7.08336 6.46425
#
# Compressibility (1/GPa) = 0.01573331
#
# Stress axis : x y z
#
# Youngs Moduli (GPa) = 70.60173 88.03951 72.74141
#
# Poissons Ratio (x) = 0.46845 0.24935
# Poissons Ratio (y) = 0.37566 0.21965
# Poissons Ratio (z) = 0.24201 0.26584
#
# Static dielectric constant tensor:
#      x y z
#    x 3.674120 0.000000 0.027490 
#    y 0.000000 3.495910 0.000000 
#    z 0.027490 0.000000 3.674800 
# 
# 
# High freq. dielectric constant tensor:
#      x y z
#    x 1.766200 0.000000 0.003260 
#    y 0.000000 1.760310 0.000000 
#    z 0.003260 0.000000 1.779550 
# 
# From -- ./inp_files/12914.got.cif
#   From: 2010.06.25/outbox.cif.g09.slc.cpg/sg12_7_cif.got.tgz:12914.got - 2010.06.28 00:19:55.
