data_PCOD8106003
_publ_section_title
;
Structure prediction by ZEFSAII (Michael W. Deem and Ramdas Pophale) SiO2 
 PCOD8106003
Probable space group: C 2/M
;
_chemical_formula_sum "Si O2"
_cell_formula_units_Z 64
_cell_length_a 31.060648
_cell_length_b 9.022236
_cell_length_c 24.977199
_cell_angle_alpha 90.000000
_cell_angle_beta 149.847276
_cell_angle_gamma 90.000000
_cell_volume 3515.906774
_symmetry_space_group_name_H-M "C 2/M"
_symmetry_group_IT_number 12
_symmetry_cell_setting 'monoclinic'
loop_
_space_group_symop_operation_xyz
x,y,z
-x,y,-z
-x,-y,-z
x,-y,z
1/2+x,1/2+y,z
1/2-x,1/2+y,-z
1/2-x,1/2-y,-z
1/2+x,1/2-y,z
loop_
_atom_site_type_symbol
_atom_site_label
_atom_site_fract_x
_atom_site_fract_y
_atom_site_fract_z
Si Si1 0.144075 0.172229 0.937360
Si Si2 0.443984 0.670926 0.887381
Si Si3 0.509624 0.174158 0.169003
Si Si4 0.881315 0.669659 0.418017
Si Si5 0.729242 0.825584 0.311519
Si Si6 0.315293 0.328344 0.140858
Si Si7 0.073890 0.669614 0.654210
Si Si8 0.799203 0.329140 0.599732
O O1 0.062322 0.258117 0.870830
O O2 0.146957 0.201419 0.877217
O O3 0.136441 0.000000 0.943457
O O4 0.229006 0.234906 0.057169
O O5 0.431578 0.500000 0.858318
O O6 0.493333 0.753156 0.892631
O O7 0.351926 0.742357 0.800984
O O8 0.500000 0.690484 0.000000
O O9 0.600202 0.209022 0.294524
O O10 0.494784 0.000000 0.146117
O O11 0.855571 0.500000 0.402435
O O12 0.814315 0.781047 0.371896
O O13 0.881763 0.697982 0.355124
O O14 0.973449 0.705411 0.542353
O O15 0.738767 0.778989 0.383851
O O16 0.712838 0.000000 0.288526
O O17 0.293200 0.500000 0.125522
O O18 0.386057 0.278826 0.259415
O O19 0.088067 0.500000 0.687395
O O20 0.782755 0.500000 0.572934
O O21 0.750000 0.250000 0.500000
#
# Coordination Sequence:
#
# PCOD8106003 Si02
#       8
#     8   8   8   8   8   8   8   8
#     4  10  21  37  56  78 106 141 179 218 262 316
#     4  10  21  37  57  80 106 139 178 217 261 316
#     4  10  21  37  56  80 109 139 175 219 265 312
#     4   9  19  36  56  78 105 141 181 217 260 315
#     4  10  21  36  54  79 109 139 175 220 266 312
#     4  10  21  36  55  80 108 139 177 221 267 313
#     4   9  19  36  56  78 107 141 178 220 263 313
#     4   9  20  36  53  76 105 137 173 213 258 309
#
# _framework density 18.202987
#
# number of rings (size 3 to 8) (size 9 to 14) (size 15 to 20)
#    0.000    2.375    0.000    3.375    0.000    8.500 
#    0.000    7.500    0.000    0.000    0.000    0.000 
#    0.000    0.000    0.000    0.000    0.000    0.000 
#
# Total GULP energy -396895.178625 kJ/mol
# GULP energy per Si atom -12402.974332 kJ/mol
# Density = 1.816156 g / cm^3
# Si number density = 18.202987 Si / 1000 Ang^3
#
#
#
# Elastic Constant Matrix: (Units=GPa)
#
#
# Indices 1 2 3 4 5 6 
#
# 1 97.9768 62.0763 58.4579 0.0000 17.5864 0.0000
# 2 62.0763 113.1041 66.3074 0.0000 1.4658 0.0000
# 3 58.4579 66.3074 105.8492 0.0000 -6.0790 0.0000
# 4 0.0000 0.0000 0.0000 37.0255 0.0000 1.8457
# 5 17.5864 1.4658 -6.0790 0.0000 28.1727 0.0000
# 6 0.0000 0.0000 0.0000 1.8457 0.0000 36.2264
#
#
#
# Elastic Compliance Matrix: (Units=1/GPa)
#
#
# Indices 1 2 3 4 5 6 
#
# 1 0.023050 -0.007018 -0.009253 0.000000 -0.016020 0.000000
# 2 -0.007018 0.016308 -0.006214 0.000000 0.002192 0.000000
# 3 -0.009253 -0.006214 0.019037 0.000000 0.010207 0.000000
# 4 0.000000 0.000000 0.000000 0.027077 0.000000 -0.001380
# 5 -0.016020 0.002192 0.010207 0.000000 0.047584 0.000000
# 6 0.000000 0.000000 0.000000 -0.001380 0.000000 0.027674
#
#
# Mechanical properties :
#
#
# Convention : Reuss Voigt Hill
#
# Bulk Modulus (GPa) = 74.49822 76.73482 75.61652
# Shear Modulus (GPa) = 23.78974 28.95748 26.37361
#
# Velocity S-wave (km/s) = 3.61905 3.99282 3.81052
# Velocity P-wave (km/s) = 7.64713 7.96890 7.80967
#
# Compressibility (1/GPa) = 0.01342314
#
# Stress axis : x y z
#
# Youngs Moduli (GPa) = 43.38470 61.32037 52.53059
#
# Poissons Ratio (x) = 0.43036 0.48608
# Poissons Ratio (y) = 0.30448 0.32642
# Poissons Ratio (z) = 0.40145 0.38104
#
# Static dielectric constant tensor:
#      x y z
#    x 3.499810 0.000000 0.091900 
#    y 0.000000 3.432890 0.000000 
#    z 0.091900 0.000000 3.346120 
# 
# 
# High freq. dielectric constant tensor:
#      x y z
#    x 1.706090 0.000000 0.002140 
#    y 0.000000 1.715800 0.000000 
#    z 0.002140 0.000000 1.707610 
# 
# From -- ./inp_files/353560.got.cif
#   From: 2010.06.25/outbox.cif.g09.slc.cpg/sg12_177_cif.got.tgz:353560.got - 2010.06.28 00:19:55.
