data_PCOD8106006
_publ_section_title
;
Structure prediction by ZEFSAII (Michael W. Deem and Ramdas Pophale) SiO2 
 PCOD8106006
Probable space group: C 2/M
;
_chemical_formula_sum "Si O2"
_cell_formula_units_Z 56
_cell_length_a 10.131243
_cell_length_b 9.523105
_cell_length_c 33.473707
_cell_angle_alpha 90.000000
_cell_angle_beta 112.391212
_cell_angle_gamma 90.000000
_cell_volume 2986.077702
_symmetry_space_group_name_H-M "C 2/M"
_symmetry_group_IT_number 12
_symmetry_cell_setting 'monoclinic'
loop_
_space_group_symop_operation_xyz
x,y,z
-x,y,-z
-x,-y,-z
x,-y,z
1/2+x,1/2+y,z
1/2-x,1/2+y,-z
1/2-x,1/2-y,-z
1/2+x,1/2-y,z
loop_
_atom_site_type_symbol
_atom_site_label
_atom_site_fract_x
_atom_site_fract_y
_atom_site_fract_z
Si Si1 0.503175 0.337659 0.191890
Si Si2 0.451229 0.663238 0.334663
Si Si3 0.266771 0.836396 0.622013
Si Si4 0.407317 0.662246 0.092012
Si Si5 0.786401 0.163498 0.235618
Si Si6 0.080798 0.335663 0.049357
Si Si7 0.336000 0.663689 0.477706
O O1 0.544679 0.500000 0.201466
O O2 0.433306 0.305675 0.141267
O O3 0.642687 0.248001 0.214400
O O4 0.390035 0.290888 0.211961
O O5 0.492883 0.500000 0.339158
O O6 0.595509 0.750477 0.349337
O O7 0.363758 0.703913 0.364141
O O8 0.357365 0.703855 0.285695
O O9 0.220524 0.794732 0.572294
O O10 0.303938 0.000000 0.630211
O O11 0.434791 0.500000 0.084810
O O12 0.245732 0.705794 0.063020
O O13 0.516178 0.753997 0.079183
O O14 0.748655 0.000000 0.229081
O O15 0.063155 0.500000 0.056265
O O16 0.000000 0.289554 0.000000
O O17 0.500000 0.707411 0.500000
O O18 0.314862 0.500000 0.484322
O O19 0.250000 0.750000 0.500000
#
# Coordination Sequence:
#
# PCOD8106006 Si02
#       7
#     8   8   8   8   8   8   8
#     4  10  21  36  54  79 110 142 178 221 267 315
#     4  10  21  37  57  81 109 142 179 220 268 319
#     4  10  21  36  55  81 110 141 180 223 267 318
#     4  10  21  36  54  79 110 142 179 222 266 316
#     4  10  21  37  57  81 109 142 180 221 266 318
#     4  10  21  37  57  81 109 142 180 222 268 318
#     4  10  21  37  56  79 109 143 179 222 269 317
#
# _framework density 18.753699000000001
#
# number of rings (size 3 to 8) (size 9 to 14) (size 15 to 20)
#    0.000    2.000    0.000    3.000    0.000    6.286 
#    0.000    0.000    0.000    0.000    0.000    0.000 
#    0.000    0.000    0.000    0.000    0.000    0.000 
#
# Total GULP energy -347360.582728 kJ/mol
# GULP energy per Si atom -12405.735097 kJ/mol
# Density = 1.871101 g / cm^3
# Si number density = 18.753699 Si / 1000 Ang^3
#
#
#
# Elastic Constant Matrix: (Units=GPa)
#
#
# Indices 1 2 3 4 5 6 
#
# 1 99.0988 48.0568 32.8704 0.0000 3.4229 0.0000
# 2 48.0568 50.0958 32.3727 0.0000 3.4797 0.0000
# 3 32.8704 32.3727 85.9422 0.0000 -2.2187 0.0000
# 4 0.0000 0.0000 0.0000 43.6565 0.0000 24.2440
# 5 3.4229 3.4797 -2.2187 0.0000 41.7458 0.0000
# 6 0.0000 0.0000 0.0000 24.2440 0.0000 88.4060
#
#
#
# Elastic Compliance Matrix: (Units=1/GPa)
#
#
# Indices 1 2 3 4 5 6 
#
# 1 0.018887 -0.017767 -0.000534 0.000000 -0.000096 0.000000
# 2 -0.017767 0.043412 -0.009626 0.000000 -0.002673 0.000000
# 3 -0.000534 -0.009626 0.015509 0.000000 0.001670 0.000000
# 4 0.000000 0.000000 0.000000 0.027021 0.000000 -0.007410
# 5 -0.000096 -0.002673 0.001670 0.000000 0.024274 0.000000
# 6 0.000000 0.000000 0.000000 -0.007410 0.000000 0.013344
#
#
# Mechanical properties :
#
#
# Convention : Reuss Voigt Hill
#
# Bulk Modulus (GPa) = 45.54898 51.30406 48.42652
# Shear Modulus (GPa) = 24.31697 42.88411 33.60054
#
# Velocity S-wave (km/s) = 3.60481 4.78713 4.23741
# Velocity P-wave (km/s) = 6.45499 7.61391 7.05828
#
# Compressibility (1/GPa) = 0.02195439
#
# Stress axis : x y z
#
# Youngs Moduli (GPa) = 52.94618 23.03537 64.47883
#
# Poissons Ratio (x) = 0.40926 0.03442
# Poissons Ratio (y) = 0.94068 0.62067
# Poissons Ratio (z) = 0.02827 0.22174
#
# Static dielectric constant tensor:
#      x y z
#    x 3.434580 0.000000 -0.040060 
#    y 0.000000 3.378650 0.000000 
#    z -0.040060 0.000000 3.606790 
# 
# 
# High freq. dielectric constant tensor:
#      x y z
#    x 1.738960 0.000000 -0.001490 
#    y 0.000000 1.722100 0.000000 
#    z -0.001490 0.000000 1.748270 
# 
# From -- ./inp_files/373631.got.cif
#   From: 2010.06.25/outbox.cif.g09.slc.cpg/sg12_187_cif.got.tgz:373631.got - 2010.06.28 00:19:55.
