data_PCOD8106543
_publ_section_title
;
Structure prediction by ZEFSAII (Michael W. Deem and Ramdas Pophale) SiO2 
 PCOD8106543
Probable space group: C 2/M
;
_chemical_formula_sum "Si O2"
_cell_formula_units_Z 48
_cell_length_a 9.641071
_cell_length_b 16.362573
_cell_length_c 30.353650
_cell_angle_alpha 90.000000
_cell_angle_beta 149.403115
_cell_angle_gamma 90.000000
_cell_volume 2437.255120
_symmetry_space_group_name_H-M "C 2/M"
_symmetry_group_IT_number 12
_symmetry_cell_setting 'monoclinic'
loop_
_space_group_symop_operation_xyz
x,y,z
-x,y,-z
-x,-y,-z
x,-y,z
1/2+x,1/2+y,z
1/2-x,1/2+y,-z
1/2-x,1/2-y,-z
1/2+x,1/2-y,z
loop_
_atom_site_type_symbol
_atom_site_label
_atom_site_fract_x
_atom_site_fract_y
_atom_site_fract_z
Si Si1 0.145113 0.315162 0.776271
Si Si2 0.109704 0.325037 0.483774
Si Si3 0.914386 0.094188 0.162866
Si Si4 0.961836 0.860476 0.706152
Si Si5 0.620019 0.410620 0.655551
Si Si6 0.956975 0.747193 0.940311
O O1 0.335551 0.372074 0.798209
O O2 0.262222 0.304384 0.857729
O O3 0.112530 0.227034 0.745044
O O4 0.842921 0.349453 0.697736
O O5 0.250000 0.250000 0.500000
O O6 0.330941 0.395596 0.552839
O O7 0.000000 0.291777 0.500000
O O8 0.865280 0.357146 0.386704
O O9 0.985709 0.093374 0.233950
O O10 0.656512 0.154307 0.085363
O O11 0.848092 0.000000 0.130871
O O12 0.087956 0.908512 0.699583
O O13 0.721060 0.500000 0.670014
O O14 0.000000 0.787067 0.000000
O O15 0.250000 0.750000 0.000000
#
# Coordination Sequence:
#
# PCOD8106543 Si02
#       6
#     8   8   8   8   8   8
#     4  11  22  40  65  88 122 161 200 245 298 369
#     4  10  21  36  60  85 119 164 211 246 290 352
#     4  11  24  40  63  94 126 156 193 251 310 354
#     4  10  21  38  63  85 121 166 210 242 293 364
#     4  11  23  38  59  91 124 158 203 259 303 343
#     4  11  23  44  67  91 117 158 202 242 293 373
#
# _framework density 19.694286000000002
#
# number of rings (size 3 to 8) (size 9 to 14) (size 15 to 20)
#    0.000    1.333    3.333    3.000    4.667    4.000 
#    0.000    0.000    0.000    5.000    0.000    0.000 
#    0.000    0.000    0.000    0.000    0.000    0.000 
#
# Total GULP energy -297549.645489 kJ/mol
# GULP energy per Si atom -12397.901895 kJ/mol
# Density = 1.964946 g / cm^3
# Si number density = 19.694286 Si / 1000 Ang^3
#
#
#
# Elastic Constant Matrix: (Units=GPa)
#
#
# Indices 1 2 3 4 5 6 
#
# 1 81.2472 20.1224 27.2870 -0.0014 11.5340 -0.0001
# 2 20.1224 88.4063 9.5868 -0.0008 6.3226 0.0000
# 3 27.2870 9.5868 90.4486 -0.0028 3.8096 0.0001
# 4 -0.0014 -0.0008 -0.0028 16.2970 0.0000 4.8292
# 5 11.5340 6.3226 3.8096 0.0000 40.7520 -0.0002
# 6 -0.0001 0.0000 0.0001 4.8292 -0.0002 24.6852
#
#
#
# Elastic Compliance Matrix: (Units=1/GPa)
#
#
# Indices 1 2 3 4 5 6 
#
# 1 0.014814 -0.002691 -0.004041 0.000000 -0.003398 0.000000
# 2 -0.002691 0.012046 -0.000420 0.000000 -0.001068 0.000000
# 3 -0.004041 -0.000420 0.012317 0.000002 0.000057 0.000000
# 4 0.000000 0.000000 0.000002 0.065137 0.000000 -0.012743
# 5 -0.003398 -0.001068 0.000057 0.000000 0.025661 0.000000
# 6 0.000000 0.000000 0.000000 -0.012743 0.000000 0.043003
#
#
# Mechanical properties :
#
#
# Convention : Reuss Voigt Hill
#
# Bulk Modulus (GPa) = 40.20296 41.56607 40.88451
# Shear Modulus (GPa) = 25.56607 29.88724 27.72666
#
# Velocity S-wave (km/s) = 3.60689 3.89981 3.75621
# Velocity P-wave (km/s) = 6.14850 6.43658 6.29419
#
# Compressibility (1/GPa) = 0.02487379
#
# Stress axis : x y z
#
# Youngs Moduli (GPa) = 67.50391 83.01659 81.18746
#
# Poissons Ratio (x) = 0.22337 0.32807
# Poissons Ratio (y) = 0.18163 0.03410
# Poissons Ratio (z) = 0.27277 0.03487
#
# Static dielectric constant tensor:
#      x y z
#    x 3.666780 0.000100 -0.058650 
#    y 0.000100 0.591460 0.000130 
#    z -0.058650 0.000130 3.993250 
# 
# 
# High freq. dielectric constant tensor:
#      x y z
#    x 1.777490 0.000000 0.000410 
#    y 0.000000 1.752510 0.000000 
#    z 0.000410 0.000000 1.779430 
# 
# From -- ./inp_files/251386.got.cif
#   From: 2010.06.25/outbox.cif.g09.slc.cpg/sg12_126_cif.got.tgz:251386.got - 2010.06.28 00:19:55.
