data_PCOD8106794
_publ_section_title
;
Structure prediction by ZEFSAII (Michael W. Deem and Ramdas Pophale) SiO2 
 PCOD8106794
Probable space group: C 2/M
;
_chemical_formula_sum "Si O2"
_cell_formula_units_Z 56
_cell_length_a 15.609994
_cell_length_b 9.124847
_cell_length_c 24.780084
_cell_angle_alpha 90.000000
_cell_angle_beta 128.225876
_cell_angle_gamma 90.000000
_cell_volume 2772.810260
_symmetry_space_group_name_H-M "C 2/M"
_symmetry_group_IT_number 12
_symmetry_cell_setting 'monoclinic'
loop_
_space_group_symop_operation_xyz
x,y,z
-x,y,-z
-x,-y,-z
x,-y,z
1/2+x,1/2+y,z
1/2-x,1/2+y,-z
1/2-x,1/2-y,-z
1/2+x,1/2-y,z
loop_
_atom_site_type_symbol
_atom_site_label
_atom_site_fract_x
_atom_site_fract_y
_atom_site_fract_z
Si Si1 0.175283 0.838432 0.060384
Si Si2 0.814958 0.665317 0.644872
Si Si3 0.038719 0.326359 0.675455
Si Si4 0.995497 0.838632 0.912569
Si Si5 0.140110 0.828854 0.810346
Si Si6 0.042750 0.665445 0.202042
Si Si7 0.595649 0.172822 0.576711
O O1 0.259445 0.717603 0.113132
O O2 0.081460 0.851125 0.067052
O O3 0.230607 0.000000 0.075702
O O4 0.117173 0.792362 0.980961
O O5 0.785760 0.500000 0.616157
O O6 0.845955 0.671410 0.720435
O O7 0.707698 0.762840 0.596515
O O8 0.916419 0.721665 0.647061
O O9 0.049687 0.500000 0.686481
O O10 0.131595 0.253651 0.749385
O O11 0.063080 0.273524 0.624096
O O12 0.941699 0.715257 0.853357
O O13 0.002687 0.000000 0.887383
O O14 0.035457 0.786966 0.803795
O O15 0.146279 0.000000 0.801034
O O16 0.994913 0.500000 0.186032
O O17 0.500000 0.225561 0.500000
O O18 0.609589 0.000000 0.581556
#
# Coordination Sequence:
#
# PCOD8106794 Si02
#       7
#     8   8   8   8   8   8   8
#     4   9  19  36  54  76 109 146 183 230 286 335
#     4   9  20  38  58  83 117 154 192 234 286 341
#     4   9  20  40  60  82 118 158 189 233 294 345
#     4   9  19  35  55  78 106 144 189 230 277 340
#     4  11  22  35  55  82 108 141 191 236 276 337
#     4  10  21  37  56  79 111 146 183 232 288 336
#     4  10  22  39  61  90 119 151 192 231 279 346
#
# _framework density 20.196116
#
# number of rings (size 3 to 8) (size 9 to 14) (size 15 to 20)
#    0.000    2.429    0.000    3.429    2.000    6.000 
#    0.000    1.429    0.000    0.000    0.000    0.000 
#    0.000    0.000    0.000    0.000    0.000    0.000 
#
# Total GULP energy -346982.136407 kJ/mol
# GULP energy per Si atom -12392.219157 kJ/mol
# Density = 2.015015 g / cm^3
# Si number density = 20.196116 Si / 1000 Ang^3
#
#
#
# Elastic Constant Matrix: (Units=GPa)
#
#
# Indices 1 2 3 4 5 6 
#
# 1 41.0874 13.1842 6.6612 0.0000 10.4854 0.0000
# 2 13.1842 70.0374 27.7027 0.0000 9.4449 0.0000
# 3 6.6612 27.7027 62.8834 0.0000 10.6720 0.0000
# 4 0.0000 0.0000 0.0000 32.1752 0.0000 -1.6932
# 5 10.4854 9.4449 10.6720 0.0000 32.0432 0.0000
# 6 0.0000 0.0000 0.0000 -1.6932 0.0000 36.0406
#
#
#
# Elastic Compliance Matrix: (Units=1/GPa)
#
#
# Indices 1 2 3 4 5 6 
#
# 1 0.027673 -0.004257 0.000284 0.000000 -0.007895 0.000000
# 2 -0.004257 0.018171 -0.007294 0.000000 -0.001534 0.000000
# 3 0.000284 -0.007294 0.019859 0.000000 -0.004557 0.000000
# 4 0.000000 0.000000 0.000000 0.031157 0.000000 0.001464
# 5 -0.007895 -0.001534 -0.004557 0.000000 0.035761 0.000000
# 6 0.000000 0.000000 0.000000 0.001464 0.000000 0.027815
#
#
# Mechanical properties :
#
#
# Convention : Reuss Voigt Hill
#
# Bulk Modulus (GPa) = 23.16450 29.90048 26.53249
# Shear Modulus (GPa) = 25.33431 28.48247 26.90839
#
# Velocity S-wave (km/s) = 3.54561 3.75946 3.65410
# Velocity P-wave (km/s) = 5.31569 5.80362 5.56500
#
# Compressibility (1/GPa) = 0.04316950
#
# Stress axis : x y z
#
# Youngs Moduli (GPa) = 36.13615 55.03175 50.35483
#
# Poissons Ratio (x) = 0.23426 -0.01429
# Poissons Ratio (y) = 0.15383 0.36729
# Poissons Ratio (z) = -0.01026 0.40140
#
# Static dielectric constant tensor:
#      x y z
#    x 3.516400 0.000000 0.049400 
#    y 0.000000 3.583560 0.000000 
#    z 0.049400 0.000000 4.313290 
# 
# 
# High freq. dielectric constant tensor:
#      x y z
#    x 1.774970 0.000000 -0.000860 
#    y 0.000000 1.778070 0.000000 
#    z -0.000860 0.000000 1.792490 
# 
# From -- ./inp_files/342601.got.cif
#   From: 2010.06.25/outbox.cif.g09.slc.cpg/sg12_172_cif.got.tgz:342601.got - 2010.06.28 00:19:55.
