data_PCOD8106997
_publ_section_title
;
Structure prediction by ZEFSAII (Michael W. Deem and Ramdas Pophale) SiO2 
 PCOD8106997
Probable space group: C 2/M
;
_chemical_formula_sum "Si O2"
_cell_formula_units_Z 48
_cell_length_a 13.228457
_cell_length_b 10.789646
_cell_length_c 16.388421
_cell_angle_alpha 90.000000
_cell_angle_beta 107.579101
_cell_angle_gamma 90.000000
_cell_volume 2229.890304
_symmetry_space_group_name_H-M "C 2/M"
_symmetry_group_IT_number 12
_symmetry_cell_setting 'monoclinic'
loop_
_space_group_symop_operation_xyz
x,y,z
-x,y,-z
-x,-y,-z
x,-y,z
1/2+x,1/2+y,z
1/2-x,1/2+y,-z
1/2-x,1/2-y,-z
1/2+x,1/2-y,z
loop_
_atom_site_type_symbol
_atom_site_label
_atom_site_fract_x
_atom_site_fract_y
_atom_site_fract_z
Si Si1 0.572685 0.222516 0.448154
Si Si2 0.699540 0.258573 0.858187
Si Si3 0.506686 0.362408 0.718690
Si Si4 0.770508 0.137035 0.410671
Si Si5 0.222919 0.140475 0.279395
Si Si6 0.887889 0.357426 0.999416
O O1 0.500000 0.157498 0.500000
O O2 0.493795 0.269879 0.358250
O O3 0.658571 0.129058 0.431504
O O4 0.364245 0.340183 0.498479
O O5 0.611083 0.345926 0.797735
O O6 0.735853 0.154035 0.802751
O O7 0.650811 0.198177 0.925779
O O8 0.802013 0.339211 0.906993
O O9 0.507034 0.500000 0.682780
O O10 0.403651 0.340746 0.750071
O O11 0.773770 0.250631 0.347279
O O12 0.786451 0.000000 0.374038
O O13 0.252908 0.000000 0.316765
O O14 0.906904 0.500000 0.020800
O O15 0.000000 0.295915 0.000000
#
# Coordination Sequence:
#
# PCOD8106997 Si02
#       6
#     8   8   8   8   8   8
#     4  10  21  37  57  84 120 158 197 248 302 345
#     4  11  21  37  62  87 112 152 198 235 286 355
#     4  10  21  37  57  85 118 154 200 248 293 346
#     4  10  22  39  60  87 118 157 205 250 292 345
#     4  10  22  40  60  85 122 160 195 244 298 346
#     4  10  22  39  59  86 119 149 184 237 295 349
#
# _framework density 21.525722999999999
#
# number of rings (size 3 to 8) (size 9 to 14) (size 15 to 20)
#    0.000    1.833    0.000    3.500    0.000    8.333 
#    0.000   11.667    0.000    8.000    0.000    0.000 
#    0.000    0.000    0.000    0.000    0.000    0.000 
#
# Total GULP energy -297502.061574 kJ/mol
# GULP energy per Si atom -12395.919232 kJ/mol
# Density = 2.147673 g / cm^3
# Si number density = 21.525723 Si / 1000 Ang^3
#
#
#
# Elastic Constant Matrix: (Units=GPa)
#
#
# Indices 1 2 3 4 5 6 
#
# 1 107.5650 22.4391 50.4860 0.0000 4.9317 0.0000
# 2 22.4391 77.8132 22.7600 0.0000 -5.3702 0.0000
# 3 50.4860 22.7600 103.9176 0.0000 5.3525 0.0000
# 4 0.0000 0.0000 0.0000 22.7327 0.0000 2.5831
# 5 4.9317 -5.3702 5.3525 0.0000 45.1518 0.0000
# 6 0.0000 0.0000 0.0000 2.5831 0.0000 15.1529
#
#
#
# Elastic Compliance Matrix: (Units=1/GPa)
#
#
# Indices 1 2 3 4 5 6 
#
# 1 0.012345 -0.002013 -0.005508 0.000000 -0.000935 0.000000
# 2 -0.002013 0.014241 -0.002253 0.000000 0.002181 0.000000
# 3 -0.005508 -0.002253 0.012854 0.000000 -0.001190 0.000000
# 4 0.000000 0.000000 0.000000 0.044858 0.000000 -0.007647
# 5 -0.000935 0.002181 -0.001190 0.000000 0.022650 0.000000
# 6 0.000000 0.000000 0.000000 -0.007647 0.000000 0.067298
#
#
# Mechanical properties :
#
#
# Convention : Reuss Voigt Hill
#
# Bulk Modulus (GPa) = 50.27584 53.40731 51.84157
# Shear Modulus (GPa) = 24.94677 29.51486 27.23081
#
# Velocity S-wave (km/s) = 3.40800 3.70691 3.56059
# Velocity P-wave (km/s) = 6.23641 6.57164 6.40622
#
# Compressibility (1/GPa) = 0.01989027
#
# Stress axis : x y z
#
# Youngs Moduli (GPa) = 81.00483 70.21743 77.79687
#
# Poissons Ratio (x) = 0.14137 0.42854
# Poissons Ratio (y) = 0.16308 0.17531
# Poissons Ratio (z) = 0.44621 0.15823
#
# Static dielectric constant tensor:
#      x y z
#    x 4.286580 0.000000 -0.045090 
#    y 0.000000 3.572790 0.000000 
#    z -0.045090 0.000000 3.875980 
# 
# 
# High freq. dielectric constant tensor:
#      x y z
#    x 1.871680 0.000000 -0.004420 
#    y 0.000000 1.823500 0.000000 
#    z -0.004420 0.000000 1.838890 
# 
# From -- ./inp_files/261789.got.cif
#   From: 2010.06.25/outbox.cif.g09.slc.cpg/sg12_131_cif.got.tgz:261789.got - 2010.06.28 00:19:55.
