data_PCOD8106308
_publ_section_title
;
Structure prediction by ZEFSAII (Michael W. Deem and Ramdas Pophale) SiO2 
 PCOD8106308
Probable space group: C 2/M
;
_chemical_formula_sum "Si O2"
_cell_formula_units_Z 48
_cell_length_a 27.731326
_cell_length_b 8.869713
_cell_length_c 14.813650
_cell_angle_alpha 90.000000
_cell_angle_beta 139.518809
_cell_angle_gamma 90.000000
_cell_volume 2365.482372
_symmetry_space_group_name_H-M "C 2/M"
_symmetry_group_IT_number 12
_symmetry_cell_setting 'monoclinic'
loop_
_space_group_symop_operation_xyz
x,y,z
-x,y,-z
-x,-y,-z
x,-y,z
1/2+x,1/2+y,z
1/2-x,1/2+y,-z
1/2-x,1/2-y,-z
1/2+x,1/2-y,z
loop_
_atom_site_type_symbol
_atom_site_label
_atom_site_fract_x
_atom_site_fract_y
_atom_site_fract_z
Si Si1 0.239414 0.823719 0.081982
Si Si2 0.501408 0.323612 0.643560
Si Si3 0.617873 0.676879 0.667681
Si Si4 0.866155 0.820963 0.913287
Si Si5 0.522987 0.679577 0.193887
Si Si6 0.181403 0.820664 0.347643
O O1 0.310400 0.779496 0.242610
O O2 0.170182 0.764177 0.043980
O O3 0.232944 0.000000 0.056699
O O4 0.250000 0.750000 0.000000
O O5 0.488430 0.500000 0.632444
O O6 0.438215 0.260885 0.487424
O O7 0.582679 0.293095 0.717062
O O8 0.492899 0.250577 0.729697
O O9 0.636594 0.500000 0.682840
O O10 0.820056 0.766040 0.759325
O O11 0.863612 0.000000 0.909234
O O12 0.952756 0.767865 0.032058
O O13 0.525035 0.500000 0.198442
O O14 0.602628 0.739644 0.274333
O O15 0.250000 0.750000 0.500000
O O16 0.187859 0.000000 0.365595
#
# Coordination Sequence:
#
# PCOD8106308 Si02
#       6
#     8   8   8   8   8   8
#     4  11  22  35  53  77 108 144 180 222 272 322
#     4   8  15  28  50  79 106 139 179 221 266 310
#     4   9  17  31  51  76 109 142 178 222 266 316
#     4   9  19  35  55  80 110 143 181 225 270 313
#     4   9  16  30  55  80 103 137 186 225 256 311
#     4  10  21  36  57  84 110 139 177 225 274 321
#
# _framework density 20.291843
#
# number of rings (size 3 to 8) (size 9 to 14) (size 15 to 20)
#    0.000    2.667    0.000    3.000    2.333    4.667 
#    0.000    2.500    0.000    7.000    0.000    0.000 
#    0.000    0.000    0.000    0.000    0.000    0.000 
#
# Total GULP energy -297345.673396 kJ/mol
# GULP energy per Si atom -12389.403058 kJ/mol
# Density = 2.024566 g / cm^3
# Si number density = 20.291843 Si / 1000 Ang^3
#
#
#
# Elastic Constant Matrix: (Units=GPa)
#
#
# Indices 1 2 3 4 5 6 
#
# 1 133.0965 25.1748 75.1486 0.0000 1.7409 0.0000
# 2 25.1748 23.7659 19.7268 0.0000 2.4294 0.0000
# 3 75.1486 19.7268 139.4942 0.0000 5.3147 0.0000
# 4 0.0000 0.0000 0.0000 29.3650 0.0000 2.8734
# 5 1.7409 2.4294 5.3147 0.0000 40.4957 0.0000
# 6 0.0000 0.0000 0.0000 2.8734 0.0000 17.5376
#
#
#
# Elastic Compliance Matrix: (Units=1/GPa)
#
#
# Indices 1 2 3 4 5 6 
#
# 1 0.012137 -0.008473 -0.005367 0.000000 0.000691 0.000000
# 2 -0.008473 0.053747 -0.002942 0.000000 -0.002474 0.000000
# 3 -0.005367 -0.002942 0.010513 0.000000 -0.000973 0.000000
# 4 0.000000 0.000000 0.000000 0.034609 0.000000 -0.005670
# 5 0.000691 -0.002474 -0.000973 0.000000 0.024940 0.000000
# 6 0.000000 0.000000 0.000000 -0.005670 0.000000 0.057949
#
#
# Mechanical properties :
#
#
# Convention : Reuss Voigt Hill
#
# Bulk Modulus (GPa) = 23.34575 59.60632 41.47603
# Shear Modulus (GPa) = 20.68371 29.23341 24.95856
#
# Velocity S-wave (km/s) = 3.19613 3.79971 3.51091
# Velocity P-wave (km/s) = 5.01501 6.97772 6.07614
#
# Compressibility (1/GPa) = 0.04283435
#
# Stress axis : x y z
#
# Youngs Moduli (GPa) = 82.39312 18.60572 95.12052
#
# Poissons Ratio (x) = 0.15764 0.51047
# Poissons Ratio (y) = 0.69808 0.27986
# Poissons Ratio (z) = 0.44217 0.05474
#
# Static dielectric constant tensor:
#      x y z
#    x 4.118350 0.000000 -0.086970 
#    y 0.000000 3.061900 0.000000 
#    z -0.086970 0.000000 4.040800 
# 
# 
# High freq. dielectric constant tensor:
#      x y z
#    x 1.803960 0.000000 -0.000900 
#    y 0.000000 1.719470 0.000000 
#    z -0.000900 0.000000 1.810970 
# 
# From -- ./inp_files/244854.got.cif
#   From: 2010.06.25/outbox.cif.g09.slc.cpg/sg12_123_cif.got.tgz:244854.got - 2010.06.28 00:19:55.
