data_PCOD8106300
_publ_section_title
;
Structure prediction by ZEFSAII (Michael W. Deem and Ramdas Pophale) SiO2 
 PCOD8106300
Probable space group: C 2/M
;
_chemical_formula_sum "Si O2"
_cell_formula_units_Z 56
_cell_length_a 20.162059
_cell_length_b 8.745121
_cell_length_c 19.625100
_cell_angle_alpha 90.000000
_cell_angle_beta 57.452009
_cell_angle_gamma 90.000000
_cell_volume 2916.821254
_symmetry_space_group_name_H-M "C 2/M"
_symmetry_group_IT_number 12
_symmetry_cell_setting 'monoclinic'
loop_
_space_group_symop_operation_xyz
x,y,z
-x,y,-z
-x,-y,-z
x,-y,z
1/2+x,1/2+y,z
1/2-x,1/2+y,-z
1/2-x,1/2-y,-z
1/2+x,1/2-y,z
loop_
_atom_site_type_symbol
_atom_site_label
_atom_site_fract_x
_atom_site_fract_y
_atom_site_fract_z
Si Si1 0.539729 0.819622 0.682863
Si Si2 0.303865 0.319557 0.648984
Si Si3 0.368924 0.181655 0.236784
Si Si4 0.914044 0.317602 0.065146
Si Si5 0.669287 0.680599 0.516408
Si Si6 0.763790 0.680460 0.066210
Si Si7 0.372078 0.318796 0.752825
O O1 0.570011 0.765087 0.739748
O O2 0.592243 0.741129 0.596235
O O3 0.450453 0.767964 0.729744
O O4 0.547070 0.000000 0.669115
O O5 0.297458 0.500000 0.659666
O O6 0.216158 0.250069 0.697482
O O7 0.343869 0.272805 0.555540
O O8 0.351118 0.258816 0.688477
O O9 0.394360 0.249450 0.150232
O O10 0.365466 0.000000 0.234670
O O11 0.914621 0.500000 0.065830
O O12 0.848046 0.260666 0.048069
O O13 0.000000 0.252073 0.000000
O O14 0.675899 0.500000 0.521094
O O15 0.750000 0.750000 0.500000
O O16 0.764398 0.500000 0.058292
O O17 0.696020 0.730445 0.156728
O O18 0.750000 0.750000 0.000000
O O19 0.385873 0.500000 0.746705
#
# Coordination Sequence:
#
# PCOD8106300 Si02
#       7
#     8   8   8   8   8   8   8
#     4  11  23  37  57  86 118 148 185 237 289 338
#     4   9  17  34  59  79 104 149 196 232 270 328
#     4   9  16  31  54  80 108 143 188 232 270 320
#     4   9  17  30  53  84 110 139 187 236 271 317
#     4  11  21  36  59  87 116 147 189 237 286 335
#     4  10  21  36  57  83 114 148 182 229 284 338
#     4  10  21  39  59  80 111 152 195 233 276 334
#
# _framework density 19.198981
#
# number of rings (size 3 to 8) (size 9 to 14) (size 15 to 20)
#    0.000    2.143    2.857    0.857    2.000    1.143 
#    0.000    4.286    0.000    2.143    0.000    0.000 
#    0.000    0.000    0.000    0.000    0.000    0.000 
#
# Total GULP energy -347136.764196 kJ/mol
# GULP energy per Si atom -12397.741578 kJ/mol
# Density = 1.915528 g / cm^3
# Si number density = 19.198981 Si / 1000 Ang^3
#
#
#
# Elastic Constant Matrix: (Units=GPa)
#
#
# Indices 1 2 3 4 5 6 
#
# 1 178.2371 28.7209 91.8684 -0.0002 9.6613 0.0008
# 2 28.7209 34.7355 32.0324 -0.0006 3.1653 0.0029
# 3 91.8684 32.0324 154.4336 0.0000 12.0335 -0.0004
# 4 -0.0002 -0.0006 0.0000 23.6738 -0.0001 -1.0060
# 5 9.6613 3.1653 12.0335 -0.0001 43.5814 0.0000
# 6 0.0008 0.0029 -0.0004 -1.0060 0.0000 29.4023
#
#
#
# Elastic Compliance Matrix: (Units=1/GPa)
#
#
# Indices 1 2 3 4 5 6 
#
# 1 0.008324 -0.002853 -0.004325 0.000000 -0.000444 0.000000
# 2 -0.002853 0.036590 -0.005860 0.000001 -0.000407 -0.000004
# 3 -0.004325 -0.005860 0.010379 0.000000 -0.001481 0.000001
# 4 0.000000 0.000001 0.000000 0.042302 0.000000 0.001447
# 5 -0.000444 -0.000407 -0.001481 0.000000 0.023483 0.000000
# 6 0.000000 -0.000004 0.000001 0.001447 0.000000 0.034060
#
#
# Mechanical properties :
#
#
# Convention : Reuss Voigt Hill
#
# Bulk Modulus (GPa) = 34.22912 74.73884 54.48398
# Shear Modulus (GPa) = 26.18440 33.65047 29.91743
#
# Velocity S-wave (km/s) = 3.69703 4.19109 3.95179
# Velocity P-wave (km/s) = 6.00761 7.90148 7.01872
#
# Compressibility (1/GPa) = 0.02921489
#
# Stress axis : x y z
#
# Youngs Moduli (GPa) = 120.14009 27.33013 96.34752
#
# Poissons Ratio (x) = 0.07798 0.41671
# Poissons Ratio (y) = 0.34281 0.56462
# Poissons Ratio (z) = 0.51961 0.16016
#
# Static dielectric constant tensor:
#      x y z
#    x 3.737820 0.000000 0.124070 
#    y 0.000000 3.079360 0.000000 
#    z 0.124070 0.000000 3.832830 
# 
# 
# High freq. dielectric constant tensor:
#      x y z
#    x 1.760260 0.000000 0.005420 
#    y 0.000000 1.701520 0.000000 
#    z 0.005420 0.000000 1.761790 
# 
# From -- ./inp_files/319678.got.cif
#   From: 2010.06.25/outbox.cif.g09.slc.cpg/sg12_160_cif.got.tgz:319678.got - 2010.06.28 00:19:55.
