data_PCOD8106240
_publ_section_title
;
Structure prediction by ZEFSAII (Michael W. Deem and Ramdas Pophale) SiO2 
 PCOD8106240
Probable space group: C 2/M
;
_chemical_formula_sum "Si O2"
_cell_formula_units_Z 56
_cell_length_a 12.334296
_cell_length_b 19.276286
_cell_length_c 12.028262
_cell_angle_alpha 90.000000
_cell_angle_beta 95.013884
_cell_angle_gamma 90.000000
_cell_volume 2848.889556
_symmetry_space_group_name_H-M "C 2/M"
_symmetry_group_IT_number 12
_symmetry_cell_setting 'monoclinic'
loop_
_space_group_symop_operation_xyz
x,y,z
-x,y,-z
-x,-y,-z
x,-y,z
1/2+x,1/2+y,z
1/2-x,1/2+y,-z
1/2-x,1/2-y,-z
1/2+x,1/2-y,z
loop_
_atom_site_type_symbol
_atom_site_label
_atom_site_fract_x
_atom_site_fract_y
_atom_site_fract_z
Si Si1 0.165395 0.078685 0.500429
Si Si2 0.610511 0.580656 0.748749
Si Si3 0.092201 0.578929 0.426334
Si Si4 0.907062 0.835875 0.711871
Si Si5 0.205439 0.683571 0.850102
Si Si6 0.727145 0.164906 0.099670
Si Si7 0.962508 0.317670 0.763079
O O1 0.130923 0.098769 0.621712
O O2 0.294552 0.084653 0.498852
O O3 0.110301 0.132716 0.412209
O O4 0.127102 0.000000 0.468334
O O5 0.592292 0.500000 0.766336
O O6 0.502726 0.620822 0.780757
O O7 0.715029 0.602698 0.829881
O O8 0.068930 0.500000 0.387293
O O9 0.094587 0.625250 0.317812
O O10 0.000000 0.607369 0.500000
O O11 0.797049 0.842433 0.773179
O O12 0.945968 0.756784 0.703600
O O13 0.203916 0.765899 0.869200
O O14 0.088184 0.663214 0.791138
O O15 0.226080 0.645855 0.969533
O O16 0.602560 0.178378 0.126421
#
# Coordination Sequence:
#
# PCOD8106240 Si02
#       7
#     8   8   8   8   8   8   8
#     4  10  21  39  60  84 124 167 201 244 301 366
#     4  11  22  41  64  89 124 163 206 248 300 365
#     4  10  21  36  56  83 119 162 196 239 306 362
#     4  11  23  37  60  93 122 158 207 249 306 356
#     4  10  22  40  61  88 123 156 198 258 306 355
#     4  10  21  40  63  87 117 162 207 241 306 366
#     4  11  21  38  62  90 119 157 202 257 299 359
#
# _framework density 19.656780999999999
#
# number of rings (size 3 to 8) (size 9 to 14) (size 15 to 20)
#    0.000    1.571    2.857    2.143    0.000    3.429 
#    0.000    3.571    0.000    1.714    0.000    0.000 
#    0.000    0.000    0.000    0.000    0.000    0.000 
#
# Total GULP energy -347302.955182 kJ/mol
# GULP energy per Si atom -12403.676971 kJ/mol
# Density = 1.961204 g / cm^3
# Si number density = 19.656781 Si / 1000 Ang^3
#
#
#
# Elastic Constant Matrix: (Units=GPa)
#
#
# Indices 1 2 3 4 5 6 
#
# 1 122.7962 33.7358 27.6216 0.0000 3.7847 0.0000
# 2 33.7358 85.2925 46.2653 0.0000 6.3948 0.0000
# 3 27.6216 46.2653 94.4884 0.0000 6.8567 0.0000
# 4 0.0000 0.0000 0.0000 19.8832 0.0000 -0.4833
# 5 3.7847 6.3948 6.8567 0.0000 23.7586 0.0000
# 6 0.0000 0.0000 0.0000 -0.4833 0.0000 21.3904
#
#
#
# Elastic Compliance Matrix: (Units=1/GPa)
#
#
# Indices 1 2 3 4 5 6 
#
# 1 0.009244 -0.002967 -0.001226 0.000000 -0.000320 0.000000
# 2 -0.002967 0.017019 -0.007321 0.000000 -0.001995 0.000000
# 3 -0.001226 -0.007321 0.014677 0.000000 -0.002070 0.000000
# 4 0.000000 0.000000 0.000000 0.050321 0.000000 0.001137
# 5 -0.000320 -0.001995 -0.002070 0.000000 0.043275 0.000000
# 6 0.000000 0.000000 0.000000 0.001137 0.000000 0.046776
#
#
# Mechanical properties :
#
#
# Convention : Reuss Voigt Hill
#
# Bulk Modulus (GPa) = 55.83192 57.53584 56.68388
# Shear Modulus (GPa) = 23.77428 26.00337 24.88882
#
# Velocity S-wave (km/s) = 3.48152 3.64107 3.56219
# Velocity P-wave (km/s) = 6.68029 6.85641 6.76892
#
# Compressibility (1/GPa) = 0.01791090
#
# Stress axis : x y z
#
# Youngs Moduli (GPa) = 108.17250 58.75912 68.13602
#
# Poissons Ratio (x) = 0.17436 0.08355
# Poissons Ratio (y) = 0.32098 0.49881
# Poissons Ratio (z) = 0.13265 0.43016
#
# Static dielectric constant tensor:
#      x y z
#    x 3.748710 0.000000 -0.087060 
#    y 0.000000 3.451560 0.000000 
#    z -0.087060 0.000000 3.425680 
# 
# 
# High freq. dielectric constant tensor:
#      x y z
#    x 1.787550 0.000000 -0.003250 
#    y 0.000000 1.755350 0.000000 
#    z -0.003250 0.000000 1.754840 
# 
# From -- ./inp_files/133203.got.cif
#   From: 2010.06.25/outbox.cif.g09.slc.cpg/sg12_67_cif.got.tgz:133203.got - 2010.06.28 00:19:55.
