data_PCOD8106695
_publ_section_title
;
Structure prediction by ZEFSAII (Michael W. Deem and Ramdas Pophale) SiO2 
 PCOD8106695
Probable space group: C 2/M
;
_chemical_formula_sum "Si O2"
_cell_formula_units_Z 64
_cell_length_a 19.010498
_cell_length_b 8.858777
_cell_length_c 31.236438
_cell_angle_alpha 90.000000
_cell_angle_beta 40.388549
_cell_angle_gamma 90.000000
_cell_volume 3408.647701
_symmetry_space_group_name_H-M "C 2/M"
_symmetry_group_IT_number 12
_symmetry_cell_setting 'monoclinic'
loop_
_space_group_symop_operation_xyz
x,y,z
-x,y,-z
-x,-y,-z
x,-y,z
1/2+x,1/2+y,z
1/2-x,1/2+y,-z
1/2-x,1/2-y,-z
1/2+x,1/2-y,z
loop_
_atom_site_type_symbol
_atom_site_label
_atom_site_fract_x
_atom_site_fract_y
_atom_site_fract_z
Si Si1 0.097787 0.676266 0.187412
Si Si2 0.674705 0.821019 0.927349
Si Si3 0.519152 0.821925 0.924829
Si Si4 0.424406 0.822713 0.195002
Si Si5 0.802927 0.677797 0.697937
Si Si6 0.555823 0.679798 0.296841
Si Si7 0.969964 0.827577 0.560603
Si Si8 0.863248 0.830241 0.443807
O O1 0.100812 0.500000 0.196885
O O2 0.214741 0.730953 0.117624
O O3 0.014927 0.713846 0.188007
O O4 0.059250 0.766695 0.246792
O O5 0.621612 0.773640 0.906487
O O6 0.696935 0.000000 0.918783
O O7 0.594078 0.764691 0.002374
O O8 0.533361 0.759671 0.870320
O O9 0.512551 0.000000 0.927997
O O10 0.317151 0.733077 0.257579
O O11 0.398148 0.000000 0.204642
O O12 0.805124 0.500000 0.703151
O O13 0.877234 0.723040 0.623361
O O14 0.843165 0.754432 0.723275
O O15 0.564652 0.500000 0.295588
O O16 0.443160 0.738365 0.370344
O O17 0.000000 0.765676 0.500000
O O18 0.079372 0.817981 0.537133
O O19 0.926854 0.000000 0.578874
O O20 0.750000 0.750000 0.500000
O O21 0.837148 0.000000 0.442944
#
# Coordination Sequence:
#
# PCOD8106695 Si02
#       8
#     8   8   8   8   8   8   8   8
#     4  11  23  35  51  80 112 143 182 226 272 319
#     4   9  17  33  58  81 102 136 184 229 269 322
#     4   8  16  33  57  80 100 136 187 225 263 323
#     4  10  21  37  54  75 111 152 183 218 270 328
#     4  11  22  36  57  84 110 138 181 231 273 319
#     4  10  21  39  59  77 104 145 186 222 269 327
#     4   9  19  37  58  79 106 144 185 219 262 321
#     4   9  19  34  54  79 104 134 172 215 264 316
#
# _framework density 18.775773000000001
#
# number of rings (size 3 to 8) (size 9 to 14) (size 15 to 20)
#    0.000    2.375    0.000    4.125    0.000    6.250 
#    0.000    5.625    0.000    0.000    0.000    0.000 
#    0.000    0.000    0.000    0.000    0.000    0.000 
#
# Total GULP energy -396812.142621 kJ/mol
# GULP energy per Si atom -12400.379457 kJ/mol
# Density = 1.873304 g / cm^3
# Si number density = 18.775773 Si / 1000 Ang^3
#
#
#
# Elastic Constant Matrix: (Units=GPa)
#
#
# Indices 1 2 3 4 5 6 
#
# 1 112.0010 47.6843 76.3894 -0.0005 -1.9386 0.0044
# 2 47.6843 72.8404 43.3387 0.0016 -7.2584 0.0019
# 3 76.3894 43.3387 119.6504 -0.0007 -4.1503 0.0029
# 4 -0.0005 0.0016 -0.0007 27.8253 -0.0001 -4.9037
# 5 -1.9386 -7.2584 -4.1503 -0.0001 39.5098 0.0007
# 6 0.0044 0.0019 0.0029 -4.9037 0.0007 28.1150
#
#
#
# Elastic Compliance Matrix: (Units=1/GPa)
#
#
# Indices 1 2 3 4 5 6 
#
# 1 0.017848 -0.006378 -0.009128 0.000000 -0.001255 -0.000001
# 2 -0.006378 0.020041 -0.003081 -0.000001 0.003045 0.000000
# 3 -0.009128 -0.003081 0.015322 0.000000 0.000596 0.000000
# 4 0.000000 -0.000001 0.000000 0.037078 0.000000 0.006467
# 5 -0.001255 0.003045 0.000596 0.000000 0.025871 -0.000001
# 6 -0.000001 0.000000 0.000000 0.006467 -0.000001 0.036696
#
#
# Mechanical properties :
#
#
# Convention : Reuss Voigt Hill
#
# Bulk Modulus (GPa) = 62.36032 71.03516 66.69774
# Shear Modulus (GPa) = 25.59163 28.22866 26.91015
#
# Velocity S-wave (km/s) = 3.69591 3.88166 3.78992
# Velocity P-wave (km/s) = 7.17623 7.61612 7.39944
#
# Compressibility (1/GPa) = 0.01603584
#
# Stress axis : x y z
#
# Youngs Moduli (GPa) = 56.02867 49.89837 65.26456
#
# Poissons Ratio (x) = 0.31825 0.59575
# Poissons Ratio (y) = 0.35735 0.20111
# Poissons Ratio (z) = 0.51144 0.15376
#
# Static dielectric constant tensor:
#      x y z
#    x 3.474650 0.000000 0.185890 
#    y 0.000000 3.266430 0.000000 
#    z 0.185890 0.000000 3.796770 
# 
# 
# High freq. dielectric constant tensor:
#      x y z
#    x 1.726080 0.000000 0.001210 
#    y 0.000000 1.712800 0.000000 
#    z 0.001210 0.000000 1.742480 
# 
# From -- ./inp_files/378030.got.cif
#   From: 2010.06.25/outbox.cif.g09.slc.cpg/sg12_190_cif.got.tgz:378030.got - 2010.06.28 00:19:55.
