data_PCOD8106969
_publ_section_title
;
Structure prediction by ZEFSAII (Michael W. Deem and Ramdas Pophale) SiO2 
 PCOD8106969
Probable space group: C 2/M
;
_chemical_formula_sum "Si O2"
_cell_formula_units_Z 56
_cell_length_a 19.339179
_cell_length_b 9.282861
_cell_length_c 27.983585
_cell_angle_alpha 90.000000
_cell_angle_beta 31.787319
_cell_angle_gamma 90.000000
_cell_volume 2646.319963
_symmetry_space_group_name_H-M "C 2/M"
_symmetry_group_IT_number 12
_symmetry_cell_setting 'monoclinic'
loop_
_space_group_symop_operation_xyz
x,y,z
-x,y,-z
-x,-y,-z
x,-y,z
1/2+x,1/2+y,z
1/2-x,1/2+y,-z
1/2-x,1/2-y,-z
1/2+x,1/2-y,z
loop_
_atom_site_type_symbol
_atom_site_label
_atom_site_fract_x
_atom_site_fract_y
_atom_site_fract_z
Si Si1 0.977922 0.170769 0.111088
Si Si2 0.763907 0.165394 0.728884
Si Si3 0.870322 0.338634 0.909982
Si Si4 0.907257 0.837947 0.735055
Si Si5 0.655029 0.166636 0.411210
Si Si6 0.773539 0.840718 0.097838
Si Si7 0.801178 0.170522 0.423304
O O1 0.840226 0.241959 0.178097
O O2 0.003865 0.246459 0.147673
O O3 0.970494 0.000000 0.121912
O O4 0.091233 0.214404 0.006384
O O5 0.896532 0.171452 0.683263
O O6 0.782457 0.235537 0.666373
O O7 0.717755 0.000000 0.749049
O O8 0.874612 0.500000 0.929334
O O9 0.851033 0.347326 0.864747
O O10 0.750000 0.250000 0.000000
O O11 0.777114 0.759486 0.830648
O O12 0.047102 0.777676 0.671200
O O13 0.894102 0.000000 0.761066
O O14 0.500000 0.192918 0.500000
O O15 0.716506 0.213623 0.426235
O O16 0.688907 0.000000 0.380936
O O17 0.802564 0.000000 0.101595
O O18 0.750000 0.250000 0.500000
O O19 0.793447 0.000000 0.437076
#
# Coordination Sequence:
#
# PCOD8106969 Si02
#       7
#     8   8   8   8   8   8   8
#     4  10  21  37  57  83 118 161 207 259 312 362
#     4  11  24  40  59  87 123 162 207 255 306 366
#     4   9  17  31  51  80 114 151 198 248 301 359
#     4  10  23  40  58  85 123 163 203 251 305 361
#     4  10  22  41  66  95 125 157 198 248 305 368
#     4   9  20  36  56  84 117 157 206 253 300 358
#     4  10  22  41  65  94 123 156 197 242 299 366
#
# _framework density 21.161462
#
# number of rings (size 3 to 8) (size 9 to 14) (size 15 to 20)
#    0.000    2.143    0.000    3.000    2.000    6.571 
#    0.000    2.857    0.000    0.000    0.000    0.000 
#    0.000    0.000    0.000    0.000    0.000    0.000 
#
# Total GULP energy -346915.497530 kJ/mol
# GULP energy per Si atom -12389.839198 kJ/mol
# Density = 2.111330 g / cm^3
# Si number density = 21.161462 Si / 1000 Ang^3
#
#
#
# Elastic Constant Matrix: (Units=GPa)
#
#
# Indices 1 2 3 4 5 6 
#
# 1 130.2961 48.9618 53.8645 -0.0003 -6.4804 0.0011
# 2 48.9618 110.4779 59.2815 -0.0020 3.0432 -0.0019
# 3 53.8645 59.2815 118.2693 -0.0005 -0.3704 0.0005
# 4 -0.0003 -0.0020 -0.0005 34.8180 -0.0002 5.0116
# 5 -6.4804 3.0432 -0.3704 -0.0002 27.9250 0.0005
# 6 0.0011 -0.0019 0.0005 5.0116 0.0005 26.2055
#
#
#
# Elastic Compliance Matrix: (Units=1/GPa)
#
#
# Indices 1 2 3 4 5 6 
#
# 1 0.010211 -0.002882 -0.003198 0.000000 0.002641 -0.000001
# 2 -0.002882 0.013253 -0.005337 0.000000 -0.002184 0.000001
# 3 -0.003198 -0.005337 0.012587 0.000000 0.000007 0.000000
# 4 0.000000 0.000000 0.000000 0.029534 0.000000 -0.005648
# 5 0.002641 -0.002184 0.000007 0.000000 0.036661 -0.000001
# 6 -0.000001 0.000001 0.000000 -0.005648 -0.000001 0.039240
#
#
# Mechanical properties :
#
#
# Convention : Reuss Voigt Hill
#
# Bulk Modulus (GPa) = 75.66028 75.91766 75.78897
# Shear Modulus (GPa) = 29.63394 30.91873 30.27633
#
# Velocity S-wave (km/s) = 3.74622 3.82656 3.78660
# Velocity P-wave (km/s) = 7.38536 7.44827 7.41688
#
# Compressibility (1/GPa) = 0.01321697
#
# Stress axis : x y z
#
# Youngs Moduli (GPa) = 97.93181 75.45485 79.44888
#
# Poissons Ratio (x) = 0.21749 0.25404
# Poissons Ratio (y) = 0.28228 0.42402
# Poissons Ratio (z) = 0.31314 0.40270
#
# Static dielectric constant tensor:
#      x y z
#    x 4.124420 0.000010 -0.190870 
#    y 0.000010 4.006440 0.000000 
#    z -0.190870 0.000000 3.557750 
# 
# 
# High freq. dielectric constant tensor:
#      x y z
#    x 1.845060 0.000000 -0.013270 
#    y 0.000000 1.828420 0.000000 
#    z -0.013270 0.000000 1.810670 
# 
# From -- ./inp_files/380608.got.cif
#   From: 2010.06.25/outbox.cif.g09.slc.cpg/sg12_191_cif.got.tgz:380608.got - 2010.06.28 00:19:55.
