data_PCOD8106979
_publ_section_title
;
Structure prediction by ZEFSAII (Michael W. Deem and Ramdas Pophale) SiO2 
 PCOD8106979
Probable space group: C 2/M
;
_chemical_formula_sum "Si O2"
_cell_formula_units_Z 56
_cell_length_a 17.776174
_cell_length_b 8.853956
_cell_length_c 18.493621
_cell_angle_alpha 90.000000
_cell_angle_beta 76.543369
_cell_angle_gamma 90.000000
_cell_volume 2830.791682
_symmetry_space_group_name_H-M "C 2/M"
_symmetry_group_IT_number 12
_symmetry_cell_setting 'monoclinic'
loop_
_space_group_symop_operation_xyz
x,y,z
-x,y,-z
-x,-y,-z
x,-y,z
1/2+x,1/2+y,z
1/2-x,1/2+y,-z
1/2-x,1/2-y,-z
1/2+x,1/2-y,z
loop_
_atom_site_type_symbol
_atom_site_label
_atom_site_fract_x
_atom_site_fract_y
_atom_site_fract_z
Si Si1 0.152295 0.822443 0.719324
Si Si2 0.009927 0.678491 0.279982
Si Si3 0.798092 0.325917 0.147058
Si Si4 0.941658 0.320272 0.573820
Si Si5 0.623452 0.673765 0.144374
Si Si6 0.728137 0.178892 0.429266
Si Si7 0.412704 0.172618 0.995037
O O1 0.070306 0.744129 0.729257
O O2 0.190557 0.778223 0.786206
O O3 0.209238 0.767201 0.643231
O O4 0.140020 0.000000 0.719364
O O5 0.002676 0.500000 0.282556
O O6 0.030357 0.741979 0.354956
O O7 0.077627 0.723801 0.210828
O O8 0.811246 0.500000 0.166112
O O9 0.713639 0.296723 0.134642
O O10 0.858631 0.274905 0.072758
O O11 0.942015 0.500000 0.574063
O O12 0.855688 0.259735 0.576612
O O13 0.000000 0.256886 0.500000
O O14 0.601076 0.500000 0.162343
O O15 0.601881 0.717795 0.068239
O O16 0.750000 0.250000 0.500000
O O17 0.726637 0.000000 0.437713
O O18 0.394268 0.000000 0.976773
O O19 0.500000 0.191314 0.000000
#
# Coordination Sequence:
#
# PCOD8106979 Si02
#       7
#     8   8   8   8   8   8   8
#     4  11  23  38  58  86 119 152 192 242 289 339
#     4  11  22  38  61  84 112 153 195 238 292 348
#     4  10  22  39  59  86 119 155 194 235 283 342
#     4   9  18  34  57  83 110 145 191 235 276 333
#     4  11  23  38  58  86 119 152 191 240 288 338
#     4  10  21  37  57  84 116 150 190 235 285 341
#     4  10  21  38  60  85 114 152 197 238 280 339
#
# _framework density 19.782451999999999
#
# number of rings (size 3 to 8) (size 9 to 14) (size 15 to 20)
#    0.000    1.714    0.000    4.286    0.000    6.571 
#    0.000    1.429    0.000    3.857    0.000    0.000 
#    0.000    0.000    0.000    0.000    0.000    0.000 
#
# Total GULP energy -347360.113573 kJ/mol
# GULP energy per Si atom -12405.718342 kJ/mol
# Density = 1.973743 g / cm^3
# Si number density = 19.782452 Si / 1000 Ang^3
#
#
#
# Elastic Constant Matrix: (Units=GPa)
#
#
# Indices 1 2 3 4 5 6 
#
# 1 92.4678 25.1913 44.0831 0.0000 -4.2502 0.0000
# 2 25.1913 44.8136 31.7160 0.0000 2.1276 0.0000
# 3 44.0831 31.7160 148.6494 0.0000 -4.6139 0.0000
# 4 0.0000 0.0000 0.0000 23.6909 0.0000 9.0501
# 5 -4.2502 2.1276 -4.6139 0.0000 44.4601 0.0000
# 6 0.0000 0.0000 0.0000 9.0501 0.0000 10.7600
#
#
#
# Elastic Compliance Matrix: (Units=1/GPa)
#
#
# Indices 1 2 3 4 5 6 
#
# 1 0.013803 -0.005834 -0.002808 0.000000 0.001307 0.000000
# 2 -0.005834 0.028901 -0.004511 0.000000 -0.002409 0.000000
# 3 -0.002808 -0.004511 0.008548 0.000000 0.000835 0.000000
# 4 0.000000 0.000000 0.000000 0.062193 0.000000 -0.052310
# 5 0.001307 -0.002409 0.000835 0.000000 0.022819 0.000000
# 6 0.000000 0.000000 0.000000 -0.052310 0.000000 0.136933
#
#
# Mechanical properties :
#
#
# Convention : Reuss Voigt Hill
#
# Bulk Modulus (GPa) = 40.08596 54.21243 47.14919
# Shear Modulus (GPa) = 16.24335 28.11156 22.17745
#
# Velocity S-wave (km/s) = 2.86859 3.77375 3.35187
# Velocity P-wave (km/s) = 5.59277 6.81558 6.23423
#
# Compressibility (1/GPa) = 0.02494639
#
# Stress axis : x y z
#
# Youngs Moduli (GPa) = 72.44979 34.60086 116.98131
#
# Poissons Ratio (x) = 0.20185 0.32849
# Poissons Ratio (y) = 0.42265 0.52771
# Poissons Ratio (z) = 0.20344 0.15609
#
# Static dielectric constant tensor:
#      x y z
#    x 3.917450 0.000000 -0.166570 
#    y 0.000000 3.477570 0.000000 
#    z -0.166570 0.000000 3.853520 
# 
# 
# High freq. dielectric constant tensor:
#      x y z
#    x 1.790720 0.000000 -0.003180 
#    y 0.000000 1.755290 0.000000 
#    z -0.003180 0.000000 1.788570 
# 
# From -- ./inp_files/275099.got.cif
#   From: 2010.06.25/outbox.cif.g09.slc.cpg/sg12_138_cif.got.tgz:275099.got - 2010.06.28 00:19:55.
