data_PCOD8106132
_publ_section_title
;
Structure prediction by ZEFSAII (Michael W. Deem and Ramdas Pophale) SiO2 
 PCOD8106132
Probable space group: C 2/M
;
_chemical_formula_sum "Si O2"
_cell_formula_units_Z 56
_cell_length_a 10.134193
_cell_length_b 9.146208
_cell_length_c 32.000632
_cell_angle_alpha 90.000000
_cell_angle_beta 103.884953
_cell_angle_gamma 90.000000
_cell_volume 2879.449150
_symmetry_space_group_name_H-M "C 2/M"
_symmetry_group_IT_number 12
_symmetry_cell_setting 'monoclinic'
loop_
_space_group_symop_operation_xyz
x,y,z
-x,y,-z
-x,-y,-z
x,-y,z
1/2+x,1/2+y,z
1/2-x,1/2+y,-z
1/2-x,1/2-y,-z
1/2+x,1/2-y,z
loop_
_atom_site_type_symbol
_atom_site_label
_atom_site_fract_x
_atom_site_fract_y
_atom_site_fract_z
Si Si1 0.735357 0.828477 0.331309
Si Si2 0.066970 0.328498 0.047911
Si Si3 0.998621 0.329924 0.621197
Si Si4 0.180780 0.829496 0.240860
Si Si5 0.335712 0.829617 0.093679
Si Si6 0.614637 0.828835 0.476709
Si Si7 0.585071 0.169157 0.807795
O O1 0.602156 0.795550 0.348424
O O2 0.716572 0.753216 0.285677
O O3 0.866249 0.764855 0.364381
O O4 0.756462 0.000000 0.326317
O O5 0.092725 0.500000 0.047827
O O6 0.211305 0.253957 0.063951
O O7 0.971707 0.284677 0.079446
O O8 0.000000 0.271692 0.000000
O O9 0.039744 0.500000 0.623402
O O10 0.926330 0.282004 0.573002
O O11 0.302584 0.800100 0.218359
O O12 0.043548 0.769552 0.210594
O O13 0.163099 0.000000 0.249253
O O14 0.353196 0.784282 0.143110
O O15 0.305376 0.000000 0.086546
O O16 0.500000 0.776652 0.500000
O O17 0.750000 0.750000 0.500000
O O18 0.640738 0.000000 0.481743
O O19 0.539117 0.000000 0.804362
#
# Coordination Sequence:
#
# PCOD8106132 Si02
#       7
#     8   8   8   8   8   8   8
#     4  11  23  38  58  83 111 146 185 225 273 326
#     4  10  21  36  55  82 113 144 182 226 270 321
#     4  10  22  39  57  82 115 146 182 228 272 321
#     4  11  23  38  58  83 110 143 183 226 274 327
#     4  10  21  37  57  81 110 145 183 224 272 324
#     4  10  21  37  58  84 113 146 184 226 272 322
#     4  10  22  39  57  81 112 143 181 228 273 323
#
# _framework density 19.448162
#
# number of rings (size 3 to 8) (size 9 to 14) (size 15 to 20)
#    0.000    1.714    0.000    3.857    0.000    8.000 
#    0.000    0.000    0.000    0.000    0.000    0.000 
#    0.000    0.000    0.000    0.000    0.000    0.000 
#
# Total GULP energy -347366.653742 kJ/mol
# GULP energy per Si atom -12405.951919 kJ/mol
# Density = 1.940390 g / cm^3
# Si number density = 19.448162 Si / 1000 Ang^3
#
#
#
# Elastic Constant Matrix: (Units=GPa)
#
#
# Indices 1 2 3 4 5 6 
#
# 1 86.5948 48.5859 25.3421 0.0000 14.9207 0.0000
# 2 48.5859 68.3488 36.6542 0.0000 7.9220 0.0000
# 3 25.3421 36.6542 110.2995 0.0000 -1.5753 0.0000
# 4 0.0000 0.0000 0.0000 34.2107 0.0000 9.9713
# 5 14.9207 7.9220 -1.5753 0.0000 39.1034 0.0000
# 6 0.0000 0.0000 0.0000 9.9713 0.0000 37.6819
#
#
#
# Elastic Compliance Matrix: (Units=1/GPa)
#
#
# Indices 1 2 3 4 5 6 
#
# 1 0.020084 -0.013623 -0.000157 0.000000 -0.004910 0.000000
# 2 -0.013623 0.027642 -0.006065 0.000000 -0.000646 0.000000
# 3 -0.000157 -0.006065 0.011143 0.000000 0.001738 0.000000
# 4 0.000000 0.000000 0.000000 0.031674 0.000000 -0.008381
# 5 -0.004910 -0.000646 0.001738 0.000000 0.027648 0.000000
# 6 0.000000 0.000000 0.000000 -0.008381 0.000000 0.028756
#
#
# Mechanical properties :
#
#
# Convention : Reuss Voigt Hill
#
# Bulk Modulus (GPa) = 52.14432 54.04529 53.09480
# Shear Modulus (GPa) = 25.90284 32.50995 29.20640
#
# Velocity S-wave (km/s) = 3.65347 4.09298 3.87945
# Velocity P-wave (km/s) = 6.68336 7.08424 6.88671
#
# Compressibility (1/GPa) = 0.01917754
#
# Stress axis : x y z
#
# Youngs Moduli (GPa) = 49.79205 36.17641 89.74444
#
# Poissons Ratio (x) = 0.49283 0.01412
# Poissons Ratio (y) = 0.67832 0.54432
# Poissons Ratio (z) = 0.00783 0.21942
#
# Static dielectric constant tensor:
#      x y z
#    x 3.599990 0.000000 -0.087380 
#    y 0.000000 3.614830 0.000000 
#    z -0.087380 0.000000 3.742950 
# 
# 
# High freq. dielectric constant tensor:
#      x y z
#    x 1.770240 0.000000 -0.003330 
#    y 0.000000 1.754680 0.000000 
#    z -0.003330 0.000000 1.778390 
# 
# From -- ./inp_files/357529.got.cif
#   From: 2010.06.25/outbox.cif.g09.slc.cpg/sg12_179_cif.got.tgz:357529.got - 2010.06.28 00:19:55.
