data_PCOD8106238
_publ_section_title
;
Structure prediction by ZEFSAII (Michael W. Deem and Ramdas Pophale) SiO2 
 PCOD8106238
Probable space group: C 2/M
;
_chemical_formula_sum "Si O2"
_cell_formula_units_Z 64
_cell_length_a 28.751123
_cell_length_b 18.871216
_cell_length_c 11.393039
_cell_angle_alpha 90.000000
_cell_angle_beta 150.992240
_cell_angle_gamma 90.000000
_cell_volume 2997.585699
_symmetry_space_group_name_H-M "C 2/M"
_symmetry_group_IT_number 12
_symmetry_cell_setting 'monoclinic'
loop_
_space_group_symop_operation_xyz
x,y,z
-x,y,-z
-x,-y,-z
x,-y,z
1/2+x,1/2+y,z
1/2-x,1/2+y,-z
1/2-x,1/2-y,-z
1/2+x,1/2-y,z
loop_
_atom_site_type_symbol
_atom_site_label
_atom_site_fract_x
_atom_site_fract_y
_atom_site_fract_z
Si Si1 0.953832 0.077826 0.263999
Si Si2 0.713318 0.919442 0.181989
Si Si3 0.072357 0.922731 0.053892
Si Si4 0.647919 0.365827 0.693449
Si Si5 0.806876 0.198723 0.983148
Si Si6 0.551427 0.171477 0.739625
Si Si7 0.312486 0.308932 0.576326
Si Si8 0.104582 0.739203 0.449181
O O1 0.057520 0.094883 0.559989
O O2 0.918459 0.000000 0.222544
O O3 0.984892 0.079768 0.194805
O O4 0.864330 0.129590 0.071706
O O5 0.784874 0.919404 0.228308
O O6 0.748953 0.860856 0.353558
O O7 0.711489 0.000000 0.228297
O O8 0.606884 0.899684 0.900781
O O9 0.146007 0.857494 0.227949
O O10 0.124431 0.000000 0.180073
O O11 0.000000 0.913602 0.000000
O O12 0.589778 0.311253 0.486087
O O13 0.712599 0.316386 0.921498
O O14 0.707529 0.202501 0.696043
O O15 0.869150 0.267980 0.097569
O O16 0.500000 0.161225 0.500000
O O17 0.479207 0.187488 0.689356
O O18 0.250000 0.250000 0.500000
O O19 0.395052 0.265137 0.686093
#
# Coordination Sequence:
#
# PCOD8106238 Si02
#       8
#     8   8   8   8   8   8   8   8
#     4  11  23  36  55  87 124 159 196 250 318 382
#     4  11  25  42  63  92 129 168 210 260 312 373
#     4  10  21  36  56  83 118 154 194 250 314 370
#     4  11  20  36  62  89 124 161 202 252 304 376
#     4  12  21  38  60  90 128 160 209 251 311 368
#     4  12  22  39  66  92 126 166 210 255 305 374
#     4  11  23  40  65  89 120 160 211 266 314 367
#     4  11  22  37  61  94 118 158 208 266 306 360
#
# _framework density 21.350515999999999
#
# number of rings (size 3 to 8) (size 9 to 14) (size 15 to 20)
#    0.000    0.875    5.000    4.500    0.000    2.750 
#    0.000    0.625    0.000    2.250    0.000    0.000 
#    0.000    0.000    0.000    0.000    0.000    0.000 
#
# Total GULP energy -396557.340568 kJ/mol
# GULP energy per Si atom -12392.416893 kJ/mol
# Density = 2.130192 g / cm^3
# Si number density = 21.350516 Si / 1000 Ang^3
#
#
#
# Elastic Constant Matrix: (Units=GPa)
#
#
# Indices 1 2 3 4 5 6 
#
# 1 74.3336 31.5351 16.6415 0.0000 9.0753 0.0000
# 2 31.5351 132.5297 42.0626 0.0000 11.8452 0.0000
# 3 16.6415 42.0626 80.8850 0.0000 14.6084 0.0000
# 4 0.0000 0.0000 0.0000 -93.1847 0.0000 -2.5862
# 5 9.0753 11.8452 14.6084 0.0000 30.6726 0.0000
# 6 0.0000 0.0000 0.0000 -2.5862 0.0000 29.2237
#
#
#
# Elastic Compliance Matrix: (Units=1/GPa)
#
#
# Indices 1 2 3 4 5 6 
#
# 1 0.015335 -0.003061 -0.001047 0.000000 -0.002856 0.000000
# 2 -0.003061 0.009701 -0.004269 0.000000 -0.000807 0.000000
# 3 -0.001047 -0.004269 0.015805 0.000000 -0.005569 0.000000
# 4 0.000000 0.000000 0.000000 -0.010705 0.000000 -0.000947
# 5 -0.002856 -0.000807 -0.005569 0.000000 0.036411 0.000000
# 6 0.000000 0.000000 0.000000 -0.000947 0.000000 0.034135
#
#
# Mechanical properties :
#
#
# Convention : Reuss Voigt Hill
#
# Bulk Modulus (GPa) = 41.51960 52.02519 46.77240
# Shear Modulus (GPa) = 39.85173 6.50961 23.18067
#
# Velocity S-wave (km/s) = 4.32504 1.74801 3.29860
# Velocity P-wave (km/s) = 6.66560 5.33799 6.03839
#
# Compressibility (1/GPa) = 0.02408501
#
# Stress axis : x y z
#
# Youngs Moduli (GPa) = 65.21160 103.08218 63.27297
#
# Poissons Ratio (x) = 0.31555 0.06626
# Poissons Ratio (y) = 0.19962 0.27012
# Poissons Ratio (z) = 0.06829 0.44008
#
# Static dielectric constant tensor:
#      x y z
#    x 4.527160 0.000000 -0.632520 
#    y 0.000000 3.917440 0.000000 
#    z -0.632520 0.000000 5.238920 
# 
# 
# High freq. dielectric constant tensor:
#      x y z
#    x 1.852020 0.000000 -0.009900 
#    y 0.000000 1.836880 0.000000 
#    z -0.009900 0.000000 1.825760 
# 
# From -- ./inp_files/190100.got.cif
#   From: 2010.06.25/outbox.cif.g09.slc.cpg/sg12_96_cif.got.tgz:190100.got - 2010.06.28 00:19:55.
