data_PCOD8106691
_publ_section_title
;
Structure prediction by ZEFSAII (Michael W. Deem and Ramdas Pophale) SiO2 
 PCOD8106691
Probable space group: C 2/M
;
_chemical_formula_sum "Si O2"
_cell_formula_units_Z 40
_cell_length_a 12.391120
_cell_length_b 13.378700
_cell_length_c 14.716876
_cell_angle_alpha 90.000000
_cell_angle_beta 118.979720
_cell_angle_gamma 90.000000
_cell_volume 2134.246315
_symmetry_space_group_name_H-M "C 2/M"
_symmetry_group_IT_number 12
_symmetry_cell_setting 'monoclinic'
loop_
_space_group_symop_operation_xyz
x,y,z
-x,y,-z
-x,-y,-z
x,-y,z
1/2+x,1/2+y,z
1/2-x,1/2+y,-z
1/2-x,1/2-y,-z
1/2+x,1/2-y,z
loop_
_atom_site_type_symbol
_atom_site_label
_atom_site_fract_x
_atom_site_fract_y
_atom_site_fract_z
Si Si1 0.197788 0.384874 0.589742
Si Si2 0.080000 0.225998 0.245109
Si Si3 0.854534 0.115982 0.069267
Si Si4 0.513300 0.884650 0.358105
Si Si5 0.863226 0.282106 0.926099
O O1 0.230272 0.500000 0.617308
O O2 0.324280 0.323793 0.646456
O O3 0.137936 0.367566 0.466708
O O4 0.103144 0.350647 0.629462
O O5 0.015556 0.319767 0.267728
O O6 0.155308 0.263074 0.188032
O O7 0.975421 0.147252 0.174534
O O8 0.734335 0.135578 0.081555
O O9 0.862460 0.000000 0.047018
O O10 0.844633 0.177464 0.971642
O O11 0.501257 0.000000 0.324345
O O12 0.000000 0.325029 0.000000
#
# Coordination Sequence:
#
# PCOD8106691 Si02
#       5
#     8   8   8   8   8
#     4   9  18  33  52  75 103 137 172 206 247 295
#     4  11  19  32  54  79 103 131 169 211 254 294
#     4  10  21  37  54  75 103 132 166 209 253 301
#     4   9  19  34  51  74 105 137 171 207 245 296
#     4   9  21  37  52  75 103 133 168 205 251 304
#
# _framework density 18.741978
#
# number of rings (size 3 to 8) (size 9 to 14) (size 15 to 20)
#    0.000    2.400    0.000    3.600    0.000    5.600 
#    0.000   12.000    0.000    0.000    0.000   12.600 
#    0.000    0.000    0.000    0.000    0.000    0.000 
#
# Total GULP energy -248040.564946 kJ/mol
# GULP energy per Si atom -12402.028247 kJ/mol
# Density = 1.869932 g / cm^3
# Si number density = 18.741978 Si / 1000 Ang^3
#
#
#
# Elastic Constant Matrix: (Units=GPa)
#
#
# Indices 1 2 3 4 5 6 
#
# 1 72.0012 21.9199 10.8771 0.0000 -6.6963 0.0000
# 2 21.9199 81.3549 27.6847 0.0000 -8.2475 0.0000
# 3 10.8771 27.6847 48.3688 0.0000 -9.1328 0.0000
# 4 0.0000 0.0000 0.0000 26.7656 0.0000 3.2266
# 5 -6.6963 -8.2475 -9.1328 0.0000 30.3885 0.0000
# 6 0.0000 0.0000 0.0000 3.2266 0.0000 23.1409
#
#
#
# Elastic Compliance Matrix: (Units=1/GPa)
#
#
# Indices 1 2 3 4 5 6 
#
# 1 0.015324 -0.003574 -0.001003 0.000000 0.002105 0.000000
# 2 -0.003574 0.016173 -0.008241 0.000000 0.001125 0.000000
# 3 -0.001003 -0.008241 0.026666 0.000000 0.005557 0.000000
# 4 0.000000 0.000000 0.000000 0.038000 0.000000 -0.005299
# 5 0.002105 0.001125 0.005557 0.000000 0.035346 0.000000
# 6 0.000000 0.000000 0.000000 -0.005299 0.000000 0.043952
#
#
# Mechanical properties :
#
#
# Convention : Reuss Voigt Hill
#
# Bulk Modulus (GPa) = 30.74307 35.85428 33.29867
# Shear Modulus (GPa) = 23.59154 25.47519 24.53336
#
# Velocity S-wave (km/s) = 3.55174 3.69081 3.62194
# Velocity P-wave (km/s) = 5.76704 6.11022 5.94111
#
# Compressibility (1/GPa) = 0.03252766
#
# Stress axis : x y z
#
# Youngs Moduli (GPa) = 65.25685 61.83064 37.50100
#
# Poissons Ratio (x) = 0.22099 0.03761
# Poissons Ratio (y) = 0.23324 0.30904
# Poissons Ratio (z) = 0.06544 0.50953
#
# Static dielectric constant tensor:
#      x y z
#    x 3.490750 0.000000 0.048010 
#    y 0.000000 3.166920 0.000000 
#    z 0.048010 0.000000 3.337110 
# 
# 
# High freq. dielectric constant tensor:
#      x y z
#    x 1.733650 0.000000 0.005760 
#    y 0.000000 1.711650 0.000000 
#    z 0.005760 0.000000 1.727620 
# 
# From -- ./inp_files/129578.got.cif
#   From: 2010.06.25/outbox.cif.g09.slc.cpg/sg12_65_cif.got.tgz:129578.got - 2010.06.28 00:19:55.
