data_PCOD8106895
_publ_section_title
;
Structure prediction by ZEFSAII (Michael W. Deem and Ramdas Pophale) SiO2 
 PCOD8106895
Probable space group: C 2/M
;
_chemical_formula_sum "Si O2"
_cell_formula_units_Z 40
_cell_length_a 14.448980
_cell_length_b 8.504266
_cell_length_c 22.230269
_cell_angle_alpha 90.000000
_cell_angle_beta 132.616784
_cell_angle_gamma 90.000000
_cell_volume 2010.188681
_symmetry_space_group_name_H-M "C 2/M"
_symmetry_group_IT_number 12
_symmetry_cell_setting 'monoclinic'
loop_
_space_group_symop_operation_xyz
x,y,z
-x,y,-z
-x,-y,-z
x,-y,z
1/2+x,1/2+y,z
1/2-x,1/2+y,-z
1/2-x,1/2-y,-z
1/2+x,1/2-y,z
loop_
_atom_site_type_symbol
_atom_site_label
_atom_site_fract_x
_atom_site_fract_y
_atom_site_fract_z
Si Si1 0.879664 0.815028 0.880503
Si Si2 0.798699 0.681027 0.306568
Si Si3 0.849132 0.314455 0.995748
Si Si4 0.769935 0.680844 0.605140
Si Si5 0.065738 0.818972 0.419681
O O1 0.779751 0.767088 0.786063
O O2 0.822208 0.762803 0.919033
O O3 0.907191 0.000000 0.893255
O O4 0.009373 0.727013 0.921962
O O5 0.838689 0.500000 0.319781
O O6 0.716425 0.711525 0.329862
O O7 0.919848 0.790548 0.366550
O O8 0.833745 0.500000 0.983561
O O9 0.750000 0.250000 0.000000
O O10 0.768693 0.500000 0.624223
O O11 0.890850 0.713036 0.617071
O O12 0.643230 0.728172 0.513433
O O13 0.091712 0.000000 0.415565
#
# Coordination Sequence:
#
# PCOD8106895 Si02
#       5
#     8   8   8   8   8
#     4  10  22  40  59  85 117 146 184 230 275 330
#     4  11  23  37  57  84 115 150 185 229 282 331
#     4  11  22  39  64  88 112 147 184 223 276 332
#     4  10  21  37  57  81 111 149 192 236 281 330
#     4  10  21  37  57  81 111 149 192 236 281 330
#
# _framework density 19.898630000000001
#
# number of rings (size 3 to 8) (size 9 to 14) (size 15 to 20)
#    0.000    1.600    0.000    6.000    0.000    9.600 
#    0.000    0.000    0.000    0.000    0.000    0.000 
#    0.000    0.000    0.000    0.000    0.000    0.000 
#
# Total GULP energy -248105.075198 kJ/mol
# GULP energy per Si atom -12405.253760 kJ/mol
# Density = 1.985334 g / cm^3
# Si number density = 19.898630 Si / 1000 Ang^3
#
#
#
# Elastic Constant Matrix: (Units=GPa)
#
#
# Indices 1 2 3 4 5 6 
#
# 1 104.9059 17.6079 36.8369 0.0000 -17.5911 0.0000
# 2 17.6079 58.1960 33.2762 0.0000 -4.6707 0.0000
# 3 36.8369 33.2762 86.6631 0.0000 -24.2256 0.0000
# 4 0.0000 0.0000 0.0000 29.9591 0.0000 -1.5511
# 5 -17.5911 -4.6707 -24.2256 0.0000 19.0297 0.0000
# 6 0.0000 0.0000 0.0000 -1.5511 0.0000 39.0307
#
#
#
# Elastic Compliance Matrix: (Units=1/GPa)
#
#
# Indices 1 2 3 4 5 6 
#
# 1 0.011902 -0.001695 -0.002249 0.000000 0.007722 0.000000
# 2 -0.001695 0.023141 -0.010891 0.000000 -0.009752 0.000000
# 3 -0.002249 -0.010891 0.023828 0.000000 0.025581 0.000000
# 4 0.000000 0.000000 0.000000 0.033448 0.000000 0.001329
# 5 0.007722 -0.009752 0.025581 0.000000 0.089861 0.000000
# 6 0.000000 0.000000 0.000000 0.001329 0.000000 0.025674
#
#
# Mechanical properties :
#
#
# Convention : Reuss Voigt Hill
#
# Bulk Modulus (GPa) = 34.24698 47.24524 40.74611
# Shear Modulus (GPa) = 20.22192 28.40681 24.31437
#
# Velocity S-wave (km/s) = 3.19132 3.78243 3.49938
# Velocity P-wave (km/s) = 5.55225 6.54753 6.07032
#
# Compressibility (1/GPa) = 0.02919966
#
# Stress axis : x y z
#
# Youngs Moduli (GPa) = 84.02217 43.21353 41.96771
#
# Poissons Ratio (x) = 0.07325 0.09440
# Poissons Ratio (y) = 0.14242 0.45707
# Poissons Ratio (z) = 0.18900 0.47064
#
# Static dielectric constant tensor:
#      x y z
#    x 3.707160 0.000000 -0.119920 
#    y 0.000000 3.625720 0.000000 
#    z -0.119920 0.000000 3.624510 
# 
# 
# High freq. dielectric constant tensor:
#      x y z
#    x 1.779540 0.000000 -0.008670 
#    y 0.000000 1.788680 0.000000 
#    z -0.008670 0.000000 1.771230 
# 
# From -- ./inp_files/308682.got.cif
#   From: 2010.06.25/outbox.cif.g09.slc.cpg/sg12_155_cif.got.tgz:308682.got - 2010.06.28 00:19:55.
