data_PCOD8106486
_publ_section_title
;
Structure prediction by ZEFSAII (Michael W. Deem and Ramdas Pophale) SiO2 
 PCOD8106486
Probable space group: C 2/M
;
_chemical_formula_sum "Si O2"
_cell_formula_units_Z 64
_cell_length_a 18.103589
_cell_length_b 20.598718
_cell_length_c 11.955455
_cell_angle_alpha 90.000000
_cell_angle_beta 48.602369
_cell_angle_gamma 90.000000
_cell_volume 3344.355126
_symmetry_space_group_name_H-M "C 2/M"
_symmetry_group_IT_number 12
_symmetry_cell_setting 'monoclinic'
loop_
_space_group_symop_operation_xyz
x,y,z
-x,y,-z
-x,-y,-z
x,-y,z
1/2+x,1/2+y,z
1/2-x,1/2+y,-z
1/2-x,1/2-y,-z
1/2+x,1/2-y,z
loop_
_atom_site_type_symbol
_atom_site_label
_atom_site_fract_x
_atom_site_fract_y
_atom_site_fract_z
Si Si1 0.867959 0.075796 0.682881
Si Si2 0.355437 0.202933 0.793235
Si Si3 0.924026 0.075023 0.173907
Si Si4 0.748125 0.847114 0.304604
Si Si5 0.401934 0.765761 0.161359
Si Si6 0.558397 0.367687 0.600979
Si Si7 0.774313 0.674177 0.110498
Si Si8 0.424799 0.782244 0.391893
O O1 0.865627 0.090223 0.551146
O O2 0.767515 0.101051 0.839954
O O3 0.951964 0.119298 0.655297
O O4 0.883494 0.000000 0.691367
O O5 0.296534 0.152216 0.775111
O O6 0.315718 0.274395 0.801428
O O7 0.471695 0.198577 0.654655
O O8 0.339465 0.183744 0.936506
O O9 0.807128 0.085294 0.261822
O O10 0.947611 0.113095 0.263966
O O11 0.941293 0.000000 0.180610
O O12 0.000000 0.098069 0.000000
O O13 0.836021 0.797355 0.237703
O O14 0.660237 0.829918 0.477759
O O15 0.343529 0.819209 0.148949
O O16 0.428312 0.793979 0.256012
O O17 0.500000 0.744318 0.000000
O O18 0.594098 0.292917 0.557772
#
# Coordination Sequence:
#
# PCOD8106486 Si02
#       8
#     8   8   8   8   8   8   8   8
#     4  11  23  38  60  87 121 162 199 243 291 356
#     4  10  21  37  58  87 118 155 193 249 300 351
#     4  11  25  42  60  84 121 163 203 248 295 353
#     4  11  24  35  59  89 119 155 200 239 299 361
#     4  11  21  36  56  87 120 153 191 244 306 354
#     4  11  22  38  59  89 122 157 194 240 302 362
#     4  10  21  36  59  85 117 157 199 242 297 353
#     4  12  22  37  61  91 124 155 190 249 305 356
#
# _framework density 19.136724000000001
#
# number of rings (size 3 to 8) (size 9 to 14) (size 15 to 20)
#    0.000    1.125    3.750    4.125    5.250    0.000 
#    0.000    0.000    0.000    2.625    0.000    0.000 
#    0.000    0.000    0.000    0.000    0.000    0.000 
#
# Total GULP energy -396636.942056 kJ/mol
# GULP energy per Si atom -12394.904439 kJ/mol
# Density = 1.909317 g / cm^3
# Si number density = 19.136724 Si / 1000 Ang^3
#
#
#
# Elastic Constant Matrix: (Units=GPa)
#
#
# Indices 1 2 3 4 5 6 
#
# 1 91.0772 16.7055 45.1396 0.0000 3.3300 0.0000
# 2 16.7055 46.7663 25.3621 0.0000 1.1645 0.0000
# 3 45.1396 25.3621 96.0377 0.0000 -12.1544 0.0000
# 4 0.0000 0.0000 0.0000 15.9523 0.0000 -5.6144
# 5 3.3300 1.1645 -12.1544 0.0000 39.2850 0.0000
# 6 0.0000 0.0000 0.0000 -5.6144 0.0000 18.3829
#
#
#
# Elastic Compliance Matrix: (Units=1/GPa)
#
#
# Indices 1 2 3 4 5 6 
#
# 1 0.014850 -0.001403 -0.007039 0.000000 -0.003395 0.000000
# 2 -0.001403 0.025410 -0.006381 0.000000 -0.002609 0.000000
# 3 -0.007039 -0.006381 0.016137 0.000000 0.005779 0.000000
# 4 0.000000 0.000000 0.000000 0.070237 0.000000 0.021451
# 5 -0.003395 -0.002609 0.005779 0.000000 0.027608 0.000000
# 6 0.000000 0.000000 0.000000 0.021451 0.000000 0.060950
#
#
# Mechanical properties :
#
#
# Convention : Reuss Voigt Hill
#
# Bulk Modulus (GPa) = 37.38130 45.36619 41.37374
# Shear Modulus (GPa) = 19.70413 24.50230 22.10321
#
# Velocity S-wave (km/s) = 3.21230 3.58212 3.40224
# Velocity P-wave (km/s) = 5.77362 6.39270 6.09103
#
# Compressibility (1/GPa) = 0.02675134
#
# Stress axis : x y z
#
# Youngs Moduli (GPa) = 67.34142 39.35535 61.96762
#
# Poissons Ratio (x) = 0.05520 0.43618
# Poissons Ratio (y) = 0.09446 0.39542
# Poissons Ratio (z) = 0.47401 0.25113
#
# Static dielectric constant tensor:
#      x y z
#    x 3.725800 0.000000 0.062880 
#    y 0.000000 3.300220 0.000000 
#    z 0.062880 0.000000 3.693370 
# 
# 
# High freq. dielectric constant tensor:
#      x y z
#    x 1.756080 0.000000 0.009520 
#    y 0.000000 1.700070 0.000000 
#    z 0.009520 0.000000 1.756160 
# 
# From -- ./inp_files/159534.got.cif
#   From: 2010.06.25/outbox.cif.g09.slc.cpg/sg12_80_cif.got.tgz:159534.got - 2010.06.28 00:19:55.
