data_PCOD8106180
_publ_section_title
;
Structure prediction by ZEFSAII (Michael W. Deem and Ramdas Pophale) SiO2 
 PCOD8106180
Probable space group: C 2/M
;
_chemical_formula_sum "Si O2"
_cell_formula_units_Z 64
_cell_length_a 17.700720
_cell_length_b 11.691122
_cell_length_c 20.218308
_cell_angle_alpha 90.000000
_cell_angle_beta 126.387743
_cell_angle_gamma 90.000000
_cell_volume 3368.208712
_symmetry_space_group_name_H-M "C 2/M"
_symmetry_group_IT_number 12
_symmetry_cell_setting 'monoclinic'
loop_
_space_group_symop_operation_xyz
x,y,z
-x,y,-z
-x,-y,-z
x,-y,z
1/2+x,1/2+y,z
1/2-x,1/2+y,-z
1/2-x,1/2-y,-z
1/2+x,1/2-y,z
loop_
_atom_site_type_symbol
_atom_site_label
_atom_site_fract_x
_atom_site_fract_y
_atom_site_fract_z
Si Si1 0.397569 0.625713 0.453845
Si Si2 0.213165 0.128788 0.834172
Si Si3 0.121709 0.127291 0.272368
Si Si4 0.694344 0.132530 0.989388
Si Si5 0.850629 0.800832 0.565432
Si Si6 0.298684 0.773875 0.299690
Si Si7 0.555047 0.774035 0.820595
Si Si8 0.983436 0.627433 0.335797
O O1 0.500000 0.684384 0.500000
O O2 0.401882 0.500000 0.423785
O O3 0.369836 0.611263 0.516122
O O4 0.319213 0.695618 0.373757
O O5 0.235102 0.199788 0.780251
O O6 0.124778 0.176250 0.829689
O O7 0.188172 0.000000 0.799776
O O8 0.304705 0.132100 0.929997
O O9 0.144793 0.137834 0.361932
O O10 0.213982 0.144059 0.275941
O O11 0.042081 0.215652 0.207909
O O12 0.084678 0.000000 0.239744
O O13 0.593190 0.154096 0.903419
O O14 0.728983 0.000000 0.985916
O O15 0.750000 0.250000 0.000000
O O16 0.750000 0.750000 0.500000
O O17 0.929885 0.704968 0.598955
O O18 0.390755 0.844801 0.329549
O O19 0.538119 0.863634 0.753179
O O20 0.014478 0.500000 0.368960
#
# Coordination Sequence:
#
# PCOD8106180 Si02
#       8
#     8   8   8   8   8   8   8   8
#     4  11  22  38  58  78 106 144 185 230 279 331
#     4   9  18  34  59  86 112 147 189 234 285 341
#     4  11  23  38  58  81 113 152 190 238 293 344
#     4   9  17  33  59  91 122 154 195 244 295 353
#     4  11  22  40  55  81 112 139 187 235 283 344
#     4  11  21  38  55  80 113 145 190 233 278 344
#     4   9  19  35  57  84 117 145 189 234 284 343
#     4  10  21  36  56  79 109 146 182 226 280 335
#
# _framework density 19.001197999999999
#
# number of rings (size 3 to 8) (size 9 to 14) (size 15 to 20)
#    0.000    1.875    2.500    1.875    0.000    1.500 
#    0.000    3.750    0.000    2.250    0.000    0.000 
#    0.000    0.000    0.000    0.000    0.000    0.000 
#
# Total GULP energy -396488.912133 kJ/mol
# GULP energy per Si atom -12390.278504 kJ/mol
# Density = 1.895795 g / cm^3
# Si number density = 19.001198 Si / 1000 Ang^3
#
#
#
# Elastic Constant Matrix: (Units=GPa)
#
#
# Indices 1 2 3 4 5 6 
#
# 1 101.5038 27.8093 29.6549 0.0000 4.7814 0.0000
# 2 27.8093 111.8250 28.1029 0.0000 -2.5820 0.0000
# 3 29.6549 28.1029 101.8733 0.0000 -0.1262 0.0000
# 4 0.0000 0.0000 0.0000 16.3649 0.0000 -1.7492
# 5 4.7814 -2.5820 -0.1262 0.0000 23.7037 0.0000
# 6 0.0000 0.0000 0.0000 -1.7492 0.0000 13.6656
#
#
#
# Elastic Compliance Matrix: (Units=1/GPa)
#
#
# Indices 1 2 3 4 5 6 
#
# 1 0.011366 -0.002206 -0.002703 0.000000 -0.002547 0.000000
# 2 -0.002206 0.010062 -0.002132 0.000000 0.001530 0.000000
# 3 -0.002703 -0.002132 0.011192 0.000000 0.000373 0.000000
# 4 0.000000 0.000000 0.000000 0.061954 0.000000 0.007930
# 5 -0.002547 0.001530 0.000373 0.000000 0.042870 0.000000
# 6 0.000000 0.000000 0.000000 0.007930 0.000000 0.074191
#
#
# Mechanical properties :
#
#
# Convention : Reuss Voigt Hill
#
# Bulk Modulus (GPa) = 53.94373 54.03738 53.99055
# Shear Modulus (GPa) = 21.56136 26.05584 23.80860
#
# Velocity S-wave (km/s) = 3.37224 3.70709 3.54362
# Velocity P-wave (km/s) = 6.60409 6.84281 6.72451
#
# Compressibility (1/GPa) = 0.01853784
#
# Stress axis : x y z
#
# Youngs Moduli (GPa) = 87.98178 99.38186 89.35334
#
# Poissons Ratio (x) = 0.21924 0.24154
# Poissons Ratio (y) = 0.19409 0.19048
# Poissons Ratio (z) = 0.23783 0.21185
#
# Static dielectric constant tensor:
#      x y z
#    x 3.187620 0.000000 0.058580 
#    y 0.000000 3.484640 0.000000 
#    z 0.058580 0.000000 3.686180 
# 
# 
# High freq. dielectric constant tensor:
#      x y z
#    x 1.712700 0.000000 -0.001950 
#    y 0.000000 1.744690 0.000000 
#    z -0.001950 0.000000 1.748620 
# 
# From -- ./inp_files/315742.got.cif
#   From: 2010.06.25/outbox.cif.g09.slc.cpg/sg12_158_cif.got.tgz:315742.got - 2010.06.28 00:19:55.
