data_PCOD8106310
_publ_section_title
;
Structure prediction by ZEFSAII (Michael W. Deem and Ramdas Pophale) SiO2 
 PCOD8106310
Probable space group: C 2/M
;
_chemical_formula_sum "Si O2"
_cell_formula_units_Z 56
_cell_length_a 21.801250
_cell_length_b 14.452015
_cell_length_c 9.489890
_cell_angle_alpha 90.000000
_cell_angle_beta 63.585117
_cell_angle_gamma 90.000000
_cell_volume 2677.831434
_symmetry_space_group_name_H-M "C 2/M"
_symmetry_group_IT_number 12
_symmetry_cell_setting 'monoclinic'
loop_
_space_group_symop_operation_xyz
x,y,z
-x,y,-z
-x,-y,-z
x,-y,z
1/2+x,1/2+y,z
1/2-x,1/2+y,-z
1/2-x,1/2-y,-z
1/2+x,1/2-y,z
loop_
_atom_site_type_symbol
_atom_site_label
_atom_site_fract_x
_atom_site_fract_y
_atom_site_fract_z
Si Si1 0.270719 0.351615 0.323989
Si Si2 0.918623 0.389343 0.695359
Si Si3 0.264179 0.653594 0.732900
Si Si4 0.733371 0.895257 0.059817
Si Si5 0.156725 0.597020 0.650332
Si Si6 0.385123 0.395089 0.423893
Si Si7 0.950924 0.292782 0.369481
O O1 0.247738 0.245324 0.347382
O O2 0.277991 0.385630 0.155424
O O3 0.210962 0.404424 0.466379
O O4 0.343148 0.370421 0.325174
O O5 0.933451 0.500000 0.676366
O O6 0.844512 0.365797 0.831383
O O7 0.922766 0.345058 0.536599
O O8 0.972854 0.331963 0.736808
O O9 0.197932 0.594062 0.755930
O O10 0.335622 0.609322 0.610772
O O11 0.264086 0.668050 0.901900
O O12 0.737724 0.000000 0.000679
O O13 0.116206 0.500000 0.680707
O O14 0.100700 0.678390 0.703004
O O15 0.415177 0.500000 0.382991
O O16 0.446607 0.319669 0.383506
#
# Coordination Sequence:
#
# PCOD8106310 Si02
#       7
#     8   8   8   8   8   8   8
#     4  11  19  34  54  80 113 151 186 221 271 337
#     4  10  21  36  57  84 113 147 188 232 275 332
#     4  11  20  34  51  83 119 147 172 225 284 337
#     4  11  21  34  52  82 116 147 181 221 280 341
#     4  11  18  31  54  79 109 143 179 224 272 321
#     4  11  21  36  57  85 115 145 185 231 277 330
#     4  11  19  35  56  81 110 141 194 231 269 317
#
# _framework density 20.912444000000001
#
# number of rings (size 3 to 8) (size 9 to 14) (size 15 to 20)
#    0.000    1.143    4.286    6.429    0.000    0.000 
#    0.000    2.143    0.000    2.571    0.000    4.000 
#    0.000    0.000    0.000    0.000    0.000    0.000 
#
# Total GULP energy -346998.158531 kJ/mol
# GULP energy per Si atom -12392.791376 kJ/mol
# Density = 2.086485 g / cm^3
# Si number density = 20.912444 Si / 1000 Ang^3
#
#
#
# Elastic Constant Matrix: (Units=GPa)
#
#
# Indices 1 2 3 4 5 6 
#
# 1 72.8556 29.1440 23.5943 0.0000 5.8184 0.0000
# 2 29.1440 143.2945 5.2542 0.0000 -3.6342 0.0000
# 3 23.5943 5.2542 94.5279 0.0000 19.7642 0.0000
# 4 0.0000 0.0000 0.0000 15.3780 0.0000 1.1381
# 5 5.8184 -3.6342 19.7642 0.0000 20.9382 0.0000
# 6 0.0000 0.0000 0.0000 1.1381 0.0000 17.2100
#
#
#
# Elastic Compliance Matrix: (Units=1/GPa)
#
#
# Indices 1 2 3 4 5 6 
#
# 1 0.016299 -0.003231 -0.003519 0.000000 -0.001768 0.000000
# 2 -0.003231 0.007699 -0.000110 0.000000 0.002338 0.000000
# 3 -0.003519 -0.000110 0.014032 0.000000 -0.012287 0.000000
# 4 0.000000 0.000000 0.000000 0.065348 0.000000 -0.004321
# 5 -0.001768 0.002338 -0.012287 0.000000 0.060255 0.000000
# 6 0.000000 0.000000 0.000000 -0.004321 0.000000 0.058392
#
#
# Mechanical properties :
#
#
# Convention : Reuss Voigt Hill
#
# Bulk Modulus (GPa) = 41.13520 47.40698 44.27109
# Shear Modulus (GPa) = 20.50454 27.55094 24.02774
#
# Velocity S-wave (km/s) = 3.13468 3.63360 3.39332
# Velocity P-wave (km/s) = 5.72840 6.35000 6.04719
#
# Compressibility (1/GPa) = 0.02431008
#
# Stress axis : x y z
#
# Youngs Moduli (GPa) = 61.35345 129.88558 71.26395
#
# Poissons Ratio (x) = 0.41963 0.25077
# Poissons Ratio (y) = 0.19822 0.00787
# Poissons Ratio (z) = 0.21590 0.01434
#
# Static dielectric constant tensor:
#      x y z
#    x 3.817080 0.000000 0.220980 
#    y 0.000000 4.045200 0.000000 
#    z 0.220980 0.000000 3.383480 
# 
# 
# High freq. dielectric constant tensor:
#      x y z
#    x 1.796730 0.000000 0.027260 
#    y 0.000000 1.838240 0.000000 
#    z 0.027260 0.000000 1.780840 
# 
# From -- ./inp_files/96303.got.cif
#   From: 2010.06.25/outbox.cif.g09.slc.cpg/sg12_49_cif.got.tgz:96303.got - 2010.06.28 00:19:55.
