data_PCOD8106871
_publ_section_title
;
Structure prediction by ZEFSAII (Michael W. Deem and Ramdas Pophale) SiO2 
 PCOD8106871
Probable space group: C 2/M
;
_chemical_formula_sum "Si O2"
_cell_formula_units_Z 64
_cell_length_a 14.683288
_cell_length_b 8.919511
_cell_length_c 27.146897
_cell_angle_alpha 90.000000
_cell_angle_beta 105.964787
_cell_angle_gamma 90.000000
_cell_volume 3418.240703
_symmetry_space_group_name_H-M "C 2/M"
_symmetry_group_IT_number 12
_symmetry_cell_setting 'monoclinic'
loop_
_space_group_symop_operation_xyz
x,y,z
-x,y,-z
-x,-y,-z
x,-y,z
1/2+x,1/2+y,z
1/2-x,1/2+y,-z
1/2-x,1/2-y,-z
1/2+x,1/2-y,z
loop_
_atom_site_type_symbol
_atom_site_label
_atom_site_fract_x
_atom_site_fract_y
_atom_site_fract_z
Si Si1 0.810893 0.174267 0.260931
Si Si2 0.802503 0.671911 0.362039
Si Si3 0.996465 0.324170 0.443469
Si Si4 0.500915 0.822560 0.270417
Si Si5 0.609326 0.175319 0.192190
Si Si6 0.349421 0.822672 0.000293
Si Si7 0.602783 0.327391 0.376403
Si Si8 0.459612 0.821857 0.921490
O O1 0.788905 0.220875 0.313509
O O2 0.720412 0.207200 0.213461
O O3 0.892643 0.273607 0.249182
O O4 0.838634 0.000000 0.264567
O O5 0.809511 0.500000 0.344691
O O6 0.895099 0.719175 0.405813
O O7 0.714214 0.695319 0.385088
O O8 0.016693 0.500000 0.443182
O O9 0.000000 0.267639 0.500000
O O10 0.078650 0.238835 0.426186
O O11 0.555863 0.754781 0.231468
O O12 0.542317 0.758361 0.326707
O O13 0.509457 0.000000 0.274433
O O14 0.570816 0.247911 0.135721
O O15 0.587472 0.000000 0.188316
O O16 0.432462 0.772397 0.050612
O O17 0.335532 0.000000 0.999199
O O18 0.250000 0.750000 0.000000
O O19 0.384539 0.766793 0.951660
O O20 0.573124 0.500000 0.369487
O O21 0.454906 0.000000 0.920081
#
# Coordination Sequence:
#
# PCOD8106871 Si02
#       8
#     8   8   8   8   8   8   8   8
#     4  11  21  34  54  81 106 140 183 222 265 322
#     4  10  21  37  57  80 110 143 175 219 268 317
#     4  10  22  40  60  82 110 146 183 221 271 327
#     4  11  21  35  54  78 106 143 181 220 271 325
#     4   9  19  34  53  77 110 144 183 223 267 326
#     4   9  17  31  56  80 104 141 186 226 272 322
#     4  11  22  36  57  83 109 140 180 225 270 318
#     4   8  16  33  52  75 107 147 183 219 267 330
#
# _framework density 18.723082999999999
#
# number of rings (size 3 to 8) (size 9 to 14) (size 15 to 20)
#    0.000    2.125    2.500    1.875    0.000    2.250 
#    0.000    1.250    0.000    4.500    0.000    0.000 
#    0.000    0.000    0.000    0.000    0.000    0.000 
#
# Total GULP energy -396811.877474 kJ/mol
# GULP energy per Si atom -12400.371171 kJ/mol
# Density = 1.868047 g / cm^3
# Si number density = 18.723083 Si / 1000 Ang^3
#
#
#
# Elastic Constant Matrix: (Units=GPa)
#
#
# Indices 1 2 3 4 5 6 
#
# 1 96.4500 20.2067 22.9790 0.0000 -8.3264 0.0000
# 2 20.2067 44.8672 20.1660 0.0000 -2.6458 0.0000
# 3 22.9790 20.1660 104.0408 0.0000 -0.8893 0.0000
# 4 0.0000 0.0000 0.0000 14.8785 0.0000 -0.8441
# 5 -8.3264 -2.6458 -0.8893 0.0000 26.7557 0.0000
# 6 0.0000 0.0000 0.0000 -0.8441 0.0000 30.8293
#
#
#
# Elastic Compliance Matrix: (Units=1/GPa)
#
#
# Indices 1 2 3 4 5 6 
#
# 1 0.011993 -0.004417 -0.001765 0.000000 0.003237 0.000000
# 2 -0.004417 0.026179 -0.004089 0.000000 0.001078 0.000000
# 3 -0.001765 -0.004089 0.010789 0.000000 -0.000595 0.000000
# 4 0.000000 0.000000 0.000000 0.067316 0.000000 0.001843
# 5 0.003237 0.001078 -0.000595 0.000000 0.038469 0.000000
# 6 0.000000 0.000000 0.000000 0.001843 0.000000 0.032487
#
#
# Mechanical properties :
#
#
# Convention : Reuss Voigt Hill
#
# Bulk Modulus (GPa) = 35.18894 41.34014 38.26454
# Shear Modulus (GPa) = 23.01499 26.62645 24.82072
#
# Velocity S-wave (km/s) = 3.50984 3.77519 3.64493
# Velocity P-wave (km/s) = 5.93806 6.41330 6.18025
#
# Compressibility (1/GPa) = 0.02841802
#
# Stress axis : x y z
#
# Youngs Moduli (GPa) = 83.37877 38.19868 92.68691
#
# Poissons Ratio (x) = 0.16873 0.16360
# Poissons Ratio (y) = 0.36830 0.37903
# Poissons Ratio (z) = 0.14717 0.15621
#
# Static dielectric constant tensor:
#      x y z
#    x 3.621720 0.000000 -0.063000 
#    y 0.000000 3.206000 0.000000 
#    z -0.063000 0.000000 3.675850 
# 
# 
# High freq. dielectric constant tensor:
#      x y z
#    x 1.739950 0.000000 -0.001810 
#    y 0.000000 1.702810 0.000000 
#    z -0.001810 0.000000 1.726280 
# 
# From -- ./inp_files/359889.got.cif
#   From: 2010.06.25/outbox.cif.g09.slc.cpg/sg12_180_cif.got.tgz:359889.got - 2010.06.28 00:19:55.
