data_PCOD8106733
_publ_section_title
;
Structure prediction by ZEFSAII (Michael W. Deem and Ramdas Pophale) SiO2 
 PCOD8106733
Probable space group: C 2/M
;
_chemical_formula_sum "Si O2"
_cell_formula_units_Z 48
_cell_length_a 19.838530
_cell_length_b 9.011220
_cell_length_c 21.071588
_cell_angle_alpha 90.000000
_cell_angle_beta 44.662604
_cell_angle_gamma 90.000000
_cell_volume 2647.907520
_symmetry_space_group_name_H-M "C 2/M"
_symmetry_group_IT_number 12
_symmetry_cell_setting 'monoclinic'
loop_
_space_group_symop_operation_xyz
x,y,z
-x,y,-z
-x,-y,-z
x,-y,z
1/2+x,1/2+y,z
1/2-x,1/2+y,-z
1/2-x,1/2-y,-z
1/2+x,1/2-y,z
loop_
_atom_site_type_symbol
_atom_site_label
_atom_site_fract_x
_atom_site_fract_y
_atom_site_fract_z
Si Si1 0.011166 0.324690 0.227497
Si Si2 0.998220 0.169317 0.897569
Si Si3 0.490376 0.827852 0.578309
Si Si4 0.342941 0.669727 0.106693
Si Si5 0.350071 0.169960 0.430011
Si Si6 0.644824 0.675096 0.234518
O O1 0.025205 0.500000 0.225393
O O2 0.102098 0.247022 0.199306
O O3 0.004251 0.281150 0.159187
O O4 0.914540 0.271841 0.328180
O O5 0.093335 0.202338 0.874123
O O6 0.999046 0.000000 0.872457
O O7 0.904814 0.198594 0.002389
O O8 0.500000 0.772113 0.500000
O O9 0.592723 0.802474 0.543092
O O10 0.408456 0.733087 0.667098
O O11 0.459786 0.000000 0.602404
O O12 0.306094 0.500000 0.132507
O O13 0.255770 0.783177 0.165284
O O14 0.250000 0.250000 0.500000
O O15 0.325731 0.000000 0.435884
O O16 0.633651 0.500000 0.237674
#
# Coordination Sequence:
#
# PCOD8106733 Si02
#       6
#     8   8   8   8   8   8
#     4  10  21  37  55  77 108 142 176 218 267 315
#     4   9  19  36  58  81 104 137 179 218 261 315
#     4   9  19  37  57  76 102 138 177 216 263 314
#     4   9  19  37  57  78 108 141 174 216 265 317
#     4   9  19  34  52  75 102 134 170 209 256 308
#     4  11  22  35  54  80 108 140 180 221 261 310
#
# _framework density 18.127521000000002
#
# number of rings (size 3 to 8) (size 9 to 14) (size 15 to 20)
#    0.000    2.500    0.000    4.000    0.000    7.000 
#    0.000    6.667    0.000    0.000    0.000    0.000 
#    0.000    0.000    0.000    0.000    0.000    0.000 
#
# Total GULP energy -297644.895585 kJ/mol
# GULP energy per Si atom -12401.870649 kJ/mol
# Density = 1.808626 g / cm^3
# Si number density = 18.127521 Si / 1000 Ang^3
#
#
#
# Elastic Constant Matrix: (Units=GPa)
#
#
# Indices 1 2 3 4 5 6 
#
# 1 98.3712 49.7402 69.0879 0.0000 4.6049 0.0000
# 2 49.7402 90.0048 48.7217 0.0001 -2.5987 0.0000
# 3 69.0879 48.7217 88.9314 0.0000 2.7228 0.0000
# 4 0.0000 0.0001 0.0000 34.2474 0.0000 -0.5589
# 5 4.6049 -2.5987 2.7228 0.0000 41.3363 0.0000
# 6 0.0000 0.0000 0.0000 -0.5589 0.0000 34.6204
#
#
#
# Elastic Compliance Matrix: (Units=1/GPa)
#
#
# Indices 1 2 3 4 5 6 
#
# 1 0.023693 -0.004571 -0.015844 0.000000 -0.001883 0.000000
# 2 -0.004571 0.016778 -0.005700 0.000000 0.001940 0.000000
# 3 -0.015844 -0.005700 0.026687 0.000000 -0.000351 0.000000
# 4 0.000000 0.000000 0.000000 0.029207 0.000000 0.000471
# 5 -0.001883 0.001940 -0.000351 0.000000 0.024547 0.000000
# 6 0.000000 0.000000 0.000000 0.000471 0.000000 0.028892
#
#
# Mechanical properties :
#
#
# Convention : Reuss Voigt Hill
#
# Bulk Modulus (GPa) = 66.99264 68.04524 67.51894
# Shear Modulus (GPa) = 24.15331 29.35801 26.75566
#
# Velocity S-wave (km/s) = 3.65418 4.02870 3.84600
# Velocity P-wave (km/s) = 7.40544 7.69799 7.55313
#
# Compressibility (1/GPa) = 0.01492701
#
# Stress axis : x y z
#
# Youngs Moduli (GPa) = 42.20726 59.60024 37.47123
#
# Poissons Ratio (x) = 0.27244 0.59370
# Poissons Ratio (y) = 0.19293 0.21360
# Poissons Ratio (z) = 0.66873 0.33975
#
# Static dielectric constant tensor:
#      x y z
#    x 3.350670 0.000000 0.081570 
#    y 0.000000 3.250090 0.000000 
#    z 0.081570 0.000000 3.376740 
# 
# 
# High freq. dielectric constant tensor:
#      x y z
#    x 1.705580 0.000000 0.001090 
#    y 0.000000 1.698930 0.000000 
#    z 0.001090 0.000000 1.703470 
# 
# From -- ./inp_files/229884.got.cif
#   From: 2010.06.25/outbox.cif.g09.slc.cpg/sg12_115_cif.got.tgz:229884.got - 2010.06.28 00:19:55.
