data_PCOD8106951
_publ_section_title
;
Structure prediction by ZEFSAII (Michael W. Deem and Ramdas Pophale) SiO2 
 PCOD8106951
Probable space group: C 2/M
;
_chemical_formula_sum "Si O2"
_cell_formula_units_Z 64
_cell_length_a 15.373001
_cell_length_b 8.708712
_cell_length_c 32.985523
_cell_angle_alpha 90.000000
_cell_angle_beta 133.464219
_cell_angle_gamma 90.000000
_cell_volume 3205.201801
_symmetry_space_group_name_H-M "C 2/M"
_symmetry_group_IT_number 12
_symmetry_cell_setting 'monoclinic'
loop_
_space_group_symop_operation_xyz
x,y,z
-x,y,-z
-x,-y,-z
x,-y,z
1/2+x,1/2+y,z
1/2-x,1/2+y,-z
1/2-x,1/2-y,-z
1/2+x,1/2-y,z
loop_
_atom_site_type_symbol
_atom_site_label
_atom_site_fract_x
_atom_site_fract_y
_atom_site_fract_z
Si Si1 0.099516 0.823830 0.127558
Si Si2 0.289211 0.180312 0.759823
Si Si3 0.055237 0.182103 0.639279
Si Si4 0.848491 0.680106 0.060490
Si Si5 0.535235 0.322302 0.246050
Si Si6 0.404276 0.318345 0.437441
Si Si7 0.848946 0.178269 0.631146
Si Si8 0.687602 0.177912 0.859605
O O1 0.185491 0.773419 0.191533
O O2 0.174697 0.800466 0.110261
O O3 0.980061 0.723696 0.087070
O O4 0.061779 0.000000 0.121508
O O5 0.164669 0.243565 0.701633
O O6 0.393177 0.211535 0.760927
O O7 0.285171 0.000000 0.768417
O O8 0.066072 0.251538 0.597459
O O9 0.929289 0.231977 0.618685
O O10 0.065596 0.000000 0.640992
O O11 0.833737 0.500000 0.054363
O O12 0.826852 0.739912 0.099247
O O13 0.750000 0.750000 0.000000
O O14 0.557026 0.500000 0.241926
O O15 0.574848 0.286870 0.304362
O O16 0.395869 0.279649 0.196621
O O17 0.500000 0.250139 0.500000
O O18 0.414388 0.500000 0.439143
O O19 0.271773 0.274981 0.408978
O O20 0.815301 0.000000 0.617422
O O21 0.649321 0.000000 0.844027
#
# Coordination Sequence:
#
# PCOD8106951 Si02
#       8
#     8   8   8   8   8   8   8   8
#     4  11  23  40  62  91 122 154 194 244 292 344
#     4  11  20  35  60  86 118 158 191 229 294 357
#     4   9  19  36  57  81 114 153 187 230 290 348
#     4  11  24  43  64  87 118 159 201 245 292 342
#     4  11  21  34  58  89 119 151 192 240 289 347
#     4  10  21  38  58  80 109 149 196 240 285 342
#     4  10  21  37  57  83 115 149 188 235 289 344
#     4  10  23  41  62  88 122 159 193 235 295 351
#
# _framework density 19.967541000000001
#
# number of rings (size 3 to 8) (size 9 to 14) (size 15 to 20)
#    0.000    1.625    2.500    2.250    0.000    4.250 
#    0.000    4.375    0.000    0.000    0.000    0.000 
#    0.000    0.000    0.000    0.000    0.000    0.000 
#
# Total GULP energy -396906.725353 kJ/mol
# GULP energy per Si atom -12403.335167 kJ/mol
# Density = 1.992209 g / cm^3
# Si number density = 19.967541 Si / 1000 Ang^3
#
#
#
# Elastic Constant Matrix: (Units=GPa)
#
#
# Indices 1 2 3 4 5 6 
#
# 1 129.6271 13.7184 52.3313 0.0000 8.1247 0.0000
# 2 13.7184 31.0847 23.0669 0.0000 1.1333 0.0000
# 3 52.3313 23.0669 138.0848 0.0000 17.4864 0.0000
# 4 0.0000 0.0000 0.0000 25.7367 0.0000 4.8026
# 5 8.1247 1.1333 17.4864 0.0000 16.6509 0.0000
# 6 0.0000 0.0000 0.0000 4.8026 0.0000 30.9859
#
#
#
# Elastic Compliance Matrix: (Units=1/GPa)
#
#
# Indices 1 2 3 4 5 6 
#
# 1 0.009204 -0.001759 -0.003046 0.000000 -0.001173 0.000000
# 2 -0.001759 0.037359 -0.006183 0.000000 0.004809 0.000000
# 3 -0.003046 -0.006183 0.010597 0.000000 -0.009222 0.000000
# 4 0.000000 0.000000 0.000000 0.040012 0.000000 -0.006202
# 5 -0.001173 0.004809 -0.009222 0.000000 0.069986 0.000000
# 6 0.000000 0.000000 0.000000 -0.006202 0.000000 0.033234
#
#
# Mechanical properties :
#
#
# Convention : Reuss Voigt Hill
#
# Bulk Modulus (GPa) = 28.42179 53.00332 40.71255
# Shear Modulus (GPa) = 21.35878 28.65337 25.00607
#
# Velocity S-wave (km/s) = 3.27414 3.79225 3.54268
# Velocity P-wave (km/s) = 5.34399 6.76588 6.09653
#
# Compressibility (1/GPa) = 0.03518427
#
# Stress axis : x y z
#
# Youngs Moduli (GPa) = 108.65262 26.76697 94.36773
#
# Poissons Ratio (x) = 0.04708 0.28741
# Poissons Ratio (y) = 0.19112 0.58350
# Poissons Ratio (z) = 0.33092 0.16551
#
# Static dielectric constant tensor:
#      x y z
#    x 3.901930 0.000000 -0.155550 
#    y 0.000000 3.447910 0.000000 
#    z -0.155550 0.000000 3.761620 
# 
# 
# High freq. dielectric constant tensor:
#      x y z
#    x 1.791890 0.000000 0.000070 
#    y 0.000000 1.763760 0.000000 
#    z 0.000070 0.000000 1.777620 
# 
# From -- ./inp_files/360001.got.cif
#   From: 2010.06.25/outbox.cif.g09.slc.cpg/sg12_181_cif.got.tgz:360001.got - 2010.06.28 00:19:55.
