data_PCOD8106111
_publ_section_title
;
Structure prediction by ZEFSAII (Michael W. Deem and Ramdas Pophale) SiO2 
 PCOD8106111
Probable space group: C 2/M
;
_chemical_formula_sum "Si O2"
_cell_formula_units_Z 56
_cell_length_a 25.570901
_cell_length_b 9.327371
_cell_length_c 19.037867
_cell_angle_alpha 90.000000
_cell_angle_beta 140.936260
_cell_angle_gamma 90.000000
_cell_volume 2861.484026
_symmetry_space_group_name_H-M "C 2/M"
_symmetry_group_IT_number 12
_symmetry_cell_setting 'monoclinic'
loop_
_space_group_symop_operation_xyz
x,y,z
-x,y,-z
-x,-y,-z
x,-y,z
1/2+x,1/2+y,z
1/2-x,1/2+y,-z
1/2-x,1/2-y,-z
1/2+x,1/2-y,z
loop_
_atom_site_type_symbol
_atom_site_label
_atom_site_fract_x
_atom_site_fract_y
_atom_site_fract_z
Si Si1 0.626567 0.156146 0.490150
Si Si2 0.317090 0.333893 0.727590
Si Si3 0.825468 0.660790 0.608864
Si Si4 0.156781 0.333685 0.979946
Si Si5 0.090568 0.332823 0.062806
Si Si6 0.489637 0.331100 0.412298
Si Si7 0.346598 0.332091 0.163037
O O1 0.719932 0.188190 0.612494
O O2 0.612015 0.149788 0.390994
O O3 0.571331 0.286643 0.456610
O O4 0.599946 0.000000 0.492892
O O5 0.343271 0.500000 0.752664
O O6 0.365388 0.245943 0.716394
O O7 0.341721 0.264418 0.827236
O O8 0.798652 0.500000 0.604746
O O9 0.750000 0.750000 0.500000
O O10 0.146268 0.500000 0.950476
O O11 0.101844 0.295403 0.991767
O O12 0.253922 0.295511 0.092703
O O13 0.126306 0.244107 0.881126
O O14 0.110650 0.500000 0.096210
O O15 0.000000 0.294433 0.000000
O O16 0.500000 0.262081 0.500000
O O17 0.486379 0.500000 0.413552
O O18 0.406996 0.274198 0.287510
O O19 0.358513 0.500000 0.162348
#
# Coordination Sequence:
#
# PCOD8106111 Si02
#       7
#     8   8   8   8   8   8   8
#     4   9  20  36  53  78 110 146 187 228 275 335
#     4  10  21  36  55  81 112 148 189 229 279 342
#     4   9  17  32  53  77 107 142 184 228 269 326
#     4   9  19  37  61  83 109 148 191 234 284 337
#     4  10  22  38  57  84 113 144 186 235 291 349
#     4  10  22  36  54  83 116 148 186 230 279 339
#     4   9  19  37  58  83 112 145 191 237 278 334
#
# _framework density 19.570264999999999
#
# number of rings (size 3 to 8) (size 9 to 14) (size 15 to 20)
#    0.000    2.571    0.000    1.714    2.000    6.286 
#    0.000    4.286    0.000    0.000    0.000    0.000 
#    0.000    0.000    0.000    0.000    0.000    0.000 
#
# Total GULP energy -347010.011174 kJ/mol
# GULP energy per Si atom -12393.214685 kJ/mol
# Density = 1.952572 g / cm^3
# Si number density = 19.570265 Si / 1000 Ang^3
#
#
#
# Elastic Constant Matrix: (Units=GPa)
#
#
# Indices 1 2 3 4 5 6 
#
# 1 113.6177 35.4793 51.4558 0.0000 -14.3528 0.0000
# 2 35.4793 68.0991 46.4553 0.0000 -12.8830 0.0000
# 3 51.4558 46.4553 118.8933 0.0000 -19.4031 0.0000
# 4 0.0000 0.0000 0.0000 30.8201 0.0000 -5.2692
# 5 -14.3528 -12.8830 -19.4031 0.0000 25.2015 0.0000
# 6 0.0000 0.0000 0.0000 -5.2692 0.0000 30.7871
#
#
#
# Elastic Compliance Matrix: (Units=1/GPa)
#
#
# Indices 1 2 3 4 5 6 
#
# 1 0.011662 -0.003340 -0.003359 0.000000 0.002348 0.000000
# 2 -0.003340 0.021502 -0.006259 0.000000 0.004271 0.000000
# 3 -0.003359 -0.006259 0.013125 0.000000 0.004993 0.000000
# 4 0.000000 0.000000 0.000000 0.033424 0.000000 0.005721
# 5 0.002348 0.004271 0.004993 0.000000 0.047045 0.000000
# 6 0.000000 0.000000 0.000000 0.005721 0.000000 0.033460
#
#
# Mechanical properties :
#
#
# Convention : Reuss Voigt Hill
#
# Bulk Modulus (GPa) = 49.08436 63.04343 56.06389
# Shear Modulus (GPa) = 25.91656 28.50972 27.21314
#
# Velocity S-wave (km/s) = 3.64302 3.82093 3.73303
# Velocity P-wave (km/s) = 6.54454 7.19374 6.87680
#
# Compressibility (1/GPa) = 0.02037309
#
# Stress axis : x y z
#
# Youngs Moduli (GPa) = 85.74545 46.50623 76.19058
#
# Poissons Ratio (x) = 0.15535 0.25592
# Poissons Ratio (y) = 0.28643 0.47688
# Poissons Ratio (z) = 0.28801 0.29108
#
# Static dielectric constant tensor:
#      x y z
#    x 3.655590 0.000000 -0.333120 
#    y 0.000000 3.614610 0.000000 
#    z -0.333120 0.000000 3.748370 
# 
# 
# High freq. dielectric constant tensor:
#      x y z
#    x 1.751730 0.000000 -0.015500 
#    y 0.000000 1.762750 0.000000 
#    z -0.015500 0.000000 1.758110 
# 
# From -- ./inp_files/238965.got.cif
#   From: 2010.06.25/outbox.cif.g09.slc.cpg/sg12_120_cif.got.tgz:238965.got - 2010.06.28 00:19:55.
