data_PCOD8106582
_publ_section_title
;
Structure prediction by ZEFSAII (Michael W. Deem and Ramdas Pophale) SiO2 
 PCOD8106582
Probable space group: C 2/M
;
_chemical_formula_sum "Si O2"
_cell_formula_units_Z 64
_cell_length_a 17.774655
_cell_length_b 15.156727
_cell_length_c 23.208193
_cell_angle_alpha 90.000000
_cell_angle_beta 28.910120
_cell_angle_gamma 90.000000
_cell_volume 3022.649762
_symmetry_space_group_name_H-M "C 2/M"
_symmetry_group_IT_number 12
_symmetry_cell_setting 'monoclinic'
loop_
_space_group_symop_operation_xyz
x,y,z
-x,y,-z
-x,-y,-z
x,-y,z
1/2+x,1/2+y,z
1/2-x,1/2+y,-z
1/2-x,1/2-y,-z
1/2+x,1/2-y,z
loop_
_atom_site_type_symbol
_atom_site_label
_atom_site_fract_x
_atom_site_fract_y
_atom_site_fract_z
Si Si1 0.353367 0.748728 0.680471
Si Si2 0.821665 0.399286 0.269511
Si Si3 0.172612 0.323739 0.491021
Si Si4 0.331287 0.900018 0.999912
Si Si5 0.765500 0.098006 0.315225
Si Si6 0.395616 0.600047 0.951075
Si Si7 0.257209 0.233820 0.871787
Si Si8 0.405070 0.826288 0.334853
O O1 0.306570 0.663506 0.674182
O O2 0.537627 0.750089 0.569587
O O3 0.328208 0.837279 0.662148
O O4 0.253089 0.755707 0.805917
O O5 0.767473 0.500000 0.297081
O O6 0.837745 0.381861 0.326905
O O7 0.986069 0.381200 0.129056
O O8 0.196225 0.396394 0.425980
O O9 0.333803 0.271254 0.384962
O O10 0.138119 0.373138 0.574964
O O11 0.301385 0.000000 0.041970
O O12 0.249969 0.885129 0.993228
O O13 0.260963 0.832887 0.092936
O O14 0.948812 0.121080 0.189570
O O15 0.735405 0.000000 0.312241
O O16 0.397263 0.500000 0.974397
O O17 0.381946 0.669557 0.013002
O O18 0.410761 0.186291 0.793141
#
# Coordination Sequence:
#
# PCOD8106582 Si02
#       8
#     8   8   8   8   8   8   8   8
#     4  11  25  41  59  90 129 164 204 253 307 370
#     4  11  23  40  64  93 127 166 209 254 310 372
#     4  10  22  41  63  88 123 158 205 261 300 360
#     4  10  21  36  60  94 126 159 204 256 305 368
#     4  11  23  39  62  89 121 162 202 249 313 373
#     4  10  21  37  61  93 124 153 200 260 312 367
#     4  11  22  38  65  92 123 165 203 251 313 368
#     4  10  21  39  66  92 116 158 210 258 303 354
#
# _framework density 21.173476000000001
#
# number of rings (size 3 to 8) (size 9 to 14) (size 15 to 20)
#    0.000    1.500    2.500    2.250    0.000    4.500 
#    0.000    6.250    0.000    4.500    0.000    0.000 
#    0.000    0.000    0.000    0.000    0.000    0.000 
#
# Total GULP energy -396779.868389 kJ/mol
# GULP energy per Si atom -12399.370887 kJ/mol
# Density = 2.112528 g / cm^3
# Si number density = 21.173476 Si / 1000 Ang^3
#
#
#
# Elastic Constant Matrix: (Units=GPa)
#
#
# Indices 1 2 3 4 5 6 
#
# 1 101.8976 42.4514 32.3539 -0.0053 21.9302 0.0005
# 2 42.4514 102.3559 40.3751 -0.0104 23.2496 0.0008
# 3 32.3539 40.3751 88.5671 -0.0268 24.6991 0.0197
# 4 -0.0053 -0.0104 -0.0268 22.2088 0.0038 2.2125
# 5 21.9302 23.2496 24.6991 0.0038 38.4156 -0.0013
# 6 0.0005 0.0008 0.0197 2.2125 -0.0013 -9.4688
#
#
#
# Elastic Compliance Matrix: (Units=1/GPa)
#
#
# Indices 1 2 3 4 5 6 
#
# 1 0.012780 -0.003669 -0.001926 0.000000 -0.003837 -0.000003
# 2 -0.003669 0.013649 -0.003853 0.000002 -0.003689 -0.000006
# 3 -0.001926 -0.003853 0.015589 0.000014 -0.006591 0.000036
# 4 0.000000 0.000002 0.000014 0.044003 -0.000014 0.010282
# 5 -0.003837 -0.003689 -0.006591 -0.000014 0.034692 -0.000022
# 6 -0.000003 -0.000006 0.000036 0.010282 -0.000022 -0.103208
#
#
# Mechanical properties :
#
#
# Convention : Reuss Voigt Hill
#
# Bulk Modulus (GPa) = 43.24954 58.13127 50.69040
# Shear Modulus (GPa) = 113.35677 22.07382 67.71529
#
# Velocity S-wave (km/s) = 7.32485 3.23231 5.66133
# Velocity P-wave (km/s) = 9.59210 6.43777 8.16864
#
# Compressibility (1/GPa) = 0.02312163
#
# Stress axis : x y z
#
# Youngs Moduli (GPa) = 78.25007 73.26319 64.14693
#
# Poissons Ratio (x) = 0.26881 0.12354
# Poissons Ratio (y) = 0.28711 0.24718
# Poissons Ratio (z) = 0.15070 0.28231
#
# Static dielectric constant tensor:
#      x y z
#    x 3.802580 0.000000 0.083920 
#    y 0.000000 3.692550 0.000020 
#    z 0.083920 0.000020 4.016620 
# 
# 
# High freq. dielectric constant tensor:
#      x y z
#    x 1.824110 0.000000 0.002530 
#    y 0.000000 1.816870 0.000000 
#    z 0.002530 0.000000 1.843760 
# 
# From -- ./inp_files/344041.got.cif
#   From: 2010.06.25/outbox.cif.g09.slc.cpg/sg12_173_cif.got.tgz:344041.got - 2010.06.28 00:19:55.
