data_PCOD8106215
_publ_section_title
;
Structure prediction by ZEFSAII (Michael W. Deem and Ramdas Pophale) SiO2 
 PCOD8106215
Probable space group: C 2/M
;
_chemical_formula_sum "Si O2"
_cell_formula_units_Z 40
_cell_length_a 10.208596
_cell_length_b 9.199641
_cell_length_c 22.345820
_cell_angle_alpha 90.000000
_cell_angle_beta 96.804808
_cell_angle_gamma 90.000000
_cell_volume 2083.833469
_symmetry_space_group_name_H-M "C 2/M"
_symmetry_group_IT_number 12
_symmetry_cell_setting 'monoclinic'
loop_
_space_group_symop_operation_xyz
x,y,z
-x,y,-z
-x,-y,-z
x,-y,z
1/2+x,1/2+y,z
1/2-x,1/2+y,-z
1/2-x,1/2-y,-z
1/2+x,1/2-y,z
loop_
_atom_site_type_symbol
_atom_site_label
_atom_site_fract_x
_atom_site_fract_y
_atom_site_fract_z
Si Si1 0.517653 0.168346 0.130008
Si Si2 0.270718 0.670294 0.063235
Si Si3 0.640342 0.829822 0.531569
Si Si4 0.300541 0.830120 0.330125
Si Si5 0.049947 0.330164 0.268793
O O1 0.399245 0.268960 0.102453
O O2 0.644806 0.202188 0.097272
O O3 0.552800 0.211438 0.199418
O O4 0.474838 0.000000 0.122469
O O5 0.289635 0.500000 0.052542
O O6 0.250000 0.750000 0.000000
O O7 0.500000 0.775555 0.500000
O O8 0.750000 0.750000 0.500000
O O9 0.650435 0.787105 0.601456
O O10 0.658663 0.000000 0.522319
O O11 0.165657 0.749455 0.309539
O O12 0.411152 0.778877 0.288966
O O13 0.272914 0.000000 0.322747
O O14 0.070988 0.500000 0.280429
#
# Coordination Sequence:
#
# PCOD8106215 Si02
#       5
#     8   8   8   8   8
#     4  10  22  39  58  83 113 144 183 228 273 326
#     4  11  23  38  58  84 113 147 186 227 273 325
#     4  10  21  37  56  80 111 145 183 227 273 324
#     4  10  21  36  56  83 111 142 183 227 272 326
#     4  10  21  38  59  82 111 146 181 224 277 327
#
# _framework density 19.195392999999999
#
# number of rings (size 3 to 8) (size 9 to 14) (size 15 to 20)
#    0.000    1.800    0.000    3.600    0.000    8.400 
#    0.000    0.000    0.000    0.000    0.000    0.000 
#    0.000    0.000    0.000    0.000    0.000    0.000 
#
# Total GULP energy -248112.011118 kJ/mol
# GULP energy per Si atom -12405.600556 kJ/mol
# Density = 1.915170 g / cm^3
# Si number density = 19.195393 Si / 1000 Ang^3
#
#
#
# Elastic Constant Matrix: (Units=GPa)
#
#
# Indices 1 2 3 4 5 6 
#
# 1 128.8157 60.5244 50.4407 0.0000 5.1987 0.0000
# 2 60.5244 67.4177 50.2595 0.0000 5.6659 0.0000
# 3 50.4407 50.2595 114.0087 0.0000 -2.4692 0.0000
# 4 0.0000 0.0000 0.0000 35.0389 0.0000 5.1041
# 5 5.1987 5.6659 -2.4692 0.0000 43.5858 0.0000
# 6 0.0000 0.0000 0.0000 5.1041 0.0000 40.7058
#
#
#
# Elastic Compliance Matrix: (Units=1/GPa)
#
#
# Indices 1 2 3 4 5 6 
#
# 1 0.013495 -0.011388 -0.000954 0.000000 -0.000183 0.000000
# 2 -0.011388 0.032228 -0.009242 0.000000 -0.003355 0.000000
# 3 -0.000954 -0.009242 0.013312 0.000000 0.002069 0.000000
# 4 0.000000 0.000000 0.000000 0.029071 0.000000 -0.003645
# 5 -0.000183 -0.003355 0.002069 0.000000 0.023518 0.000000
# 6 0.000000 0.000000 0.000000 -0.003645 0.000000 0.025024
#
#
# Mechanical properties :
#
#
# Convention : Reuss Voigt Hill
#
# Bulk Modulus (GPa) = 63.02251 70.29903 66.66077
# Shear Modulus (GPa) = 27.01162 33.80058 30.40610
#
# Velocity S-wave (km/s) = 3.75533 4.20082 3.98431
# Velocity P-wave (km/s) = 7.19074 7.76090 7.48125
#
# Compressibility (1/GPa) = 0.01586735
#
# Stress axis : x y z
#
# Youngs Moduli (GPa) = 74.10226 31.02856 75.11884
#
# Poissons Ratio (x) = 0.35337 0.07167
# Poissons Ratio (y) = 0.84391 0.69422
# Poissons Ratio (z) = 0.07070 0.28675
#
# Static dielectric constant tensor:
#      x y z
#    x 3.606020 0.000000 -0.064810 
#    y 0.000000 3.535070 0.000000 
#    z -0.064810 0.000000 3.728170 
# 
# 
# High freq. dielectric constant tensor:
#      x y z
#    x 1.761770 0.000000 -0.003050 
#    y 0.000000 1.742230 0.000000 
#    z -0.003050 0.000000 1.766950 
# 
# From -- ./inp_files/303422.got.cif
#   From: 2010.06.25/outbox.cif.g09.slc.cpg/sg12_152_cif.got.tgz:303422.got - 2010.06.28 00:19:55.
