data_PCOD8106469
_publ_section_title
;
Structure prediction by ZEFSAII (Michael W. Deem and Ramdas Pophale) SiO2 
 PCOD8106469
Probable space group: C 2/M
;
_chemical_formula_sum "Si O2"
_cell_formula_units_Z 64
_cell_length_a 31.003109
_cell_length_b 13.341320
_cell_length_c 22.626434
_cell_angle_alpha 90.000000
_cell_angle_beta 19.390408
_cell_angle_gamma 90.000000
_cell_volume 3107.151704
_symmetry_space_group_name_H-M "C 2/M"
_symmetry_group_IT_number 12
_symmetry_cell_setting 'monoclinic'
loop_
_space_group_symop_operation_xyz
x,y,z
-x,y,-z
-x,-y,-z
x,-y,z
1/2+x,1/2+y,z
1/2-x,1/2+y,-z
1/2-x,1/2-y,-z
1/2+x,1/2-y,z
loop_
_atom_site_type_symbol
_atom_site_label
_atom_site_fract_x
_atom_site_fract_y
_atom_site_fract_z
Si Si1 0.247271 0.884995 0.384532
Si Si2 0.770527 0.883676 0.729465
Si Si3 0.394015 0.383544 0.974952
Si Si4 0.510857 0.115006 0.857364
Si Si5 0.421327 0.381020 0.157347
Si Si6 0.541973 0.249995 0.708032
Si Si7 0.131954 0.616456 0.499080
Si Si8 0.874904 0.683760 0.625095
O O1 0.227099 0.856179 0.342579
O O2 0.398152 0.864282 0.203686
O O3 0.161197 0.823911 0.541946
O O4 0.210404 0.000000 0.442516
O O5 0.870798 0.805536 0.629201
O O6 0.809312 0.000000 0.690691
O O7 0.633543 0.856159 0.936100
O O8 0.412059 0.500000 0.937902
O O9 0.250399 0.364403 0.183057
O O10 0.504926 0.344884 0.878361
O O11 0.417074 0.319509 0.885082
O O12 0.567444 0.176075 0.729432
O O13 0.516184 0.000000 0.830933
O O14 0.424542 0.500000 0.150918
O O15 0.271505 0.344883 0.345208
O O16 0.500000 0.337213 0.000000
O O17 0.521391 0.180488 0.676454
O O18 0.111990 0.500000 0.538049
O O19 0.117313 0.635598 0.449232
O O20 0.000000 0.649801 0.500000
#
# Coordination Sequence:
#
# PCOD8106469 Si02
#       8
#     8   8   8   8   8   8   8   8
#     4  10  21  36  58  91 128 167 207 247 299 364
#     4  10  21  42  65  87 122 162 208 260 299 353
#     4  11  24  41  63  95 129 164 207 255 308 369
#     4  10  21  36  58  91 128 167 207 247 299 364
#     4   9  18  35  60  90 128 166 206 254 304 362
#     4  12  23  36  57  90 132 174 197 243 304 378
#     4  11  24  41  63  95 129 164 207 255 308 369
#     4  12  25  45  71  94 115 153 213 269 313 363
#
# _framework density 20.597643000000001
#
# number of rings (size 3 to 8) (size 9 to 14) (size 15 to 20)
#    0.000    1.375    3.750    1.875    3.500    2.750 
#    2.250    0.625    0.000    0.000    0.000    0.000 
#    0.000    0.000    0.000    0.000    0.000    0.000 
#
# Total GULP energy -396711.842924 kJ/mol
# GULP energy per Si atom -12397.245091 kJ/mol
# Density = 2.055076 g / cm^3
# Si number density = 20.597643 Si / 1000 Ang^3
#
#
#
# Elastic Constant Matrix: (Units=GPa)
#
#
# Indices 1 2 3 4 5 6 
#
# 1 73.3347 42.4813 80.2429 0.0000 -4.2609 0.0000
# 2 42.4813 71.1057 50.1284 0.0001 9.6857 -0.0001
# 3 80.2429 50.1284 90.9772 0.0008 26.6137 -0.0007
# 4 0.0000 0.0001 0.0008 33.3123 -0.0005 8.9340
# 5 -4.2609 9.6857 26.6137 -0.0005 33.9782 0.0004
# 6 0.0000 -0.0001 -0.0007 8.9340 0.0004 26.2609
#
#
#
# Elastic Compliance Matrix: (Units=1/GPa)
#
#
# Indices 1 2 3 4 5 6 
#
# 1 -0.035765 -0.005889 0.046195 -0.000002 -0.038989 0.000003
# 2 -0.005889 0.022538 -0.006654 0.000000 -0.001951 0.000000
# 3 0.046195 -0.006654 -0.036758 0.000002 0.036481 -0.000002
# 4 -0.000002 0.000000 0.000002 0.033033 -0.000001 -0.011238
# 5 -0.038989 -0.001951 0.036481 -0.000001 -0.003476 0.000001
# 6 0.000003 0.000000 -0.000002 -0.011238 0.000001 0.041903
#
#
# Mechanical properties :
#
#
# Convention : Reuss Voigt Hill
#
# Bulk Modulus (GPa) = 57.73572 64.56919 61.15245
# Shear Modulus (GPa) = -124.82221 22.88128 -50.97046
#
# Velocity S-wave (km/s) = -7.79306 3.33659 -4.97991
# Velocity P-wave (km/s) = 7.27218 6.80144 1.82002
#
# Compressibility (1/GPa) = 0.01732030
#
# Stress axis : x y z
#
# Youngs Moduli (GPa) = -27.96048 44.36861 -27.20479
#
# Poissons Ratio (x) = 0.26127 1.25673
# Poissons Ratio (y) = -0.16465 -0.18102
# Poissons Ratio (z) = 1.29164 0.29523
#
# Static dielectric constant tensor:
#      x y z
#    x 3.473120 0.000000 0.320140 
#    y 0.000000 4.074700 0.000000 
#    z 0.320140 0.000000 3.725820 
# 
# 
# High freq. dielectric constant tensor:
#      x y z
#    x 1.767020 0.000000 0.032320 
#    y 0.000000 1.842800 0.000000 
#    z 0.032320 0.000000 1.792550 
# 
# From -- ./inp_files/156623.got.cif
#   From: 2010.06.25/outbox.cif.g09.slc.cpg/sg12_79_cif.got.tgz:156623.got - 2010.06.28 00:19:55.
