data_PCOD8106923
_publ_section_title
;
Structure prediction by ZEFSAII (Michael W. Deem and Ramdas Pophale) SiO2 
 PCOD8106923
Probable space group: C 2/M
;
_chemical_formula_sum "Si O2"
_cell_formula_units_Z 40
_cell_length_a 10.235486
_cell_length_b 8.944599
_cell_length_c 23.573806
_cell_angle_alpha 90.000000
_cell_angle_beta 70.762605
_cell_angle_gamma 90.000000
_cell_volume 2037.723949
_symmetry_space_group_name_H-M "C 2/M"
_symmetry_group_IT_number 12
_symmetry_cell_setting 'monoclinic'
loop_
_space_group_symop_operation_xyz
x,y,z
-x,y,-z
-x,-y,-z
x,-y,z
1/2+x,1/2+y,z
1/2-x,1/2+y,-z
1/2-x,1/2-y,-z
1/2+x,1/2-y,z
loop_
_atom_site_type_symbol
_atom_site_label
_atom_site_fract_x
_atom_site_fract_y
_atom_site_fract_z
Si Si1 0.559035 0.823304 0.931810
Si Si2 0.848674 0.675835 0.866138
Si Si3 0.037845 0.326681 0.271981
Si Si4 0.778851 0.826171 0.661093
Si Si5 0.342803 0.176090 0.534231
O O1 0.706952 0.754972 0.899802
O O2 0.458775 0.767573 0.896417
O O3 0.574634 0.000000 0.929685
O O4 0.500000 0.764666 0.000000
O O5 0.826883 0.500000 0.873543
O O6 0.901865 0.724053 0.796854
O O7 0.069128 0.500000 0.280554
O O8 0.108470 0.227077 0.309808
O O9 0.874275 0.296348 0.293250
O O10 0.796437 0.733914 0.601585
O O11 0.803647 0.000000 0.644708
O O12 0.500000 0.222151 0.500000
O O13 0.250000 0.250000 0.500000
O O14 0.321413 0.000000 0.534832
#
# Coordination Sequence:
#
# PCOD8106923 Si02
#       5
#     8   8   8   8   8
#     4  10  21  37  57  83 115 149 188 236 286 337
#     4  10  21  37  57  82 113 149 189 233 282 338
#     4  10  22  39  57  82 116 149 186 235 285 335
#     4  11  23  39  61  87 115 150 191 234 283 339
#     4  11  24  41  61  87 119 153 191 236 284 335
#
# _framework density 19.629743999999999
#
# number of rings (size 3 to 8) (size 9 to 14) (size 15 to 20)
#    0.000    1.600    0.000    4.200    0.000   11.600 
#    0.000    0.000    0.000    0.000    0.000    0.000 
#    0.000    0.000    0.000    0.000    0.000    0.000 
#
# Total GULP energy -248116.814777 kJ/mol
# GULP energy per Si atom -12405.840739 kJ/mol
# Density = 1.958507 g / cm^3
# Si number density = 19.629744 Si / 1000 Ang^3
#
#
#
# Elastic Constant Matrix: (Units=GPa)
#
#
# Indices 1 2 3 4 5 6 
#
# 1 126.7947 46.5400 44.7935 0.0000 7.1119 0.0000
# 2 46.5400 45.6710 30.8172 0.0000 -1.5697 0.0000
# 3 44.7935 30.8172 132.2857 0.0000 3.1617 0.0000
# 4 0.0000 0.0000 0.0000 22.5811 0.0000 8.7312
# 5 7.1119 -1.5697 3.1617 0.0000 45.0098 0.0000
# 6 0.0000 0.0000 0.0000 8.7312 0.0000 15.1068
#
#
#
# Elastic Compliance Matrix: (Units=1/GPa)
#
#
# Indices 1 2 3 4 5 6 
#
# 1 0.013113 -0.012444 -0.001484 0.000000 -0.002402 0.000000
# 2 -0.012444 0.037869 -0.004695 0.000000 0.003617 0.000000
# 3 -0.001484 -0.004695 0.009169 0.000000 -0.000573 0.000000
# 4 0.000000 0.000000 0.000000 0.057030 0.000000 -0.032961
# 5 -0.002402 0.003617 -0.000573 0.000000 0.022763 0.000000
# 6 0.000000 0.000000 0.000000 -0.032961 0.000000 0.085246
#
#
# Mechanical properties :
#
#
# Convention : Reuss Voigt Hill
#
# Bulk Modulus (GPa) = 43.65673 61.00587 52.33130
# Shear Modulus (GPa) = 18.51370 28.71293 23.61331
#
# Velocity S-wave (km/s) = 3.07440 3.82871 3.47210
# Velocity P-wave (km/s) = 5.90686 7.11977 6.54148
#
# Compressibility (1/GPa) = 0.02290597
#
# Stress axis : x y z
#
# Youngs Moduli (GPa) = 76.25830 26.40704 109.06035
#
# Poissons Ratio (x) = 0.32861 0.16184
# Poissons Ratio (y) = 0.94896 0.51199
# Poissons Ratio (z) = 0.11316 0.12397
#
# Static dielectric constant tensor:
#      x y z
#    x 3.720250 0.000000 0.055750 
#    y 0.000000 3.580810 0.000000 
#    z 0.055750 0.000000 3.919190 
# 
# 
# High freq. dielectric constant tensor:
#      x y z
#    x 1.782470 0.000000 0.000190 
#    y 0.000000 1.763020 0.000000 
#    z 0.000190 0.000000 1.785390 
# 
# From -- ./inp_files/260971.got.cif
#   From: 2010.06.25/outbox.cif.g09.slc.cpg/sg12_131_cif.got.tgz:260971.got - 2010.06.28 00:19:55.
