data_PCOD8106778
_publ_section_title
;
Structure prediction by ZEFSAII (Michael W. Deem and Ramdas Pophale) SiO2 
 PCOD8106778
Probable space group: C 2/M
;
_chemical_formula_sum "Si O2"
_cell_formula_units_Z 64
_cell_length_a 28.897673
_cell_length_b 8.861691
_cell_length_c 15.643279
_cell_angle_alpha 90.000000
_cell_angle_beta 117.547463
_cell_angle_gamma 90.000000
_cell_volume 3551.801771
_symmetry_space_group_name_H-M "C 2/M"
_symmetry_group_IT_number 12
_symmetry_cell_setting 'monoclinic'
loop_
_space_group_symop_operation_xyz
x,y,z
-x,y,-z
-x,-y,-z
x,-y,z
1/2+x,1/2+y,z
1/2-x,1/2+y,-z
1/2-x,1/2-y,-z
1/2+x,1/2-y,z
loop_
_atom_site_type_symbol
_atom_site_label
_atom_site_fract_x
_atom_site_fract_y
_atom_site_fract_z
Si Si1 0.186110 0.173996 0.060881
Si Si2 0.277973 0.677430 0.400280
Si Si3 0.795112 0.325382 0.234623
Si Si4 0.362132 0.326876 0.159292
Si Si5 0.172595 0.677523 0.399960
Si Si6 0.590994 0.176880 0.060499
Si Si7 0.539507 0.672665 0.860322
Si Si8 0.077170 0.173862 0.226997
O O1 0.245726 0.211365 0.132577
O O2 0.150418 0.278440 0.090194
O O3 0.172227 0.000000 0.068516
O O4 0.175135 0.211927 0.952793
O O5 0.284663 0.500000 0.410583
O O6 0.290921 0.732252 0.317285
O O7 0.219224 0.727123 0.375835
O O8 0.319363 0.749230 0.500669
O O9 0.799026 0.500000 0.261830
O O10 0.846320 0.276163 0.225937
O O11 0.355364 0.500000 0.181030
O O12 0.422152 0.289507 0.186117
O O13 0.171348 0.500000 0.410658
O O14 0.117866 0.730745 0.315961
O O15 0.572532 0.267269 0.127153
O O16 0.588039 0.000000 0.076775
O O17 0.552355 0.218712 0.950418
O O18 0.549853 0.500000 0.898910
O O19 0.480004 0.694822 0.779293
O O20 0.094664 0.000000 0.241871
#
# Coordination Sequence:
#
# PCOD8106778 Si02
#       8
#     8   8   8   8   8   8   8   8
#     4   9  19  34  50  71 104 142 175 208 251 308
#     4  10  21  37  56  78 106 139 168 199 249 309
#     4  11  21  32  51  78 104 134 173 214 256 301
#     4   9  18  34  52  71 100 137 176 215 253 297
#     4  10  21  37  57  82 108 131 163 209 255 300
#     4  11  21  31  48  76 107 137 173 216 257 297
#     4   9  20  37  53  71 100 140 179 212 251 303
#     4  11  21  34  54  76 102 138 175 208 251 309
#
# _framework density 18.019024000000002
#
# number of rings (size 3 to 8) (size 9 to 14) (size 15 to 20)
#    0.000    2.000    0.000    4.875    0.000    9.000 
#    0.000    0.000    0.000    0.750    0.000    5.250 
#    0.000    0.000    0.000    0.000    0.000    0.000 
#
# Total GULP energy -396898.648180 kJ/mol
# GULP energy per Si atom -12403.082756 kJ/mol
# Density = 1.797801 g / cm^3
# Si number density = 18.019024 Si / 1000 Ang^3
#
#
#
# Elastic Constant Matrix: (Units=GPa)
#
#
# Indices 1 2 3 4 5 6 
#
# 1 102.1203 31.6157 54.1706 0.0000 -0.0082 0.0000
# 2 31.6157 61.9043 27.4954 0.0000 -5.1480 0.0000
# 3 54.1706 27.4954 73.2844 0.0000 -2.9181 0.0000
# 4 0.0000 0.0000 0.0000 32.0492 0.0000 -1.1021
# 5 -0.0082 -5.1480 -2.9181 0.0000 22.8580 0.0000
# 6 0.0000 0.0000 0.0000 -1.1021 0.0000 26.6861
#
#
#
# Elastic Compliance Matrix: (Units=1/GPa)
#
#
# Indices 1 2 3 4 5 6 
#
# 1 0.016893 -0.003877 -0.011123 0.000000 -0.002287 0.000000
# 2 -0.003877 0.020549 -0.004683 0.000000 0.004029 0.000000
# 3 -0.011123 -0.004683 0.023703 0.000000 0.001967 0.000000
# 4 0.000000 0.000000 0.000000 0.031246 0.000000 0.001290
# 5 -0.002287 0.004029 0.001967 0.000000 0.044906 0.000000
# 6 0.000000 0.000000 0.000000 0.001290 0.000000 0.037526
#
#
# Mechanical properties :
#
#
# Convention : Reuss Voigt Hill
#
# Bulk Modulus (GPa) = 45.91917 51.54136 48.73027
# Shear Modulus (GPa) = 22.57829 24.58715 23.58272
#
# Velocity S-wave (km/s) = 3.54365 3.69794 3.62161
# Velocity P-wave (km/s) = 6.50249 6.84828 6.67762
#
# Compressibility (1/GPa) = 0.02177740
#
# Stress axis : x y z
#
# Youngs Moduli (GPa) = 59.19576 48.66325 42.18826
#
# Poissons Ratio (x) = 0.18868 0.46928
# Poissons Ratio (y) = 0.22952 0.19759
# Poissons Ratio (z) = 0.65846 0.22791
#
# Static dielectric constant tensor:
#      x y z
#    x 3.419530 0.000000 0.048780 
#    y 0.000000 3.333170 0.000000 
#    z 0.048780 0.000000 3.160650 
# 
# 
# High freq. dielectric constant tensor:
#      x y z
#    x 1.697320 0.000000 0.000990 
#    y 0.000000 1.705490 0.000000 
#    z 0.000990 0.000000 1.674650 
# 
# From -- ./inp_files/243873.got.cif
#   From: 2010.06.25/outbox.cif.g09.slc.cpg/sg12_122_cif.got.tgz:243873.got - 2010.06.28 00:19:55.
