data_PCOD8106138
_publ_section_title
;
Structure prediction by ZEFSAII (Michael W. Deem and Ramdas Pophale) SiO2 
 PCOD8106138
Probable space group: C 2/M
;
_chemical_formula_sum "Si O2"
_cell_formula_units_Z 56
_cell_length_a 18.103229
_cell_length_b 9.064130
_cell_length_c 25.058351
_cell_angle_alpha 90.000000
_cell_angle_beta 135.462716
_cell_angle_gamma 90.000000
_cell_volume 2883.924298
_symmetry_space_group_name_H-M "C 2/M"
_symmetry_group_IT_number 12
_symmetry_cell_setting 'monoclinic'
loop_
_space_group_symop_operation_xyz
x,y,z
-x,y,-z
-x,-y,-z
x,-y,z
1/2+x,1/2+y,z
1/2-x,1/2+y,-z
1/2-x,1/2-y,-z
1/2+x,1/2-y,z
loop_
_atom_site_type_symbol
_atom_site_label
_atom_site_fract_x
_atom_site_fract_y
_atom_site_fract_z
Si Si1 0.379104 0.328231 0.793272
Si Si2 0.031326 0.328439 0.365928
Si Si3 0.298903 0.171407 0.214451
Si Si4 0.586906 0.828093 0.916114
Si Si5 0.413119 0.673857 0.496714
Si Si6 0.729930 0.671875 0.908168
Si Si7 0.180455 0.671847 0.344238
O O1 0.405622 0.500000 0.804065
O O2 0.273676 0.296714 0.772042
O O3 0.475488 0.246135 0.872040
O O4 0.365695 0.267049 0.727223
O O5 0.029730 0.500000 0.379257
O O6 0.915732 0.274528 0.289167
O O7 0.068997 0.242833 0.436833
O O8 0.112367 0.291067 0.360976
O O9 0.254537 0.266995 0.142988
O O10 0.297395 0.000000 0.197186
O O11 0.634085 0.756600 0.886886
O O12 0.571189 0.000000 0.896737
O O13 0.661745 0.797755 0.004919
O O14 0.500000 0.733473 0.500000
O O15 0.421118 0.500000 0.507792
O O16 0.299701 0.721648 0.416317
O O17 0.702009 0.500000 0.892566
O O18 0.173038 0.500000 0.325203
#
# Coordination Sequence:
#
# PCOD8106138 Si02
#       7
#     8   8   8   8   8   8   8
#     4  11  23  37  56  83 112 147 192 234 279 337
#     4  10  21  37  57  80 107 144 187 227 276 335
#     4  10  22  38  55  80 115 150 186 235 288 332
#     4  10  21  38  59  83 114 148 183 230 284 334
#     4  10  21  36  55  82 114 145 180 226 280 335
#     4  10  21  37  60  87 111 144 190 231 274 335
#     4  10  21  37  57  81 110 146 187 232 285 338
#
# _framework density 19.417985999999999
#
# number of rings (size 3 to 8) (size 9 to 14) (size 15 to 20)
#    0.000    1.857    0.000    3.429    0.000    6.571 
#    0.000    2.857    0.000    0.000    0.000    0.000 
#    0.000    0.000    0.000    0.000    0.000    0.000 
#
# Total GULP energy -347385.247584 kJ/mol
# GULP energy per Si atom -12406.615985 kJ/mol
# Density = 1.937379 g / cm^3
# Si number density = 19.417986 Si / 1000 Ang^3
#
#
#
# Elastic Constant Matrix: (Units=GPa)
#
#
# Indices 1 2 3 4 5 6 
#
# 1 88.2139 35.3503 41.6633 0.0000 18.1459 0.0000
# 2 35.3503 74.0237 43.8635 0.0000 2.9273 0.0000
# 3 41.6633 43.8635 94.4047 0.0000 12.5564 0.0000
# 4 0.0000 0.0000 0.0000 37.2454 0.0000 -4.6152
# 5 18.1459 2.9273 12.5564 0.0000 39.3017 0.0000
# 6 0.0000 0.0000 0.0000 -4.6152 0.0000 30.0248
#
#
#
# Elastic Compliance Matrix: (Units=1/GPa)
#
#
# Indices 1 2 3 4 5 6 
#
# 1 0.016607 -0.005274 -0.004084 0.000000 -0.005970 0.000000
# 2 -0.005274 0.020395 -0.007593 0.000000 0.003342 0.000000
# 3 -0.004084 -0.007593 0.016289 0.000000 -0.002753 0.000000
# 4 0.000000 0.000000 0.000000 0.027370 0.000000 0.004207
# 5 -0.005970 0.003342 -0.002753 0.000000 0.028831 0.000000
# 6 0.000000 0.000000 0.000000 0.004207 0.000000 0.033952
#
#
# Mechanical properties :
#
#
# Convention : Reuss Voigt Hill
#
# Bulk Modulus (GPa) = 51.57892 55.37740 53.47816
# Shear Modulus (GPa) = 27.20184 30.36538 28.78361
#
# Velocity S-wave (km/s) = 3.74686 3.95875 3.85426
# Velocity P-wave (km/s) = 6.73341 7.03393 6.88531
#
# Compressibility (1/GPa) = 0.01938776
#
# Stress axis : x y z
#
# Youngs Moduli (GPa) = 60.21669 49.03130 61.38966
#
# Poissons Ratio (x) = 0.25860 0.25074
# Poissons Ratio (y) = 0.31760 0.46614
# Poissons Ratio (z) = 0.24595 0.37230
#
# Static dielectric constant tensor:
#      x y z
#    x 3.613340 0.000000 0.205720 
#    y 0.000000 3.532300 0.000000 
#    z 0.205720 0.000000 3.647800 
# 
# 
# High freq. dielectric constant tensor:
#      x y z
#    x 1.763360 0.000000 0.005740 
#    y 0.000000 1.755960 0.000000 
#    z 0.005740 0.000000 1.767920 
# 
# From -- ./inp_files/363107.got.cif
#   From: 2010.06.25/outbox.cif.g09.slc.cpg/sg12_182_cif.got.tgz:363107.got - 2010.06.28 00:19:55.
