data_PCOD8106089
_publ_section_title
;
Structure prediction by ZEFSAII (Michael W. Deem and Ramdas Pophale) SiO2 
 PCOD8106089
Probable space group: C 2/M
;
_chemical_formula_sum "Si O2"
_cell_formula_units_Z 40
_cell_length_a 13.868977
_cell_length_b 7.866590
_cell_length_c 19.348416
_cell_angle_alpha 90.000000
_cell_angle_beta 70.623984
_cell_angle_gamma 90.000000
_cell_volume 1991.381932
_symmetry_space_group_name_H-M "C 2/M"
_symmetry_group_IT_number 12
_symmetry_cell_setting 'monoclinic'
loop_
_space_group_symop_operation_xyz
x,y,z
-x,y,-z
-x,-y,-z
x,-y,z
1/2+x,1/2+y,z
1/2-x,1/2+y,-z
1/2-x,1/2-y,-z
1/2+x,1/2-y,z
loop_
_atom_site_type_symbol
_atom_site_label
_atom_site_fract_x
_atom_site_fract_y
_atom_site_fract_z
Si Si1 0.653852 0.810171 0.429505
Si Si2 0.069419 0.190588 0.312983
Si Si3 0.866408 0.308020 0.413300
Si Si4 0.351087 0.500000 0.089105
Si Si5 0.075087 0.000000 0.084262
Si Si6 0.701863 0.690904 0.155810
O O1 0.621984 0.686782 0.375495
O O2 0.776568 0.811223 0.407307
O O3 0.603692 0.754517 0.514886
O O4 0.617646 0.000000 0.418023
O O5 0.144787 0.266168 0.237071
O O6 0.964170 0.294780 0.340546
O O7 0.042004 0.000000 0.297341
O O8 0.824762 0.500000 0.423902
O O9 0.451494 0.500000 0.114095
O O10 0.288284 0.327117 0.116937
O O11 0.383029 0.500000 0.002529
O O12 0.118662 0.168661 0.113373
O O13 0.749227 0.500000 0.159210
#
# Coordination Sequence:
#
# PCOD8106089 Si02
#       6
#     8   8   8   4   4   8
#     4  10  21  36  55  80 109 152 201 247 294 353
#     4  11  22  37  55  80 117 152 190 244 298 351
#     4  10  21  36  55  80 112 149 200 249 295 353
#     4  11  20  42  75  89 128 177 192 260 321 355
#     4   9  22  44  63 103 128 155 222 248 299 393
#     4   9  23  41  59  96 132 158 209 258 302 379
#
# _framework density 20.086552999999999
#
# number of rings (size 3 to 8) (size 9 to 14) (size 15 to 20)
#    0.600    1.400    0.000    3.000    2.800    6.400 
#    1.800    1.000    0.000    0.000    0.000    0.000 
#    0.000    0.000    0.000    0.000    0.000    0.000 
#
# Total GULP energy -247904.032340 kJ/mol
# GULP energy per Si atom -12395.201617 kJ/mol
# Density = 2.004083 g / cm^3
# Si number density = 20.086553 Si / 1000 Ang^3
#
#
#
# Elastic Constant Matrix: (Units=GPa)
#
#
# Indices 1 2 3 4 5 6 
#
# 1 74.1550 35.1014 39.4518 0.0000 -17.2526 0.0000
# 2 35.1014 73.5747 33.2069 0.0000 -14.0944 0.0000
# 3 39.4518 33.2069 108.4206 0.0000 -18.0091 0.0000
# 4 0.0000 0.0000 0.0000 25.0312 0.0000 -4.0737
# 5 -17.2526 -14.0944 -18.0091 0.0000 23.0681 0.0000
# 6 0.0000 0.0000 0.0000 -4.0737 0.0000 30.7697
#
#
#
# Elastic Compliance Matrix: (Units=1/GPa)
#
#
# Indices 1 2 3 4 5 6 
#
# 1 0.020661 -0.006380 -0.004188 0.000000 0.008285 0.000000
# 2 -0.006380 0.018710 -0.002646 0.000000 0.004594 0.000000
# 3 -0.004188 -0.002646 0.012373 0.000000 0.004911 0.000000
# 4 0.000000 0.000000 0.000000 0.040830 0.000000 0.005406
# 5 0.008285 0.004594 0.004911 0.000000 0.056187 0.000000
# 6 0.000000 0.000000 0.000000 0.005406 0.000000 0.033215
#
#
# Mechanical properties :
#
#
# Convention : Reuss Voigt Hill
#
# Bulk Modulus (GPa) = 39.49933 52.40783 45.95358
# Shear Modulus (GPa) = 23.05835 25.66649 24.36242
#
# Velocity S-wave (km/s) = 3.39182 3.57850 3.48641
# Velocity P-wave (km/s) = 5.92001 6.57434 6.25573
#
# Compressibility (1/GPa) = 0.02531689
#
# Stress axis : x y z
#
# Youngs Moduli (GPa) = 48.40140 53.44868 80.81918
#
# Poissons Ratio (x) = 0.34099 0.33846
# Poissons Ratio (y) = 0.30879 0.21383
# Poissons Ratio (z) = 0.20270 0.14141
#
# Static dielectric constant tensor:
#      x y z
#    x 3.515120 0.000000 -0.001030 
#    y 0.000000 3.399050 0.000000 
#    z -0.001030 0.000000 3.694250 
# 
# 
# High freq. dielectric constant tensor:
#      x y z
#    x 1.775720 0.000000 -0.004850 
#    y 0.000000 1.774730 0.000000 
#    z -0.004850 0.000000 1.784640 
# 
# From -- ./inp_files/307929.got.cif
#   From: 2010.06.25/outbox.cif.g09.slc.cpg/sg12_154_cif.got.tgz:307929.got - 2010.06.28 00:19:55.
