data_PCOD8106097
_publ_section_title
;
Structure prediction by ZEFSAII (Michael W. Deem and Ramdas Pophale) SiO2 
 PCOD8106097
Probable space group: C 2/M
;
_chemical_formula_sum "Si O2"
_cell_formula_units_Z 40
_cell_length_a 10.117357
_cell_length_b 9.537833
_cell_length_c 23.196122
_cell_angle_alpha 90.000000
_cell_angle_beta 71.114720
_cell_angle_gamma 90.000000
_cell_volume 2117.876734
_symmetry_space_group_name_H-M "C 2/M"
_symmetry_group_IT_number 12
_symmetry_cell_setting 'monoclinic'
loop_
_space_group_symop_operation_xyz
x,y,z
-x,y,-z
-x,-y,-z
x,-y,z
1/2+x,1/2+y,z
1/2-x,1/2+y,-z
1/2-x,1/2-y,-z
1/2+x,1/2-y,z
loop_
_atom_site_type_symbol
_atom_site_label
_atom_site_fract_x
_atom_site_fract_y
_atom_site_fract_z
Si Si1 0.929704 0.664334 0.569565
Si Si2 0.991808 0.839347 0.230481
Si Si3 0.840334 0.163366 0.031549
Si Si4 0.112386 0.160557 0.628595
Si Si5 0.237665 0.836006 0.828039
O O1 0.947457 0.500000 0.578885
O O2 0.767968 0.707839 0.589469
O O3 0.000000 0.710882 0.500000
O O4 0.001429 0.744149 0.611797
O O5 0.904195 0.818366 0.300963
O O6 0.895028 0.790513 0.191256
O O7 0.128460 0.745274 0.213535
O O8 0.038831 0.000000 0.215827
O O9 0.794530 0.205544 0.102006
O O10 0.816466 0.000000 0.022635
O O11 0.750000 0.250000 0.000000
O O12 0.000000 0.205817 0.000000
O O13 0.085722 0.000000 0.614325
O O14 0.267687 0.000000 0.816365
#
# Coordination Sequence:
#
# PCOD8106097 Si02
#       5
#     8   8   8   8   8
#     4  10  21  37  57  81 109 142 180 222 268 318
#     4  10  21  37  56  79 109 143 179 221 267 317
#     4  10  21  37  57  81 109 142 179 220 268 319
#     4  10  21  36  55  81 110 141 179 221 267 319
#     4  10  21  37  57  81 109 142 180 221 266 318
#
# _framework density 18.886838999999998
#
# number of rings (size 3 to 8) (size 9 to 14) (size 15 to 20)
#    0.000    2.000    0.000    3.000    0.000    7.200 
#    0.000    0.000    0.000    0.000    0.000    0.000 
#    0.000    0.000    0.000    0.000    0.000    0.000 
#
# Total GULP energy -248120.455071 kJ/mol
# GULP energy per Si atom -12406.022754 kJ/mol
# Density = 1.884385 g / cm^3
# Si number density = 18.886839 Si / 1000 Ang^3
#
#
#
# Elastic Constant Matrix: (Units=GPa)
#
#
# Indices 1 2 3 4 5 6 
#
# 1 95.4678 44.3911 24.1573 0.0000 1.6260 0.0000
# 2 44.3911 48.2873 25.2472 0.0000 5.1882 0.0000
# 3 24.1573 25.2472 72.5906 0.0000 1.4976 0.0000
# 4 0.0000 0.0000 0.0000 32.5259 0.0000 3.4245
# 5 1.6260 5.1882 1.4976 0.0000 43.5597 0.0000
# 6 0.0000 0.0000 0.0000 3.4245 0.0000 32.6763
#
#
#
# Elastic Compliance Matrix: (Units=1/GPa)
#
#
# Indices 1 2 3 4 5 6 
#
# 1 0.018377 -0.016899 -0.000266 0.000000 0.001336 0.000000
# 2 -0.016899 0.041177 -0.008616 0.000000 -0.003977 0.000000
# 3 -0.000266 -0.008616 0.016851 0.000000 0.000457 0.000000
# 4 0.000000 0.000000 0.000000 0.031088 0.000000 -0.003258
# 5 0.001336 -0.003977 0.000457 0.000000 0.023365 0.000000
# 6 0.000000 0.000000 0.000000 -0.003258 0.000000 0.030945
#
#
# Mechanical properties :
#
#
# Convention : Reuss Voigt Hill
#
# Bulk Modulus (GPa) = 40.24979 44.88187 42.56583
# Shear Modulus (GPa) = 22.55871 29.92241 26.24056
#
# Velocity S-wave (km/s) = 3.45978 3.98464 3.73145
# Velocity P-wave (km/s) = 6.10880 6.70709 6.41492
#
# Compressibility (1/GPa) = 0.02484485
#
# Stress axis : x y z
#
# Youngs Moduli (GPa) = 54.41634 24.28566 59.34217
#
# Poissons Ratio (x) = 0.41039 0.01577
# Poissons Ratio (y) = 0.91956 0.51127
# Poissons Ratio (z) = 0.01446 0.20924
#
# Static dielectric constant tensor:
#      x y z
#    x 3.429880 0.000000 -0.028870 
#    y 0.000000 3.385060 0.000000 
#    z -0.028870 0.000000 3.612250 
# 
# 
# High freq. dielectric constant tensor:
#      x y z
#    x 1.742450 0.000000 -0.001990 
#    y 0.000000 1.727050 0.000000 
#    z -0.001990 0.000000 1.751410 
# 
# From -- ./inp_files/254614.got.cif
#   From: 2010.06.25/outbox.cif.g09.slc.cpg/sg12_128_cif.got.tgz:254614.got - 2010.06.28 00:19:55.
