data_PCOD8106637
_publ_section_title
;
Structure prediction by ZEFSAII (Michael W. Deem and Ramdas Pophale) SiO2 
 PCOD8106637
Probable space group: C 2/M
;
_chemical_formula_sum "Si O2"
_cell_formula_units_Z 56
_cell_length_a 25.119228
_cell_length_b 19.023318
_cell_length_c 8.658279
_cell_angle_alpha 90.000000
_cell_angle_beta 135.539261
_cell_angle_gamma 90.000000
_cell_volume 2897.896641
_symmetry_space_group_name_H-M "C 2/M"
_symmetry_group_IT_number 12
_symmetry_cell_setting 'monoclinic'
loop_
_space_group_symop_operation_xyz
x,y,z
-x,y,-z
-x,-y,-z
x,-y,z
1/2+x,1/2+y,z
1/2-x,1/2+y,-z
1/2-x,1/2-y,-z
1/2+x,1/2-y,z
loop_
_atom_site_type_symbol
_atom_site_label
_atom_site_fract_x
_atom_site_fract_y
_atom_site_fract_z
Si Si1 0.645214 0.735490 0.134228
Si Si2 0.817814 0.077947 0.284916
Si Si3 0.583795 0.336271 0.719524
Si Si4 0.036871 0.644922 0.920366
Si Si5 0.639480 0.922685 0.882528
Si Si6 0.600880 0.195732 0.563259
Si Si7 0.199370 0.210206 0.570748
O O1 0.712255 0.781781 0.189833
O O2 0.690015 0.699603 0.368124
O O3 0.603056 0.677851 0.939685
O O4 0.582071 0.786965 0.073433
O O5 0.855408 0.104208 0.202789
O O6 0.840854 0.139123 0.452164
O O7 0.849725 0.000000 0.393703
O O8 0.728097 0.074508 0.097929
O O9 0.500000 0.365067 0.500000
O O10 0.591910 0.260784 0.658273
O O11 0.093858 0.593736 0.946689
O O12 0.977510 0.671913 0.672235
O O13 0.000000 0.610149 0.000000
O O14 0.629003 0.869746 0.720269
O O15 0.611974 0.000000 0.771459
O O16 0.658907 0.218894 0.549174
#
# Coordination Sequence:
#
# PCOD8106637 Si02
#       7
#     8   8   8   8   8   8   8
#     4  11  20  36  58  92 114 148 199 243 299 345
#     4  10  22  40  59  85 118 159 201 241 294 352
#     4  11  20  35  62  88 116 149 191 250 296 346
#     4  12  22  36  56  86 123 148 195 244 293 354
#     4  11  23  40  59  81 119 163 200 240 290 352
#     4  11  20  35  60  89 114 150 195 242 291 346
#     4  10  21  36  63  86 117 153 196 250 291 350
#
# _framework density 19.324362000000001
#
# number of rings (size 3 to 8) (size 9 to 14) (size 15 to 20)
#    0.000    1.143    5.714    1.286    0.000    4.000 
#    0.000    0.714    0.000    7.714    0.000    0.000 
#    0.000    0.000    0.000    0.000    0.000    0.000 
#
# Total GULP energy -346942.196344 kJ/mol
# GULP energy per Si atom -12390.792727 kJ/mol
# Density = 1.928038 g / cm^3
# Si number density = 19.324362 Si / 1000 Ang^3
#
#
#
# Elastic Constant Matrix: (Units=GPa)
#
#
# Indices 1 2 3 4 5 6 
#
# 1 108.1807 45.2446 31.1221 0.0000 0.8452 0.0000
# 2 45.2446 118.8642 21.2493 0.0000 -7.3100 0.0000
# 3 31.1221 21.2493 82.7184 0.0000 -5.9186 0.0000
# 4 0.0000 0.0000 0.0000 11.9459 0.0000 -4.1624
# 5 0.8452 -7.3100 -5.9186 0.0000 24.9255 0.0000
# 6 0.0000 0.0000 0.0000 -4.1624 0.0000 -10.7966
#
#
#
# Elastic Compliance Matrix: (Units=1/GPa)
#
#
# Indices 1 2 3 4 5 6 
#
# 1 0.012017 -0.004073 -0.003652 0.000000 -0.002469 0.000000
# 2 -0.004073 0.010306 -0.000904 0.000000 0.002946 0.000000
# 3 -0.003652 -0.000904 0.013922 0.000000 0.003164 0.000000
# 4 0.000000 0.000000 0.000000 0.073797 0.000000 -0.028451
# 5 -0.002469 0.002946 0.003164 0.000000 0.041819 0.000000
# 6 0.000000 0.000000 0.000000 -0.028451 0.000000 -0.081653
#
#
# Mechanical properties :
#
#
# Convention : Reuss Voigt Hill
#
# Bulk Modulus (GPa) = 52.66784 56.11059 54.38921
# Shear Modulus (GPa) = 53.30764 19.35812 36.33288
#
# Velocity S-wave (km/s) = 5.25791 3.16847 4.34078
# Velocity P-wave (km/s) = 8.01091 6.51804 7.30272
#
# Compressibility (1/GPa) = 0.01898692
#
# Stress axis : x y z
#
# Youngs Moduli (GPa) = 83.21405 97.02861 71.82972
#
# Poissons Ratio (x) = 0.39523 0.26230
# Poissons Ratio (y) = 0.33895 0.06495
# Poissons Ratio (z) = 0.30387 0.08773
#
# Static dielectric constant tensor:
#      x y z
#    x 3.756670 0.000000 0.115720 
#    y 0.000000 3.922460 0.000000 
#    z 0.115720 0.000000 3.325160 
# 
# 
# High freq. dielectric constant tensor:
#      x y z
#    x 1.762830 0.000000 0.011230 
#    y 0.000000 1.730990 0.000000 
#    z 0.011230 0.000000 1.748400 
# 
# From -- ./inp_files/98170.got.cif
#   From: 2010.06.25/outbox.cif.g09.slc.cpg/sg12_50_cif.got.tgz:98170.got - 2010.06.28 00:19:55.
