data_PCOD8106026
_publ_section_title
;
Structure prediction by ZEFSAII (Michael W. Deem and Ramdas Pophale) SiO2 
 PCOD8106026
Probable space group: C 2/M
;
_chemical_formula_sum "Si O2"
_cell_formula_units_Z 48
_cell_length_a 9.945294
_cell_length_b 9.278388
_cell_length_c 26.396857
_cell_angle_alpha 90.000000
_cell_angle_beta 89.923236
_cell_angle_gamma 90.000000
_cell_volume 2435.802017
_symmetry_space_group_name_H-M "C 2/M"
_symmetry_group_IT_number 12
_symmetry_cell_setting 'monoclinic'
loop_
_space_group_symop_operation_xyz
x,y,z
-x,y,-z
-x,-y,-z
x,-y,z
1/2+x,1/2+y,z
1/2-x,1/2+y,-z
1/2-x,1/2-y,-z
1/2+x,1/2-y,z
loop_
_atom_site_type_symbol
_atom_site_label
_atom_site_fract_x
_atom_site_fract_y
_atom_site_fract_z
Si Si1 0.707365 0.831988 0.888375
Si Si2 0.773218 0.831749 0.775492
Si Si3 0.043822 0.832435 0.721458
Si Si4 0.263082 0.332242 0.447593
Si Si5 0.477896 0.331605 0.943176
Si Si6 0.538334 0.666228 0.390553
O O1 0.750497 0.778576 0.832767
O O2 0.575321 0.747506 0.904374
O O3 0.825786 0.796324 0.927717
O O4 0.673224 0.000000 0.888305
O O5 0.676175 0.752485 0.736725
O O6 0.925915 0.794258 0.760946
O O7 0.744977 0.000000 0.769688
O O8 0.001983 0.783675 0.665475
O O9 0.079973 0.000000 0.722316
O O10 0.229117 0.500000 0.455433
O O11 0.250000 0.250000 0.500000
O O12 0.414207 0.311224 0.428276
O O13 0.160980 0.266386 0.407046
O O14 0.510098 0.500000 0.939210
O O15 0.500000 0.273673 0.000000
O O16 0.585764 0.500000 0.390792
#
# Coordination Sequence:
#
# PCOD8106026 Si02
#       6
#     8   8   8   8   8   8
#     4  10  21  36  54  80 112 143 180 225 271 324
#     4  10  21  36  55  81 111 143 181 224 270 324
#     4  10  21  38  59  82 111 146 182 225 275 324
#     4  11  23  38  58  84 113 147 187 229 275 328
#     4  10  21  37  57  81 109 143 184 228 274 326
#     4  10  22  39  58  83 113 144 183 229 274 325
#
# _framework density 19.706033999999999
#
# number of rings (size 3 to 8) (size 9 to 14) (size 15 to 20)
#    0.000    1.833    0.000    3.500    0.000    7.667 
#    0.000    0.000    0.000    0.000    0.000    0.000 
#    0.000    0.000    0.000    0.000    0.000    0.000 
#
# Total GULP energy -297747.956300 kJ/mol
# GULP energy per Si atom -12406.164846 kJ/mol
# Density = 1.966118 g / cm^3
# Si number density = 19.706034 Si / 1000 Ang^3
#
#
#
# Elastic Constant Matrix: (Units=GPa)
#
#
# Indices 1 2 3 4 5 6 
#
# 1 42.1195 22.6748 -6.5244 0.0000 6.8887 0.0000
# 2 22.6748 52.3317 17.8044 0.0000 5.0744 0.0000
# 3 -6.5244 17.8044 85.0351 0.0000 0.8521 0.0000
# 4 0.0000 0.0000 0.0000 34.0661 0.0000 0.5751
# 5 6.8887 5.0744 0.8521 0.0000 38.2166 0.0000
# 6 0.0000 0.0000 0.0000 0.5751 0.0000 31.4362
#
#
#
# Elastic Compliance Matrix: (Units=1/GPa)
#
#
# Indices 1 2 3 4 5 6 
#
# 1 0.034267 -0.016535 0.006132 0.000000 -0.004118 0.000000
# 2 -0.016535 0.028822 -0.007296 0.000000 -0.000684 0.000000
# 3 0.006132 -0.007296 0.013763 0.000000 -0.000443 0.000000
# 4 0.000000 0.000000 0.000000 0.029364 0.000000 -0.000537
# 5 -0.004118 -0.000684 -0.000443 0.000000 0.027010 0.000000
# 6 0.000000 0.000000 0.000000 -0.000537 0.000000 0.031820
#
#
# Mechanical properties :
#
#
# Convention : Reuss Voigt Hill
#
# Bulk Modulus (GPa) = 24.12315 27.48843 25.80579
# Shear Modulus (GPa) = 23.33614 30.44587 26.89100
#
# Velocity S-wave (km/s) = 3.44497 3.93492 3.69807
# Velocity P-wave (km/s) = 5.30018 5.88424 5.59983
#
# Compressibility (1/GPa) = 0.04145395
#
# Stress axis : x y z
#
# Youngs Moduli (GPa) = 29.18283 34.69585 72.66109
#
# Poissons Ratio (x) = 0.57368 -0.44559
# Poissons Ratio (y) = 0.48252 0.53017
# Poissons Ratio (z) = -0.17896 0.25316
#
# Static dielectric constant tensor:
#      x y z
#    x 3.555550 0.000000 -0.015860 
#    y 0.000000 3.504290 0.000000 
#    z -0.015860 0.000000 3.778400 
# 
# 
# High freq. dielectric constant tensor:
#      x y z
#    x 1.774890 0.000000 -0.000390 
#    y 0.000000 1.760880 0.000000 
#    z -0.000390 0.000000 1.786870 
# 
# From -- ./inp_files/334658.got.cif
#   From: 2010.06.25/outbox.cif.g09.slc.cpg/sg12_168_cif.got.tgz:334658.got - 2010.06.28 00:19:55.
