data_PCOD8106319
_publ_section_title
;
Structure prediction by ZEFSAII (Michael W. Deem and Ramdas Pophale) SiO2 
 PCOD8106319
Probable space group: C 2/M
;
_chemical_formula_sum "Si O2"
_cell_formula_units_Z 64
_cell_length_a 25.411765
_cell_length_b 8.971560
_cell_length_c 31.475558
_cell_angle_alpha 90.000000
_cell_angle_beta 26.884917
_cell_angle_gamma 90.000000
_cell_volume 3244.940403
_symmetry_space_group_name_H-M "C 2/M"
_symmetry_group_IT_number 12
_symmetry_cell_setting 'monoclinic'
loop_
_space_group_symop_operation_xyz
x,y,z
-x,y,-z
-x,-y,-z
x,-y,z
1/2+x,1/2+y,z
1/2-x,1/2+y,-z
1/2-x,1/2-y,-z
1/2+x,1/2-y,z
loop_
_atom_site_type_symbol
_atom_site_label
_atom_site_fract_x
_atom_site_fract_y
_atom_site_fract_z
Si Si1 0.783292 0.834525 0.356991
Si Si2 0.480630 0.322525 0.924580
Si Si3 0.283230 0.174261 0.217671
Si Si4 0.946502 0.834098 0.855035
Si Si5 0.282407 0.174682 0.118972
Si Si6 0.374168 0.175298 0.606430
Si Si7 0.414494 0.824795 0.794012
Si Si8 0.819380 0.326755 0.412896
O O1 0.713971 0.775203 0.366708
O O2 0.758428 0.722614 0.413270
O O3 0.916509 0.838753 0.248897
O O4 0.739814 0.000000 0.401319
O O5 0.487054 0.500000 0.923977
O O6 0.609324 0.258904 0.838017
O O7 0.425135 0.277404 0.918636
O O8 0.398852 0.254594 0.019422
O O9 0.273758 0.209100 0.174836
O O10 0.163430 0.234995 0.324430
O O11 0.298175 0.000000 0.215704
O O12 0.890118 0.725439 0.860390
O O13 0.894226 0.000000 0.886203
O O14 0.169647 0.240027 0.177257
O O15 0.291290 0.000000 0.103032
O O16 0.500000 0.226665 0.500000
O O17 0.369996 0.000000 0.619496
O O18 0.544707 0.781144 0.685676
O O19 0.390915 0.000000 0.808406
O O20 0.804367 0.500000 0.429545
O O21 0.750000 0.250000 0.500000
#
# Coordination Sequence:
#
# PCOD8106319 Si02
#       8
#     8   8   8   8   8   8   8   8
#     4   9  17  34  56  81 113 148 188 239 293 347
#     4  11  22  39  65  93 118 155 205 248 297 359
#     4  11  24  41  61  86 122 161 202 250 300 357
#     4   9  18  35  60  86 115 150 190 240 296 352
#     4  11  25  42  59  86 124 164 200 244 304 358
#     4  10  21  38  61  89 119 154 198 247 301 356
#     4  10  22  39  59  86 117 153 200 247 296 354
#     4  10  21  36  57  85 113 149 196 242 293 355
#
# _framework density 19.723013000000002
#
# number of rings (size 3 to 8) (size 9 to 14) (size 15 to 20)
#    0.000    1.875    1.250    2.250    0.000    8.250 
#    0.000    3.750    0.000    0.000    0.000    0.000 
#    0.000    0.000    0.000    0.000    0.000    0.000 
#
# Total GULP energy -396845.770928 kJ/mol
# GULP energy per Si atom -12401.430341 kJ/mol
# Density = 1.967812 g / cm^3
# Si number density = 19.723013 Si / 1000 Ang^3
#
#
#
# Elastic Constant Matrix: (Units=GPa)
#
#
# Indices 1 2 3 4 5 6 
#
# 1 100.9703 55.5200 49.3154 -0.0509 11.4439 0.0446
# 2 55.5200 92.1784 56.7802 -0.0358 10.0587 0.0413
# 3 49.3154 56.7802 103.3957 -0.0110 24.0616 0.0114
# 4 -0.0509 -0.0358 -0.0110 32.5423 0.0165 4.2586
# 5 11.4439 10.0587 24.0616 0.0165 27.3260 -0.0242
# 6 0.0446 0.0413 0.0114 4.2586 -0.0242 32.8869
#
#
#
# Elastic Compliance Matrix: (Units=1/GPa)
#
#
# Indices 1 2 3 4 5 6 
#
# 1 0.015602 -0.007328 -0.003175 0.000018 -0.001041 -0.000014
# 2 -0.007328 0.019960 -0.008138 0.000008 0.002887 -0.000011
# 3 -0.003175 -0.008138 0.018424 -0.000002 -0.011897 0.000000
# 4 0.000018 0.000008 -0.000002 0.031259 -0.000031 -0.004048
# 5 -0.001041 0.002887 -0.011897 -0.000031 0.046444 0.000040
# 6 -0.000014 -0.000011 0.000000 -0.004048 0.000040 0.030931
#
#
# Mechanical properties :
#
#
# Convention : Reuss Voigt Hill
#
# Bulk Modulus (GPa) = 59.86696 68.86398 64.36547
# Shear Modulus (GPa) = 24.33444 27.54629 25.94036
#
# Velocity S-wave (km/s) = 3.51637 3.74124 3.63055
# Velocity P-wave (km/s) = 6.84881 7.32488 7.09084
#
# Compressibility (1/GPa) = 0.01670371
#
# Stress axis : x y z
#
# Youngs Moduli (GPa) = 64.09433 50.10050 54.27797
#
# Poissons Ratio (x) = 0.36713 0.17234
# Poissons Ratio (y) = 0.46967 0.44171
# Poissons Ratio (z) = 0.20351 0.40771
#
# Static dielectric constant tensor:
#      x y z
#    x 3.805960 0.000100 0.141880 
#    y 0.000100 3.854230 0.000190 
#    z 0.141880 0.000190 3.657020 
# 
# 
# High freq. dielectric constant tensor:
#      x y z
#    x 1.774990 -0.000010 0.007650 
#    y -0.000010 1.771620 0.000000 
#    z 0.007650 0.000000 1.769070 
# 
# From -- ./inp_files/382377.got.cif
#   From: 2010.06.25/outbox.cif.g09.slc.cpg/sg12_192_cif.got.tgz:382377.got - 2010.06.28 00:19:55.
