data_PCOD8106736
_publ_section_title
;
Structure prediction by ZEFSAII (Michael W. Deem and Ramdas Pophale) SiO2 
 PCOD8106736
Probable space group: C 2/M
;
_chemical_formula_sum "Si O2"
_cell_formula_units_Z 64
_cell_length_a 17.140282
_cell_length_b 26.537805
_cell_length_c 12.270146
_cell_angle_alpha 90.000000
_cell_angle_beta 35.556147
_cell_angle_gamma 90.000000
_cell_volume 3245.508578
_symmetry_space_group_name_H-M "C 2/M"
_symmetry_group_IT_number 12
_symmetry_cell_setting 'monoclinic'
loop_
_space_group_symop_operation_xyz
x,y,z
-x,y,-z
-x,-y,-z
x,-y,z
1/2+x,1/2+y,z
1/2-x,1/2+y,-z
1/2-x,1/2-y,-z
1/2+x,1/2-y,z
loop_
_atom_site_type_symbol
_atom_site_label
_atom_site_fract_x
_atom_site_fract_y
_atom_site_fract_z
Si Si1 0.101736 0.359983 0.624155
Si Si2 0.571078 0.640581 0.198478
Si Si3 0.374653 0.942474 0.573282
Si Si4 0.664006 0.156222 0.960651
Si Si5 0.827539 0.767202 0.018780
Si Si6 0.126267 0.272396 0.425770
Si Si7 0.703159 0.664703 0.408531
Si Si8 0.089616 0.942284 0.999392
O O1 0.141553 0.410930 0.517983
O O2 0.079268 0.314910 0.563510
O O3 0.225867 0.346599 0.558791
O O4 0.966880 0.372276 0.846091
O O5 0.712609 0.644944 0.099082
O O6 0.445271 0.639981 0.423284
O O7 0.558662 0.691476 0.138194
O O8 0.560813 0.590639 0.138282
O O9 0.500000 0.921574 0.500000
O O10 0.245037 0.936595 0.795160
O O11 0.398401 0.000000 0.510742
O O12 0.614708 0.214413 0.003043
O O13 0.711393 0.139272 0.786522
O O14 0.733074 0.793863 0.216886
O O15 0.750000 0.750000 0.000000
O O16 0.190809 0.224789 0.412449
O O17 0.000000 0.252542 0.500000
O O18 0.052040 0.000000 0.070227
O O19 0.000000 0.923248 0.000000
#
# Coordination Sequence:
#
# PCOD8106736 Si02
#       8
#     8   8   8   8   8   8   8   8
#     4  12  22  36  57  83 112 145 186 232 281 326
#     4  11  19  35  59  79 105 147 193 223 268 337
#     4  10  21  38  60  86 112 140 178 225 281 341
#     4  10  21  37  55  77 110 150 187 227 274 327
#     4   9  18  31  51  79 107 140 179 220 264 319
#     4  11  20  34  55  81 114 149 188 225 269 331
#     4  11  23  36  53  80 113 148 187 231 276 323
#     4  10  21  37  57  85 117 143 174 228 292 337
#
# _framework density 19.719559
#
# number of rings (size 3 to 8) (size 9 to 14) (size 15 to 20)
#    0.000    1.500    0.000    8.250    0.000    0.000 
#    0.000    2.500    0.000    4.500    0.000    0.000 
#    0.000    0.000    0.000    0.000    0.000    0.000 
#
# Total GULP energy -396762.937644 kJ/mol
# GULP energy per Si atom -12398.841801 kJ/mol
# Density = 1.967468 g / cm^3
# Si number density = 19.719559 Si / 1000 Ang^3
#
#
#
# Elastic Constant Matrix: (Units=GPa)
#
#
# Indices 1 2 3 4 5 6 
#
# 1 86.2326 34.5143 14.8129 0.0001 2.0481 0.0002
# 2 34.5143 76.3871 24.0995 0.0000 16.3168 0.0000
# 3 14.8129 24.0995 103.3352 -0.0001 14.7840 0.0003
# 4 0.0001 0.0000 -0.0001 16.0166 -0.0001 6.0333
# 5 2.0481 16.3168 14.7840 -0.0001 32.9226 -0.0002
# 6 0.0002 0.0000 0.0003 6.0333 -0.0002 30.2915
#
#
#
# Elastic Compliance Matrix: (Units=1/GPa)
#
#
# Indices 1 2 3 4 5 6 
#
# 1 0.014424 -0.006858 -0.000883 0.000000 0.002898 0.000000
# 2 -0.006858 0.018553 -0.002233 0.000000 -0.007766 0.000000
# 3 -0.000883 -0.002233 0.010856 0.000000 -0.003713 0.000000
# 4 0.000000 0.000000 0.000000 0.067500 0.000000 -0.013444
# 5 0.002898 -0.007766 -0.003713 0.000000 0.035710 0.000000
# 6 0.000000 0.000000 0.000000 -0.013444 0.000000 0.035690
#
#
# Mechanical properties :
#
#
# Convention : Reuss Voigt Hill
#
# Bulk Modulus (GPa) = 41.86552 45.86758 43.86655
# Shear Modulus (GPa) = 23.73692 28.68135 26.20913
#
# Velocity S-wave (km/s) = 3.47324 3.81788 3.64963
# Velocity P-wave (km/s) = 6.11237 6.53799 6.32876
#
# Compressibility (1/GPa) = 0.02388601
#
# Stress axis : x y z
#
# Youngs Moduli (GPa) = 69.32790 53.89941 92.11668
#
# Poissons Ratio (x) = 0.36963 0.08133
# Poissons Ratio (y) = 0.47544 0.20568
# Poissons Ratio (z) = 0.06121 0.12035
#
# Static dielectric constant tensor:
#      x y z
#    x 3.489230 0.000000 0.094950 
#    y 0.000000 3.506660 0.000000 
#    z 0.094950 0.000000 3.839970 
# 
# 
# High freq. dielectric constant tensor:
#      x y z
#    x 1.762060 0.000000 0.001150 
#    y 0.000000 1.740490 0.000000 
#    z 0.001150 0.000000 1.784980 
# 
# From -- ./inp_files/149771.got.cif
#   From: 2010.06.25/outbox.cif.g09.slc.cpg/sg12_75_cif.got.tgz:149771.got - 2010.06.28 00:19:55.
