data_PCOD8106743
_publ_section_title
;
Structure prediction by ZEFSAII (Michael W. Deem and Ramdas Pophale) SiO2 
 PCOD8106743
Probable space group: C 2/M
;
_chemical_formula_sum "Si O2"
_cell_formula_units_Z 48
_cell_length_a 15.376181
_cell_length_b 8.399280
_cell_length_c 29.363801
_cell_angle_alpha 90.000000
_cell_angle_beta 38.917614
_cell_angle_gamma 90.000000
_cell_volume 2382.332198
_symmetry_space_group_name_H-M "C 2/M"
_symmetry_group_IT_number 12
_symmetry_cell_setting 'monoclinic'
loop_
_space_group_symop_operation_xyz
x,y,z
-x,y,-z
-x,-y,-z
x,-y,z
1/2+x,1/2+y,z
1/2-x,1/2+y,-z
1/2-x,1/2-y,-z
1/2+x,1/2-y,z
loop_
_atom_site_type_symbol
_atom_site_label
_atom_site_fract_x
_atom_site_fract_y
_atom_site_fract_z
Si Si1 0.297821 0.685568 0.081188
Si Si2 0.990004 0.313553 0.075730
Si Si3 0.482233 0.315564 0.835596
Si Si4 0.963226 0.187659 0.422140
Si Si5 0.290522 0.188316 0.415389
Si Si6 0.266654 0.189160 0.322019
O O1 0.330529 0.500000 0.061633
O O2 0.351831 0.743162 0.108487
O O3 0.134732 0.716302 0.143525
O O4 0.376945 0.784545 0.010131
O O5 0.970627 0.500000 0.092406
O O6 0.016537 0.225687 0.111981
O O7 0.448954 0.500000 0.842932
O O8 0.629666 0.273517 0.754502
O O9 0.851233 0.254814 0.504088
O O10 0.922425 0.240484 0.387909
O O11 0.114278 0.254990 0.372217
O O12 0.967737 0.000000 0.423797
O O13 0.300622 0.244203 0.359364
O O14 0.293777 0.000000 0.417930
O O15 0.277471 0.000000 0.311904
#
# Coordination Sequence:
#
# PCOD8106743 Si02
#       6
#     8   8   8   8   8   8
#     4  11  22  40  64  90 117 149 190 236 285 337
#     4  11  22  40  64  90 117 149 190 236 285 337
#     4  12  25  40  57  83 118 156 195 236 285 339
#     4   9  18  34  57  82 108 141 183 230 280 335
#     4   9  18  34  57  82 108 141 183 230 280 335
#     4  10  21  37  55  78 111 150 188 228 281 341
#
# _framework density 20.148323999999999
#
# number of rings (size 3 to 8) (size 9 to 14) (size 15 to 20)
#    0.000    1.667    0.000    6.500    0.000    4.667 
#    0.000    3.333    0.000    5.000    0.000    0.000 
#    0.000    0.000    0.000    0.000    0.000    0.000 
#
# Total GULP energy -297703.404202 kJ/mol
# GULP energy per Si atom -12404.308508 kJ/mol
# Density = 2.010247 g / cm^3
# Si number density = 20.148324 Si / 1000 Ang^3
#
#
#
# Elastic Constant Matrix: (Units=GPa)
#
#
# Indices 1 2 3 4 5 6 
#
# 1 96.1205 15.4944 24.2258 0.0005 -7.6984 0.0004
# 2 15.4944 53.2298 12.4542 -0.0015 -0.0171 -0.0011
# 3 24.2258 12.4542 45.1419 0.0005 -12.2068 0.0007
# 4 0.0005 -0.0015 0.0005 28.1328 -0.0004 0.8095
# 5 -7.6984 -0.0171 -12.2068 -0.0004 16.5516 -0.0006
# 6 0.0004 -0.0011 0.0007 0.8095 -0.0006 34.9569
#
#
#
# Elastic Compliance Matrix: (Units=1/GPa)
#
#
# Indices 1 2 3 4 5 6 
#
# 1 0.012296 -0.002286 -0.005524 0.000000 0.001643 0.000000
# 2 -0.002286 0.020856 -0.006006 0.000001 -0.005472 0.000001
# 3 -0.005524 -0.006006 0.032574 -0.000001 0.021448 0.000000
# 4 0.000000 0.000001 -0.000001 0.035569 0.000000 -0.000824
# 5 0.001643 -0.005472 0.021448 0.000000 0.076993 0.000001
# 6 0.000000 0.000001 0.000000 -0.000824 0.000001 0.028626
#
#
# Mechanical properties :
#
#
# Convention : Reuss Voigt Hill
#
# Bulk Modulus (GPa) = 26.25214 33.20455 29.72834
# Shear Modulus (GPa) = 20.22296 25.41611 22.81953
#
# Velocity S-wave (km/s) = 3.17157 3.55554 3.36903
# Velocity P-wave (km/s) = 5.14485 5.77682 5.46997
#
# Compressibility (1/GPa) = 0.03809213
#
# Stress axis : x y z
#
# Youngs Moduli (GPa) = 81.32791 47.94886 30.69978
#
# Poissons Ratio (x) = 0.10962 0.16958
# Poissons Ratio (y) = 0.18594 0.18440
# Poissons Ratio (z) = 0.44923 0.28800
#
# Static dielectric constant tensor:
#      x y z
#    x 3.963010 0.000000 -0.066910 
#    y 0.000000 3.550940 0.000000 
#    z -0.066910 0.000000 3.615230 
# 
# 
# High freq. dielectric constant tensor:
#      x y z
#    x 1.802810 0.000000 -0.002040 
#    y 0.000000 1.783560 0.000000 
#    z -0.002040 0.000000 1.776340 
# 
# From -- ./inp_files/360221.got.cif
#   From: 2010.06.25/outbox.cif.g09.slc.cpg/sg12_181_cif.got.tgz:360221.got - 2010.06.28 00:19:55.
