data_PCOD8106326
_publ_section_title
;
Structure prediction by ZEFSAII (Michael W. Deem and Ramdas Pophale) SiO2 
 PCOD8106326
Probable space group: C 2/M
;
_chemical_formula_sum "Si O2"
_cell_formula_units_Z 64
_cell_length_a 29.373670
_cell_length_b 8.900701
_cell_length_c 14.933209
_cell_angle_alpha 90.000000
_cell_angle_beta 121.223186
_cell_angle_gamma 90.000000
_cell_volume 3338.721412
_symmetry_space_group_name_H-M "C 2/M"
_symmetry_group_IT_number 12
_symmetry_cell_setting 'monoclinic'
loop_
_space_group_symop_operation_xyz
x,y,z
-x,y,-z
-x,-y,-z
x,-y,z
1/2+x,1/2+y,z
1/2-x,1/2+y,-z
1/2-x,1/2-y,-z
1/2+x,1/2-y,z
loop_
_atom_site_type_symbol
_atom_site_label
_atom_site_fract_x
_atom_site_fract_y
_atom_site_fract_z
Si Si1 0.801766 0.175886 0.094341
Si Si2 0.996250 0.676468 0.775577
Si Si3 0.854673 0.321965 0.487060
Si Si4 0.720367 0.325274 0.728444
Si Si5 0.969440 0.323257 0.552271
Si Si6 0.396832 0.327360 0.067030
Si Si7 0.886489 0.823787 0.697754
Si Si8 0.170186 0.171300 0.175678
O O1 0.807212 0.215216 0.204906
O O2 0.854561 0.233940 0.097325
O O3 0.794926 0.000000 0.070971
O O4 0.750000 0.250000 0.000000
O O5 0.988579 0.500000 0.781263
O O6 0.999773 0.719813 0.674285
O O7 0.945473 0.756446 0.767593
O O8 0.050036 0.729454 0.876868
O O9 0.853302 0.500000 0.497490
O O10 0.805389 0.269658 0.377536
O O11 0.908764 0.265311 0.494102
O O12 0.852357 0.249866 0.583076
O O13 0.714177 0.500000 0.700116
O O14 0.782066 0.283554 0.797174
O O15 0.968393 0.500000 0.537389
O O16 0.000000 0.245796 0.500000
O O17 0.411188 0.500000 0.102054
O O18 0.374168 0.306887 0.944918
O O19 0.855250 0.785285 0.755976
O O20 0.891381 0.000000 0.685640
O O21 0.191408 0.000000 0.197077
#
# Coordination Sequence:
#
# PCOD8106326 Si02
#       8
#     8   8   8   8   8   8   8   8
#     4  10  21  37  58  83 117 155 190 234 287 338
#     4  10  21  36  57  85 116 150 190 232 284 342
#     4  10  21  37  59  84 115 153 189 232 287 344
#     4  11  23  37  57  88 120 151 190 237 287 340
#     4   8  16  32  52  77 107 141 184 228 269 324
#     4  10  21  38  58  83 117 152 191 234 281 342
#     4  10  21  40  63  84 112 148 191 244 291 336
#     4  10  22  40  62  84 109 152 199 237 287 343
#
# _framework density 19.169015999999999
#
# number of rings (size 3 to 8) (size 9 to 14) (size 15 to 20)
#    0.000    2.125    1.250    2.250    1.750    3.500 
#    0.000    2.500    0.000    2.250    0.000    0.000 
#    0.000    0.000    0.000    0.000    0.000    0.000 
#
# Total GULP energy -396870.939656 kJ/mol
# GULP energy per Si atom -12402.216864 kJ/mol
# Density = 1.912539 g / cm^3
# Si number density = 19.169016 Si / 1000 Ang^3
#
#
#
# Elastic Constant Matrix: (Units=GPa)
#
#
# Indices 1 2 3 4 5 6 
#
# 1 65.9950 31.2825 32.1060 0.0000 -21.8404 0.0000
# 2 31.2825 68.9415 33.3716 0.0000 -5.4673 0.0000
# 3 32.1060 33.3716 93.3144 0.0000 -4.1890 0.0000
# 4 0.0000 0.0000 0.0000 33.1356 0.0000 4.7236
# 5 -21.8404 -5.4673 -4.1890 0.0000 32.2868 0.0000
# 6 0.0000 0.0000 0.0000 4.7236 0.0000 28.5994
#
#
#
# Elastic Compliance Matrix: (Units=1/GPa)
#
#
# Indices 1 2 3 4 5 6 
#
# 1 0.027246 -0.008330 -0.005664 0.000000 0.016285 0.000000
# 2 -0.008330 0.020241 -0.004498 0.000000 -0.002791 0.000000
# 3 -0.005664 -0.004498 0.014150 0.000000 -0.002757 0.000000
# 4 0.000000 0.000000 0.000000 0.030907 0.000000 -0.005105
# 5 0.016285 -0.002791 -0.002757 0.000000 0.041158 0.000000
# 6 0.000000 0.000000 0.000000 -0.005105 0.000000 0.035809
#
#
# Mechanical properties :
#
#
# Convention : Reuss Voigt Hill
#
# Bulk Modulus (GPa) = 40.56318 46.86347 43.71333
# Shear Modulus (GPa) = 23.28698 27.57042 25.42870
#
# Velocity S-wave (km/s) = 3.48921 3.79658 3.64614
# Velocity P-wave (km/s) = 6.11879 6.61206 6.37020
#
# Compressibility (1/GPa) = 0.02465290
#
# Stress axis : x y z
#
# Youngs Moduli (GPa) = 36.70244 49.40565 70.67059
#
# Poissons Ratio (x) = 0.41153 0.40031
# Poissons Ratio (y) = 0.30572 0.31787
# Poissons Ratio (z) = 0.20790 0.22222
#
# Static dielectric constant tensor:
#      x y z
#    x 3.668810 0.000000 -0.140850 
#    y 0.000000 3.403970 0.000000 
#    z -0.140850 0.000000 3.520650 
# 
# 
# High freq. dielectric constant tensor:
#      x y z
#    x 1.749500 0.000000 -0.004840 
#    y 0.000000 1.737980 0.000000 
#    z -0.004840 0.000000 1.750690 
# 
# From -- ./inp_files/249916.got.cif
#   From: 2010.06.25/outbox.cif.g09.slc.cpg/sg12_125_cif.got.tgz:249916.got - 2010.06.28 00:19:55.
