data_PCOD8106813
_publ_section_title
;
Structure prediction by ZEFSAII (Michael W. Deem and Ramdas Pophale) SiO2 
 PCOD8106813
Probable space group: C 2/M
;
_chemical_formula_sum "Si O2"
_cell_formula_units_Z 56
_cell_length_a 12.698591
_cell_length_b 13.369269
_cell_length_c 27.638618
_cell_angle_alpha 90.000000
_cell_angle_beta 39.419892
_cell_angle_gamma 90.000000
_cell_volume 2979.561770
_symmetry_space_group_name_H-M "C 2/M"
_symmetry_group_IT_number 12
_symmetry_cell_setting 'monoclinic'
loop_
_space_group_symop_operation_xyz
x,y,z
-x,y,-z
-x,-y,-z
x,-y,z
1/2+x,1/2+y,z
1/2-x,1/2+y,-z
1/2-x,1/2-y,-z
1/2+x,1/2-y,z
loop_
_atom_site_type_symbol
_atom_site_label
_atom_site_fract_x
_atom_site_fract_y
_atom_site_fract_z
Si Si1 0.423091 0.385042 0.296550
Si Si2 0.319936 0.221799 0.548279
Si Si3 0.612470 0.115982 0.574488
Si Si4 0.248186 0.886499 0.739365
Si Si5 0.816875 0.778498 0.053153
Si Si6 0.743216 0.778253 0.820290
Si Si7 0.898687 0.383195 0.947097
O O1 0.434838 0.500000 0.306809
O O2 0.264345 0.339754 0.379169
O O3 0.397974 0.371512 0.247876
O O4 0.591121 0.333765 0.255505
O O5 0.500000 0.257984 0.500000
O O6 0.331362 0.149144 0.498414
O O7 0.217393 0.322592 0.576172
O O8 0.420148 0.139570 0.651897
O O9 0.653627 0.000000 0.566738
O O10 0.210028 0.817164 0.798499
O O11 0.250540 0.000000 0.758004
O O12 0.726202 0.756965 0.135717
O O13 0.712916 0.860326 0.060370
O O14 0.828815 0.675711 0.018355
O O15 0.000000 0.821323 0.000000
O O16 0.588265 0.852630 0.869991
O O17 0.889074 0.500000 0.962419
#
# Coordination Sequence:
#
# PCOD8106813 Si02
#       7
#     8   8   8   8   8   8   8
#     4  11  22  35  55  84 112 148 191 236 284 332
#     4  11  21  36  59  81 110 149 191 244 283 333
#     4  10  21  37  56  81 109 145 191 237 286 340
#     4  10  21  37  57  80 112 150 190 231 280 339
#     4   9  21  39  60  86 116 149 184 230 272 335
#     4  11  21  38  57  84 119 148 186 229 283 334
#     4  10  21  39  62  87 114 149 187 229 278 331
#
# _framework density 18.794709999999998
#
# number of rings (size 3 to 8) (size 9 to 14) (size 15 to 20)
#    0.000    1.714    2.857    1.714    0.000    4.857 
#    0.000    8.571    0.000    0.857    0.000    0.000 
#    0.000    0.000    0.000    0.000    0.000    0.000 
#
# Total GULP energy -347288.513429 kJ/mol
# GULP energy per Si atom -12403.161194 kJ/mol
# Density = 1.875193 g / cm^3
# Si number density = 18.794710 Si / 1000 Ang^3
#
#
#
# Elastic Constant Matrix: (Units=GPa)
#
#
# Indices 1 2 3 4 5 6 
#
# 1 89.6543 34.0072 18.8571 -0.0002 0.7302 0.0001
# 2 34.0072 102.2757 29.6952 -0.0001 5.4135 0.0000
# 3 18.8571 29.6952 58.5869 0.0001 2.1609 0.0000
# 4 -0.0002 -0.0001 0.0001 27.6169 0.0002 -2.3398
# 5 0.7302 5.4135 2.1609 0.0002 30.7814 -0.0001
# 6 0.0001 0.0000 0.0000 -2.3398 -0.0001 24.8712
#
#
#
# Elastic Compliance Matrix: (Units=1/GPa)
#
#
# Indices 1 2 3 4 5 6 
#
# 1 0.013040 -0.003680 -0.002350 0.000000 0.000503 0.000000
# 2 -0.003680 0.012584 -0.005128 0.000000 -0.001766 0.000000
# 3 -0.002350 -0.005128 0.020442 0.000000 -0.000477 0.000000
# 4 0.000000 0.000000 0.000000 0.036501 0.000000 0.003434
# 5 0.000503 -0.001766 -0.000477 0.000000 0.032819 0.000000
# 6 0.000000 0.000000 0.000000 0.003434 0.000000 0.040530
#
#
# Mechanical properties :
#
#
# Convention : Reuss Voigt Hill
#
# Bulk Modulus (GPa) = 42.10890 46.18176 44.14533
# Shear Modulus (GPa) = 26.86004 27.85106 27.35555
#
# Velocity S-wave (km/s) = 3.78448 3.85366 3.81923
# Velocity P-wave (km/s) = 6.44591 6.66528 6.55651
#
# Compressibility (1/GPa) = 0.02374795
#
# Stress axis : x y z
#
# Youngs Moduli (GPa) = 76.68627 79.46830 48.91847
#
# Poissons Ratio (x) = 0.29245 0.11498
# Poissons Ratio (y) = 0.28221 0.25088
# Poissons Ratio (z) = 0.18025 0.40755
#
# Static dielectric constant tensor:
#      x y z
#    x 3.569830 0.000000 -0.073330 
#    y 0.000000 3.298630 0.000000 
#    z -0.073330 0.000000 3.408540 
# 
# 
# High freq. dielectric constant tensor:
#      x y z
#    x 1.739050 0.000000 -0.005830 
#    y 0.000000 1.722880 0.000000 
#    z -0.005830 0.000000 1.734730 
# 
# From -- ./inp_files/358177.got.cif
#   From: 2010.06.25/outbox.cif.g09.slc.cpg/sg12_180_cif.got.tgz:358177.got - 2010.06.28 00:19:55.
