data_PCOD8106983
_publ_section_title
;
Structure prediction by ZEFSAII (Michael W. Deem and Ramdas Pophale) SiO2 
 PCOD8106983
Probable space group: C 2/M
;
_chemical_formula_sum "Si O2"
_cell_formula_units_Z 64
_cell_length_a 17.543385
_cell_length_b 13.946736
_cell_length_c 18.113593
_cell_angle_alpha 90.000000
_cell_angle_beta 44.786538
_cell_angle_gamma 90.000000
_cell_volume 3122.133900
_symmetry_space_group_name_H-M "C 2/M"
_symmetry_group_IT_number 12
_symmetry_cell_setting 'monoclinic'
loop_
_space_group_symop_operation_xyz
x,y,z
-x,y,-z
-x,-y,-z
x,-y,z
1/2+x,1/2+y,z
1/2-x,1/2+y,-z
1/2-x,1/2-y,-z
1/2+x,1/2-y,z
loop_
_atom_site_type_symbol
_atom_site_label
_atom_site_fract_x
_atom_site_fract_y
_atom_site_fract_z
Si Si1 0.939060 0.111202 0.308319
Si Si2 0.796508 0.759180 0.049732
Si Si3 0.021989 0.741119 0.835302
Si Si4 0.191749 0.388524 0.240436
Si Si5 0.510946 0.892500 0.711293
Si Si6 0.243060 0.111741 0.452050
Si Si7 0.663356 0.610882 0.224698
Si Si8 0.744196 0.286319 0.301080
O O1 0.933338 0.161798 0.233240
O O2 0.835187 0.140741 0.427532
O O3 0.046285 0.145823 0.277613
O O4 0.942334 0.000000 0.289434
O O5 0.758610 0.852328 0.122362
O O6 0.759517 0.663755 0.116375
O O7 0.750000 0.750000 0.000000
O O8 0.927151 0.763247 0.958310
O O9 0.973468 0.673175 0.804926
O O10 0.127206 0.696018 0.802941
O O11 0.220856 0.500000 0.236893
O O12 0.214336 0.323101 0.297308
O O13 0.064866 0.375967 0.307794
O O14 0.634796 0.871515 0.603482
O O15 0.497575 0.000000 0.749999
O O16 0.217745 0.186480 0.403580
O O17 0.224716 0.000000 0.440909
O O18 0.679985 0.500000 0.199572
O O19 0.673766 0.637902 0.303164
#
# Coordination Sequence:
#
# PCOD8106983 Si02
#       8
#     8   8   8   8   8   8   8   8
#     4  10  21  37  59  85 112 144 187 234 277 329
#     4  11  20  36  59  85 112 144 190 233 277 327
#     4  11  21  37  57  84 113 145 189 232 277 324
#     4  10  21  37  57  84 116 151 187 226 275 333
#     4   9  18  34  57  80 106 142 187 232 271 320
#     4   9  19  37  61  86 109 141 185 234 286 328
#     4  10  21  37  57  85 117 146 183 231 280 333
#     4  10  22  37  56  81 117 150 181 228 277 338
#
# _framework density 20.498801
#
# number of rings (size 3 to 8) (size 9 to 14) (size 15 to 20)
#    0.000    2.000    2.500    1.125    0.000    7.000 
#    0.000    4.375    0.000    0.750    0.000   10.500 
#    0.000    0.000    0.000    0.000    0.000    0.000 
#
# Total GULP energy -396691.171653 kJ/mol
# GULP energy per Si atom -12396.599114 kJ/mol
# Density = 2.045214 g / cm^3
# Si number density = 20.498801 Si / 1000 Ang^3
#
#
#
# Elastic Constant Matrix: (Units=GPa)
#
#
# Indices 1 2 3 4 5 6 
#
# 1 55.5595 13.4377 18.3104 0.0000 -17.1610 0.0000
# 2 13.4377 87.8481 35.8043 0.0000 -6.5369 0.0000
# 3 18.3104 35.8043 119.3620 0.0000 -19.6417 0.0000
# 4 0.0000 0.0000 0.0000 27.1592 0.0000 -1.2223
# 5 -17.1610 -6.5369 -19.6417 0.0000 15.4337 0.0000
# 6 0.0000 0.0000 0.0000 -1.2223 0.0000 26.7799
#
#
#
# Elastic Compliance Matrix: (Units=1/GPa)
#
#
# Indices 1 2 3 4 5 6 
#
# 1 0.028032 -0.002618 0.001811 0.000000 0.032365 0.000000
# 2 -0.002618 0.013219 -0.003948 0.000000 -0.002336 0.000000
# 3 0.001811 -0.003948 0.011815 0.000000 0.015378 0.000000
# 4 0.000000 0.000000 0.000000 0.036896 0.000000 0.001684
# 5 0.032365 -0.002336 0.015378 0.000000 0.119361 0.000000
# 6 0.000000 0.000000 0.000000 0.001684 0.000000 0.037418
#
#
# Mechanical properties :
#
#
# Convention : Reuss Voigt Hill
#
# Bulk Modulus (GPa) = 22.95901 44.20826 33.58364
# Shear Modulus (GPa) = 18.46591 26.88905 22.67748
#
# Velocity S-wave (km/s) = 3.00464 3.62572 3.32969
# Velocity P-wave (km/s) = 4.82303 6.25627 5.58581
#
# Compressibility (1/GPa) = 0.04355588
#
# Stress axis : x y z
#
# Youngs Moduli (GPa) = 35.67381 75.64882 84.63935
#
# Poissons Ratio (x) = 0.19802 -0.15327
# Poissons Ratio (y) = 0.09338 0.33417
# Poissons Ratio (z) = -0.06460 0.29867
#
# Static dielectric constant tensor:
#      x y z
#    x 3.953330 0.000000 -0.098070 
#    y 0.000000 3.877960 0.000000 
#    z -0.098070 0.000000 3.730820 
# 
# 
# High freq. dielectric constant tensor:
#      x y z
#    x 1.804450 0.000000 -0.016250 
#    y 0.000000 1.809270 0.000000 
#    z -0.016250 0.000000 1.784330 
# 
# From -- ./inp_files/270631.got.cif
#   From: 2010.06.25/outbox.cif.g09.slc.cpg/sg12_136_cif.got.tgz:270631.got - 2010.06.28 00:19:55.
