data_PCOD8106832
_publ_section_title
;
Structure prediction by ZEFSAII (Michael W. Deem and Ramdas Pophale) SiO2 
 PCOD8106832
Probable space group: C 2/M
;
_chemical_formula_sum "Si O2"
_cell_formula_units_Z 56
_cell_length_a 27.935982
_cell_length_b 9.158918
_cell_length_c 19.177488
_cell_angle_alpha 90.000000
_cell_angle_beta 35.099703
_cell_angle_gamma 90.000000
_cell_volume 2821.424550
_symmetry_space_group_name_H-M "C 2/M"
_symmetry_group_IT_number 12
_symmetry_cell_setting 'monoclinic'
loop_
_space_group_symop_operation_xyz
x,y,z
-x,y,-z
-x,-y,-z
x,-y,z
1/2+x,1/2+y,z
1/2-x,1/2+y,-z
1/2-x,1/2-y,-z
1/2+x,1/2-y,z
loop_
_atom_site_type_symbol
_atom_site_label
_atom_site_fract_x
_atom_site_fract_y
_atom_site_fract_z
Si Si1 0.760889 0.832611 0.690913
Si Si2 0.055289 0.832449 0.498940
Si Si3 0.279381 0.668067 0.396451
Si Si4 0.467708 0.668599 0.195905
Si Si5 0.996947 0.666671 0.302345
Si Si6 0.319636 0.163588 0.956047
Si Si7 0.877697 0.326936 0.035280
O O1 0.845919 0.817018 0.634628
O O2 0.767512 0.735281 0.614068
O O3 0.682635 0.780076 0.830227
O O4 0.748183 0.000000 0.683027
O O5 0.037556 0.734689 0.586494
O O6 0.000000 0.775554 0.500000
O O7 0.031585 0.000000 0.543715
O O8 0.253174 0.500000 0.434720
O O9 0.250000 0.750000 0.500000
O O10 0.377998 0.685091 0.267231
O O11 0.492388 0.500000 0.176968
O O12 0.463329 0.744896 0.276269
O O13 0.533485 0.745629 0.065200
O O14 0.966013 0.500000 0.331895
O O15 0.096386 0.673355 0.188543
O O16 0.286675 0.000000 0.002315
O O17 0.250000 0.250000 0.000000
O O18 0.334858 0.227519 0.014956
O O19 0.894433 0.500000 0.012965
#
# Coordination Sequence:
#
# PCOD8106832 Si02
#       7
#     8   8   8   8   8   8   8
#     4  10  22  40  60  86 119 154 194 239 288 347
#     4  10  22  38  59  84 113 153 194 236 289 344
#     4  11  24  40  61  89 118 152 194 241 290 345
#     4  10  21  38  60  86 116 150 192 238 288 344
#     4  10  21  37  56  82 114 147 189 238 287 341
#     4   9  19  33  53  80 109 145 189 236 282 334
#     4   9  20  38  58  83 118 154 192 237 287 344
#
# _framework density 19.848130000000001
#
# number of rings (size 3 to 8) (size 9 to 14) (size 15 to 20)
#    0.000    2.143    0.000    3.000    2.000   10.571 
#    0.000    2.857    0.000    0.000    0.000    0.000 
#    0.000    0.000    0.000    0.000    0.000    0.000 
#
# Total GULP energy -347251.544984 kJ/mol
# GULP energy per Si atom -12401.840892 kJ/mol
# Density = 1.980295 g / cm^3
# Si number density = 19.848130 Si / 1000 Ang^3
#
#
#
# Elastic Constant Matrix: (Units=GPa)
#
#
# Indices 1 2 3 4 5 6 
#
# 1 85.2082 36.9548 42.2817 0.0103 -7.8302 -0.0002
# 2 36.9548 93.3463 46.0775 0.0044 -0.3778 0.0033
# 3 42.2817 46.0775 102.9937 0.0134 10.5103 0.0053
# 4 0.0103 0.0044 0.0134 35.3442 0.0010 -0.3783
# 5 -7.8302 -0.3778 10.5103 0.0010 31.0617 -0.0046
# 6 -0.0002 0.0033 0.0053 -0.3783 -0.0046 31.6851
#
#
#
# Elastic Compliance Matrix: (Units=1/GPa)
#
#
# Indices 1 2 3 4 5 6 
#
# 1 0.016841 -0.003745 -0.005870 -0.000002 0.006186 0.000002
# 2 -0.003745 0.014746 -0.005160 0.000001 0.000981 -0.000001
# 3 -0.005870 -0.005160 0.015107 -0.000003 -0.006654 -0.000003
# 4 -0.000002 0.000001 -0.000003 0.028297 0.000000 0.000338
# 5 0.006186 0.000981 -0.006654 0.000000 0.036017 0.000006
# 6 0.000002 -0.000001 -0.000003 0.000338 0.000006 0.031565
#
#
# Mechanical properties :
#
#
# Convention : Reuss Voigt Hill
#
# Bulk Modulus (GPa) = 58.32597 59.13067 58.72832
# Shear Modulus (GPa) = 28.11574 30.03383 29.07478
#
# Velocity S-wave (km/s) = 3.76778 3.89418 3.83150
# Velocity P-wave (km/s) = 6.95544 7.07642 7.01619
#
# Compressibility (1/GPa) = 0.01714502
#
# Stress axis : x y z
#
# Youngs Moduli (GPa) = 59.37826 67.81311 66.19657
#
# Poissons Ratio (x) = 0.25395 0.38855
# Poissons Ratio (y) = 0.22236 0.34158
# Poissons Ratio (z) = 0.34853 0.34992
#
# Static dielectric constant tensor:
#      x y z
#    x 3.582870 -0.000010 -0.088010 
#    y -0.000010 3.649300 0.000020 
#    z -0.088010 0.000020 3.776980 
# 
# 
# High freq. dielectric constant tensor:
#      x y z
#    x 1.768290 0.000000 -0.009150 
#    y 0.000000 1.773650 0.000000 
#    z -0.009150 0.000000 1.781950 
# 
# From -- ./inp_files/329477.got.cif
#   From: 2010.06.25/outbox.cif.g09.slc.cpg/sg12_165_cif.got.tgz:329477.got - 2010.06.28 00:19:55.
