data_PCOD8106841
_publ_section_title
;
Structure prediction by ZEFSAII (Michael W. Deem and Ramdas Pophale) SiO2 
 PCOD8106841
Probable space group: C 2/M
;
_chemical_formula_sum "Si O2"
_cell_formula_units_Z 28
_cell_length_a 8.144758
_cell_length_b 12.958328
_cell_length_c 12.072414
_cell_angle_alpha 90.000000
_cell_angle_beta 114.029817
_cell_angle_gamma 90.000000
_cell_volume 1163.726007
_symmetry_space_group_name_H-M "C 2/M"
_symmetry_group_IT_number 12
_symmetry_cell_setting 'monoclinic'
loop_
_space_group_symop_operation_xyz
x,y,z
-x,y,-z
-x,-y,-z
x,-y,z
1/2+x,1/2+y,z
1/2-x,1/2+y,-z
1/2-x,1/2-y,-z
1/2+x,1/2-y,z
loop_
_atom_site_type_symbol
_atom_site_label
_atom_site_fract_x
_atom_site_fract_y
_atom_site_fract_z
Si Si1 0.526124 0.110638 0.135138
Si Si2 0.132078 0.884028 0.367897
Si Si3 0.651815 0.678655 0.136229
Si Si4 0.000000 0.729839 0.500000
O O1 0.669119 0.203097 0.187533
O O2 0.339737 0.142655 0.140136
O O3 0.592270 0.000000 0.204976
O O4 0.500000 0.091584 0.000000
O O5 0.094338 0.889144 0.225662
O O6 0.332732 0.846264 0.448268
O O7 0.998738 0.803984 0.391808
O O8 0.106198 0.000000 0.407127
O O9 0.500000 0.670135 0.000000
#
# Coordination Sequence:
#
# PCOD8106841 Si02
#       4
#     8   8   8   4
#     4  10  21  37  56  82 122 166 200 236 290 356
#     4  11  23  42  66  90 122 161 202 253 305 355
#     4  11  22  39  62  93 128 158 197 248 304 370
#     4  10  24  44  64  90 118 158 214 256 292 352
#
# _framework density 24.060646999999999
#
# number of rings (size 3 to 8) (size 9 to 14) (size 15 to 20)
#    0.000    1.429    0.000    6.857    0.000    2.286 
#    0.000   15.714    0.000    0.857    0.000    0.000 
#    0.000    0.000    0.000    0.000    0.000    0.000 
#
# Total GULP energy -173498.063643 kJ/mol
# GULP energy per Si atom -12392.718832 kJ/mol
# Density = 2.400588 g / cm^3
# Si number density = 24.060647 Si / 1000 Ang^3
#
#
#
# Elastic Constant Matrix: (Units=GPa)
#
#
# Indices 1 2 3 4 5 6 
#
# 1 57.9885 15.9898 10.8881 0.0000 -32.2975 0.0000
# 2 15.9898 166.4144 9.3217 0.0000 -0.4392 0.0000
# 3 10.8881 9.3217 85.0811 0.0000 -18.4911 0.0000
# 4 0.0000 0.0000 0.0000 24.4564 0.0000 -6.4538
# 5 -32.2975 -0.4392 -18.4911 0.0000 32.9713 0.0000
# 6 0.0000 0.0000 0.0000 -6.4538 0.0000 11.7819
#
#
#
# Elastic Compliance Matrix: (Units=1/GPa)
#
#
# Indices 1 2 3 4 5 6 
#
# 1 0.041636 -0.004140 0.004529 0.000000 0.043270 0.000000
# 2 -0.004140 0.006461 -0.001185 0.000000 -0.004634 0.000000
# 3 0.004529 -0.001185 0.013967 0.000000 0.012254 0.000000
# 4 0.000000 0.000000 0.000000 0.047798 0.000000 0.026183
# 5 0.043270 -0.004634 0.012254 0.000000 0.079525 0.000000
# 6 0.000000 0.000000 0.000000 0.026183 0.000000 0.099218
#
#
# Mechanical properties :
#
#
# Convention : Reuss Voigt Hill
#
# Bulk Modulus (GPa) = 16.53666 42.43146 29.48406
# Shear Modulus (GPa) = 16.11062 32.06088 24.08575
#
# Velocity S-wave (km/s) = 2.59044 3.65431 3.16736
# Velocity P-wave (km/s) = 3.97932 5.95641 5.06526
#
# Compressibility (1/GPa) = 0.06047170
#
# Stress axis : x y z
#
# Youngs Moduli (GPa) = 24.01795 154.77375 71.59774
#
# Poissons Ratio (x) = 0.64077 -0.32429
# Poissons Ratio (y) = 0.09943 0.08486
# Poissons Ratio (z) = -0.10879 0.18344
#
# Static dielectric constant tensor:
#      x y z
#    x 4.151470 0.000000 -0.090430 
#    y 0.000000 5.125580 0.000000 
#    z -0.090430 0.000000 3.619370 
# 
# 
# High freq. dielectric constant tensor:
#      x y z
#    x 1.958220 0.000000 -0.023040 
#    y 0.000000 1.975110 0.000000 
#    z -0.023040 0.000000 1.934420 
# 
# From -- ./inp_files/117576.got.cif
#   From: 2010.06.25/outbox.cif.g09.slc.cpg/sg12_59_cif.got.tgz:117576.got - 2010.06.28 00:19:55.
