data_PCOD8106474
_publ_section_title
;
Structure prediction by ZEFSAII (Michael W. Deem and Ramdas Pophale) SiO2 
 PCOD8106474
Probable space group: C 2/M
;
_chemical_formula_sum "Si O2"
_cell_formula_units_Z 64
_cell_length_a 12.084952
_cell_length_b 14.701069
_cell_length_c 17.724703
_cell_angle_alpha 90.000000
_cell_angle_beta 86.655003
_cell_angle_gamma 90.000000
_cell_volume 3143.636151
_symmetry_space_group_name_H-M "C 2/M"
_symmetry_group_IT_number 12
_symmetry_cell_setting 'monoclinic'
loop_
_space_group_symop_operation_xyz
x,y,z
-x,y,-z
-x,-y,-z
x,-y,z
1/2+x,1/2+y,z
1/2-x,1/2+y,-z
1/2-x,1/2-y,-z
1/2+x,1/2-y,z
loop_
_atom_site_type_symbol
_atom_site_label
_atom_site_fract_x
_atom_site_fract_y
_atom_site_fract_z
Si Si1 0.614559 0.672200 0.302664
Si Si2 0.616888 0.604517 0.710971
Si Si3 0.295836 0.104644 0.401067
Si Si4 0.474772 0.818311 0.585746
Si Si5 0.241135 0.767438 0.819400
Si Si6 0.383694 0.896578 0.100213
Si Si7 0.640147 0.896859 0.073272
Si Si8 0.250019 0.397258 0.435019
O O1 0.516736 0.605027 0.280341
O O2 0.718593 0.616852 0.331561
O O3 0.564882 0.728715 0.372389
O O4 0.652471 0.737579 0.233458
O O5 0.656940 0.500000 0.720260
O O6 0.660258 0.667327 0.776228
O O7 0.666159 0.647151 0.630061
O O8 0.416257 0.144611 0.376454
O O9 0.244431 0.148369 0.481044
O O10 0.314782 0.000000 0.418542
O O11 0.500000 0.790010 0.500000
O O12 0.375689 0.892314 0.591486
O O13 0.178569 0.675496 0.845218
O O14 0.281132 0.824169 0.889830
O O15 0.514170 0.879562 0.102925
O O16 0.354566 0.000000 0.127177
O O17 0.345015 0.882351 0.016141
O O18 0.674642 0.000000 0.093865
O O19 0.289893 0.500000 0.440412
#
# Coordination Sequence:
#
# PCOD8106474 Si02
#       8
#     8   8   8   8   8   8   8   8
#     4  12  25  37  54  86 118 157 201 248 301 356
#     4  11  24  40  56  81 121 161 201 249 299 355
#     4  10  22  39  59  79 106 149 201 255 309 359
#     4  10  21  36  59  81 110 142 196 257 309 355
#     4  12  22  39  60  89 123 163 197 236 297 357
#     4   9  20  39  65  94 123 153 190 243 290 343
#     4   9  19  39  66  95 121 152 197 238 285 347
#     4   9  19  38  60  81 106 146 200 258 310 356
#
# _framework density 20.358588999999998
#
# number of rings (size 3 to 8) (size 9 to 14) (size 15 to 20)
#    0.000    1.750    1.250    3.750    1.750    3.500 
#    0.000    3.125    0.000    0.000    0.000    7.875 
#    0.000    0.000    0.000    0.000    0.000    0.000 
#
# Total GULP energy -396729.920048 kJ/mol
# GULP energy per Si atom -12397.810002 kJ/mol
# Density = 2.031225 g / cm^3
# Si number density = 20.358589 Si / 1000 Ang^3
#
#
#
# Elastic Constant Matrix: (Units=GPa)
#
#
# Indices 1 2 3 4 5 6 
#
# 1 89.6479 19.7801 34.3773 0.0000 -3.5481 0.0000
# 2 19.7801 77.5269 32.6358 0.0000 -8.4543 0.0000
# 3 34.3773 32.6358 65.6403 0.0000 2.0078 0.0000
# 4 0.0000 0.0000 0.0000 20.7460 0.0000 -1.5964
# 5 -3.5481 -8.4543 2.0078 0.0000 23.2029 0.0000
# 6 0.0000 0.0000 0.0000 -1.5964 0.0000 32.3707
#
#
#
# Elastic Compliance Matrix: (Units=1/GPa)
#
#
# Indices 1 2 3 4 5 6 
#
# 1 0.014141 -0.000199 -0.007390 0.000000 0.002729 0.000000
# 2 -0.000199 0.017412 -0.008769 0.000000 0.007073 0.000000
# 3 -0.007390 -0.008769 0.023660 0.000000 -0.006373 0.000000
# 4 0.000000 0.000000 0.000000 0.048386 0.000000 0.002386
# 5 0.002729 0.007073 -0.006373 0.000000 0.046644 0.000000
# 6 0.000000 0.000000 0.000000 0.002386 0.000000 0.031010
#
#
# Mechanical properties :
#
#
# Convention : Reuss Voigt Hill
#
# Bulk Modulus (GPa) = 44.45332 45.15572 44.80452
# Shear Modulus (GPa) = 22.57657 24.99871 23.78764
#
# Velocity S-wave (km/s) = 3.33370 3.50797 3.42194
# Velocity P-wave (km/s) = 6.05810 6.21580 6.13746
#
# Compressibility (1/GPa) = 0.02249551
#
# Stress axis : x y z
#
# Youngs Moduli (GPa) = 70.71813 57.43032 42.26559
#
# Poissons Ratio (x) = 0.01144 0.31235
# Poissons Ratio (y) = 0.01409 0.37064
# Poissons Ratio (z) = 0.52262 0.50362
#
# Static dielectric constant tensor:
#      x y z
#    x 3.780310 0.000000 -0.023620 
#    y 0.000000 3.567010 0.000000 
#    z -0.023620 0.000000 3.620050 
# 
# 
# High freq. dielectric constant tensor:
#      x y z
#    x 1.794060 0.000000 -0.000090 
#    y 0.000000 1.797710 0.000000 
#    z -0.000090 0.000000 1.787580 
# 
# From -- ./inp_files/263351.got.cif
#   From: 2010.06.25/outbox.cif.g09.slc.cpg/sg12_132_cif.got.tgz:263351.got - 2010.06.28 00:19:55.
