data_PCOD8106236
_publ_section_title
;
Structure prediction by ZEFSAII (Michael W. Deem and Ramdas Pophale) SiO2 
 PCOD8106236
Probable space group: C 2/M
;
_chemical_formula_sum "Si O2"
_cell_formula_units_Z 64
_cell_length_a 25.029594
_cell_length_b 8.949303
_cell_length_c 31.692814
_cell_angle_alpha 90.000000
_cell_angle_beta 154.032432
_cell_angle_gamma 90.000000
_cell_volume 3108.432147
_symmetry_space_group_name_H-M "C 2/M"
_symmetry_group_IT_number 12
_symmetry_cell_setting 'monoclinic'
loop_
_space_group_symop_operation_xyz
x,y,z
-x,y,-z
-x,-y,-z
x,-y,z
1/2+x,1/2+y,z
1/2-x,1/2+y,-z
1/2-x,1/2-y,-z
1/2+x,1/2-y,z
loop_
_atom_site_type_symbol
_atom_site_label
_atom_site_fract_x
_atom_site_fract_y
_atom_site_fract_z
Si Si1 0.737883 0.824168 0.768567
Si Si2 0.495047 0.324751 0.910012
Si Si3 0.006623 0.675950 0.551820
Si Si4 0.477671 0.822647 0.810508
Si Si5 0.436453 0.672717 0.212558
Si Si6 0.350363 0.164429 0.597349
Si Si7 0.271284 0.337604 0.400014
Si Si8 0.207746 0.327160 0.106544
O O1 0.858799 0.786440 0.828115
O O2 0.623427 0.763134 0.659949
O O3 0.733364 0.736365 0.809095
O O4 0.727410 0.000000 0.770467
O O5 0.514423 0.500000 0.917712
O O6 0.528172 0.243224 0.889870
O O7 0.585446 0.264718 0.010121
O O8 0.014642 0.500000 0.555496
O O9 0.000000 0.744344 0.500000
O O10 0.880886 0.722426 0.484908
O O11 0.553270 0.753216 0.825309
O O12 0.332932 0.779805 0.706377
O O13 0.496821 0.000000 0.822906
O O14 0.471829 0.500000 0.231841
O O15 0.524810 0.742302 0.311153
O O16 0.300109 0.692898 0.133068
O O17 0.250000 0.250000 0.500000
O O18 0.301453 0.142830 0.609026
O O19 0.376166 0.000000 0.595726
O O20 0.323052 0.500000 0.422710
O O21 0.174684 0.500000 0.089889
#
# Coordination Sequence:
#
# PCOD8106236 Si02
#       8
#     8   8   8   8   8   8   8   8
#     4  10  23  41  61  89 122 159 204 252 303 362
#     4  11  23  41  66  90 117 157 203 254 308 367
#     4  10  21  37  58  86 119 155 197 242 289 348
#     4  10  21  39  63  91 123 159 201 252 304 361
#     4  10  22  40  60  87 122 160 203 249 302 362
#     4  10  21  36  56  83 117 155 196 241 290 351
#     4   9  20  36  54  82 117 151 191 236 286 344
#     4  11  25  42  62  89 122 159 201 254 308 365
#
# _framework density 20.589158000000001
#
# number of rings (size 3 to 8) (size 9 to 14) (size 15 to 20)
#    0.000    1.875    0.000    3.750    1.750    9.750 
#    0.000    0.000    0.000    0.000    0.000    0.000 
#    0.000    0.000    0.000    0.000    0.000    0.000 
#
# Total GULP energy -396833.787200 kJ/mol
# GULP energy per Si atom -12401.055850 kJ/mol
# Density = 2.054230 g / cm^3
# Si number density = 20.589158 Si / 1000 Ang^3
#
#
#
# Elastic Constant Matrix: (Units=GPa)
#
#
# Indices 1 2 3 4 5 6 
#
# 1 72.2522 43.4790 35.7044 0.0031 -5.2732 0.0015
# 2 43.4790 102.8077 45.3992 0.0024 -2.1936 0.0042
# 3 35.7044 45.3992 124.4894 -0.0087 -9.6558 -0.0029
# 4 0.0031 0.0024 -0.0087 35.7152 -0.0007 -2.3480
# 5 -5.2732 -2.1936 -9.6558 -0.0007 31.4838 0.0002
# 6 0.0015 0.0042 -0.0029 -2.3480 0.0002 32.5698
#
#
#
# Elastic Compliance Matrix: (Units=1/GPa)
#
#
# Indices 1 2 3 4 5 6 
#
# 1 0.019620 -0.006958 -0.002943 -0.000002 0.001899 0.000000
# 2 -0.006958 0.014069 -0.003226 -0.000001 -0.001175 -0.000002
# 3 -0.002943 -0.003226 0.010241 0.000003 0.002423 0.000002
# 4 -0.000002 -0.000001 0.000003 0.028133 0.000001 0.002028
# 5 0.001899 -0.001175 0.002423 0.000001 0.032742 0.000000
# 6 0.000000 -0.000002 0.000002 0.002028 0.000000 0.030849
#
#
# Mechanical properties :
#
#
# Convention : Reuss Voigt Hill
#
# Bulk Modulus (GPa) = 56.56979 60.96826 58.76902
# Shear Modulus (GPa) = 29.79741 31.61820 30.70781
#
# Velocity S-wave (km/s) = 3.80839 3.92302 3.86613
# Velocity P-wave (km/s) = 6.84643 7.08493 6.96670
#
# Compressibility (1/GPa) = 0.01767728
#
# Stress axis : x y z
#
# Youngs Moduli (GPa) = 50.96841 71.07782 97.64388
#
# Poissons Ratio (x) = 0.49454 0.28732
# Poissons Ratio (y) = 0.35462 0.31503
# Poissons Ratio (z) = 0.14997 0.22932
#
# Static dielectric constant tensor:
#      x y z
#    x -4.525890 0.000130 14.415550 
#    y 0.000130 3.814350 -0.000230 
#    z 14.415550 -0.000230 -21.998260 
# 
# 
# High freq. dielectric constant tensor:
#      x y z
#    x 1.800020 0.000000 -0.003570 
#    y 0.000000 1.809710 0.000000 
#    z -0.003570 0.000000 1.813540 
# 
# From -- ./inp_files/382446.got.cif
#   From: 2010.06.25/outbox.cif.g09.slc.cpg/sg12_192_cif.got.tgz:382446.got - 2010.06.28 00:19:55.
