data_PCOD8106139
_publ_section_title
;
Structure prediction by ZEFSAII (Michael W. Deem and Ramdas Pophale) SiO2 
 PCOD8106139
Probable space group: C 2/M
;
_chemical_formula_sum "Si O2"
_cell_formula_units_Z 56
_cell_length_a 10.072891
_cell_length_b 9.137992
_cell_length_c 31.773525
_cell_angle_alpha 90.000000
_cell_angle_beta 76.166981
_cell_angle_gamma 90.000000
_cell_volume 2839.801865
_symmetry_space_group_name_H-M "C 2/M"
_symmetry_group_IT_number 12
_symmetry_cell_setting 'monoclinic'
loop_
_space_group_symop_operation_xyz
x,y,z
-x,y,-z
-x,-y,-z
x,-y,z
1/2+x,1/2+y,z
1/2-x,1/2+y,-z
1/2-x,1/2-y,-z
1/2+x,1/2-y,z
loop_
_atom_site_type_symbol
_atom_site_label
_atom_site_fract_x
_atom_site_fract_y
_atom_site_fract_z
Si Si1 0.569555 0.329880 0.191819
Si Si2 0.114109 0.329058 0.523152
Si Si3 0.734347 0.828263 0.330349
Si Si4 0.927877 0.669694 0.377720
Si Si5 0.015525 0.828142 0.951466
Si Si6 0.216717 0.829315 0.095201
Si Si7 0.195846 0.328709 0.760183
O O1 0.528275 0.500000 0.193171
O O2 0.644038 0.280585 0.143607
O O3 0.668171 0.297040 0.223565
O O4 0.434119 0.233529 0.205309
O O5 0.138227 0.500000 0.515810
O O6 0.250000 0.250000 0.500000
O O7 0.067986 0.288800 0.573639
O O8 0.000000 0.270613 0.500000
O O9 0.813089 0.768728 0.365007
O O10 0.574596 0.793005 0.346756
O O11 0.793535 0.749900 0.285109
O O12 0.762124 0.000000 0.324485
O O13 0.890697 0.500000 0.373766
O O14 0.141900 0.755062 0.918578
O O15 0.878241 0.786812 0.937010
O O16 0.042656 0.000000 0.949219
O O17 0.000000 0.767527 0.000000
O O18 0.250307 0.000000 0.093357
O O19 0.173564 0.500000 0.754405
#
# Coordination Sequence:
#
# PCOD8106139 Si02
#       7
#     8   8   8   8   8   8   8
#     4  10  22  39  58  83 113 145 185 231 278 332
#     4  10  21  38  59  85 117 150 188 233 278 329
#     4  11  23  39  60  84 112 148 187 229 279 331
#     4  10  22  39  59  85 116 150 189 232 278 330
#     4  10  21  36  55  82 114 148 188 231 276 330
#     4  10  21  37  57  82 112 146 186 231 278 330
#     4  11  23  38  58  84 112 144 184 228 277 334
#
# _framework density 19.719684000000001
#
# number of rings (size 3 to 8) (size 9 to 14) (size 15 to 20)
#    0.000    1.714    0.000    3.857    0.000    8.000 
#    0.000    0.000    0.000    0.000    0.000    0.000 
#    0.000    0.000    0.000    0.000    0.000    0.000 
#
# Total GULP energy -347380.570308 kJ/mol
# GULP energy per Si atom -12406.448940 kJ/mol
# Density = 1.967480 g / cm^3
# Si number density = 19.719684 Si / 1000 Ang^3
#
#
#
# Elastic Constant Matrix: (Units=GPa)
#
#
# Indices 1 2 3 4 5 6 
#
# 1 67.5887 35.9700 9.0968 0.0000 -7.8302 0.0000
# 2 35.9700 61.5889 26.0188 0.0000 -4.7298 0.0000
# 3 9.0968 26.0188 91.6189 0.0000 0.0382 0.0000
# 4 0.0000 0.0000 0.0000 28.5693 0.0000 -7.1387
# 5 -7.8302 -4.7298 0.0382 0.0000 38.8589 0.0000
# 6 0.0000 0.0000 0.0000 -7.1387 0.0000 35.1320
#
#
#
# Elastic Compliance Matrix: (Units=1/GPa)
#
#
# Indices 1 2 3 4 5 6 
#
# 1 0.021982 -0.013295 0.001592 0.000000 0.002810 0.000000
# 2 -0.013295 0.026690 -0.006260 0.000000 0.000576 0.000000
# 3 0.001592 -0.006260 0.012535 0.000000 -0.000453 0.000000
# 4 0.000000 0.000000 0.000000 0.036875 0.000000 0.007493
# 5 0.002810 0.000576 -0.000453 0.000000 0.026371 0.000000
# 6 0.000000 0.000000 0.000000 0.007493 0.000000 0.029987
#
#
# Mechanical properties :
#
#
# Convention : Reuss Voigt Hill
#
# Bulk Modulus (GPa) = 39.55564 40.32975 39.94270
# Shear Modulus (GPa) = 25.15186 30.49276 27.82231
#
# Velocity S-wave (km/s) = 3.57525 3.93658 3.76026
# Velocity P-wave (km/s) = 6.09473 6.41546 6.25715
#
# Compressibility (1/GPa) = 0.02528085
#
# Stress axis : x y z
#
# Youngs Moduli (GPa) = 45.49149 37.46691 79.77882
#
# Poissons Ratio (x) = 0.49812 -0.12700
# Poissons Ratio (y) = 0.60481 0.49941
# Poissons Ratio (z) = -0.07242 0.23454
#
# Static dielectric constant tensor:
#      x y z
#    x 3.638470 0.000000 0.082020 
#    y 0.000000 3.494710 0.000000 
#    z 0.082020 0.000000 3.735690 
# 
# 
# High freq. dielectric constant tensor:
#      x y z
#    x 1.779810 0.000000 0.002630 
#    y 0.000000 1.764300 0.000000 
#    z 0.002630 0.000000 1.786860 
# 
# From -- ./inp_files/357493.got.cif
#   From: 2010.06.25/outbox.cif.g09.slc.cpg/sg12_179_cif.got.tgz:357493.got - 2010.06.28 00:19:55.
