data_PCOD8106863
_publ_section_title
;
Structure prediction by ZEFSAII (Michael W. Deem and Ramdas Pophale) SiO2 
 PCOD8106863
Probable space group: C 2/M
;
_chemical_formula_sum "Si O2"
_cell_formula_units_Z 64
_cell_length_a 18.254547
_cell_length_b 13.661288
_cell_length_c 24.319610
_cell_angle_alpha 90.000000
_cell_angle_beta 32.006107
_cell_angle_gamma 90.000000
_cell_volume 3214.423482
_symmetry_space_group_name_H-M "C 2/M"
_symmetry_group_IT_number 12
_symmetry_cell_setting 'monoclinic'
loop_
_space_group_symop_operation_xyz
x,y,z
-x,y,-z
-x,-y,-z
x,-y,z
1/2+x,1/2+y,z
1/2-x,1/2+y,-z
1/2-x,1/2-y,-z
1/2+x,1/2-y,z
loop_
_atom_site_type_symbol
_atom_site_label
_atom_site_fract_x
_atom_site_fract_y
_atom_site_fract_z
Si Si1 0.266839 0.612106 0.374815
Si Si2 0.331484 0.889978 0.250907
Si Si3 0.929205 0.390009 0.989150
Si Si4 0.467709 0.886108 0.386489
Si Si5 0.558382 0.203046 0.712120
Si Si6 0.222684 0.696490 0.287188
Si Si7 0.248163 0.774339 0.938229
Si Si8 0.492871 0.609010 0.069156
O O1 0.320702 0.500000 0.343023
O O2 0.392937 0.684733 0.309545
O O3 0.204030 0.634273 0.354729
O O4 0.143575 0.629449 0.495472
O O5 0.366861 0.866859 0.291632
O O6 0.214718 0.813307 0.304471
O O7 0.270883 0.000000 0.285095
O O8 0.469701 0.880091 0.127006
O O9 0.874224 0.500000 0.030909
O O10 0.796904 0.321783 0.066346
O O11 0.000000 0.354174 0.000000
O O12 0.406171 0.834991 0.371328
O O13 0.609472 0.833967 0.314693
O O14 0.498511 0.000000 0.355478
O O15 0.395219 0.192545 0.822631
O O16 0.376191 0.680718 0.166053
O O17 0.250000 0.750000 0.000000
O O18 0.141410 0.862777 0.998462
O O19 0.456854 0.500000 0.112059
O O20 0.500000 0.616610 0.000000
#
# Coordination Sequence:
#
# PCOD8106863 Si02
#       8
#     8   8   8   8   8   8   8   8
#     4  10  22  42  63  87 119 154 198 251 306 358
#     4  10  21  39  59  82 117 159 196 238 288 351
#     4  10  21  37  57  78 111 159 201 234 279 342
#     4  11  23  39  64  92 116 151 199 254 310 357
#     4  11  23  38  62  86 122 158 200 241 298 361
#     4  11  21  38  63  90 116 155 200 249 300 357
#     4  12  22  36  54  85 119 156 191 237 288 344
#     4  11  23  37  55  83 121 157 193 238 290 348
#
# _framework density 19.910257000000001
#
# number of rings (size 3 to 8) (size 9 to 14) (size 15 to 20)
#    0.000    1.250    2.500    4.125    1.750    4.000 
#    0.000    0.625    0.000    6.750    0.000    0.000 
#    0.000    0.000    0.000    0.000    0.000    0.000 
#
# Total GULP energy -396898.315517 kJ/mol
# GULP energy per Si atom -12403.072360 kJ/mol
# Density = 1.986494 g / cm^3
# Si number density = 19.910257 Si / 1000 Ang^3
#
#
#
# Elastic Constant Matrix: (Units=GPa)
#
#
# Indices 1 2 3 4 5 6 
#
# 1 105.1783 45.1816 11.9571 -0.0003 8.7395 0.0006
# 2 45.1816 138.3015 20.4177 -0.0013 0.5474 0.0001
# 3 11.9571 20.4177 59.3608 -0.0031 6.0357 0.0013
# 4 -0.0003 -0.0013 -0.0031 21.4053 0.0011 4.9927
# 5 8.7395 0.5474 6.0357 0.0011 27.0551 0.0002
# 6 0.0006 0.0001 0.0013 4.9927 0.0002 15.2854
#
#
#
# Elastic Compliance Matrix: (Units=1/GPa)
#
#
# Indices 1 2 3 4 5 6 
#
# 1 0.011429 -0.003616 -0.000707 0.000000 -0.003461 0.000000
# 2 -0.003616 0.008766 -0.002443 0.000000 0.001536 0.000000
# 3 -0.000707 -0.002443 0.018214 0.000003 -0.003786 -0.000002
# 4 0.000000 0.000000 0.000003 0.050570 -0.000003 -0.016518
# 5 -0.003461 0.001536 -0.003786 -0.000003 0.038893 0.000001
# 6 0.000000 0.000000 -0.000002 -0.016518 0.000001 0.070817
#
#
# Mechanical properties :
#
#
# Convention : Reuss Voigt Hill
#
# Bulk Modulus (GPa) = 40.19583 50.88371 45.53977
# Shear Modulus (GPa) = 22.67447 27.76811 25.22129
#
# Velocity S-wave (km/s) = 3.37832 3.73857 3.56300
# Velocity P-wave (km/s) = 5.95397 6.65191 6.31259
#
# Compressibility (1/GPa) = 0.02487820
#
# Stress axis : x y z
#
# Youngs Moduli (GPa) = 87.49867 114.07226 54.90372
#
# Poissons Ratio (x) = 0.41244 0.03879
# Poissons Ratio (y) = 0.31636 0.13414
# Poissons Ratio (z) = 0.06182 0.27869
#
# Static dielectric constant tensor:
#      x y z
#    x 3.862570 0.000000 0.309180 
#    y 0.000000 3.873100 0.000000 
#    z 0.309180 0.000000 3.344860 
# 
# 
# High freq. dielectric constant tensor:
#      x y z
#    x 1.783090 0.000000 0.020280 
#    y 0.000000 1.790720 0.000000 
#    z 0.020280 0.000000 1.763730 
# 
# From -- ./inp_files/344002.got.cif
#   From: 2010.06.25/outbox.cif.g09.slc.cpg/sg12_173_cif.got.tgz:344002.got - 2010.06.28 00:19:55.
