data_PCOD8106224
_publ_section_title
;
Structure prediction by ZEFSAII (Michael W. Deem and Ramdas Pophale) SiO2 
 PCOD8106224
Probable space group: C 2/M
;
_chemical_formula_sum "Si O2"
_cell_formula_units_Z 56
_cell_length_a 20.479575
_cell_length_b 8.966949
_cell_length_c 28.427288
_cell_angle_alpha 90.000000
_cell_angle_beta 148.132490
_cell_angle_gamma 90.000000
_cell_volume 2756.128645
_symmetry_space_group_name_H-M "C 2/M"
_symmetry_group_IT_number 12
_symmetry_cell_setting 'monoclinic'
loop_
_space_group_symop_operation_xyz
x,y,z
-x,y,-z
-x,-y,-z
x,-y,z
1/2+x,1/2+y,z
1/2-x,1/2+y,-z
1/2-x,1/2-y,-z
1/2+x,1/2-y,z
loop_
_atom_site_type_symbol
_atom_site_label
_atom_site_fract_x
_atom_site_fract_y
_atom_site_fract_z
Si Si1 0.640569 0.170656 0.088383
Si Si2 0.245380 0.327553 0.926357
Si Si3 0.943283 0.827181 0.126297
Si Si4 0.695137 0.174282 0.295585
Si Si5 0.174373 0.168730 0.718367
Si Si6 0.938313 0.673777 0.612228
Si Si7 0.282711 0.325337 0.592078
O O1 0.724422 0.275221 0.107343
O O2 0.695733 0.186680 0.174437
O O3 0.646339 0.000000 0.073868
O O4 0.500000 0.229106 0.000000
O O5 0.207124 0.500000 0.903194
O O6 0.129407 0.231839 0.872741
O O7 0.364425 0.297081 0.031416
O O8 0.068465 0.736811 0.197161
O O9 0.973294 0.000000 0.152372
O O10 0.800425 0.205550 0.320891
O O11 0.734109 0.255232 0.367073
O O12 0.680039 0.000000 0.296237
O O13 0.072960 0.279220 0.677168
O O14 0.124656 0.000000 0.693366
O O15 0.938804 0.500000 0.624077
O O16 0.841115 0.714339 0.512041
O O17 0.901523 0.758021 0.637798
O O18 0.304475 0.500000 0.610814
#
# Coordination Sequence:
#
# PCOD8106224 Si02
#       7
#     8   8   8   8   8   8   8
#     4  10  21  38  59  82 115 160 204 246 299 356
#     4  10  21  36  56  83 113 152 200 251 301 355
#     4  10  21  37  57  82 116 155 197 247 303 357
#     4  11  23  39  61  89 120 158 202 248 300 359
#     4  10  23  40  60  88 123 162 202 250 304 360
#     4  10  22  41  65  92 121 157 201 248 298 362
#     4  10  22  41  65  91 122 158 197 247 306 362
#
# _framework density 20.318353999999999
#
# number of rings (size 3 to 8) (size 9 to 14) (size 15 to 20)
#    0.000    1.857    0.000    3.000    2.000    7.143 
#    0.000    2.857    0.000    0.000    0.000    0.000 
#    0.000    0.000    0.000    0.000    0.000    0.000 
#
# Total GULP energy -347343.660763 kJ/mol
# GULP energy per Si atom -12405.130742 kJ/mol
# Density = 2.027211 g / cm^3
# Si number density = 20.318354 Si / 1000 Ang^3
#
#
#
# Elastic Constant Matrix: (Units=GPa)
#
#
# Indices 1 2 3 4 5 6 
#
# 1 121.3412 50.3032 34.9208 0.0000 -6.9531 0.0001
# 2 50.3032 88.8511 35.9312 0.0001 -4.8602 -0.0004
# 3 34.9208 35.9312 64.2500 0.0001 5.2075 0.0000
# 4 0.0000 0.0001 0.0001 34.0061 0.0000 0.2007
# 5 -6.9531 -4.8602 5.2075 0.0000 31.1878 0.0000
# 6 0.0001 -0.0004 0.0000 0.2007 0.0000 36.4519
#
#
#
# Elastic Compliance Matrix: (Units=1/GPa)
#
#
# Indices 1 2 3 4 5 6 
#
# 1 0.011460 -0.004856 -0.003709 0.000000 0.002418 0.000000
# 2 -0.004856 0.017029 -0.007108 0.000000 0.002758 0.000000
# 3 -0.003709 -0.007108 0.022010 0.000000 -0.005610 0.000000
# 4 0.000000 0.000000 0.000000 0.029407 0.000000 -0.000162
# 5 0.002418 0.002758 -0.005610 0.000000 0.033969 0.000000
# 6 0.000000 0.000000 0.000000 -0.000162 0.000000 0.027434
#
#
# Mechanical properties :
#
#
# Convention : Reuss Voigt Hill
#
# Bulk Modulus (GPa) = 52.20933 57.41695 54.81314
# Shear Modulus (GPa) = 27.92667 30.54830 29.23749
#
# Velocity S-wave (km/s) = 3.71139 3.88168 3.79749
# Velocity P-wave (km/s) = 6.64208 6.95773 6.80174
#
# Compressibility (1/GPa) = 0.01915366
#
# Stress axis : x y z
#
# Youngs Moduli (GPa) = 87.25746 58.72253 45.43465
#
# Poissons Ratio (x) = 0.28516 0.16852
# Poissons Ratio (y) = 0.42373 0.32293
# Poissons Ratio (z) = 0.32364 0.41738
#
# Static dielectric constant tensor:
#      x y z
#    x 3.640410 0.000000 -0.052050 
#    y 0.000000 3.681680 0.000000 
#    z -0.052050 0.000000 3.643560 
# 
# 
# High freq. dielectric constant tensor:
#      x y z
#    x 1.797920 0.000000 -0.003960 
#    y 0.000000 1.800540 0.000000 
#    z -0.003960 0.000000 1.791330 
# 
# From -- ./inp_files/380715.got.cif
#   From: 2010.06.25/outbox.cif.g09.slc.cpg/sg12_191_cif.got.tgz:380715.got - 2010.06.28 00:19:55.
