data_PCOD8106462
_publ_section_title
;
Structure prediction by ZEFSAII (Michael W. Deem and Ramdas Pophale) SiO2 
 PCOD8106462
Probable space group: C 2/M
;
_chemical_formula_sum "Si O2"
_cell_formula_units_Z 56
_cell_length_a 30.312047
_cell_length_b 8.624239
_cell_length_c 11.046756
_cell_angle_alpha 90.000000
_cell_angle_beta 67.662097
_cell_angle_gamma 90.000000
_cell_volume 2671.117885
_symmetry_space_group_name_H-M "C 2/M"
_symmetry_group_IT_number 12
_symmetry_cell_setting 'monoclinic'
loop_
_space_group_symop_operation_xyz
x,y,z
-x,y,-z
-x,-y,-z
x,-y,z
1/2+x,1/2+y,z
1/2-x,1/2+y,-z
1/2-x,1/2-y,-z
1/2+x,1/2-y,z
loop_
_atom_site_type_symbol
_atom_site_label
_atom_site_fract_x
_atom_site_fract_y
_atom_site_fract_z
Si Si1 0.960114 0.821693 0.181252
Si Si2 0.279422 0.816837 0.582276
Si Si3 0.281092 0.184120 0.856182
Si Si4 0.113852 0.678206 0.574223
Si Si5 0.946213 0.679956 0.941188
Si Si6 0.122225 0.826440 0.159513
Si Si7 0.053916 0.172369 0.444555
O O1 0.910803 0.778375 0.296661
O O2 0.005349 0.721105 0.185287
O O3 0.972306 0.000000 0.190252
O O4 0.950761 0.789353 0.051491
O O5 0.250000 0.750000 0.500000
O O6 0.263755 0.764931 0.737135
O O7 0.333092 0.758795 0.504333
O O8 0.275531 0.000000 0.579764
O O9 0.334667 0.244346 0.816421
O O10 0.280610 0.000000 0.865749
O O11 0.250000 0.250000 0.000000
O O12 0.114630 0.500000 0.612742
O O13 0.084189 0.699914 0.483156
O O14 0.945832 0.500000 0.976530
O O15 0.895584 0.722182 0.933525
O O16 0.075191 0.837285 0.289420
O O17 0.137924 0.000000 0.102133
O O18 0.000000 0.231909 0.500000
O O19 0.056385 0.000000 0.502939
#
# Coordination Sequence:
#
# PCOD8106462 Si02
#       7
#     8   8   8   8   8   8   8
#     4  11  22  38  59  87 125 168 212 261 314 381
#     4  10  24  44  68  95 128 166 215 274 337 400
#     4  11  24  45  68  96 130 170 219 280 341 406
#     4  11  22  39  61  89 123 161 206 259 318 382
#     4  11  22  38  60  88 124 168 213 261 315 379
#     4  11  22  38  62  92 126 165 208 258 319 386
#     4  10  21  36  58  90 126 163 204 251 307 375
#
# _framework density 20.965005000000001
#
# number of rings (size 3 to 8) (size 9 to 14) (size 15 to 20)
#    0.000    1.286    1.429    5.571    0.000    5.429 
#    0.000    2.857    0.000    0.000    0.000    0.000 
#    0.000    0.000    0.000    0.000    0.000    0.000 
#
# Total GULP energy -347017.557553 kJ/mol
# GULP energy per Si atom -12393.484198 kJ/mol
# Density = 2.091729 g / cm^3
# Si number density = 20.965005 Si / 1000 Ang^3
#
#
#
# Elastic Constant Matrix: (Units=GPa)
#
#
# Indices 1 2 3 4 5 6 
#
# 1 136.1267 28.8701 49.3630 0.0000 11.3842 0.0000
# 2 28.8701 83.0927 27.2511 0.0000 1.5035 0.0000
# 3 49.3630 27.2511 102.9497 0.0000 1.8525 0.0000
# 4 0.0000 0.0000 0.0000 31.5341 0.0000 1.0770
# 5 11.3842 1.5035 1.8525 0.0000 33.5255 0.0000
# 6 0.0000 0.0000 0.0000 1.0770 0.0000 35.5404
#
#
#
# Elastic Compliance Matrix: (Units=1/GPa)
#
#
# Indices 1 2 3 4 5 6 
#
# 1 0.009433 -0.001926 -0.003961 0.000000 -0.002898 0.000000
# 2 -0.001926 0.013577 -0.002674 0.000000 0.000193 0.000000
# 3 -0.003961 -0.002674 0.012307 0.000000 0.000785 0.000000
# 4 0.000000 0.000000 0.000000 0.031745 0.000000 -0.000962
# 5 -0.002898 0.000193 0.000785 0.000000 0.030760 0.000000
# 6 0.000000 0.000000 0.000000 -0.000962 0.000000 0.028166
#
#
# Mechanical properties :
#
#
# Convention : Reuss Voigt Hill
#
# Bulk Modulus (GPa) = 54.96040 59.23751 57.09895
# Shear Modulus (GPa) = 33.51761 34.56567 34.04164
#
# Velocity S-wave (km/s) = 4.00276 4.06486 4.03393
# Velocity P-wave (km/s) = 6.90181 7.09560 6.99938
#
# Compressibility (1/GPa) = 0.01819492
#
# Stress axis : x y z
#
# Youngs Moduli (GPa) = 106.00672 73.65187 81.25780
#
# Poissons Ratio (x) = 0.14185 0.32188
# Poissons Ratio (y) = 0.20417 0.21728
# Poissons Ratio (z) = 0.41991 0.19694
#
# Static dielectric constant tensor:
#      x y z
#    x 3.953190 0.000000 -0.121580 
#    y 0.000000 3.753950 0.000000 
#    z -0.121580 0.000000 4.064350 
# 
# 
# High freq. dielectric constant tensor:
#      x y z
#    x 1.820060 0.000000 -0.000050 
#    y 0.000000 1.822310 0.000000 
#    z -0.000050 0.000000 1.824310 
# 
# From -- ./inp_files/186360.got.cif
#   From: 2010.06.25/outbox.cif.g09.slc.cpg/sg12_94_cif.got.tgz:186360.got - 2010.06.28 00:19:55.
