data_PCOD8106706
_publ_section_title
;
Structure prediction by ZEFSAII (Michael W. Deem and Ramdas Pophale) SiO2 
 PCOD8106706
Probable space group: C 2/M
;
_chemical_formula_sum "Si O2"
_cell_formula_units_Z 48
_cell_length_a 19.139831
_cell_length_b 9.095885
_cell_length_c 15.598551
_cell_angle_alpha 90.000000
_cell_angle_beta 104.052929
_cell_angle_gamma 90.000000
_cell_volume 2634.336258
_symmetry_space_group_name_H-M "C 2/M"
_symmetry_group_IT_number 12
_symmetry_cell_setting 'monoclinic'
loop_
_space_group_symop_operation_xyz
x,y,z
-x,y,-z
-x,-y,-z
x,-y,z
1/2+x,1/2+y,z
1/2-x,1/2+y,-z
1/2-x,1/2-y,-z
1/2+x,1/2-y,z
loop_
_atom_site_type_symbol
_atom_site_label
_atom_site_fract_x
_atom_site_fract_y
_atom_site_fract_z
Si Si1 0.977746 0.171250 0.397075
Si Si2 0.555407 0.172721 0.269441
Si Si3 0.652578 0.167312 0.712750
Si Si4 0.584610 0.167764 0.872635
Si Si5 0.684192 0.670406 0.221254
Si Si6 0.317362 0.326808 0.976159
O O1 0.896010 0.225816 0.359029
O O2 0.000000 0.206661 0.500000
O O3 0.033303 0.254431 0.352249
O O4 0.981423 0.000000 0.376818
O O5 0.496280 0.210542 0.179121
O O6 0.632103 0.232798 0.263638
O O7 0.560006 0.000000 0.286448
O O8 0.638423 0.192059 0.809171
O O9 0.735847 0.200917 0.719394
O O10 0.632328 0.000000 0.682747
O O11 0.608941 0.274016 0.956646
O O12 0.588425 0.000000 0.906120
O O13 0.663373 0.500000 0.224476
O O14 0.677960 0.720563 0.121132
O O15 0.307691 0.500000 0.983234
O O16 0.250000 0.250000 0.000000
#
# Coordination Sequence:
#
# PCOD8106706 Si02
#       6
#     8   8   8   8   8   8
#     4  10  21  38  61  87 111 137 175 222 270 329
#     4  10  22  38  57  81 111 145 182 225 274 326
#     4   9  18  35  57  80 110 146 182 223 271 322
#     4   9  18  35  53  75 108 144 187 230 269 315
#     4  10  21  37  54  78 114 148 182 228 275 316
#     4  11  21  33  52  78 109 146 189 231 269 315
#
# _framework density 18.220908999999999
#
# number of rings (size 3 to 8) (size 9 to 14) (size 15 to 20)
#    0.000    2.167    1.667    2.500    0.000    7.333 
#    0.000    4.167    0.000    0.000    0.000    0.000 
#    0.000    0.000    0.000    0.000    0.000    0.000 
#
# Total GULP energy -297673.669171 kJ/mol
# GULP energy per Si atom -12403.069549 kJ/mol
# Density = 1.817944 g / cm^3
# Si number density = 18.220909 Si / 1000 Ang^3
#
#
#
# Elastic Constant Matrix: (Units=GPa)
#
#
# Indices 1 2 3 4 5 6 
#
# 1 118.6909 56.2206 56.4328 0.0000 -9.1498 0.0000
# 2 56.2206 92.4643 68.0439 0.0000 -2.8238 0.0000
# 3 56.4328 68.0439 105.5751 0.0000 4.7509 0.0000
# 4 0.0000 0.0000 0.0000 29.7874 0.0000 2.8511
# 5 -9.1498 -2.8238 4.7509 0.0000 18.9969 0.0000
# 6 0.0000 0.0000 0.0000 2.8511 0.0000 36.4804
#
#
#
# Elastic Compliance Matrix: (Units=1/GPa)
#
#
# Indices 1 2 3 4 5 6 
#
# 1 0.013219 -0.004575 -0.004423 0.000000 0.006793 0.000000
# 2 -0.004575 0.022967 -0.012552 0.000000 0.004349 0.000000
# 3 -0.004423 -0.012552 0.020335 0.000000 -0.009082 0.000000
# 4 0.000000 0.000000 0.000000 0.033824 0.000000 -0.002644
# 5 0.006793 0.004349 -0.009082 0.000000 0.058830 0.000000
# 6 0.000000 0.000000 0.000000 -0.002644 0.000000 0.027619
#
#
# Mechanical properties :
#
#
# Convention : Reuss Voigt Hill
#
# Bulk Modulus (GPa) = 74.51735 75.34720 74.93228
# Shear Modulus (GPa) = 22.28484 26.12181 24.20333
#
# Velocity S-wave (km/s) = 3.50099 3.79042 3.64858
# Velocity P-wave (km/s) = 7.57152 7.78449 7.67874
#
# Compressibility (1/GPa) = 0.01341969
#
# Stress axis : x y z
#
# Youngs Moduli (GPa) = 75.64897 43.54067 49.17672
#
# Poissons Ratio (x) = 0.19921 0.21749
# Poissons Ratio (y) = 0.34612 0.61729
# Poissons Ratio (z) = 0.33457 0.54654
#
# Static dielectric constant tensor:
#      x y z
#    x 3.419280 0.000000 0.113840 
#    y 0.000000 3.375630 0.000000 
#    z 0.113840 0.000000 3.220340 
# 
# 
# High freq. dielectric constant tensor:
#      x y z
#    x 1.708720 0.000000 0.008070 
#    y 0.000000 1.711130 0.000000 
#    z 0.008070 0.000000 1.690100 
# 
# From -- ./inp_files/221698.got.cif
#   From: 2010.06.25/outbox.cif.g09.slc.cpg/sg12_111_cif.got.tgz:221698.got - 2010.06.28 00:19:55.
