data_PCOD8106672
_publ_section_title
;
Structure prediction by ZEFSAII (Michael W. Deem and Ramdas Pophale) SiO2 
 PCOD8106672
Probable space group: C 2/M
;
_chemical_formula_sum "Si O2"
_cell_formula_units_Z 44
_cell_length_a 16.583533
_cell_length_b 25.674716
_cell_length_c 4.948472
_cell_angle_alpha 90.000000
_cell_angle_beta 105.720167
_cell_angle_gamma 90.000000
_cell_volume 2028.140681
_symmetry_space_group_name_H-M "C 2/M"
_symmetry_group_IT_number 12
_symmetry_cell_setting 'monoclinic'
loop_
_space_group_symop_operation_xyz
x,y,z
-x,y,-z
-x,-y,-z
x,-y,z
1/2+x,1/2+y,z
1/2-x,1/2+y,-z
1/2-x,1/2-y,-z
1/2+x,1/2-y,z
loop_
_atom_site_type_symbol
_atom_site_label
_atom_site_fract_x
_atom_site_fract_y
_atom_site_fract_z
Si Si1 0.912674 0.212741 0.525838
Si Si2 0.500000 0.790214 0.000000
Si Si3 0.305373 0.558714 0.271430
Si Si4 0.345769 0.197640 0.136114
Si Si5 0.252675 0.158481 0.562078
Si Si6 0.089625 0.941133 0.118930
O O1 0.863848 0.242875 0.241044
O O2 0.847184 0.169660 0.580268
O O3 0.000000 0.186604 0.500000
O O4 0.935499 0.254887 0.772275
O O5 0.561637 0.825152 0.867144
O O6 0.267220 0.500000 0.216244
O O7 0.235815 0.599212 0.318851
O O8 0.383632 0.559676 0.547013
O O9 0.338336 0.581852 0.014287
O O10 0.305831 0.163392 0.337710
O O11 0.285843 0.198464 0.819435
O O12 0.079049 0.000000 0.998909
O O13 0.000000 0.912002 0.000000
#
# Coordination Sequence:
#
# PCOD8106672 Si02
#       6
#     8   4   8   8   8   8
#     4  10  23  38  59  87 127 156 189 238 288 345
#     4  10  22  42  60  88 120 150 186 246 300 346
#     4  10  21  37  53  80 116 151 199 246 282 330
#     4  11  23  40  61  87 118 152 195 241 294 359
#     4  12  24  37  60  89 116 163 199 235 289 350
#     4   9  17  32  53  72 101 148 196 241 284 324
#
# _framework density 21.694745999999999
#
# number of rings (size 3 to 8) (size 9 to 14) (size 15 to 20)
#    0.000    1.636    1.818    2.727    5.091    3.636 
#    1.636    0.000    0.000    0.000    0.000    3.818 
#    0.000    0.000    0.000    0.000    0.000    0.000 
#
# Total GULP energy -272597.440538 kJ/mol
# GULP energy per Si atom -12390.792752 kJ/mol
# Density = 2.164537 g / cm^3
# Si number density = 21.694746 Si / 1000 Ang^3
#
#
#
# Elastic Constant Matrix: (Units=GPa)
#
#
# Indices 1 2 3 4 5 6 
#
# 1 151.1793 56.7118 30.2223 0.0000 -36.0692 0.0000
# 2 56.7118 47.1128 -6.7909 0.0000 -6.8346 0.0000
# 3 30.2223 -6.7909 78.1199 0.0000 -9.5275 0.0000
# 4 0.0000 0.0000 0.0000 10.8552 0.0000 -4.6876
# 5 -36.0692 -6.8346 -9.5275 0.0000 43.1995 0.0000
# 6 0.0000 0.0000 0.0000 -4.6876 0.0000 11.8440
#
#
#
# Elastic Compliance Matrix: (Units=1/GPa)
#
#
# Indices 1 2 3 4 5 6 
#
# 1 0.019507 -0.023099 -0.008235 0.000000 0.010816 0.000000
# 2 -0.023099 0.049514 0.012171 0.000000 -0.008769 0.000000
# 3 -0.008235 0.012171 0.016896 0.000000 -0.001224 0.000000
# 4 0.000000 0.000000 0.000000 0.111112 0.000000 0.043976
# 5 0.010816 -0.008769 -0.001224 0.000000 0.030522 0.000000
# 6 0.000000 0.000000 0.000000 0.043976 0.000000 0.101836
#
#
# Mechanical properties :
#
#
# Convention : Reuss Voigt Hill
#
# Bulk Modulus (GPa) = 21.01329 48.52204 34.76766
# Shear Modulus (GPa) = 13.03525 26.26433 19.64979
#
# Velocity S-wave (km/s) = 2.45388 3.48319 3.01282
# Velocity P-wave (km/s) = 4.21137 6.21218 5.30692
#
# Compressibility (1/GPa) = 0.04758893
#
# Stress axis : x y z
#
# Youngs Moduli (GPa) = 51.26413 20.19649 59.18701
#
# Poissons Ratio (x) = 0.46652 0.48743
# Poissons Ratio (y) = 1.18416 -0.72037
# Poissons Ratio (z) = 0.42218 -0.24581
#
# Static dielectric constant tensor:
#      x y z
#    x 4.191530 0.000000 -0.168120 
#    y 0.000000 3.619470 0.000000 
#    z -0.168120 0.000000 4.051540 
# 
# 
# High freq. dielectric constant tensor:
#      x y z
#    x 1.845910 0.000000 -0.019380 
#    y 0.000000 1.803710 0.000000 
#    z -0.019380 0.000000 1.869700 
# 
# From -- ./inp_files/12180.got.cif
#   From: 2010.06.25/outbox.cif.g09.slc.cpg/sg12_7_cif.got.tgz:12180.got - 2010.06.28 00:19:55.
