data_PCOD8106814
_publ_section_title
;
Structure prediction by ZEFSAII (Michael W. Deem and Ramdas Pophale) SiO2 
 PCOD8106814
Probable space group: C 2/M
;
_chemical_formula_sum "Si O2"
_cell_formula_units_Z 64
_cell_length_a 14.697248
_cell_length_b 8.737375
_cell_length_c 28.341974
_cell_angle_alpha 90.000000
_cell_angle_beta 117.781486
_cell_angle_gamma 90.000000
_cell_volume 3220.020590
_symmetry_space_group_name_H-M "C 2/M"
_symmetry_group_IT_number 12
_symmetry_cell_setting 'monoclinic'
loop_
_space_group_symop_operation_xyz
x,y,z
-x,y,-z
-x,-y,-z
x,-y,z
1/2+x,1/2+y,z
1/2-x,1/2+y,-z
1/2-x,1/2-y,-z
1/2+x,1/2-y,z
loop_
_atom_site_type_symbol
_atom_site_label
_atom_site_fract_x
_atom_site_fract_y
_atom_site_fract_z
Si Si1 0.073817 0.681305 0.081399
Si Si2 0.920119 0.677064 0.250766
Si Si3 0.350869 0.181124 0.000616
Si Si4 0.995707 0.677081 0.373393
Si Si5 0.409126 0.678818 0.443367
Si Si6 0.196918 0.177018 0.391383
Si Si7 0.878153 0.177126 0.730062
Si Si8 0.789724 0.680054 0.799641
O O1 0.076894 0.500000 0.080030
O O2 0.135374 0.740534 0.049959
O O3 0.129953 0.741363 0.141889
O O4 0.954515 0.734861 0.053267
O O5 0.895914 0.500000 0.236000
O O6 0.824558 0.778917 0.210558
O O7 0.943158 0.712091 0.310837
O O8 0.017615 0.724861 0.243043
O O9 0.339500 0.000000 0.999621
O O10 0.250000 0.250000 0.000000
O O11 0.986145 0.500000 0.385214
O O12 0.114819 0.724456 0.400684
O O13 0.936929 0.779802 0.396767
O O14 0.500000 0.730113 0.500000
O O15 0.385827 0.500000 0.441381
O O16 0.308680 0.770714 0.435388
O O17 0.185688 0.208738 0.332907
O O18 0.179662 0.000000 0.399477
O O19 0.806976 0.228723 0.755657
O O20 0.907039 0.000000 0.741595
O O21 0.800822 0.500000 0.793826
#
# Coordination Sequence:
#
# PCOD8106814 Si02
#       8
#     8   8   8   8   8   8   8   8
#     4   8  18  35  53  75 106 142 177 213 264 323
#     4  10  21  37  56  81 110 143 182 221 265 319
#     4   9  17  35  58  76 100 137 179 223 266 312
#     4  10  21  38  60  82 107 141 181 223 267 318
#     4  11  24  39  56  81 111 142 178 220 269 324
#     4  10  21  38  60  82 107 141 181 223 267 318
#     4  10  21  37  56  81 110 143 182 221 265 319
#     4  11  21  34  54  81 113 147 179 219 270 320
#
# _framework density 19.87565
#
# number of rings (size 3 to 8) (size 9 to 14) (size 15 to 20)
#    0.000    2.125    0.000    3.750    0.000    8.500 
#    0.000    6.250    0.000    0.000    0.000    0.000 
#    0.000    0.000    0.000    0.000    0.000    0.000 
#
# Total GULP energy -396887.895822 kJ/mol
# GULP energy per Si atom -12402.746744 kJ/mol
# Density = 1.983041 g / cm^3
# Si number density = 19.875650 Si / 1000 Ang^3
#
#
#
# Elastic Constant Matrix: (Units=GPa)
#
#
# Indices 1 2 3 4 5 6 
#
# 1 91.0610 14.6926 23.1978 0.0000 21.3973 0.0000
# 2 14.6926 47.3936 28.5467 0.0000 4.6190 0.0000
# 3 23.1978 28.5467 56.8455 0.0000 25.5279 0.0000
# 4 0.0000 0.0000 0.0000 23.6131 0.0000 4.4793
# 5 21.3973 4.6190 25.5279 0.0000 26.9975 0.0000
# 6 0.0000 0.0000 0.0000 4.4793 0.0000 39.6097
#
#
#
# Elastic Compliance Matrix: (Units=1/GPa)
#
#
# Indices 1 2 3 4 5 6 
#
# 1 0.014062 -0.004327 0.001924 0.000000 -0.012224 0.000000
# 2 -0.004327 0.036140 -0.026324 0.000000 0.022138 0.000000
# 3 0.001924 -0.026324 0.049861 0.000000 -0.044167 0.000000
# 4 0.000000 0.000000 0.000000 0.043278 0.000000 -0.004894
# 5 -0.012224 0.022138 -0.044167 0.000000 0.084704 0.000000
# 6 0.000000 0.000000 0.000000 -0.004894 0.000000 0.025800
#
#
# Mechanical properties :
#
#
# Convention : Reuss Voigt Hill
#
# Bulk Modulus (GPa) = 23.47010 36.46379 29.96694
# Shear Modulus (GPa) = 15.36092 26.63492 20.99792
#
# Velocity S-wave (km/s) = 2.78304 3.66468 3.25386
# Velocity P-wave (km/s) = 4.70756 6.02431 5.40617
#
# Compressibility (1/GPa) = 0.04260741
#
# Stress axis : x y z
#
# Youngs Moduli (GPa) = 71.11353 27.67035 20.05594
#
# Poissons Ratio (x) = 0.11972 -0.03858
# Poissons Ratio (y) = 0.30769 0.52796
# Poissons Ratio (z) = -0.13681 0.72841
#
# Static dielectric constant tensor:
#      x y z
#    x 3.663940 0.000000 0.088980 
#    y 0.000000 3.452230 0.000000 
#    z 0.088980 0.000000 3.744600 
# 
# 
# High freq. dielectric constant tensor:
#      x y z
#    x 1.782750 0.000000 0.010520 
#    y 0.000000 1.768260 0.000000 
#    z 0.010520 0.000000 1.768850 
# 
# From -- ./inp_files/375523.got.cif
#   From: 2010.06.25/outbox.cif.g09.slc.cpg/sg12_188_cif.got.tgz:375523.got - 2010.06.28 00:19:55.
