data_PCOD8106795
_publ_section_title
;
Structure prediction by ZEFSAII (Michael W. Deem and Ramdas Pophale) SiO2 
 PCOD8106795
Probable space group: C 2/M
;
_chemical_formula_sum "Si O2"
_cell_formula_units_Z 56
_cell_length_a 24.037381
_cell_length_b 14.005308
_cell_length_c 22.379111
_cell_angle_alpha 90.000000
_cell_angle_beta 22.590665
_cell_angle_gamma 90.000000
_cell_volume 2894.127873
_symmetry_space_group_name_H-M "C 2/M"
_symmetry_group_IT_number 12
_symmetry_cell_setting 'monoclinic'
loop_
_space_group_symop_operation_xyz
x,y,z
-x,y,-z
-x,-y,-z
x,-y,z
1/2+x,1/2+y,z
1/2-x,1/2+y,-z
1/2-x,1/2-y,-z
1/2+x,1/2-y,z
loop_
_atom_site_type_symbol
_atom_site_label
_atom_site_fract_x
_atom_site_fract_y
_atom_site_fract_z
Si Si1 0.037661 0.106824 0.893789
Si Si2 0.786730 0.110839 0.931511
Si Si3 0.552482 0.721136 0.322685
Si Si4 0.756874 0.111355 0.776579
Si Si5 0.257073 0.611527 0.099357
Si Si6 0.269885 0.222001 0.320128
Si Si7 0.971051 0.390869 0.896548
O O1 0.177905 0.170777 0.743909
O O2 0.076915 0.000000 0.833801
O O3 0.000000 0.109466 0.000000
O O4 0.899932 0.144671 0.993042
O O5 0.912598 0.171636 0.775287
O O6 0.819012 0.000000 0.887083
O O7 0.783340 0.135453 0.004196
O O8 0.633616 0.140114 0.053812
O O9 0.607765 0.655986 0.322407
O O10 0.623365 0.826473 0.256358
O O11 0.381132 0.730570 0.496405
O O12 0.739585 0.162355 0.730947
O O13 0.788864 0.000000 0.734472
O O14 0.610025 0.126244 0.959965
O O15 0.221531 0.500000 0.145254
O O16 0.384113 0.171254 0.250724
O O17 0.018045 0.500000 0.843025
#
# Coordination Sequence:
#
# PCOD8106795 Si02
#       7
#     8   8   8   8   8   8   8
#     4  10  21  38  59  80 104 139 185 231 268 313
#     4   9  19  38  60  79 103 142 189 226 260 316
#     4  11  22  34  54  83 114 143 175 225 275 319
#     4  10  21  37  56  79 111 151 187 214 253 321
#     4  10  21  40  63  78  98 143 192 226 263 319
#     4  12  22  32  52  83 117 145 172 220 281 326
#     4   9  18  33  54  79 108 143 182 221 259 313
#
# _framework density 19.349526000000001
#
# number of rings (size 3 to 8) (size 9 to 14) (size 15 to 20)
#    0.000    1.857    0.000    6.429    0.000    4.571 
#    0.000    2.857    0.000    9.429    0.000    0.000 
#    0.000    0.000    0.000    0.000    0.000    0.000 
#
# Total GULP energy -347311.403549 kJ/mol
# GULP energy per Si atom -12403.978698 kJ/mol
# Density = 1.930549 g / cm^3
# Si number density = 19.349526 Si / 1000 Ang^3
#
#
#
# Elastic Constant Matrix: (Units=GPa)
#
#
# Indices 1 2 3 4 5 6 
#
# 1 111.8377 38.5263 45.1069 -0.0072 -5.1016 -0.0011
# 2 38.5263 108.8732 76.6446 -0.0125 -1.9183 -0.0003
# 3 45.1069 76.6446 146.1968 -0.0182 -16.8657 0.0003
# 4 -0.0072 -0.0125 -0.0182 16.6876 0.0100 -7.1816
# 5 -5.1016 -1.9183 -16.8657 0.0100 10.1835 0.0009
# 6 -0.0011 -0.0003 0.0003 -7.1816 0.0009 14.3464
#
#
#
# Elastic Compliance Matrix: (Units=1/GPa)
#
#
# Indices 1 2 3 4 5 6 
#
# 1 0.010589 -0.002491 -0.001734 0.000000 0.001963 0.000001
# 2 -0.002491 0.016491 -0.009472 0.000012 -0.013830 0.000008
# 3 -0.001734 -0.009472 0.014878 -0.000007 0.021987 -0.000006
# 4 0.000000 0.000012 -0.000007 0.076379 -0.000088 0.038235
# 5 0.001963 -0.013830 0.021987 -0.000088 0.132990 -0.000053
# 6 0.000001 0.000008 -0.000006 0.038235 -0.000053 0.088844
#
#
# Mechanical properties :
#
#
# Convention : Reuss Voigt Hill
#
# Bulk Modulus (GPa) = 68.67528 76.38481 72.53004
# Shear Modulus (GPa) = 13.42564 22.01883 17.72223
#
# Velocity S-wave (km/s) = 2.63696 3.37701 3.02967
# Velocity P-wave (km/s) = 6.69630 7.40052 7.05720
#
# Compressibility (1/GPa) = 0.01456128
#
# Stress axis : x y z
#
# Youngs Moduli (GPa) = 94.43889 60.63780 67.21456
#
# Poissons Ratio (x) = 0.15107 0.11658
# Poissons Ratio (y) = 0.23528 0.63669
# Poissons Ratio (z) = 0.16380 0.57439
#
# Static dielectric constant tensor:
#      x y z
#    x 3.569570 0.000000 -0.124790 
#    y 0.000000 3.808990 0.000010 
#    z -0.124790 0.000010 3.277310 
# 
# 
# High freq. dielectric constant tensor:
#      x y z
#    x 1.755090 0.000000 -0.011740 
#    y 0.000000 1.774430 0.000000 
#    z -0.011740 0.000000 1.725160 
# 
# From -- ./inp_files/349728.got.cif
#   From: 2010.06.25/outbox.cif.g09.slc.cpg/sg12_175_cif.got.tgz:349728.got - 2010.06.28 00:19:55.
