data_PCOD8106632
_publ_section_title
;
Structure prediction by ZEFSAII (Michael W. Deem and Ramdas Pophale) SiO2 
 PCOD8106632
Probable space group: C 2/M
;
_chemical_formula_sum "Si O2"
_cell_formula_units_Z 44
_cell_length_a 19.350346
_cell_length_b 20.968228
_cell_length_c 5.210690
_cell_angle_alpha 90.000000
_cell_angle_beta 110.311866
_cell_angle_gamma 90.000000
_cell_volume 1982.731162
_symmetry_space_group_name_H-M "C 2/M"
_symmetry_group_IT_number 12
_symmetry_cell_setting 'monoclinic'
loop_
_space_group_symop_operation_xyz
x,y,z
-x,y,-z
-x,-y,-z
x,-y,z
1/2+x,1/2+y,z
1/2-x,1/2+y,-z
1/2-x,1/2-y,-z
1/2+x,1/2-y,z
loop_
_atom_site_type_symbol
_atom_site_label
_atom_site_fract_x
_atom_site_fract_y
_atom_site_fract_z
Si Si1 0.500000 0.669541 0.000000
Si Si2 0.394277 0.571405 0.990566
Si Si3 0.914375 0.619699 0.439601
Si Si4 0.821331 0.881823 0.371401
Si Si5 0.581626 0.265753 0.495430
Si Si6 0.836537 0.426427 0.832878
O O1 0.460779 0.620271 0.149850
O O2 0.434171 0.716298 0.821487
O O3 0.425248 0.500000 0.009148
O O4 0.360709 0.591010 0.673180
O O5 0.334481 0.573323 0.141207
O O6 0.893185 0.694165 0.423242
O O7 0.895809 0.587944 0.687720
O O8 0.000000 0.609615 0.500000
O O9 0.870059 0.586850 0.154601
O O10 0.851761 0.811606 0.329812
O O11 0.733749 0.880922 0.306221
O O12 0.500000 0.281038 0.500000
O O13 0.812453 0.500000 0.785953
#
# Coordination Sequence:
#
# PCOD8106632 Si02
#       6
#     4   8   8   8   8   8
#     4  10  21  36  62  90 133 176 212 280 306 370
#     4  11  21  36  59  94 132 179 222 254 309 377
#     4  11  27  44  74  99 125 171 216 281 336 393
#     4  11  24  41  67  95 137 179 212 270 322 384
#     4  10  22  42  66  98 137 171 225 264 321 384
#     4  12  26  46  68  99 134 171 218 271 335 396
#
# _framework density 22.191610000000001
#
# number of rings (size 3 to 8) (size 9 to 14) (size 15 to 20)
#    0.000    1.091    1.818    4.091    5.091    3.636 
#    0.000    2.727    0.000    0.000    0.000    0.000 
#    0.000    0.000    0.000    0.000    0.000    0.000 
#
# Total GULP energy -272651.347130 kJ/mol
# GULP energy per Si atom -12393.243051 kJ/mol
# Density = 2.214110 g / cm^3
# Si number density = 22.191610 Si / 1000 Ang^3
#
#
#
# Elastic Constant Matrix: (Units=GPa)
#
#
# Indices 1 2 3 4 5 6 
#
# 1 100.5107 45.1112 21.0606 0.0000 -2.1713 0.0000
# 2 45.1112 112.8412 30.1621 0.0000 2.8091 0.0000
# 3 21.0606 30.1621 84.3600 0.0000 -13.9507 0.0000
# 4 0.0000 0.0000 0.0000 24.4475 0.0000 -0.3710
# 5 -2.1713 2.8091 -13.9507 0.0000 39.6748 0.0000
# 6 0.0000 0.0000 0.0000 -0.3710 0.0000 24.4175
#
#
#
# Elastic Compliance Matrix: (Units=1/GPa)
#
#
# Indices 1 2 3 4 5 6 
#
# 1 0.012293 -0.004567 -0.001350 0.000000 0.000521 0.000000
# 2 -0.004567 0.011654 -0.003402 0.000000 -0.002271 0.000000
# 3 -0.001350 -0.003402 0.014264 0.000000 0.005183 0.000000
# 4 0.000000 0.000000 0.000000 0.040913 0.000000 0.000622
# 5 0.000521 -0.002271 0.005183 0.000000 0.027217 0.000000
# 6 0.000000 0.000000 0.000000 0.000622 0.000000 0.040964
#
#
# Mechanical properties :
#
#
# Convention : Reuss Voigt Hill
#
# Bulk Modulus (GPa) = 51.08952 54.48664 52.78808
# Shear Modulus (GPa) = 28.99113 31.13316 30.06215
#
# Velocity S-wave (km/s) = 3.61834 3.74963 3.68457
# Velocity P-wave (km/s) = 6.36620 6.58425 6.47614
#
# Compressibility (1/GPa) = 0.01957349
#
# Stress axis : x y z
#
# Youngs Moduli (GPa) = 81.34803 85.81090 70.10418
#
# Poissons Ratio (x) = 0.39186 0.09464
# Poissons Ratio (y) = 0.37148 0.23851
# Poissons Ratio (z) = 0.10982 0.29194
#
# Static dielectric constant tensor:
#      x y z
#    x 4.099470 0.000000 -0.091210 
#    y 0.000000 4.003690 0.000000 
#    z -0.091210 0.000000 4.102170 
# 
# 
# High freq. dielectric constant tensor:
#      x y z
#    x 1.874570 0.000000 -0.011610 
#    y 0.000000 1.877580 0.000000 
#    z -0.011610 0.000000 1.873200 
# 
# From -- ./inp_files/16211.got.cif
#   From: 2010.06.25/outbox.cif.g09.slc.cpg/sg12_9_cif.got.tgz:16211.got - 2010.06.28 00:19:55.
