data_PCOD8106161
_publ_section_title
;
Structure prediction by ZEFSAII (Michael W. Deem and Ramdas Pophale) SiO2 
 PCOD8106161
Probable space group: C 2/M
;
_chemical_formula_sum "Si O2"
_cell_formula_units_Z 48
_cell_length_a 14.720176
_cell_length_b 18.406360
_cell_length_c 13.914670
_cell_angle_alpha 90.000000
_cell_angle_beta 38.582340
_cell_angle_gamma 90.000000
_cell_volume 2351.185373
_symmetry_space_group_name_H-M "C 2/M"
_symmetry_group_IT_number 12
_symmetry_cell_setting 'monoclinic'
loop_
_space_group_symop_operation_xyz
x,y,z
-x,y,-z
-x,-y,-z
x,-y,z
1/2+x,1/2+y,z
1/2-x,1/2+y,-z
1/2-x,1/2-y,-z
1/2+x,1/2-y,z
loop_
_atom_site_type_symbol
_atom_site_label
_atom_site_fract_x
_atom_site_fract_y
_atom_site_fract_z
Si Si1 0.935341 0.582748 0.759226
Si Si2 0.759759 0.831170 0.208889
Si Si3 0.661074 0.676074 0.335292
Si Si4 0.505875 0.327067 0.145800
Si Si5 0.645844 0.198596 0.647059
Si Si6 0.299703 0.415963 0.883305
O O1 0.985309 0.500000 0.707752
O O2 0.840445 0.602362 0.743169
O O3 0.079390 0.632502 0.640736
O O4 0.842979 0.595213 0.932978
O O5 0.659148 0.760889 0.308615
O O6 0.850435 0.853009 0.229535
O O7 0.874787 0.811500 0.032411
O O8 0.500000 0.651913 0.500000
O O9 0.770577 0.662989 0.332641
O O10 0.719799 0.627138 0.199570
O O11 0.488645 0.248981 0.209999
O O12 0.556993 0.387387 0.179487
O O13 0.750000 0.250000 0.500000
O O14 0.325141 0.500000 0.838545
#
# Coordination Sequence:
#
# PCOD8106161 Si02
#       6
#     8   8   8   8   8   8
#     4  10  21  37  58  84 115 148 183 229 283 336
#     4   9  18  34  58  84 109 143 190 235 277 324
#     4  11  22  36  57  81 109 147 190 236 281 332
#     4   9  18  34  57  83 110 146 190 233 273 325
#     4  11  22  37  58  81 108 146 190 234 281 332
#     4  10  21  36  55  83 118 152 185 226 278 335
#
# _framework density 20.415233000000001
#
# number of rings (size 3 to 8) (size 9 to 14) (size 15 to 20)
#    0.000    2.000    0.000    4.000    0.000    6.333 
#    0.000    7.500    0.000    9.500    0.000    0.000 
#    0.000    0.000    0.000    0.000    0.000    0.000 
#
# Total GULP energy -297618.568526 kJ/mol
# GULP energy per Si atom -12400.773689 kJ/mol
# Density = 2.036877 g / cm^3
# Si number density = 20.415233 Si / 1000 Ang^3
#
#
#
# Elastic Constant Matrix: (Units=GPa)
#
#
# Indices 1 2 3 4 5 6 
#
# 1 113.0089 67.4712 26.8059 0.0043 -1.7617 -0.0005
# 2 67.4712 125.1327 32.5200 -0.0045 -13.3269 0.0030
# 3 26.8059 32.5200 37.5003 -0.0138 -10.7810 0.0079
# 4 0.0043 -0.0045 -0.0138 25.4330 0.0092 -0.0927
# 5 -1.7617 -13.3269 -10.7810 0.0092 24.7918 -0.0030
# 6 -0.0005 0.0030 0.0079 -0.0927 -0.0030 24.4800
#
#
#
# Elastic Compliance Matrix: (Units=1/GPa)
#
#
# Indices 1 2 3 4 5 6 
#
# 1 0.014110 -0.006646 -0.005784 -0.000005 -0.005085 0.000002
# 2 -0.006646 0.013525 -0.005742 -0.000001 0.004302 0.000001
# 3 -0.005784 -0.005742 0.039743 0.000016 0.013785 -0.000010
# 4 -0.000005 -0.000001 0.000016 0.039320 -0.000008 0.000149
# 5 -0.005085 0.004302 0.013785 -0.000008 0.048282 0.000001
# 6 0.000002 0.000001 -0.000010 0.000149 0.000001 0.040850
#
#
# Mechanical properties :
#
#
# Convention : Reuss Voigt Hill
#
# Bulk Modulus (GPa) = 32.22252 58.80404 45.51328
# Shear Modulus (GPa) = 20.61692 24.86396 22.74044
#
# Velocity S-wave (km/s) = 3.18131 3.49365 3.34113
# Velocity P-wave (km/s) = 5.41407 6.71868 6.10134
#
# Compressibility (1/GPa) = 0.03103420
#
# Stress axis : x y z
#
# Youngs Moduli (GPa) = 70.87289 73.93463 25.16135
#
# Poissons Ratio (x) = 0.49139 0.14554
# Poissons Ratio (y) = 0.47104 0.14447
# Poissons Ratio (z) = 0.40995 0.42450
#
# Static dielectric constant tensor:
#      x y z
#    x 3.953950 0.000000 0.073200 
#    y 0.000000 3.536500 0.000010 
#    z 0.073200 0.000010 3.616860 
# 
# 
# High freq. dielectric constant tensor:
#      x y z
#    x 1.808890 0.000000 0.001930 
#    y 0.000000 1.781160 0.000000 
#    z 0.001930 0.000000 1.792320 
# 
# From -- ./inp_files/216240.got.cif
#   From: 2010.06.25/outbox.cif.g09.slc.cpg/sg12_109_cif.got.tgz:216240.got - 2010.06.28 00:19:55.
