data_PCOD8106516
_publ_section_title
;
Structure prediction by ZEFSAII (Michael W. Deem and Ramdas Pophale) SiO2 
 PCOD8106516
Probable space group: C 2/M
;
_chemical_formula_sum "Si O2"
_cell_formula_units_Z 56
_cell_length_a 31.053638
_cell_length_b 8.772051
_cell_length_c 11.749078
_cell_angle_alpha 90.000000
_cell_angle_beta 59.262093
_cell_angle_gamma 90.000000
_cell_volume 2750.872940
_symmetry_space_group_name_H-M "C 2/M"
_symmetry_group_IT_number 12
_symmetry_cell_setting 'monoclinic'
loop_
_space_group_symop_operation_xyz
x,y,z
-x,y,-z
-x,-y,-z
x,-y,z
1/2+x,1/2+y,z
1/2-x,1/2+y,-z
1/2-x,1/2-y,-z
1/2+x,1/2-y,z
loop_
_atom_site_type_symbol
_atom_site_label
_atom_site_fract_x
_atom_site_fract_y
_atom_site_fract_z
Si Si1 0.605067 0.681155 0.118284
Si Si2 0.823987 0.325920 0.401313
Si Si3 0.285495 0.178880 0.046004
Si Si4 0.760112 0.826001 0.306525
Si Si5 0.443824 0.319849 0.582376
Si Si6 0.925717 0.677257 0.377239
Si Si7 0.018075 0.319600 0.099792
O O1 0.607211 0.500000 0.111560
O O2 0.583535 0.742386 0.267862
O O3 0.570196 0.739737 0.062330
O O4 0.660097 0.746411 0.028899
O O5 0.817802 0.500000 0.367506
O O6 0.806529 0.213391 0.325894
O O7 0.791968 0.299395 0.558533
O O8 0.881248 0.285788 0.349911
O O9 0.259488 0.212829 0.201267
O O10 0.290333 0.000000 0.019111
O O11 0.250000 0.250000 0.000000
O O12 0.766227 0.000000 0.257107
O O13 0.500000 0.252413 0.500000
O O14 0.444800 0.500000 0.584133
O O15 0.415044 0.265882 0.508544
O O16 0.927064 0.500000 0.405144
O O17 0.976871 0.731251 0.248370
O O18 0.026290 0.500000 0.088179
O O19 0.000000 0.263923 0.000000
#
# Coordination Sequence:
#
# PCOD8106516 Si02
#       7
#     8   8   8   8   8   8   8
#     4  11  24  43  65  92 124 163 210 258 313 373
#     4   9  20  38  61  91 125 163 205 255 308 363
#     4  12  27  46  67  91 124 163 208 260 318 378
#     4  10  21  40  63  91 124 161 209 256 308 370
#     4  10  21  39  60  86 122 158 197 249 302 357
#     4  10  21  36  59  90 122 160 207 252 302 365
#     4  10  22  39  60  91 129 169 211 253 306 370
#
# _framework density 20.357174000000001
#
# number of rings (size 3 to 8) (size 9 to 14) (size 15 to 20)
#    0.000    1.714    1.429    2.143    4.000    2.857 
#    0.000    0.000    0.000    0.000    0.000    0.000 
#    0.000    0.000    0.000    0.000    0.000    0.000 
#
# Total GULP energy -347324.183381 kJ/mol
# GULP energy per Si atom -12404.435121 kJ/mol
# Density = 2.031084 g / cm^3
# Si number density = 20.357174 Si / 1000 Ang^3
#
#
#
# Elastic Constant Matrix: (Units=GPa)
#
#
# Indices 1 2 3 4 5 6 
#
# 1 130.7643 41.0729 43.9764 0.0000 -3.6468 0.0000
# 2 41.0729 63.8622 32.8651 0.0000 2.0171 0.0000
# 3 43.9764 32.8651 78.7366 0.0000 15.4871 0.0000
# 4 0.0000 0.0000 0.0000 29.9721 0.0000 6.3848
# 5 -3.6468 2.0171 15.4871 0.0000 31.8163 0.0000
# 6 0.0000 0.0000 0.0000 6.3848 0.0000 36.0188
#
#
#
# Elastic Compliance Matrix: (Units=1/GPa)
#
#
# Indices 1 2 3 4 5 6 
#
# 1 0.010848 -0.004566 -0.004926 0.000000 0.003931 0.000000
# 2 -0.004566 0.022141 -0.006981 0.000000 0.001471 0.000000
# 3 -0.004926 -0.006981 0.020337 0.000000 -0.010021 0.000000
# 4 0.000000 0.000000 0.000000 0.034674 0.000000 -0.006146
# 5 0.003931 0.001471 -0.010021 0.000000 0.036666 0.000000
# 6 0.000000 0.000000 0.000000 -0.006146 0.000000 0.028853
#
#
# Mechanical properties :
#
#
# Convention : Reuss Voigt Hill
#
# Bulk Modulus (GPa) = 49.06758 56.57688 52.82223
# Shear Modulus (GPa) = 25.87216 29.92470 27.89843
#
# Velocity S-wave (km/s) = 3.56885 3.83820 3.70597
# Velocity P-wave (km/s) = 6.41389 6.89164 6.65705
#
# Compressibility (1/GPa) = 0.02038006
#
# Stress axis : x y z
#
# Youngs Moduli (GPa) = 92.18522 45.16422 49.17125
#
# Poissons Ratio (x) = 0.20621 0.24222
# Poissons Ratio (y) = 0.42089 0.34328
# Poissons Ratio (z) = 0.45411 0.31530
#
# Static dielectric constant tensor:
#      x y z
#    x 3.702860 0.000000 -0.012590 
#    y 0.000000 3.597870 0.000000 
#    z -0.012590 0.000000 3.836330 
# 
# 
# High freq. dielectric constant tensor:
#      x y z
#    x 1.803770 0.000000 0.001630 
#    y 0.000000 1.788620 0.000000 
#    z 0.001630 0.000000 1.801930 
# 
# From -- ./inp_files/187217.got.cif
#   From: 2010.06.25/outbox.cif.g09.slc.cpg/sg12_94_cif.got.tgz:187217.got - 2010.06.28 00:19:55.
