data_PCOD8106430
_publ_section_title
;
Structure prediction by ZEFSAII (Michael W. Deem and Ramdas Pophale) SiO2 
 PCOD8106430
Probable space group: C 2/M
;
_chemical_formula_sum "Si O2"
_cell_formula_units_Z 56
_cell_length_a 23.494179
_cell_length_b 9.137740
_cell_length_c 15.386833
_cell_angle_alpha 90.000000
_cell_angle_beta 61.436226
_cell_angle_gamma 90.000000
_cell_volume 2901.242313
_symmetry_space_group_name_H-M "C 2/M"
_symmetry_group_IT_number 12
_symmetry_cell_setting 'monoclinic'
loop_
_space_group_symop_operation_xyz
x,y,z
-x,y,-z
-x,-y,-z
x,-y,z
1/2+x,1/2+y,z
1/2-x,1/2+y,-z
1/2-x,1/2-y,-z
1/2+x,1/2-y,z
loop_
_atom_site_type_symbol
_atom_site_label
_atom_site_fract_x
_atom_site_fract_y
_atom_site_fract_z
Si Si1 0.159007 0.829948 0.508987
Si Si2 0.789903 0.831644 0.897280
Si Si3 0.446302 0.172529 0.974738
Si Si4 0.722231 0.669663 0.645783
Si Si5 0.682517 0.833495 0.837872
Si Si6 0.473435 0.168871 0.423882
Si Si7 0.075647 0.327864 0.201276
O O1 0.208868 0.750931 0.408017
O O2 0.179502 0.798008 0.592515
O O3 0.087897 0.769554 0.546711
O O4 0.160270 0.000000 0.485223
O O5 0.750741 0.819708 0.836308
O O6 0.858433 0.757697 0.829572
O O7 0.799150 0.000000 0.918540
O O8 0.750000 0.750000 0.000000
O O9 0.455526 0.223713 0.868055
O O10 0.453852 0.000000 0.973075
O O11 0.500000 0.244185 0.000000
O O12 0.374785 0.220777 0.056975
O O13 0.736805 0.500000 0.647962
O O14 0.680863 0.730064 0.755767
O O15 0.669758 0.000000 0.816925
O O16 0.500000 0.200970 0.500000
O O17 0.527019 0.213057 0.313924
O O18 0.453187 0.000000 0.427813
O O19 0.091766 0.500000 0.187528
#
# Coordination Sequence:
#
# PCOD8106430 Si02
#       7
#     8   8   8   8   8   8   8
#     4  10  22  41  62  86 118 154 196 244 297 354
#     4  11  22  38  59  85 118 153 194 241 289 344
#     4   9  18  34  57  85 115 152 195 234 281 346
#     4  10  22  39  61  88 118 152 195 244 297 352
#     4  10  21  36  58  88 118 149 196 241 288 353
#     4  10  23  40  60  89 120 155 200 245 294 352
#     4  10  21  39  60  84 117 156 196 242 291 346
#
# _framework density 19.302077000000001
#
# number of rings (size 3 to 8) (size 9 to 14) (size 15 to 20)
#    0.000    2.000    1.429    1.286    4.000    3.714 
#    0.000    0.000    0.000    0.857    0.000    0.000 
#    0.000    0.000    0.000    0.000    0.000    0.000 
#
# Total GULP energy -347283.731110 kJ/mol
# GULP energy per Si atom -12402.990397 kJ/mol
# Density = 1.925814 g / cm^3
# Si number density = 19.302077 Si / 1000 Ang^3
#
#
#
# Elastic Constant Matrix: (Units=GPa)
#
#
# Indices 1 2 3 4 5 6 
#
# 1 116.5291 45.3883 53.9294 0.0000 -7.1770 0.0000
# 2 45.3883 80.5191 46.3341 0.0000 -0.7906 0.0000
# 3 53.9294 46.3341 145.0147 0.0000 5.5848 0.0000
# 4 0.0000 0.0000 0.0000 30.9091 0.0000 -2.7286
# 5 -7.1770 -0.7906 5.5848 0.0000 23.6039 0.0000
# 6 0.0000 0.0000 0.0000 -2.7286 0.0000 33.8889
#
#
#
# Elastic Compliance Matrix: (Units=1/GPa)
#
#
# Indices 1 2 3 4 5 6 
#
# 1 0.012262 -0.005086 -0.003100 0.000000 0.004291 0.000000
# 2 -0.005086 0.017393 -0.003662 0.000000 -0.000097 0.000000
# 3 -0.003100 -0.003662 0.009345 0.000000 -0.003276 0.000000
# 4 0.000000 0.000000 0.000000 0.032585 0.000000 0.002624
# 5 0.004291 -0.000097 -0.003276 0.000000 0.044443 0.000000
# 6 0.000000 0.000000 0.000000 0.002624 0.000000 0.029719
#
#
# Mechanical properties :
#
#
# Convention : Reuss Voigt Hill
#
# Bulk Modulus (GPa) = 65.34604 70.37405 67.86004
# Shear Modulus (GPa) = 28.64629 30.77446 29.71037
#
# Velocity S-wave (km/s) = 3.85659 3.99728 3.92756
# Velocity P-wave (km/s) = 7.33205 7.60544 7.47000
#
# Compressibility (1/GPa) = 0.01530315
#
# Stress axis : x y z
#
# Youngs Moduli (GPa) = 81.55608 57.49593 107.00812
#
# Poissons Ratio (x) = 0.29240 0.33175
# Poissons Ratio (y) = 0.41476 0.39188
# Poissons Ratio (z) = 0.25285 0.21056
#
# Static dielectric constant tensor:
#      x y z
#    x 3.629790 0.000000 0.037600 
#    y 0.000000 3.423180 0.000000 
#    z 0.037600 0.000000 3.660040 
# 
# 
# High freq. dielectric constant tensor:
#      x y z
#    x 1.756380 0.000000 0.002000 
#    y 0.000000 1.736900 0.000000 
#    z 0.002000 0.000000 1.760520 
# 
# From -- ./inp_files/238392.got.cif
#   From: 2010.06.25/outbox.cif.g09.slc.cpg/sg12_120_cif.got.tgz:238392.got - 2010.06.28 00:19:55.
