data_PCOD8106657
_publ_section_title
;
Structure prediction by ZEFSAII (Michael W. Deem and Ramdas Pophale) SiO2 
 PCOD8106657
Probable space group: C 2/M
;
_chemical_formula_sum "Si O2"
_cell_formula_units_Z 44
_cell_length_a 15.953340
_cell_length_b 18.778760
_cell_length_c 8.763609
_cell_angle_alpha 90.000000
_cell_angle_beta 47.060393
_cell_angle_gamma 90.000000
_cell_volume 1922.008999
_symmetry_space_group_name_H-M "C 2/M"
_symmetry_group_IT_number 12
_symmetry_cell_setting 'monoclinic'
loop_
_space_group_symop_operation_xyz
x,y,z
-x,y,-z
-x,-y,-z
x,-y,z
1/2+x,1/2+y,z
1/2-x,1/2+y,-z
1/2-x,1/2-y,-z
1/2+x,1/2-y,z
loop_
_atom_site_type_symbol
_atom_site_label
_atom_site_fract_x
_atom_site_fract_y
_atom_site_fract_z
Si Si1 0.636889 0.320085 0.524437
Si Si2 0.461039 0.418334 0.880726
Si Si3 0.000000 0.324700 0.000000
Si Si4 0.298218 0.192260 0.055172
Si Si5 0.308564 0.918746 0.803518
Si Si6 0.146924 0.657032 0.554849
O O1 0.523529 0.368132 0.679235
O O2 0.695249 0.335497 0.288973
O O3 0.720828 0.341768 0.559076
O O4 0.603316 0.237078 0.574455
O O5 0.495430 0.500000 0.804355
O O6 0.500000 0.395396 0.000000
O O7 0.326553 0.406713 0.035039
O O8 0.098388 0.277246 0.964817
O O9 0.067436 0.372904 0.791686
O O10 0.250000 0.250000 0.000000
O O11 0.353092 0.126981 0.891704
O O12 0.368042 0.892149 0.574176
O O13 0.343854 0.000000 0.784539
#
# Coordination Sequence:
#
# PCOD8106657 Si02
#       6
#     8   8   4   8   8   8
#     4  10  21  36  66  96 138 178 226 279 338 417
#     4  10  21  37  65 102 138 180 219 276 358 419
#     4  10  26  44  69  98 133 178 240 288 344 402
#     4  11  24  46  66 103 138 181 234 290 344 406
#     4  11  24  44  68  99 142 183 230 286 350 419
#     4  10  21  39  64  99 130 181 229 281 339 405
#
# _framework density 22.892713000000001
#
# number of rings (size 3 to 8) (size 9 to 14) (size 15 to 20)
#    0.000    1.636    3.636    0.000    3.818    2.182 
#    0.000    7.273    0.000    0.000    0.000    0.000 
#    0.000    0.000    0.000    0.000    0.000    0.000 
#
# Total GULP energy -272759.608034 kJ/mol
# GULP energy per Si atom -12398.164002 kJ/mol
# Density = 2.284061 g / cm^3
# Si number density = 22.892713 Si / 1000 Ang^3
#
#
#
# Elastic Constant Matrix: (Units=GPa)
#
#
# Indices 1 2 3 4 5 6 
#
# 1 96.8398 31.6709 25.5874 0.0000 11.3698 0.0000
# 2 31.6709 113.1377 58.6460 0.0000 12.4644 0.0000
# 3 25.5874 58.6460 169.2363 0.0000 14.2989 0.0000
# 4 0.0000 0.0000 0.0000 40.7387 0.0000 3.1317
# 5 11.3698 12.4644 14.2989 0.0000 33.9563 0.0000
# 6 0.0000 0.0000 0.0000 3.1317 0.0000 21.9539
#
#
#
# Elastic Compliance Matrix: (Units=1/GPa)
#
#
# Indices 1 2 3 4 5 6 
#
# 1 0.011671 -0.002651 -0.000620 0.000000 -0.002674 0.000000
# 2 -0.002651 0.011580 -0.003451 0.000000 -0.001910 0.000000
# 3 -0.000620 -0.003451 0.007335 0.000000 -0.001614 0.000000
# 4 0.000000 0.000000 0.000000 0.024819 0.000000 -0.003540
# 5 -0.002674 -0.001910 -0.001614 0.000000 0.031726 0.000000
# 6 0.000000 0.000000 0.000000 -0.003540 0.000000 0.046055
#
#
# Mechanical properties :
#
#
# Convention : Reuss Voigt Hill
#
# Bulk Modulus (GPa) = 58.33514 67.89137 63.11325
# Shear Modulus (GPa) = 32.82060 36.88374 34.85217
#
# Velocity S-wave (km/s) = 3.79049 4.01828 3.90604
# Velocity P-wave (km/s) = 6.68539 7.15887 6.92618
#
# Compressibility (1/GPa) = 0.01714233
#
# Stress axis : x y z
#
# Youngs Moduli (GPa) = 85.68163 86.35555 136.33629
#
# Poissons Ratio (x) = 0.22894 0.08452
# Poissons Ratio (y) = 0.22716 0.47045
# Poissons Ratio (z) = 0.05312 0.29798
#
# Static dielectric constant tensor:
#      x y z
#    x 4.150880 0.000000 0.120540 
#    y 0.000000 3.841440 0.000000 
#    z 0.120540 0.000000 4.471380 
# 
# 
# High freq. dielectric constant tensor:
#      x y z
#    x 1.905530 0.000000 -0.000070 
#    y 0.000000 1.864620 0.000000 
#    z -0.000070 0.000000 1.926730 
# 
# From -- ./inp_files/75697.got.cif
#   From: 2010.06.25/outbox.cif.g09.slc.cpg/sg12_38_cif.got.tgz:75697.got - 2010.06.28 00:19:55.
