data_PCOD8106697
_publ_section_title
;
Structure prediction by ZEFSAII (Michael W. Deem and Ramdas Pophale) SiO2 
 PCOD8106697
Probable space group: C 2/M
;
_chemical_formula_sum "Si O2"
_cell_formula_units_Z 40
_cell_length_a 27.358322
_cell_length_b 8.710598
_cell_length_c 19.200474
_cell_angle_alpha 90.000000
_cell_angle_beta 28.193621
_cell_angle_gamma 90.000000
_cell_volume 2161.760915
_symmetry_space_group_name_H-M "C 2/M"
_symmetry_group_IT_number 12
_symmetry_cell_setting 'monoclinic'
loop_
_space_group_symop_operation_xyz
x,y,z
-x,y,-z
-x,-y,-z
x,-y,z
1/2+x,1/2+y,z
1/2-x,1/2+y,-z
1/2-x,1/2-y,-z
1/2+x,1/2-y,z
loop_
_atom_site_type_symbol
_atom_site_label
_atom_site_fract_x
_atom_site_fract_y
_atom_site_fract_z
Si Si1 0.130213 0.821389 0.448479
Si Si2 0.582399 0.179537 0.266251
Si Si3 0.242973 0.821911 0.167383
Si Si4 0.430678 0.680479 0.865620
Si Si5 0.663540 0.320911 0.560679
O O1 0.214294 0.788963 0.283536
O O2 0.178064 0.767435 0.462237
O O3 0.026364 0.726895 0.562240
O O4 0.098239 0.000000 0.492423
O O5 0.673152 0.218205 0.205480
O O6 0.602546 0.273073 0.170399
O O7 0.583440 0.000000 0.248052
O O8 0.227081 0.000000 0.168673
O O9 0.361790 0.771948 0.008113
O O10 0.413615 0.500000 0.896167
O O11 0.549572 0.728446 0.729946
O O12 0.677333 0.500000 0.548916
O O13 0.750000 0.250000 0.500000
#
# Coordination Sequence:
#
# PCOD8106697 Si02
#       5
#     8   8   8   8   8
#     4   9  20  37  54  76 107 140 175 214 257 307
#     4  11  21  33  52  78 108 143 180 213 251 305
#     4  11  21  34  53  77 108 143 175 212 258 305
#     4  10  21  37  54  76 107 139 175 216 257 306
#     4   9  19  37  59  78  98 130 171 216 263 311
#
# _framework density 18.503433000000001
#
# number of rings (size 3 to 8) (size 9 to 14) (size 15 to 20)
#    0.000    2.000    0.000    5.400    0.000    8.000 
#    0.000    1.000    0.000    6.000    0.000    0.000 
#    0.000    0.000    0.000    0.000    0.000    0.000 
#
# Total GULP energy -248049.641289 kJ/mol
# GULP energy per Si atom -12402.482064 kJ/mol
# Density = 1.846132 g / cm^3
# Si number density = 18.503433 Si / 1000 Ang^3
#
#
#
# Elastic Constant Matrix: (Units=GPa)
#
#
# Indices 1 2 3 4 5 6 
#
# 1 95.8971 20.7778 59.9391 -0.0005 -18.1472 0.0026
# 2 20.7778 47.3355 36.1490 -0.0024 -2.0007 0.0034
# 3 59.9391 36.1490 145.6271 -0.0061 6.1799 0.0038
# 4 -0.0005 -0.0024 -0.0061 32.8517 0.0056 -3.2585
# 5 -18.1472 -2.0007 6.1799 0.0056 21.4941 -0.0022
# 6 0.0026 0.0034 0.0038 -3.2585 -0.0022 30.0186
#
#
#
# Elastic Compliance Matrix: (Units=1/GPa)
#
#
# Indices 1 2 3 4 5 6 
#
# 1 0.019645 -0.001276 -0.008572 -0.000005 0.018932 0.000000
# 2 -0.001276 0.026556 -0.006202 0.000000 0.003177 -0.000002
# 3 -0.008572 -0.006202 0.012418 0.000004 -0.011385 -0.000001
# 4 -0.000005 0.000000 0.000004 0.030771 -0.000013 0.003340
# 5 0.018932 0.003177 -0.011385 -0.000013 0.066077 0.000003
# 6 0.000000 -0.000002 -0.000001 0.003340 0.000003 0.033675
#
#
# Mechanical properties :
#
#
# Convention : Reuss Voigt Hill
#
# Bulk Modulus (GPa) = 37.70957 58.06573 47.88765
# Shear Modulus (GPa) = 21.73128 28.33913 25.03521
#
# Velocity S-wave (km/s) = 3.43074 3.91776 3.68231
# Velocity P-wave (km/s) = 6.00977 7.20516 6.63444
#
# Compressibility (1/GPa) = 0.02651847
#
# Stress axis : x y z
#
# Youngs Moduli (GPa) = 50.90352 37.65575 80.53026
#
# Poissons Ratio (x) = 0.04807 0.69033
# Poissons Ratio (y) = 0.06498 0.49941
# Poissons Ratio (z) = 0.43636 0.23352
#
# Static dielectric constant tensor:
#      x y z
#    x 3.638600 0.000020 -0.027850 
#    y 0.000020 3.420610 0.000000 
#    z -0.027850 0.000000 3.638820 
# 
# 
# High freq. dielectric constant tensor:
#      x y z
#    x 1.696480 0.000000 0.004230 
#    y 0.000000 1.722190 0.000000 
#    z 0.004230 0.000000 1.726070 
# 
# From -- ./inp_files/151742.got.cif
#   From: 2010.06.25/outbox.cif.g09.slc.cpg/sg12_76_cif.got.tgz:151742.got - 2010.06.28 00:19:55.
