data_PCOD8106152
_publ_section_title
;
Structure prediction by ZEFSAII (Michael W. Deem and Ramdas Pophale) SiO2 
 PCOD8106152
Probable space group: C 2/M
;
_chemical_formula_sum "Si O2"
_cell_formula_units_Z 56
_cell_length_a 12.341056
_cell_length_b 13.866797
_cell_length_c 18.151069
_cell_angle_alpha 90.000000
_cell_angle_beta 59.727688
_cell_angle_gamma 90.000000
_cell_volume 2682.644138
_symmetry_space_group_name_H-M "C 2/M"
_symmetry_group_IT_number 12
_symmetry_cell_setting 'monoclinic'
loop_
_space_group_symop_operation_xyz
x,y,z
-x,y,-z
-x,-y,-z
x,-y,z
1/2+x,1/2+y,z
1/2-x,1/2+y,-z
1/2-x,1/2-y,-z
1/2+x,1/2-y,z
loop_
_atom_site_type_symbol
_atom_site_label
_atom_site_fract_x
_atom_site_fract_y
_atom_site_fract_z
Si Si1 0.822809 0.385860 0.622492
Si Si2 0.902218 0.611586 0.438731
Si Si3 0.431509 0.304296 0.953990
Si Si4 0.304711 0.113231 0.035020
Si Si5 0.934893 0.202303 0.238959
Si Si6 0.162290 0.391962 0.699533
Si Si7 0.659010 0.609482 0.231350
O O1 0.797612 0.500000 0.637804
O O2 0.830291 0.347672 0.535072
O O3 0.707347 0.331066 0.699683
O O4 0.952718 0.352395 0.617919
O O5 0.916831 0.500000 0.450790
O O6 0.818758 0.630890 0.394166
O O7 0.304097 0.363506 0.986269
O O8 0.520264 0.330909 0.855636
O O9 0.500000 0.350960 0.000000
O O10 0.413853 0.188454 0.974677
O O11 0.259742 0.140243 0.133841
O O12 0.347094 0.000000 0.014623
O O13 0.942228 0.318585 0.235828
O O14 0.028998 0.167105 0.270422
O O15 0.110242 0.500000 0.728493
O O16 0.288873 0.376524 0.703640
O O17 0.622645 0.500000 0.228267
#
# Coordination Sequence:
#
# PCOD8106152 Si02
#       7
#     8   8   8   8   8   8   8
#     4   9  18  36  60  86 114 149 188 233 286 341
#     4   8  17  36  59  82 115 150 187 233 280 334
#     4  10  21  37  55  83 115 143 189 242 276 325
#     4   9  19  37  58  77 109 156 190 222 281 341
#     4  11  22  33  60  85 114 150 190 233 289 338
#     4  10  21  36  55  82 117 150 185 233 280 331
#     4   9  19  37  57  82 116 150 188 234 283 337
#
# _framework density 20.874928000000001
#
# number of rings (size 3 to 8) (size 9 to 14) (size 15 to 20)
#    0.000    2.571    0.000    2.143    2.000    2.286 
#    0.000    0.714    0.000    3.429    0.000    0.000 
#    0.000    0.000    0.000    0.000    0.000    0.000 
#
# Total GULP energy -346921.590127 kJ/mol
# GULP energy per Si atom -12390.056790 kJ/mol
# Density = 2.082742 g / cm^3
# Si number density = 20.874928 Si / 1000 Ang^3
#
#
#
# Elastic Constant Matrix: (Units=GPa)
#
#
# Indices 1 2 3 4 5 6 
#
# 1 130.5986 28.5259 66.7699 0.0000 21.8085 0.0000
# 2 28.5259 64.9355 14.6636 0.0000 -2.2573 0.0000
# 3 66.7699 14.6636 81.6178 0.0000 0.5168 0.0000
# 4 0.0000 0.0000 0.0000 20.7268 0.0000 -4.4054
# 5 21.8085 -2.2573 0.5168 0.0000 41.2393 0.0000
# 6 0.0000 0.0000 0.0000 -4.4054 0.0000 23.7449
#
#
#
# Elastic Compliance Matrix: (Units=1/GPa)
#
#
# Indices 1 2 3 4 5 6 
#
# 1 0.016718 -0.004773 -0.012762 0.000000 -0.008942 0.000000
# 2 -0.004773 0.017448 0.000748 0.000000 0.003470 0.000000
# 3 -0.012762 0.000748 0.022517 0.000000 0.006508 0.000000
# 4 0.000000 0.000000 0.000000 0.050227 0.000000 0.009319
# 5 -0.008942 0.003470 0.006508 0.000000 0.029086 0.000000
# 6 0.000000 0.000000 0.000000 0.009319 0.000000 0.043843
#
#
# Mechanical properties :
#
#
# Convention : Reuss Voigt Hill
#
# Bulk Modulus (GPa) = 43.27394 55.23008 49.25201
# Shear Modulus (GPa) = 22.61244 28.28836 25.45040
#
# Velocity S-wave (km/s) = 3.29482 3.68521 3.49547
# Velocity P-wave (km/s) = 5.93714 6.68003 6.31951
#
# Compressibility (1/GPa) = 0.02310860
#
# Stress axis : x y z
#
# Youngs Moduli (GPa) = 59.81714 57.31201 44.41051
#
# Poissons Ratio (x) = 0.27354 0.56678
# Poissons Ratio (y) = 0.28550 -0.03321
# Poissons Ratio (z) = 0.76340 -0.04286
#
# Static dielectric constant tensor:
#      x y z
#    x 3.796070 0.000000 0.226740 
#    y 0.000000 3.795710 0.000000 
#    z 0.226740 0.000000 3.630880 
# 
# 
# High freq. dielectric constant tensor:
#      x y z
#    x 1.820430 0.000000 0.019160 
#    y 0.000000 1.810540 0.000000 
#    z 0.019160 0.000000 1.798760 
# 
# From -- ./inp_files/263263.got.cif
#   From: 2010.06.25/outbox.cif.g09.slc.cpg/sg12_132_cif.got.tgz:263263.got - 2010.06.28 00:19:55.
