data_PCOD8106723
_publ_section_title
;
Structure prediction by ZEFSAII (Michael W. Deem and Ramdas Pophale) SiO2 
 PCOD8106723
Probable space group: C 2/M
;
_chemical_formula_sum "Si O2"
_cell_formula_units_Z 64
_cell_length_a 27.809331
_cell_length_b 9.083178
_cell_length_c 15.782772
_cell_angle_alpha 90.000000
_cell_angle_beta 116.694591
_cell_angle_gamma 90.000000
_cell_volume 3561.757164
_symmetry_space_group_name_H-M "C 2/M"
_symmetry_group_IT_number 12
_symmetry_cell_setting 'monoclinic'
loop_
_space_group_symop_operation_xyz
x,y,z
-x,y,-z
-x,-y,-z
x,-y,z
1/2+x,1/2+y,z
1/2-x,1/2+y,-z
1/2-x,1/2-y,-z
1/2+x,1/2-y,z
loop_
_atom_site_type_symbol
_atom_site_label
_atom_site_fract_x
_atom_site_fract_y
_atom_site_fract_z
Si Si1 0.851682 0.669067 0.406744
Si Si2 0.392352 0.328420 0.602194
Si Si3 0.635726 0.825965 0.250958
Si Si4 0.111446 0.325916 0.745390
Si Si5 0.511823 0.667583 0.745794
Si Si6 0.967976 0.171360 0.891610
Si Si7 0.266951 0.666891 0.752821
Si Si8 0.276691 0.171275 0.099448
O O1 0.865742 0.500000 0.440356
O O2 0.868936 0.775681 0.495250
O O3 0.884192 0.722299 0.349264
O O4 0.788359 0.686909 0.341683
O O5 0.379992 0.500000 0.605608
O O6 0.363390 0.241201 0.654486
O O7 0.456100 0.298353 0.654070
O O8 0.586306 0.764992 0.156496
O O9 0.690766 0.783475 0.248621
O O10 0.630947 0.000000 0.253887
O O11 0.113126 0.500000 0.750295
O O12 0.162962 0.265405 0.838265
O O13 0.056682 0.271131 0.742500
O O14 0.529745 0.500000 0.745721
O O15 0.505673 0.702335 0.840503
O O16 0.951656 0.000000 0.882176
O O17 0.000000 0.221652 0.000000
O O18 0.288270 0.500000 0.757667
O O19 0.258617 0.700904 0.845122
O O20 0.279306 0.000000 0.080811
O O21 0.250000 0.250000 0.000000
#
# Coordination Sequence:
#
# PCOD8106723 Si02
#       8
#     8   8   8   8   8   8   8   8
#     4   9  19  36  56  77 101 134 176 215 255 307
#     4  10  21  37  55  76 105 138 172 212 259 311
#     4  11  22  35  54  80 107 135 173 218 260 306
#     4   9  19  35  53  75 105 137 169 211 260 305
#     4   9  19  34  52  76 103 135 174 210 250 306
#     4   9  19  37  57  76 104 141 177 213 258 311
#     4   9  19  37  56  74 104 142 175 211 259 313
#     4   9  19  35  54  77 105 138 174 212 256 305
#
# _framework density 17.96866
#
# number of rings (size 3 to 8) (size 9 to 14) (size 15 to 20)
#    0.000    2.625    0.000    3.750    0.000    6.750 
#    0.000    8.750    0.000    0.000    0.000    0.000 
#    0.000    0.000    0.000    0.000    0.000    0.000 
#
# Total GULP energy -396832.992452 kJ/mol
# GULP energy per Si atom -12401.031014 kJ/mol
# Density = 1.792776 g / cm^3
# Si number density = 17.968660 Si / 1000 Ang^3
#
#
#
# Elastic Constant Matrix: (Units=GPa)
#
#
# Indices 1 2 3 4 5 6 
#
# 1 98.7720 44.8844 51.9342 0.0000 -4.7697 0.0000
# 2 44.8844 78.2998 56.9687 0.0000 -0.6317 0.0000
# 3 51.9342 56.9687 148.1416 0.0000 -1.1970 0.0000
# 4 0.0000 0.0000 0.0000 33.1389 0.0000 0.0237
# 5 -4.7697 -0.6317 -1.1970 0.0000 12.1432 0.0000
# 6 0.0000 0.0000 0.0000 0.0237 0.0000 35.5025
#
#
#
# Elastic Compliance Matrix: (Units=1/GPa)
#
#
# Indices 1 2 3 4 5 6 
#
# 1 0.014694 -0.006476 -0.002619 0.000000 0.005177 0.000000
# 2 -0.006476 0.020588 -0.005663 0.000000 -0.002031 0.000000
# 3 -0.002619 -0.005663 0.009844 0.000000 -0.000353 0.000000
# 4 0.000000 0.000000 0.000000 0.030176 0.000000 -0.000020
# 5 0.005177 -0.002031 -0.000353 0.000000 0.084244 0.000000
# 6 0.000000 0.000000 0.000000 -0.000020 0.000000 0.028167
#
#
# Mechanical properties :
#
#
# Convention : Reuss Voigt Hill
#
# Bulk Modulus (GPa) = 64.06667 70.30977 67.18822
# Shear Modulus (GPa) = 22.47881 27.58535 25.03208
#
# Velocity S-wave (km/s) = 3.54079 3.92240 3.73647
# Velocity P-wave (km/s) = 7.24212 7.72837 7.48919
#
# Compressibility (1/GPa) = 0.01560874
#
# Stress axis : x y z
#
# Youngs Moduli (GPa) = 68.05365 48.57271 101.58980
#
# Poissons Ratio (x) = 0.31455 0.26609
# Poissons Ratio (y) = 0.44071 0.57533
# Poissons Ratio (z) = 0.17825 0.27508
#
# Static dielectric constant tensor:
#      x y z
#    x 3.283670 0.000000 0.017890 
#    y 0.000000 3.202220 0.000000 
#    z 0.017890 0.000000 3.448200 
# 
# 
# High freq. dielectric constant tensor:
#      x y z
#    x 1.695710 0.000000 -0.001120 
#    y 0.000000 1.690880 0.000000 
#    z -0.001120 0.000000 1.701340 
# 
# From -- ./inp_files/244199.got.cif
#   From: 2010.06.25/outbox.cif.g09.slc.cpg/sg12_123_cif.got.tgz:244199.got - 2010.06.28 00:19:55.
