data_PCOD8106945
_publ_section_title
;
Structure prediction by ZEFSAII (Michael W. Deem and Ramdas Pophale) SiO2 
 PCOD8106945
Probable space group: C 2/M
;
_chemical_formula_sum "Si O2"
_cell_formula_units_Z 40
_cell_length_a 17.876175
_cell_length_b 8.888986
_cell_length_c 25.889189
_cell_angle_alpha 90.000000
_cell_angle_beta 29.913776
_cell_angle_gamma 90.000000
_cell_volume 2051.546141
_symmetry_space_group_name_H-M "C 2/M"
_symmetry_group_IT_number 12
_symmetry_cell_setting 'monoclinic'
loop_
_space_group_symop_operation_xyz
x,y,z
-x,y,-z
-x,-y,-z
x,-y,z
1/2+x,1/2+y,z
1/2-x,1/2+y,-z
1/2-x,1/2-y,-z
1/2+x,1/2-y,z
loop_
_atom_site_type_symbol
_atom_site_label
_atom_site_fract_x
_atom_site_fract_y
_atom_site_fract_z
Si Si1 0.831188 0.178661 0.601435
Si Si2 0.327808 0.824921 0.199343
Si Si3 0.320637 0.825230 0.007382
Si Si4 0.166989 0.322034 0.597598
Si Si5 0.822802 0.677185 0.807332
O O1 0.747973 0.233861 0.702716
O O2 0.742508 0.240505 0.604787
O O3 0.000000 0.243551 0.500000
O O4 0.832899 0.000000 0.598828
O O5 0.263490 0.725236 0.192117
O O6 0.291756 0.000000 0.210428
O O7 0.503159 0.795462 0.098674
O O8 0.251625 0.756388 0.099787
O O9 0.282709 0.000000 0.028663
O O10 0.250000 0.750000 0.000000
O O11 0.183198 0.500000 0.583938
O O12 0.250000 0.250000 0.500000
O O13 0.994728 0.270992 0.700235
O O14 0.809565 0.500000 0.823152
#
# Coordination Sequence:
#
# PCOD8106945 Si02
#       5
#     8   8   8   8   8
#     4   9  17  32  56  81 106 141 184 229 279 336
#     4  10  21  38  59  83 112 149 194 238 283 342
#     4  11  23  39  60  85 115 152 193 238 288 343
#     4  10  21  37  57  83 114 148 188 236 288 343
#     4  11  23  38  57  84 118 152 190 239 290 341
#
# _framework density 19.497489999999999
#
# number of rings (size 3 to 8) (size 9 to 14) (size 15 to 20)
#    0.000    1.800    0.000    4.200    0.000   10.400 
#    0.000    1.000    0.000    3.600    0.000    0.000 
#    0.000    0.000    0.000    0.000    0.000    0.000 
#
# Total GULP energy -248084.579433 kJ/mol
# GULP energy per Si atom -12404.228972 kJ/mol
# Density = 1.945311 g / cm^3
# Si number density = 19.497490 Si / 1000 Ang^3
#
#
#
# Elastic Constant Matrix: (Units=GPa)
#
#
# Indices 1 2 3 4 5 6 
#
# 1 165.5021 57.5596 82.1079 -0.0001 15.3028 -0.0002
# 2 57.5596 60.8506 64.6287 0.0000 -4.4373 -0.0004
# 3 82.1079 64.6287 187.5768 0.0002 17.2343 0.0002
# 4 -0.0001 0.0000 0.0002 30.9042 0.0001 7.2332
# 5 15.3028 -4.4373 17.2343 0.0001 39.9431 0.0000
# 6 -0.0002 -0.0004 0.0002 7.2332 0.0000 27.7532
#
#
#
# Elastic Compliance Matrix: (Units=1/GPa)
#
#
# Indices 1 2 3 4 5 6 
#
# 1 0.009951 -0.008725 -0.000948 0.000000 -0.004373 0.000000
# 2 -0.008725 0.035601 -0.009494 0.000000 0.011394 0.000001
# 3 -0.000948 -0.009494 0.009456 0.000000 -0.004771 0.000000
# 4 0.000000 0.000000 0.000000 0.034460 0.000000 -0.008981
# 5 -0.004373 0.011394 -0.004771 0.000000 0.030035 0.000000
# 6 0.000000 0.000001 0.000000 -0.008981 0.000000 0.038373
#
#
# Mechanical properties :
#
#
# Convention : Reuss Voigt Hill
#
# Bulk Modulus (GPa) = 59.97341 91.39133 75.68237
# Shear Modulus (GPa) = 24.78093 33.69564 29.23829
#
# Velocity S-wave (km/s) = 3.56895 4.16168 3.87666
# Velocity P-wave (km/s) = 6.91444 8.37066 7.67715
#
# Compressibility (1/GPa) = 0.01667406
#
# Stress axis : x y z
#
# Youngs Moduli (GPa) = 100.48867 28.08903 105.75791
#
# Poissons Ratio (x) = 0.24508 0.10026
# Poissons Ratio (y) = 0.87678 1.00404
# Poissons Ratio (z) = 0.09527 0.26667
#
# Static dielectric constant tensor:
#      x y z
#    x 3.700360 0.000000 -0.101870 
#    y 0.000000 3.378970 0.000000 
#    z -0.101870 0.000000 3.838020 
# 
# 
# High freq. dielectric constant tensor:
#      x y z
#    x 1.780010 0.000000 0.000480 
#    y 0.000000 1.738570 0.000000 
#    z 0.000480 0.000000 1.781750 
# 
# From -- ./inp_files/151678.got.cif
#   From: 2010.06.25/outbox.cif.g09.slc.cpg/sg12_76_cif.got.tgz:151678.got - 2010.06.28 00:19:55.
