data_PCOD8106628
_publ_section_title
;
Structure prediction by ZEFSAII (Michael W. Deem and Ramdas Pophale) SiO2 
 PCOD8106628
Probable space group: C 2/M
;
_chemical_formula_sum "Si O2"
_cell_formula_units_Z 48
_cell_length_a 9.361280
_cell_length_b 15.507710
_cell_length_c 28.096175
_cell_angle_alpha 90.000000
_cell_angle_beta 39.182973
_cell_angle_gamma 90.000000
_cell_volume 2576.967998
_symmetry_space_group_name_H-M "C 2/M"
_symmetry_group_IT_number 12
_symmetry_cell_setting 'monoclinic'
loop_
_space_group_symop_operation_xyz
x,y,z
-x,y,-z
-x,-y,-z
x,-y,z
1/2+x,1/2+y,z
1/2-x,1/2+y,-z
1/2-x,1/2-y,-z
1/2+x,1/2-y,z
loop_
_atom_site_type_symbol
_atom_site_label
_atom_site_fract_x
_atom_site_fract_y
_atom_site_fract_z
Si Si1 0.882199 0.654867 0.217443
Si Si2 0.772165 0.677323 0.795746
Si Si3 0.854189 0.097956 0.080358
Si Si4 0.107822 0.904034 0.650193
Si Si5 0.247267 0.761398 0.445458
Si Si6 0.882793 0.597011 0.672539
O O1 0.809264 0.732769 0.203092
O O2 0.664119 0.595753 0.281609
O O3 0.977167 0.686411 0.244722
O O4 0.084378 0.603252 0.138624
O O5 0.596904 0.646525 0.882174
O O6 0.774421 0.607416 0.752778
O O7 0.931723 0.000000 0.066504
O O8 0.000000 0.140759 0.000000
O O9 0.211986 0.831430 0.589304
O O10 0.192107 0.886765 0.682090
O O11 0.185374 0.000000 0.613236
O O12 0.250000 0.750000 0.500000
O O13 0.423286 0.831632 0.381742
O O14 0.000000 0.798186 0.500000
O O15 0.982019 0.500000 0.642429
#
# Coordination Sequence:
#
# PCOD8106628 Si02
#       6
#     8   8   8   8   8   8
#     4  10  21  36  62  89 118 159 203 248 297 353
#     4  10  21  36  62  89 120 157 203 251 295 357
#     4   9  20  37  58  89 127 162 201 250 303 359
#     4  11  24  42  65  90 121 160 206 252 305 371
#     4  12  26  43  63  87 123 157 199 255 310 365
#     4  11  24  42  64  92 121 157 207 256 307 363
#
# _framework density 18.626541
#
# number of rings (size 3 to 8) (size 9 to 14) (size 15 to 20)
#    1.000    0.500    3.333    2.000    2.333    2.000 
#    0.000    0.000    0.000    0.000    0.000    7.000 
#    0.000    0.000    0.000    0.000    0.000    0.000 
#
# Total GULP energy -297405.610228 kJ/mol
# GULP energy per Si atom -12391.900426 kJ/mol
# Density = 1.858415 g / cm^3
# Si number density = 18.626541 Si / 1000 Ang^3
#
#
#
# Elastic Constant Matrix: (Units=GPa)
#
#
# Indices 1 2 3 4 5 6 
#
# 1 106.0602 25.9195 36.4677 -0.0022 19.9646 0.0006
# 2 25.9195 106.2074 30.9829 -0.0010 20.6344 0.0008
# 3 36.4677 30.9829 106.7994 0.0022 22.1217 -0.0037
# 4 -0.0022 -0.0010 0.0022 20.1859 0.0008 6.1857
# 5 19.9646 20.6344 22.1217 0.0008 34.8394 0.0002
# 6 0.0006 0.0008 -0.0037 6.1857 0.0002 23.8027
#
#
#
# Elastic Compliance Matrix: (Units=1/GPa)
#
#
# Indices 1 2 3 4 5 6 
#
# 1 0.011426 -0.001200 -0.002699 0.000002 -0.004123 -0.000001
# 2 -0.001200 0.011171 -0.001846 0.000001 -0.004757 -0.000001
# 3 -0.002699 -0.001846 0.011830 -0.000002 -0.004871 0.000003
# 4 0.000002 0.000001 -0.000002 0.053826 -0.000002 -0.013988
# 5 -0.004123 -0.004757 -0.004871 -0.000002 0.036976 0.000000
# 6 -0.000001 -0.000001 0.000003 -0.013988 0.000000 0.045647
#
#
# Mechanical properties :
#
#
# Convention : Reuss Voigt Hill
#
# Bulk Modulus (GPa) = 43.59900 56.20081 49.89990
# Shear Modulus (GPa) = 26.31419 30.81206 28.56313
#
# Velocity S-wave (km/s) = 3.76270 4.07160 3.92019
# Velocity P-wave (km/s) = 6.50653 7.23477 6.88029
#
# Compressibility (1/GPa) = 0.02293631
#
# Stress axis : x y z
#
# Youngs Moduli (GPa) = 87.51857 89.51774 84.53410
#
# Poissons Ratio (x) = 0.10742 0.22820
# Poissons Ratio (y) = 0.10502 0.15603
# Poissons Ratio (z) = 0.23625 0.16523
#
# Static dielectric constant tensor:
#      x y z
#    x 3.445800 -0.000030 0.215750 
#    y -0.000030 3.529890 0.000070 
#    z 0.215750 0.000070 3.114510 
# 
# 
# High freq. dielectric constant tensor:
#      x y z
#    x 1.723950 0.000000 0.010620 
#    y 0.000000 1.726830 0.000000 
#    z 0.010620 0.000000 1.715340 
# 
# From -- ./inp_files/333140.got.cif
#   From: 2010.06.25/outbox.cif.g09.slc.cpg/sg12_167_cif.got.tgz:333140.got - 2010.06.28 00:19:55.
