data_PCOD8106492
_publ_section_title
;
Structure prediction by ZEFSAII (Michael W. Deem and Ramdas Pophale) SiO2 
 PCOD8106492
Probable space group: C 2/M
;
_chemical_formula_sum "Si O2"
_cell_formula_units_Z 40
_cell_length_a 10.375261
_cell_length_b 14.997141
_cell_length_c 19.998132
_cell_angle_alpha 90.000000
_cell_angle_beta 41.691510
_cell_angle_gamma 90.000000
_cell_volume 2069.649271
_symmetry_space_group_name_H-M "C 2/M"
_symmetry_group_IT_number 12
_symmetry_cell_setting 'monoclinic'
loop_
_space_group_symop_operation_xyz
x,y,z
-x,y,-z
-x,-y,-z
x,-y,z
1/2+x,1/2+y,z
1/2-x,1/2+y,-z
1/2-x,1/2-y,-z
1/2+x,1/2-y,z
loop_
_atom_site_type_symbol
_atom_site_label
_atom_site_fract_x
_atom_site_fract_y
_atom_site_fract_z
Si Si1 0.745226 0.601214 0.643717
Si Si2 0.484779 0.267634 0.814206
Si Si3 0.463112 0.901468 0.280489
Si Si4 0.147313 0.655442 0.535723
Si Si5 0.356884 0.676571 0.109844
O O1 0.764105 0.500000 0.662925
O O2 0.551114 0.646591 0.746027
O O3 0.742238 0.598459 0.563870
O O4 0.921750 0.662374 0.602095
O O5 0.600167 0.176953 0.746304
O O6 0.515784 0.281971 0.880368
O O7 0.257252 0.255763 0.885383
O O8 0.344048 0.891636 0.395536
O O9 0.697770 0.892519 0.201502
O O10 0.419403 0.000000 0.268130
O O11 0.250000 0.750000 0.500000
O O12 0.500000 0.630564 0.000000
#
# Coordination Sequence:
#
# PCOD8106492 Si02
#       5
#     8   8   8   8   8
#     4  11  21  35  58  86 118 155 200 240 282 349
#     4  10  21  38  62  88 118 155 195 249 296 351
#     4  10  21  36  59  86 119 153 194 242 293 349
#     4  11  19  34  57  85 116 152 192 240 291 339
#     4  10  21  38  64  87 115 154 199 247 303 348
#
# _framework density 19.326944999999998
#
# number of rings (size 3 to 8) (size 9 to 14) (size 15 to 20)
#    1.200    0.400    4.000    3.000    0.000    0.400 
#    0.000    1.000    0.000    2.400    0.000    0.000 
#    0.000    0.000    0.000    0.000    0.000    0.000 
#
# Total GULP energy -247779.456737 kJ/mol
# GULP energy per Si atom -12388.972837 kJ/mol
# Density = 1.928296 g / cm^3
# Si number density = 19.326945 Si / 1000 Ang^3
#
#
#
# Elastic Constant Matrix: (Units=GPa)
#
#
# Indices 1 2 3 4 5 6 
#
# 1 59.9990 14.0195 21.8096 0.0001 22.3018 -0.0001
# 2 14.0195 104.9054 33.0163 0.0006 8.7459 -0.0003
# 3 21.8096 33.0163 88.5955 -0.0007 15.3453 0.0001
# 4 0.0001 0.0006 -0.0007 11.1335 -0.0003 0.2943
# 5 22.3018 8.7459 15.3453 -0.0003 31.4955 0.0001
# 6 -0.0001 -0.0003 0.0001 0.2943 0.0001 22.9855
#
#
#
# Elastic Compliance Matrix: (Units=1/GPa)
#
#
# Indices 1 2 3 4 5 6 
#
# 1 0.023495 -0.001005 -0.002813 -0.000001 -0.014987 0.000000
# 2 -0.001005 0.010879 -0.003721 -0.000001 -0.000496 0.000000
# 3 -0.002813 -0.003721 0.014026 0.000001 -0.003808 0.000000
# 4 -0.000001 -0.000001 0.000001 0.089850 0.000001 -0.001150
# 5 -0.014987 -0.000496 -0.003808 0.000001 0.044356 0.000000
# 6 0.000000 0.000000 0.000000 -0.001150 0.000000 0.043520
#
#
# Mechanical properties :
#
#
# Convention : Reuss Voigt Hill
#
# Bulk Modulus (GPa) = 30.01041 43.46563 36.73802
# Shear Modulus (GPa) = 19.81672 25.43321 22.62496
#
# Velocity S-wave (km/s) = 3.20557 3.63153 3.42518
# Velocity P-wave (km/s) = 5.40947 6.33423 5.89003
#
# Compressibility (1/GPa) = 0.03332177
#
# Stress axis : x y z
#
# Youngs Moduli (GPa) = 42.56208 91.91907 71.29562
#
# Poissons Ratio (x) = 0.09237 0.20059
# Poissons Ratio (y) = 0.04277 0.26528
# Poissons Ratio (z) = 0.11975 0.34202
#
# Static dielectric constant tensor:
#      x y z
#    x 3.292550 0.000000 0.182720 
#    y 0.000000 3.314610 0.000000 
#    z 0.182720 0.000000 3.491130 
# 
# 
# High freq. dielectric constant tensor:
#      x y z
#    x 1.730550 0.000000 0.022570 
#    y 0.000000 1.732350 0.000000 
#    z 0.022570 0.000000 1.751430 
# 
# From -- ./inp_files/335988.got.cif
#   From: 2010.06.25/outbox.cif.g09.slc.cpg/sg12_168_cif.got.tgz:335988.got - 2010.06.28 00:19:55.
