data_PCOD8106017
_publ_section_title
;
Structure prediction by ZEFSAII (Michael W. Deem and Ramdas Pophale) SiO2 
 PCOD8106017
Probable space group: C 2/M
;
_chemical_formula_sum "Si O2"
_cell_formula_units_Z 56
_cell_length_a 8.959400
_cell_length_b 15.736078
_cell_length_c 23.476796
_cell_angle_alpha 90.000000
_cell_angle_beta 124.920653
_cell_angle_gamma 90.000000
_cell_volume 2713.934014
_symmetry_space_group_name_H-M "C 2/M"
_symmetry_group_IT_number 12
_symmetry_cell_setting 'monoclinic'
loop_
_space_group_symop_operation_xyz
x,y,z
-x,y,-z
-x,-y,-z
x,-y,z
1/2+x,1/2+y,z
1/2-x,1/2+y,-z
1/2-x,1/2-y,-z
1/2+x,1/2-y,z
loop_
_atom_site_type_symbol
_atom_site_label
_atom_site_fract_x
_atom_site_fract_y
_atom_site_fract_z
Si Si1 0.207215 0.837901 0.688749
Si Si2 0.052290 0.340360 0.152151
Si Si3 0.508472 0.096568 0.563951
Si Si4 0.293906 0.000000 0.082181
Si Si5 0.140969 0.837900 0.311251
Si Si6 0.595837 0.659640 0.847849
Si Si7 0.816619 0.903432 0.436049
Si Si8 0.952638 0.000000 0.082181
O O1 0.360504 0.864115 0.767872
O O2 0.254138 0.750001 0.669425
O O3 0.198465 0.904583 0.635732
O O4 0.013404 0.831177 0.675603
O O5 0.205447 0.333933 0.136964
O O6 0.914201 0.415187 0.107162
O O7 0.948596 0.250000 0.132397
O O8 0.500000 0.142242 0.500000
O O9 0.708732 0.095418 0.635733
O O10 0.360527 0.140663 0.573685
O O11 0.450083 0.000000 0.542472
O O12 0.164118 0.000000 0.109412
O O13 0.175635 0.000000 1.000000
O O14 0.056889 0.864114 0.232128
O O15 0.592713 0.584813 0.892838
O O16 0.000000 0.857758 0.500000
O O17 0.822667 0.000000 0.457529
#
# Coordination Sequence:
#
# PCOD8106017 Si02
#       8
#     8   8   8   4   8   8   8   4
#     4  10  21  37  58  84 114 148 192 241 292 351
#     4  10  22  41  65  94 127 165 206 255 309 365
#     4  10  21  36  54  79 111 150 193 240 294 348
#     4  11  25  43  65  95 128 165 208 251 301 365
#     4  10  21  37  58  84 114 148 192 241 292 351
#     4  10  22  41  65  94 127 165 206 255 309 365
#     4  10  21  36  54  79 111 150 193 240 294 348
#     4  11  25  43  65  95 128 165 208 251 301 365
#
# _framework density 20.634252
#
# number of rings (size 3 to 8) (size 9 to 14) (size 15 to 20)
#    0.000    1.857    0.000    3.000    2.000    7.429 
#    0.000    2.857    0.000    0.000    0.000    0.000 
#    0.000    0.000    0.000    0.000    0.000    0.000 
#
# Total GULP energy -347153.016906 kJ/mol
# GULP energy per Si atom -12398.322032 kJ/mol
# Density = 2.058729 g / cm^3
# Si number density = 20.634252 Si / 1000 Ang^3
#
#
#
# Elastic Constant Matrix: (Units=GPa)
#
#
# Indices 1 2 3 4 5 6 
#
# 1 159.5873 59.8906 64.9737 0.0000 -1.0926 0.0000
# 2 59.8906 94.4027 46.9899 0.0000 -0.4831 0.0000
# 3 64.9737 46.9899 97.5636 0.0000 -1.2292 0.0000
# 4 0.0000 0.0000 0.0000 4.9801 0.0000 -0.9763
# 5 -1.0926 -0.4831 -1.2292 0.0000 32.7089 0.0000
# 6 0.0000 0.0000 0.0000 -0.9763 0.0000 31.0568
#
#
#
# Elastic Compliance Matrix: (Units=1/GPa)
#
#
# Indices 1 2 3 4 5 6 
#
# 1 0.009531 -0.003798 -0.004517 0.000000 0.000093 0.000000
# 2 -0.003798 0.015447 -0.004911 0.000000 -0.000083 0.000000
# 3 -0.004517 -0.004911 0.015628 0.000000 0.000364 0.000000
# 4 0.000000 0.000000 0.000000 0.202044 0.000000 0.006351
# 5 0.000093 -0.000083 0.000364 0.000000 0.030588 0.000000
# 6 0.000000 0.000000 0.000000 0.006351 0.000000 0.032399
#
#
# Mechanical properties :
#
#
# Convention : Reuss Voigt Hill
#
# Bulk Modulus (GPa) = 70.65581 77.25131 73.95356
# Shear Modulus (GPa) = 14.84530 25.72912 20.28721
#
# Velocity S-wave (km/s) = 2.68517 3.53500 3.13897
# Velocity P-wave (km/s) = 6.62796 7.36079 7.00397
#
# Compressibility (1/GPa) = 0.01415312
#
# Stress axis : x y z
#
# Youngs Moduli (GPa) = 104.91965 64.73912 63.98768
#
# Poissons Ratio (x) = 0.24587 0.28903
# Poissons Ratio (y) = 0.39846 0.31427
# Poissons Ratio (z) = 0.47393 0.31796
#
# Static dielectric constant tensor:
#      x y z
#    x 4.186200 0.000000 -0.018100 
#    y 0.000000 3.451800 0.000000 
#    z -0.018100 0.000000 3.702730 
# 
# 
# High freq. dielectric constant tensor:
#      x y z
#    x 1.830830 0.000000 -0.000870 
#    y 0.000000 1.794170 0.000000 
#    z -0.000870 0.000000 1.807720 
# 
# From -- ./inp_files/333033.got.cif
#   From: 2010.06.25/outbox.cif.g09.slc.cpg/sg12_167_cif.got.tgz:333033.got - 2010.06.28 00:19:55.
