data_PCOD8106460
_publ_section_title
;
Structure prediction by ZEFSAII (Michael W. Deem and Ramdas Pophale) SiO2 
 PCOD8106460
Probable space group: C 2/M
;
_chemical_formula_sum "Si O2"
_cell_formula_units_Z 48
_cell_length_a 21.577215
_cell_length_b 11.189083
_cell_length_c 15.430835
_cell_angle_alpha 90.000000
_cell_angle_beta 136.924687
_cell_angle_gamma 90.000000
_cell_volume 2544.333356
_symmetry_space_group_name_H-M "C 2/M"
_symmetry_group_IT_number 12
_symmetry_cell_setting 'monoclinic'
loop_
_space_group_symop_operation_xyz
x,y,z
-x,y,-z
-x,-y,-z
x,-y,z
1/2+x,1/2+y,z
1/2-x,1/2+y,-z
1/2-x,1/2-y,-z
1/2+x,1/2-y,z
loop_
_atom_site_type_symbol
_atom_site_label
_atom_site_fract_x
_atom_site_fract_y
_atom_site_fract_z
Si Si1 0.634510 0.500000 0.367712
Si Si2 0.460207 0.754666 0.054827
Si Si3 0.479603 0.500000 0.078178
Si Si4 0.105777 0.500000 0.626301
Si Si5 0.060350 0.741868 0.328083
Si Si6 0.790961 0.370323 0.948426
Si Si7 0.162150 0.500000 0.491497
Si Si8 0.130847 0.303137 0.791437
O O1 0.577679 0.500000 0.222317
O O2 0.610878 0.372051 0.392359
O O3 0.739331 0.500000 0.450291
O O4 0.425288 0.620407 0.045815
O O5 0.537214 0.787879 0.203767
O O6 0.500000 0.763704 0.000000
O O7 0.371087 0.833557 0.965489
O O8 0.500000 0.500000 0.000000
O O9 0.164672 0.500000 0.598559
O O10 0.129928 0.384489 0.706306
O O11 0.000000 0.500000 0.500000
O O12 0.115154 0.624623 0.415005
O O13 0.968320 0.750069 0.290024
O O14 0.761403 0.500000 0.890235
O O15 0.699186 0.301142 0.838568
O O16 0.829646 0.371406 0.085165
#
# Coordination Sequence:
#
# PCOD8106460 Si02
#       8
#     4   8   4   4   8   8   4   8
#     4  10  22  38  60  92 117 158 200 249 314 367
#     4   9  19  34  59  86 124 157 194 242 308 366
#     4   8  16  34  55  84 117 151 188 233 299 355
#     4  12  22  40  66  86 116 157 218 255 295 353
#     4  10  21  39  62  86 121 161 205 250 307 369
#     4  10  21  36  58  90 125 152 196 248 303 369
#     4  12  24  40  66  87 117 159 216 264 291 362
#     4  10  21  38  61  89 116 160 204 248 304 359
#
# _framework density 18.865452000000001
#
# number of rings (size 3 to 8) (size 9 to 14) (size 15 to 20)
#    0.000    2.000    2.500    0.500    4.667    5.000 
#    4.500    0.000    1.833    1.500    0.000    0.000 
#    0.000    0.000    0.000    0.000    0.000    0.000 
#
# Total GULP energy -297314.421571 kJ/mol
# GULP energy per Si atom -12388.100899 kJ/mol
# Density = 1.882251 g / cm^3
# Si number density = 18.865452 Si / 1000 Ang^3
#
#
#
# Elastic Constant Matrix: (Units=GPa)
#
#
# Indices 1 2 3 4 5 6 
#
# 1 126.3506 77.3113 56.8129 0.0000 6.9672 0.0000
# 2 77.3113 174.4727 65.9447 0.0000 11.1942 0.0000
# 3 56.8129 65.9447 76.5174 0.0000 5.2118 0.0000
# 4 0.0000 0.0000 0.0000 39.1701 0.0000 -0.4021
# 5 6.9672 11.1942 5.2118 0.0000 36.6045 0.0000
# 6 0.0000 0.0000 0.0000 -0.4021 0.0000 20.5865
#
#
#
# Elastic Compliance Matrix: (Units=1/GPa)
#
#
# Indices 1 2 3 4 5 6 
#
# 1 0.012941 -0.003088 -0.006911 0.000000 -0.000535 0.000000
# 2 -0.003088 0.009328 -0.005647 0.000000 -0.001461 0.000000
# 3 -0.006911 -0.005647 0.023083 0.000000 -0.000244 0.000000
# 4 0.000000 0.000000 0.000000 0.025535 0.000000 0.000499
# 5 -0.000535 -0.001461 -0.000244 0.000000 0.027902 0.000000
# 6 0.000000 0.000000 0.000000 0.000499 0.000000 0.048585
#
#
# Mechanical properties :
#
#
# Convention : Reuss Voigt Hill
#
# Bulk Modulus (GPa) = 71.11803 86.38649 78.75226
# Shear Modulus (GPa) = 27.26998 31.09033 29.18016
#
# Velocity S-wave (km/s) = 3.80610 4.06397 3.93714
# Velocity P-wave (km/s) = 7.55609 8.24083 7.90588
#
# Compressibility (1/GPa) = 0.01406113
#
# Stress axis : x y z
#
# Youngs Moduli (GPa) = 77.27542 107.20545 43.32170
#
# Poissons Ratio (x) = 0.33104 0.29938
# Poissons Ratio (y) = 0.23862 0.24463
# Poissons Ratio (z) = 0.53402 0.60537
#
# Static dielectric constant tensor:
#      x y z
#    x 3.668160 0.000000 -0.029950 
#    y 0.000000 4.298050 0.000000 
#    z -0.029950 0.000000 3.436630 
# 
# 
# High freq. dielectric constant tensor:
#      x y z
#    x 1.728760 0.000000 0.004980 
#    y 0.000000 1.750060 0.000000 
#    z 0.004980 0.000000 1.720460 
# 
# From -- ./inp_files/232902.got.cif
#   From: 2010.06.25/outbox.cif.g09.slc.cpg/sg12_117_cif.got.tgz:232902.got - 2010.06.28 00:19:55.
