data_PCOD8106992
_publ_section_title
;
Structure prediction by ZEFSAII (Michael W. Deem and Ramdas Pophale) SiO2 
 PCOD8106992
Probable space group: C 2/M
;
_chemical_formula_sum "Si O2"
_cell_formula_units_Z 56
_cell_length_a 14.466326
_cell_length_b 25.001397
_cell_length_c 9.123041
_cell_angle_alpha 90.000000
_cell_angle_beta 58.074821
_cell_angle_gamma 90.000000
_cell_volume 2800.505977
_symmetry_space_group_name_H-M "C 2/M"
_symmetry_group_IT_number 12
_symmetry_cell_setting 'monoclinic'
loop_
_space_group_symop_operation_xyz
x,y,z
-x,y,-z
-x,-y,-z
x,-y,z
1/2+x,1/2+y,z
1/2-x,1/2+y,-z
1/2-x,1/2-y,-z
1/2+x,1/2-y,z
loop_
_atom_site_type_symbol
_atom_site_label
_atom_site_fract_x
_atom_site_fract_y
_atom_site_fract_z
Si Si1 0.695986 0.437599 0.022782
Si Si2 0.555511 0.060785 0.108849
Si Si3 0.982283 0.657618 0.344266
Si Si4 0.865512 0.247542 0.819727
Si Si5 0.785366 0.287501 0.595707
Si Si6 0.614494 0.632477 0.832645
Si Si7 0.973322 0.135276 0.692385
O O1 0.669084 0.500000 0.033796
O O2 0.815762 0.427301 0.988418
O O3 0.676784 0.413275 0.874744
O O4 0.616434 0.410376 0.206772
O O5 0.496805 0.098550 0.272490
O O6 0.531670 0.000000 0.174949
O O7 0.500000 0.073427 0.000000
O O8 0.058806 0.701618 0.196842
O O9 0.000000 0.656373 0.500000
O O10 0.855340 0.670986 0.440403
O O11 0.851569 0.251922 0.656220
O O12 0.927059 0.191519 0.796103
O O13 0.750000 0.250000 0.000000
O O14 0.750000 0.250000 0.500000
O O15 0.690363 0.315674 0.767457
O O16 0.583034 0.617741 0.690245
O O17 0.500000 0.648096 0.000000
O O18 0.000000 0.139215 0.500000
#
# Coordination Sequence:
#
# PCOD8106992 Si02
#       7
#     8   8   8   8   8   8   8
#     4  10  22  42  64  84 113 156 203 248 297 361
#     4  10  22  41  63  88 118 152 196 249 302 360
#     4  10  21  37  57  84 118 153 194 239 293 355
#     4  11  21  36  57  82 118 159 198 239 292 359
#     4  11  22  35  55  86 122 154 192 243 295 352
#     4  10  21  39  61  84 116 159 205 241 288 358
#     4  11  22  37  59  89 124 155 194 251 307 352
#
# _framework density 19.996386000000001
#
# number of rings (size 3 to 8) (size 9 to 14) (size 15 to 20)
#    0.000    1.571    0.000    7.286    0.000    6.571 
#    0.000    2.857    0.000    0.000    0.000    0.000 
#    0.000    0.000    0.000    0.000    0.000    0.000 
#
# Total GULP energy -346958.906150 kJ/mol
# GULP energy per Si atom -12391.389505 kJ/mol
# Density = 1.995087 g / cm^3
# Si number density = 19.996386 Si / 1000 Ang^3
#
#
#
# Elastic Constant Matrix: (Units=GPa)
#
#
# Indices 1 2 3 4 5 6 
#
# 1 124.7257 50.6059 38.1365 0.0000 -0.1269 0.0000
# 2 50.6059 127.5516 52.4608 0.0000 -5.3909 0.0000
# 3 38.1365 52.4608 90.1006 0.0000 -2.3227 0.0000
# 4 0.0000 0.0000 0.0000 37.9446 0.0000 -1.2514
# 5 -0.1269 -5.3909 -2.3227 0.0000 25.7743 0.0000
# 6 0.0000 0.0000 0.0000 -1.2514 0.0000 108.4395
#
#
#
# Elastic Compliance Matrix: (Units=1/GPa)
#
#
# Indices 1 2 3 4 5 6 
#
# 1 0.009989 -0.002958 -0.002527 0.000000 -0.000797 0.000000
# 2 -0.002958 0.011252 -0.005252 0.000000 0.001866 0.000000
# 3 -0.002527 -0.005252 0.015233 0.000000 0.000262 0.000000
# 4 0.000000 0.000000 0.000000 0.026364 0.000000 0.000304
# 5 -0.000797 0.001866 0.000262 0.000000 0.039208 0.000000
# 6 0.000000 0.000000 0.000000 0.000304 0.000000 0.009225
#
#
# Mechanical properties :
#
#
# Convention : Reuss Voigt Hill
#
# Bulk Modulus (GPa) = 66.65612 69.42050 68.03831
# Shear Modulus (GPa) = 36.29909 47.84332 42.07120
#
# Velocity S-wave (km/s) = 4.26524 4.89673 4.59185
# Velocity P-wave (km/s) = 7.59360 8.17083 7.88750
#
# Compressibility (1/GPa) = 0.01500237
#
# Stress axis : x y z
#
# Youngs Moduli (GPa) = 100.10601 88.87122 65.64894
#
# Poissons Ratio (x) = 0.26287 0.16586
# Poissons Ratio (y) = 0.29610 0.34476
# Poissons Ratio (z) = 0.25292 0.46671
#
# Static dielectric constant tensor:
#      x y z
#    x 4.020670 0.000000 0.069920 
#    y 0.000000 3.659630 0.000000 
#    z 0.069920 0.000000 3.574960 
# 
# 
# High freq. dielectric constant tensor:
#      x y z
#    x 1.798440 0.000000 -0.000770 
#    y 0.000000 1.776360 0.000000 
#    z -0.000770 0.000000 1.774670 
# 
# From -- ./inp_files/65733.got.cif
#   From: 2010.06.25/outbox.cif.g09.slc.cpg/sg12_33_cif.got.tgz:65733.got - 2010.06.28 00:19:55.
