data_PCOD8106567
_publ_section_title
;
Structure prediction by ZEFSAII (Michael W. Deem and Ramdas Pophale) SiO2 
 PCOD8106567
Probable space group: C 2/M
;
_chemical_formula_sum "Si O2"
_cell_formula_units_Z 48
_cell_length_a 29.226631
_cell_length_b 13.440162
_cell_length_c 5.383126
_cell_angle_alpha 90.000000
_cell_angle_beta 94.886015
_cell_angle_gamma 90.000000
_cell_volume 2106.865224
_symmetry_space_group_name_H-M "C 2/M"
_symmetry_group_IT_number 12
_symmetry_cell_setting 'monoclinic'
loop_
_space_group_symop_operation_xyz
x,y,z
-x,y,-z
-x,-y,-z
x,-y,z
1/2+x,1/2+y,z
1/2-x,1/2+y,-z
1/2-x,1/2-y,-z
1/2+x,1/2-y,z
loop_
_atom_site_type_symbol
_atom_site_label
_atom_site_fract_x
_atom_site_fract_y
_atom_site_fract_z
Si Si1 0.260767 0.389901 0.842539
Si Si2 0.403216 0.265589 0.924974
Si Si3 0.971034 0.387182 0.734567
Si Si4 0.181183 0.257047 0.829657
Si Si5 0.971400 0.112542 0.240372
Si Si6 0.152096 0.109442 0.439977
O O1 0.253905 0.500000 0.947281
O O2 0.210297 0.349618 0.736189
O O3 0.295620 0.390094 0.630923
O O4 0.281104 0.323442 0.070178
O O5 0.429918 0.191387 0.751799
O O6 0.387150 0.367574 0.781323
O O7 0.355967 0.207985 0.981042
O O8 0.431553 0.305540 0.178825
O O9 0.951918 0.500000 0.695489
O O10 0.000000 0.359318 0.500000
O O11 0.000000 0.379575 0.000000
O O12 0.148158 0.201053 0.623533
O O13 0.000000 0.144592 0.500000
O O14 0.952723 0.000000 0.271950
O O15 0.000000 0.118661 0.000000
O O16 0.141206 0.000000 0.547633
#
# Coordination Sequence:
#
# PCOD8106567 Si02
#       6
#     8   8   8   8   8   8
#     4   9  19  38  59  87 125 167 216 262 320 393
#     4  11  24  38  63  95 128 164 218 275 331 396
#     4  10  24  46  71  94 125 172 223 275 335 396
#     4  10  21  36  60  91 124 171 211 266 328 394
#     4  10  23  41  61  90 129 174 219 266 327 398
#     4  10  21  37  60  91 130 171 210 260 326 399
#
# _framework density 22.782664
#
# number of rings (size 3 to 8) (size 9 to 14) (size 15 to 20)
#    0.000    2.000    0.000    2.000    4.667    4.000 
#    0.000    0.833    0.000    0.500    0.000    0.000 
#    0.000    0.000    0.000    0.000    0.000    0.000 
#
# Total GULP energy -297327.789838 kJ/mol
# GULP energy per Si atom -12388.657910 kJ/mol
# Density = 2.273081 g / cm^3
# Si number density = 22.782664 Si / 1000 Ang^3
#
#
#
# Elastic Constant Matrix: (Units=GPa)
#
#
# Indices 1 2 3 4 5 6 
#
# 1 137.3944 82.5100 46.9554 0.0000 -10.5824 0.0000
# 2 82.5100 122.3451 29.0522 0.0000 -17.9791 0.0000
# 3 46.9554 29.0522 109.8879 0.0000 1.0646 0.0000
# 4 0.0000 0.0000 0.0000 20.4781 0.0000 -0.1076
# 5 -10.5824 -17.9791 1.0646 0.0000 25.6023 0.0000
# 6 0.0000 0.0000 0.0000 -0.1076 0.0000 21.0060
#
#
#
# Elastic Compliance Matrix: (Units=1/GPa)
#
#
# Indices 1 2 3 4 5 6 
#
# 1 0.013427 -0.008220 -0.003563 0.000000 -0.000074 0.000000
# 2 -0.008220 0.014871 -0.000488 0.000000 0.007066 0.000000
# 3 -0.003563 -0.000488 0.010774 0.000000 -0.002263 0.000000
# 4 0.000000 0.000000 0.000000 0.048834 0.000000 0.000250
# 5 -0.000074 0.007066 -0.002263 0.000000 0.044084 0.000000
# 6 0.000000 0.000000 0.000000 0.000250 0.000000 0.047607
#
#
# Mechanical properties :
#
#
# Convention : Reuss Voigt Hill
#
# Bulk Modulus (GPa) = 68.82426 76.29582 72.56004
# Shear Modulus (GPa) = 23.92553 27.49127 25.70840
#
# Velocity S-wave (km/s) = 3.24414 3.47749 3.36284
# Velocity P-wave (km/s) = 6.65637 7.04877 6.85538
#
# Compressibility (1/GPa) = 0.01452976
#
# Stress axis : x y z
#
# Youngs Moduli (GPa) = 74.47896 67.24397 92.81848
#
# Poissons Ratio (x) = 0.55273 0.33075
# Poissons Ratio (y) = 0.61220 0.04528
# Poissons Ratio (z) = 0.26540 0.03280
#
# Static dielectric constant tensor:
#      x y z
#    x 4.162650 0.000000 -0.007250 
#    y 0.000000 4.339220 0.000000 
#    z -0.007250 0.000000 4.030360 
# 
# 
# High freq. dielectric constant tensor:
#      x y z
#    x 1.901640 0.000000 -0.007510 
#    y 0.000000 1.892930 0.000000 
#    z -0.007510 0.000000 1.889460 
# 
# From -- ./inp_files/28154.got.cif
#   From: 2010.06.25/outbox.cif.g09.slc.cpg/sg12_15_cif.got.tgz:28154.got - 2010.06.28 00:19:55.
