data_PCOD8106865
_publ_section_title
;
Structure prediction by ZEFSAII (Michael W. Deem and Ramdas Pophale) SiO2 
 PCOD8106865
Probable space group: C 2/M
;
_chemical_formula_sum "Si O2"
_cell_formula_units_Z 56
_cell_length_a 12.155282
_cell_length_b 17.093688
_cell_length_c 15.927913
_cell_angle_alpha 90.000000
_cell_angle_beta 58.380691
_cell_angle_gamma 90.000000
_cell_volume 2818.188203
_symmetry_space_group_name_H-M "C 2/M"
_symmetry_group_IT_number 12
_symmetry_cell_setting 'monoclinic'
loop_
_space_group_symop_operation_xyz
x,y,z
-x,y,-z
-x,-y,-z
x,-y,z
1/2+x,1/2+y,z
1/2-x,1/2+y,-z
1/2-x,1/2-y,-z
1/2+x,1/2-y,z
loop_
_atom_site_type_symbol
_atom_site_label
_atom_site_fract_x
_atom_site_fract_y
_atom_site_fract_z
Si Si1 0.993098 0.407090 0.865400
Si Si2 0.207202 0.586030 0.506604
Si Si3 0.472535 0.407436 0.753899
Si Si4 0.448701 0.315402 0.427599
Si Si5 0.515456 0.156118 0.312138
Si Si6 0.799131 0.407701 0.082051
Si Si7 0.249584 0.911225 0.699302
O O1 0.993083 0.500000 0.844091
O O2 0.999895 0.352920 0.781147
O O3 0.115602 0.382229 0.872395
O O4 0.863804 0.382493 0.968371
O O5 0.267829 0.500000 0.501081
O O6 0.301761 0.655511 0.498541
O O7 0.181317 0.593891 0.418248
O O8 0.070749 0.590276 0.608353
O O9 0.470461 0.500000 0.753183
O O10 0.473414 0.381091 0.655891
O O11 0.345783 0.372595 0.851126
O O12 0.602181 0.378944 0.750514
O O13 0.500000 0.299879 0.500000
O O14 0.460608 0.238458 0.365862
O O15 0.667103 0.143560 0.272440
O O16 0.791821 0.500000 0.086306
O O17 0.248885 0.000000 0.734445
#
# Coordination Sequence:
#
# PCOD8106865 Si02
#       7
#     8   8   8   8   8   8   8
#     4   9  18  33  58  90 115 141 188 240 280 336
#     4  10  21  37  57  79 109 149 195 239 277 325
#     4   9  19  38  61  80 108 152 193 235 283 327
#     4  11  24  37  52  82 118 153 185 232 275 339
#     4  12  22  34  53  84 119 153 183 224 282 342
#     4   8  16  35  60  86 113 141 184 242 293 322
#     4   9  18  34  54  78 110 149 191 226 266 331
#
# _framework density 19.870923000000001
#
# number of rings (size 3 to 8) (size 9 to 14) (size 15 to 20)
#    0.000    2.286    0.000    5.143    2.000    3.429 
#    0.000    1.429    0.000    3.429    0.000    0.000 
#    0.000    0.000    0.000    0.000    0.000    0.000 
#
# Total GULP energy -347033.548662 kJ/mol
# GULP energy per Si atom -12394.055309 kJ/mol
# Density = 1.982570 g / cm^3
# Si number density = 19.870923 Si / 1000 Ang^3
#
#
#
# Elastic Constant Matrix: (Units=GPa)
#
#
# Indices 1 2 3 4 5 6 
#
# 1 108.0437 42.0995 71.5477 0.0000 -10.0486 0.0000
# 2 42.0995 61.1159 24.7670 0.0000 7.0211 0.0000
# 3 71.5477 24.7670 107.5267 0.0000 -13.9354 0.0000
# 4 0.0000 0.0000 0.0000 17.1350 0.0000 10.7900
# 5 -10.0486 7.0211 -13.9354 0.0000 37.0785 0.0000
# 6 0.0000 0.0000 0.0000 10.7900 0.0000 18.4192
#
#
#
# Elastic Compliance Matrix: (Units=1/GPa)
#
#
# Indices 1 2 3 4 5 6 
#
# 1 0.020972 -0.010335 -0.011126 0.000000 0.003459 0.000000
# 2 -0.010335 0.024161 0.000374 0.000000 -0.007236 0.000000
# 3 -0.011126 0.000374 0.017047 0.000000 0.003321 0.000000
# 4 0.000000 0.000000 0.000000 0.092472 0.000000 -0.054170
# 5 0.003459 -0.007236 0.003321 0.000000 0.030526 0.000000
# 6 0.000000 0.000000 0.000000 -0.054170 0.000000 0.086024
#
#
# Mechanical properties :
#
#
# Convention : Reuss Voigt Hill
#
# Bulk Modulus (GPa) = 49.98291 61.50164 55.74227
# Shear Modulus (GPa) = 15.62281 23.74467 19.68374
#
# Velocity S-wave (km/s) = 2.80699 3.46055 3.15076
# Velocity P-wave (km/s) = 5.97612 6.85456 6.43036
#
# Compressibility (1/GPa) = 0.02000684
#
# Stress axis : x y z
#
# Youngs Moduli (GPa) = 47.68262 41.38838 58.66037
#
# Poissons Ratio (x) = 0.42776 0.65264
# Poissons Ratio (y) = 0.49281 -0.02195
# Poissons Ratio (z) = 0.53051 -0.01548
#
# Static dielectric constant tensor:
#      x y z
#    x 3.827690 0.000000 -0.446370 
#    y 0.000000 3.385090 0.000000 
#    z -0.446370 0.000000 3.890170 
# 
# 
# High freq. dielectric constant tensor:
#      x y z
#    x 1.770110 0.000000 -0.013780 
#    y 0.000000 1.753010 0.000000 
#    z -0.013780 0.000000 1.767770 
# 
# From -- ./inp_files/206548.got.cif
#   From: 2010.06.25/outbox.cif.g09.slc.cpg/sg12_104_cif.got.tgz:206548.got - 2010.06.28 00:19:55.
