data_PCOD8106806
_publ_section_title
;
Structure prediction by ZEFSAII (Michael W. Deem and Ramdas Pophale) SiO2 
 PCOD8106806
Probable space group: C 2/M
;
_chemical_formula_sum "Si O2"
_cell_formula_units_Z 52
_cell_length_a 27.604594
_cell_length_b 19.504226
_cell_length_c 5.033683
_cell_angle_alpha 90.000000
_cell_angle_beta 105.150153
_cell_angle_gamma 90.000000
_cell_volume 2615.972426
_symmetry_space_group_name_H-M "C 2/M"
_symmetry_group_IT_number 12
_symmetry_cell_setting 'monoclinic'
loop_
_space_group_symop_operation_xyz
x,y,z
-x,y,-z
-x,-y,-z
x,-y,z
1/2+x,1/2+y,z
1/2-x,1/2+y,-z
1/2-x,1/2-y,-z
1/2+x,1/2-y,z
loop_
_atom_site_type_symbol
_atom_site_label
_atom_site_fract_x
_atom_site_fract_y
_atom_site_fract_z
Si Si1 0.500000 0.384740 0.000000
Si Si2 0.328868 0.356199 0.035555
Si Si3 0.143380 0.000000 0.812914
Si Si4 0.424389 0.500000 0.787771
Si Si5 0.432891 0.290607 0.221587
Si Si6 0.406021 0.209233 0.673946
Si Si7 0.697348 0.279177 0.510880
Si Si8 0.465433 0.077653 0.696648
O O1 0.542441 0.431471 0.199722
O O2 0.480457 0.336252 0.209317
O O3 0.319850 0.435877 0.083071
O O4 0.386863 0.342688 0.180613
O O5 0.295186 0.310420 0.185193
O O6 0.317270 0.339603 0.713477
O O7 0.121138 0.000000 0.484328
O O8 0.096737 0.000000 0.946080
O O9 0.439644 0.253591 0.515384
O O10 0.421899 0.231453 0.990435
O O11 0.346301 0.221155 0.546117
O O12 0.417967 0.128825 0.650195
O O13 0.750000 0.250000 0.500000
O O14 0.500000 0.098280 0.500000
O O15 0.444441 0.000000 0.638259
O O16 0.500000 0.085598 0.000000
#
# Coordination Sequence:
#
# PCOD8106806 Si02
#       8
#     4   8   4   4   8   8   8   8
#     4  11  24  38  50  82 115 168 208 248 267 330
#     4  10  21  38  58  84 113 148 190 236 288 339
#     4  12  22  41  56  80 120 162 196 244 278 344
#     4  11  26  36  54  74 120 170 214 228 282 319
#     4  10  22  34  53  80 116 145 196 240 277 319
#     4  10  22  37  56  87 111 148 186 242 289 343
#     4  10  21  40  64  88 111 144 190 242 302 352
#     4  10  21  37  56  80 113 152 187 221 282 353
#
# _framework density 19.877887000000001
#
# number of rings (size 3 to 8) (size 9 to 14) (size 15 to 20)
#    0.000    1.692    1.538    2.308    7.538    2.462 
#    0.000    0.000    3.385    0.000    0.000    0.000 
#    0.000    0.000    0.000    0.000    0.000    0.000 
#
# Total GULP energy -322453.724168 kJ/mol
# GULP energy per Si atom -12402.066314 kJ/mol
# Density = 1.983264 g / cm^3
# Si number density = 19.877887 Si / 1000 Ang^3
#
#
#
# Elastic Constant Matrix: (Units=GPa)
#
#
# Indices 1 2 3 4 5 6 
#
# 1 95.0339 55.3759 11.8691 0.0000 -18.9438 0.0000
# 2 55.3759 122.6125 7.8631 0.0000 -1.1495 0.0000
# 3 11.8691 7.8631 72.3916 0.0000 -15.7472 0.0000
# 4 0.0000 0.0000 0.0000 19.9279 0.0000 -2.2517
# 5 -18.9438 -1.1495 -15.7472 0.0000 26.5393 0.0000
# 6 0.0000 0.0000 0.0000 -2.2517 0.0000 16.8104
#
#
#
# Elastic Compliance Matrix: (Units=1/GPa)
#
#
# Indices 1 2 3 4 5 6 
#
# 1 0.017506 -0.007834 0.000718 0.000000 0.012582 0.000000
# 2 -0.007834 0.011720 -0.001257 0.000000 -0.005830 0.000000
# 3 0.000718 -0.001257 0.015997 0.000000 0.009950 0.000000
# 4 0.000000 0.000000 0.000000 0.050952 0.000000 0.006825
# 5 0.012582 -0.005830 0.009950 0.000000 0.052313 0.000000
# 6 0.000000 0.000000 0.000000 0.006825 0.000000 0.060401
#
#
# Mechanical properties :
#
#
# Convention : Reuss Voigt Hill
#
# Bulk Modulus (GPa) = 35.11706 48.91714 42.01710
# Shear Modulus (GPa) = 21.26506 26.98419 24.12462
#
# Velocity S-wave (km/s) = 3.27430 3.68842 3.48751
# Velocity P-wave (km/s) = 5.65681 6.54229 6.11560
#
# Compressibility (1/GPa) = 0.02847619
#
# Stress axis : x y z
#
# Youngs Moduli (GPa) = 57.12274 85.32426 62.51208
#
# Poissons Ratio (x) = 0.66847 -0.04487
# Poissons Ratio (y) = 0.44752 0.07856
# Poissons Ratio (z) = -0.04100 0.10723
#
# Static dielectric constant tensor:
#      x y z
#    x 3.373560 0.000000 -0.278200 
#    y 0.000000 3.728730 0.000000 
#    z -0.278200 0.000000 3.791410 
# 
# 
# High freq. dielectric constant tensor:
#      x y z
#    x 1.744710 0.000000 -0.024120 
#    y 0.000000 1.774160 0.000000 
#    z -0.024120 0.000000 1.788860 
# 
# From -- ./inp_files/28585.got.cif
#   From: 2010.06.25/outbox.cif.g09.slc.cpg/sg12_15_cif.got.tgz:28585.got - 2010.06.28 00:19:55.
