data_PCOD8106660
_publ_section_title
;
Structure prediction by ZEFSAII (Michael W. Deem and Ramdas Pophale) SiO2 
 PCOD8106660
Probable space group: C 2/M
;
_chemical_formula_sum "Si O2"
_cell_formula_units_Z 56
_cell_length_a 18.834770
_cell_length_b 17.075079
_cell_length_c 13.707864
_cell_angle_alpha 90.000000
_cell_angle_beta 145.544208
_cell_angle_gamma 90.000000
_cell_volume 2494.209295
_symmetry_space_group_name_H-M "C 2/M"
_symmetry_group_IT_number 12
_symmetry_cell_setting 'monoclinic'
loop_
_space_group_symop_operation_xyz
x,y,z
-x,y,-z
-x,-y,-z
x,-y,z
1/2+x,1/2+y,z
1/2-x,1/2+y,-z
1/2-x,1/2-y,-z
1/2+x,1/2-y,z
loop_
_atom_site_type_symbol
_atom_site_label
_atom_site_fract_x
_atom_site_fract_y
_atom_site_fract_z
Si Si1 0.897562 0.329551 0.953825
Si Si2 0.491226 0.342811 0.889530
Si Si3 0.225015 0.666760 0.516597
Si Si4 0.979849 0.692265 0.361268
Si Si5 0.052229 0.866903 0.745392
Si Si6 0.327889 0.911094 0.063323
Si Si7 0.717617 0.588460 0.614603
O O1 0.764966 0.347860 0.748828
O O2 0.931786 0.238647 0.007848
O O3 0.909035 0.371206 0.070432
O O4 0.000000 0.370070 0.000000
O O5 0.341982 0.339866 0.719277
O O6 0.542475 0.382594 0.850492
O O7 0.500000 0.392700 0.000000
O O8 0.250000 0.750000 0.500000
O O9 0.223916 0.604948 0.426131
O O10 0.101555 0.659943 0.442674
O O11 0.942953 0.776268 0.277159
O O12 0.862527 0.635155 0.202414
O O13 0.000000 0.693763 0.500000
O O14 0.933978 0.905814 0.558097
O O15 0.182830 0.906790 0.865435
O O16 0.369043 0.000000 0.123731
O O17 0.754037 0.500000 0.687021
#
# Coordination Sequence:
#
# PCOD8106660 Si02
#       7
#     8   8   8   8   8   8   8
#     4  11  23  39  67 100 134 167 216 264 332 395
#     4  10  21  36  70  98 128 161 216 276 321 380
#     4  11  20  42  65  98 127 171 217 272 319 386
#     4  12  27  42  70  98 130 172 228 271 327 387
#     4  11  25  43  68  98 132 174 224 270 328 391
#     4  12  27  46  64  93 139 177 217 273 330 394
#     4  11  24  41  68 101 135 173 215 272 337 393
#
# _framework density 22.452003999999999
#
# number of rings (size 3 to 8) (size 9 to 14) (size 15 to 20)
#    0.000    0.857    4.286    3.857    4.000    3.143 
#    0.000    1.429    0.000    2.143    0.000    0.000 
#    0.000    0.000    0.000    0.000    0.000    0.000 
#
# Total GULP energy -346942.468365 kJ/mol
# GULP energy per Si atom -12390.802442 kJ/mol
# Density = 2.240090 g / cm^3
# Si number density = 22.452004 Si / 1000 Ang^3
#
#
#
# Elastic Constant Matrix: (Units=GPa)
#
#
# Indices 1 2 3 4 5 6 
#
# 1 78.3954 -4.3820 13.5737 0.0000 -3.9855 0.0000
# 2 -4.3820 51.7736 -2.6486 0.0000 3.7155 0.0000
# 3 13.5737 -2.6486 92.7175 0.0000 -10.1919 0.0000
# 4 0.0000 0.0000 0.0000 22.1721 0.0000 -0.4004
# 5 -3.9855 3.7155 -10.1919 0.0000 43.1220 0.0000
# 6 0.0000 0.0000 0.0000 -0.4004 0.0000 13.6778
#
#
#
# Elastic Compliance Matrix: (Units=1/GPa)
#
#
# Indices 1 2 3 4 5 6 
#
# 1 0.013161 0.000970 -0.001822 0.000000 0.000702 0.000000
# 2 0.000970 0.019520 0.000247 0.000000 -0.001534 0.000000
# 3 -0.001822 0.000247 0.011333 0.000000 0.002489 0.000000
# 4 0.000000 0.000000 0.000000 0.045126 0.000000 0.001321
# 5 0.000702 -0.001534 0.002489 0.000000 0.023975 0.000000
# 6 0.000000 0.000000 0.000000 0.001321 0.000000 0.073150
#
#
# Mechanical properties :
#
#
# Convention : Reuss Voigt Hill
#
# Bulk Modulus (GPa) = 23.36198 26.21918 24.79058
# Shear Modulus (GPa) = 24.78413 30.21727 27.50070
#
# Velocity S-wave (km/s) = 3.32606 3.67258 3.50361
# Velocity P-wave (km/s) = 5.01778 5.44858 5.23761
#
# Compressibility (1/GPa) = 0.04280459
#
# Stress axis : x y z
#
# Youngs Moduli (GPa) = 75.98074 51.23025 88.23945
#
# Poissons Ratio (x) = -0.04971 0.16076
# Poissons Ratio (y) = -0.07373 -0.02179
# Poissons Ratio (z) = 0.13843 -0.01265
#
# Static dielectric constant tensor:
#      x y z
#    x 4.128380 0.000000 -0.101640 
#    y 0.000000 3.532930 0.000000 
#    z -0.101640 0.000000 4.386930 
# 
# 
# High freq. dielectric constant tensor:
#      x y z
#    x 1.889160 0.000000 -0.004770 
#    y 0.000000 1.849860 0.000000 
#    z -0.004770 0.000000 1.907980 
# 
# From -- ./inp_files/234741.got.cif
#   From: 2010.06.25/outbox.cif.g09.slc.cpg/sg12_118_cif.got.tgz:234741.got - 2010.06.28 00:19:55.
