data_PCOD8106556
_publ_section_title
;
Structure prediction by ZEFSAII (Michael W. Deem and Ramdas Pophale) SiO2 
 PCOD8106556
Probable space group: C 2/M
;
_chemical_formula_sum "Si O2"
_cell_formula_units_Z 52
_cell_length_a 18.212334
_cell_length_b 24.664189
_cell_length_c 7.962829
_cell_angle_alpha 90.000000
_cell_angle_beta 136.824176
_cell_angle_gamma 90.000000
_cell_volume 2447.416870
_symmetry_space_group_name_H-M "C 2/M"
_symmetry_group_IT_number 12
_symmetry_cell_setting 'monoclinic'
loop_
_space_group_symop_operation_xyz
x,y,z
-x,y,-z
-x,-y,-z
x,-y,z
1/2+x,1/2+y,z
1/2-x,1/2+y,-z
1/2-x,1/2-y,-z
1/2+x,1/2-y,z
loop_
_atom_site_type_symbol
_atom_site_label
_atom_site_fract_x
_atom_site_fract_y
_atom_site_fract_z
Si Si1 0.419109 0.139736 0.017501
Si Si2 0.727678 0.059307 0.818034
Si Si3 0.500000 0.104253 0.500000
Si Si4 0.852101 0.158607 0.904926
Si Si5 0.273458 0.561560 0.272495
Si Si6 0.414677 0.654119 0.627350
Si Si7 0.757913 0.265928 0.705142
O O1 0.476590 0.140307 0.295512
O O2 0.500000 0.133065 0.000000
O O3 0.337432 0.089825 0.859144
O O4 0.361464 0.197117 0.906206
O O5 0.600633 0.066398 0.626026
O O6 0.780467 0.104719 0.789609
O O7 0.747586 0.000000 0.770221
O O8 0.785828 0.062741 0.093497
O O9 0.891397 0.166187 0.782086
O O10 0.777698 0.209626 0.839943
O O11 0.958214 0.156304 0.199894
O O12 0.274514 0.500000 0.343409
O O13 0.374555 0.594009 0.514981
O O14 0.348871 0.700867 0.414281
O O15 0.750000 0.250000 0.500000
#
# Coordination Sequence:
#
# PCOD8106556 Si02
#       7
#     8   8   4   8   8   8   8
#     4  10  22  38  64  93 121 166 208 250 314 369
#     4  10  22  40  60  85 120 163 200 250 314 359
#     4  10  23  40  62  94 132 156 209 262 302 368
#     4  10  21  36  60  88 119 156 202 246 309 367
#     4   9  20  40  58  83 121 155 202 255 298 363
#     4   9  20  37  55  87 119 152 201 252 295 363
#     4   9  20  36  62  88 119 160 204 254 309 367
#
# _framework density 21.246891999999999
#
# number of rings (size 3 to 8) (size 9 to 14) (size 15 to 20)
#    0.000    2.462    0.000    0.231   10.769    2.769 
#    0.000   11.538    0.000    0.000    0.000    0.000 
#    0.000    0.000    0.000    0.000    0.000    0.000 
#
# Total GULP energy -322289.703672 kJ/mol
# GULP energy per Si atom -12395.757834 kJ/mol
# Density = 2.119853 g / cm^3
# Si number density = 21.246892 Si / 1000 Ang^3
#
#
#
# Elastic Constant Matrix: (Units=GPa)
#
#
# Indices 1 2 3 4 5 6 
#
# 1 60.9066 39.4306 26.9900 0.0000 17.1988 0.0000
# 2 39.4306 193.2806 66.5012 0.0000 22.1604 0.0000
# 3 26.9900 66.5012 122.6721 0.0000 16.7584 0.0000
# 4 0.0000 0.0000 0.0000 28.6249 0.0000 -5.4188
# 5 17.1988 22.1604 16.7584 0.0000 31.3470 0.0000
# 6 0.0000 0.0000 0.0000 -5.4188 0.0000 10.1299
#
#
#
# Elastic Compliance Matrix: (Units=1/GPa)
#
#
# Indices 1 2 3 4 5 6 
#
# 1 0.021566 -0.002667 -0.002093 0.000000 -0.008828 0.000000
# 2 -0.002667 0.006937 -0.002917 0.000000 -0.001881 0.000000
# 3 -0.002093 -0.002917 0.010524 0.000000 -0.002416 0.000000
# 4 0.000000 0.000000 0.000000 0.038871 0.000000 0.020793
# 5 -0.008828 -0.001881 -0.002416 0.000000 0.039366 0.000000
# 6 0.000000 0.000000 0.000000 0.020793 0.000000 0.109840
#
#
# Mechanical properties :
#
#
# Convention : Reuss Voigt Hill
#
# Bulk Modulus (GPa) = 42.24349 71.41144 56.82746
# Shear Modulus (GPa) = 19.97219 30.28287 25.12753
#
# Velocity S-wave (km/s) = 3.06928 3.77939 3.44269
# Velocity P-wave (km/s) = 5.69965 7.26143 6.52741
#
# Compressibility (1/GPa) = 0.02367229
#
# Stress axis : x y z
#
# Youngs Moduli (GPa) = 46.37017 144.14879 95.02517
#
# Poissons Ratio (x) = 0.38449 0.19888
# Poissons Ratio (y) = 0.12368 0.27717
# Poissons Ratio (z) = 0.09705 0.42046
#
# Static dielectric constant tensor:
#      x y z
#    x 3.584370 0.000000 0.221160 
#    y 0.000000 5.055030 0.000000 
#    z 0.221160 0.000000 4.272490 
# 
# 
# High freq. dielectric constant tensor:
#      x y z
#    x 1.801740 0.000000 0.010480 
#    y 0.000000 1.840920 0.000000 
#    z 0.010480 0.000000 1.844740 
# 
# From -- ./inp_files/90724.got.cif
#   From: 2010.06.25/outbox.cif.g09.slc.cpg/sg12_46_cif.got.tgz:90724.got - 2010.06.28 00:19:55.
