data_PCOD8106316
_publ_section_title
;
Structure prediction by ZEFSAII (Michael W. Deem and Ramdas Pophale) SiO2 
 PCOD8106316
Probable space group: C 2/M
;
_chemical_formula_sum "Si O2"
_cell_formula_units_Z 64
_cell_length_a 30.390384
_cell_length_b 9.121623
_cell_length_c 16.666529
_cell_angle_alpha 90.000000
_cell_angle_beta 43.782433
_cell_angle_gamma 90.000000
_cell_volume 3196.763537
_symmetry_space_group_name_H-M "C 2/M"
_symmetry_group_IT_number 12
_symmetry_cell_setting 'monoclinic'
loop_
_space_group_symop_operation_xyz
x,y,z
-x,y,-z
-x,-y,-z
x,-y,z
1/2+x,1/2+y,z
1/2-x,1/2+y,-z
1/2-x,1/2-y,-z
1/2+x,1/2-y,z
loop_
_atom_site_type_symbol
_atom_site_label
_atom_site_fract_x
_atom_site_fract_y
_atom_site_fract_z
Si Si1 0.788946 0.330905 0.292388
Si Si2 0.660298 0.828349 0.447473
Si Si3 0.009761 0.828059 0.895717
Si Si4 0.074405 0.671449 0.409030
Si Si5 0.797294 0.836203 0.038409
Si Si6 0.869549 0.671157 0.333853
Si Si7 0.324356 0.664861 0.816286
Si Si8 0.386610 0.170068 0.029374
O O1 0.772273 0.500000 0.301239
O O2 0.728434 0.243079 0.338799
O O3 0.806689 0.297546 0.362142
O O4 0.851128 0.287015 0.158783
O O5 0.605849 0.785526 0.454177
O O6 0.640196 0.773757 0.562490
O O7 0.671670 0.000000 0.433396
O O8 0.073265 0.761792 0.777379
O O9 0.011892 0.000000 0.880058
O O10 0.000000 0.781290 0.000000
O O11 0.949674 0.762148 0.929301
O O12 0.085005 0.500000 0.377698
O O13 0.107302 0.768482 0.296801
O O14 0.000000 0.710990 0.500000
O O15 0.726855 0.778433 0.151636
O O16 0.842518 0.713143 0.014041
O O17 0.804042 0.000000 0.067130
O O18 0.814627 0.843264 0.923192
O O19 0.887009 0.500000 0.307536
O O20 0.317169 0.500000 0.789913
O O21 0.403892 0.000000 0.003661
#
# Coordination Sequence:
#
# PCOD8106316 Si02
#       8
#     8   8   8   8   8   8   8   8
#     4  10  21  36  57  84 116 152 190 239 289 342
#     4  10  22  38  59  86 113 149 194 241 290 346
#     4  11  23  38  57  83 115 153 195 238 285 337
#     4  10  22  40  60  83 115 153 194 241 296 352
#     4  10  21  37  58  87 120 151 190 241 291 345
#     4  10  21  39  59  82 116 155 197 239 288 345
#     4  10  21  38  60  86 116 151 192 238 295 351
#     4  11  22  36  58  86 117 156 197 236 288 347
#
# _framework density 20.020249
#
# number of rings (size 3 to 8) (size 9 to 14) (size 15 to 20)
#    0.000    1.750    1.250    2.625    0.000    7.750 
#    0.000    1.250    0.000    0.000    0.000    0.000 
#    0.000    0.000    0.000    0.000    0.000    0.000 
#
# Total GULP energy -396771.095358 kJ/mol
# GULP energy per Si atom -12399.096730 kJ/mol
# Density = 1.997468 g / cm^3
# Si number density = 20.020249 Si / 1000 Ang^3
#
#
#
# Elastic Constant Matrix: (Units=GPa)
#
#
# Indices 1 2 3 4 5 6 
#
# 1 86.3886 10.3095 32.1099 0.0014 -14.5271 -0.0005
# 2 10.3095 13.9334 58.2185 -0.0009 15.8731 0.0010
# 3 32.1099 58.2185 83.7427 -0.0010 -29.9937 0.0006
# 4 0.0014 -0.0009 -0.0010 88.4113 -0.0027 -33.5824
# 5 -14.5271 15.8731 -29.9937 -0.0027 8.7871 0.0012
# 6 -0.0005 0.0010 0.0006 -33.5824 0.0012 45.8804
#
#
#
# Elastic Compliance Matrix: (Units=1/GPa)
#
#
# Indices 1 2 3 4 5 6 
#
# 1 0.013964 0.001450 -0.004351 0.000000 0.005616 0.000000
# 2 0.001450 0.001659 0.008643 0.000001 0.028902 0.000000
# 3 -0.004351 0.008643 0.002548 0.000000 -0.014107 0.000000
# 4 0.000000 0.000001 0.000000 0.015666 0.000000 0.011467
# 5 0.005616 0.028902 -0.014107 0.000000 0.022724 -0.000001
# 6 0.000000 0.000000 0.000000 0.011467 -0.000001 0.030189
#
#
# Mechanical properties :
#
#
# Convention : Reuss Voigt Hill
#
# Bulk Modulus (GPa) = 33.72170 42.81560 38.26865
# Shear Modulus (GPa) = 58.71843 34.17755 46.44799
#
# Velocity S-wave (km/s) = 5.42155 4.13625 4.82192
# Velocity P-wave (km/s) = 7.48808 6.65161 7.08221
#
# Compressibility (1/GPa) = 0.02965450
#
# Stress axis : x y z
#
# Youngs Moduli (GPa) = 71.61213 602.93872 392.42074
#
# Poissons Ratio (x) = -0.87413 1.70738
# Poissons Ratio (y) = -0.10382 -3.39165
# Poissons Ratio (z) = 0.31158 -5.21113
#
# Static dielectric constant tensor:
#      x y z
#    x 3.730180 0.000000 0.046270 
#    y 0.000000 3.722560 0.000000 
#    z 0.046270 0.000000 3.650050 
# 
# 
# High freq. dielectric constant tensor:
#      x y z
#    x 1.783010 0.000000 -0.001000 
#    y 0.000000 1.784070 0.000000 
#    z -0.001000 0.000000 1.780290 
# 
# From -- ./inp_files/295632.got.cif
#   From: 2010.06.25/outbox.cif.g09.slc.cpg/sg12_148_cif.got.tgz:295632.got - 2010.06.28 00:19:55.
