data_PCOD8106883
_publ_section_title
;
Structure prediction by ZEFSAII (Michael W. Deem and Ramdas Pophale) SiO2 
 PCOD8106883
Probable space group: C 2/M
;
_chemical_formula_sum "Si O2"
_cell_formula_units_Z 40
_cell_length_a 20.535576
_cell_length_b 8.822054
_cell_length_c 14.348190
_cell_angle_alpha 90.000000
_cell_angle_beta 121.187137
_cell_angle_gamma 90.000000
_cell_volume 2223.739205
_symmetry_space_group_name_H-M "C 2/M"
_symmetry_group_IT_number 12
_symmetry_cell_setting 'monoclinic'
loop_
_space_group_symop_operation_xyz
x,y,z
-x,y,-z
-x,-y,-z
x,-y,z
1/2+x,1/2+y,z
1/2-x,1/2+y,-z
1/2-x,1/2-y,-z
1/2+x,1/2-y,z
loop_
_atom_site_type_symbol
_atom_site_label
_atom_site_fract_x
_atom_site_fract_y
_atom_site_fract_z
Si Si1 0.976915 0.824406 0.270990
Si Si2 0.658398 0.177080 0.720983
Si Si3 0.782346 0.321574 0.930092
Si Si4 0.420931 0.332327 0.495829
Si Si5 0.943435 0.824734 0.039159
O O1 0.907840 0.722643 0.256476
O O2 0.987368 0.797931 0.169109
O O3 0.056523 0.780029 0.382064
O O4 0.957062 0.000000 0.279144
O O5 0.735406 0.262313 0.806471
O O6 0.637530 0.219538 0.598525
O O7 0.672766 0.000000 0.738289
O O8 0.773447 0.500000 0.931880
O O9 0.750000 0.250000 0.000000
O O10 0.869544 0.278822 0.979304
O O11 0.500000 0.333719 0.500000
O O12 0.384175 0.500000 0.469195
O O13 0.919289 0.000000 0.009934
O O14 0.000000 0.772463 0.000000
#
# Coordination Sequence:
#
# PCOD8106883 Si02
#       5
#     8   8   8   8   8
#     4   9  17  31  51  74 106 143 176 214 263 318
#     4  11  20  30  49  78 107 137 173 222 270 314
#     4  12  23  36  55  79 108 142 179 224 271 318
#     4   8  15  28  46  71 103 139 173 212 264 318
#     4  10  21  37  57  81 110 145 181 217 263 323
#
# _framework density 17.987722000000002
#
# number of rings (size 3 to 8) (size 9 to 14) (size 15 to 20)
#    0.000    2.000    2.000    4.800    0.000    4.000 
#    0.000    0.000    0.000    1.200    0.000    0.000 
#    0.000    0.000    0.000    0.000    0.000    0.000 
#
# Total GULP energy -247962.738919 kJ/mol
# GULP energy per Si atom -12398.136946 kJ/mol
# Density = 1.794678 g / cm^3
# Si number density = 17.987722 Si / 1000 Ang^3
#
#
#
# Elastic Constant Matrix: (Units=GPa)
#
#
# Indices 1 2 3 4 5 6 
#
# 1 72.0035 38.8158 54.1254 0.0000 -3.8497 0.0000
# 2 38.8158 123.0706 60.7945 0.0000 5.4574 0.0000
# 3 54.1254 60.7945 167.0720 0.0000 -3.5162 0.0000
# 4 0.0000 0.0000 0.0000 29.7149 0.0000 5.0295
# 5 -3.8497 5.4574 -3.5162 0.0000 18.8952 0.0000
# 6 0.0000 0.0000 0.0000 5.0295 0.0000 19.4980
#
#
#
# Elastic Compliance Matrix: (Units=1/GPa)
#
#
# Indices 1 2 3 4 5 6 
#
# 1 0.020007 -0.004079 -0.004906 0.000000 0.004342 0.000000
# 2 -0.004079 0.010980 -0.002769 0.000000 -0.004518 0.000000
# 3 -0.004906 -0.002769 0.008612 0.000000 0.001403 0.000000
# 4 0.000000 0.000000 0.000000 0.035190 0.000000 -0.009077
# 5 0.004342 -0.004518 0.001403 0.000000 0.055374 0.000000
# 6 0.000000 0.000000 0.000000 -0.009077 0.000000 0.053629
#
#
# Mechanical properties :
#
#
# Convention : Reuss Voigt Hill
#
# Bulk Modulus (GPa) = 62.14692 74.40194 68.27443
# Shear Modulus (GPa) = 23.51131 27.51564 25.51347
#
# Velocity S-wave (km/s) = 3.61927 3.91537 3.77023
# Velocity P-wave (km/s) = 7.21735 7.86718 7.54926
#
# Compressibility (1/GPa) = 0.01609090
#
# Stress axis : x y z
#
# Youngs Moduli (GPa) = 49.98207 91.07313 116.11852
#
# Poissons Ratio (x) = 0.37151 0.56966
# Poissons Ratio (y) = 0.20389 0.32154
# Poissons Ratio (z) = 0.24521 0.25218
#
# Static dielectric constant tensor:
#      x y z
#    x 2.914890 0.000000 -0.095330 
#    y 0.000000 3.276330 0.000000 
#    z -0.095330 0.000000 4.028770 
# 
# 
# High freq. dielectric constant tensor:
#      x y z
#    x 1.634870 0.000000 -0.002470 
#    y 0.000000 1.694580 0.000000 
#    z -0.002470 0.000000 1.724460 
# 
# From -- ./inp_files/229102.got.cif
#   From: 2010.06.25/outbox.cif.g09.slc.cpg/sg12_115_cif.got.tgz:229102.got - 2010.06.28 00:19:55.
