data_PCOD8106036
_publ_section_title
;
Structure prediction by ZEFSAII (Michael W. Deem and Ramdas Pophale) SiO2 
 PCOD8106036
Probable space group: C 2/M
;
_chemical_formula_sum "Si O2"
_cell_formula_units_Z 48
_cell_length_a 15.005226
_cell_length_b 8.435131
_cell_length_c 26.564230
_cell_angle_alpha 90.000000
_cell_angle_beta 45.898127
_cell_angle_gamma 90.000000
_cell_volume 2414.452561
_symmetry_space_group_name_H-M "C 2/M"
_symmetry_group_IT_number 12
_symmetry_cell_setting 'monoclinic'
loop_
_space_group_symop_operation_xyz
x,y,z
-x,y,-z
-x,-y,-z
x,-y,z
1/2+x,1/2+y,z
1/2-x,1/2+y,-z
1/2-x,1/2-y,-z
1/2+x,1/2-y,z
loop_
_atom_site_type_symbol
_atom_site_label
_atom_site_fract_x
_atom_site_fract_y
_atom_site_fract_z
Si Si1 0.173141 0.186539 0.168424
Si Si2 0.022914 0.188346 0.569547
Si Si3 0.041874 0.186586 0.673816
Si Si4 0.803288 0.812547 0.586303
Si Si5 0.057331 0.184890 0.924524
Si Si6 0.132992 0.314548 0.076058
O O1 0.297374 0.280569 0.132782
O O2 0.124058 0.224366 0.132238
O O3 0.069985 0.250071 0.247938
O O4 0.197790 0.000000 0.163839
O O5 0.033199 0.262518 0.621258
O O6 0.138265 0.246386 0.489834
O O7 0.893449 0.243952 0.595797
O O8 0.025189 0.000000 0.570242
O O9 0.171502 0.232873 0.648116
O O10 0.032088 0.000000 0.673860
O O11 0.787152 0.000000 0.592754
O O12 0.992498 0.282960 0.905527
O O13 0.031999 0.000000 0.925607
O O14 0.000000 0.241399 0.000000
O O15 0.150202 0.500000 0.079264
O O16 0.250000 0.250000 0.000000
#
# Coordination Sequence:
#
# PCOD8106036 Si02
#       6
#     8   8   8   8   8   8
#     4  11  24  40  58  85 120 159 199 241 292 349
#     4   8  16  33  55  80 112 150 192 234 281 337
#     4  10  21  36  54  80 117 152 186 234 288 339
#     4   9  17  32  57  83 109 149 196 237 278 334
#     4  11  23  40  64  90 116 148 189 240 293 347
#     4  12  24  40  64  89 115 148 189 240 293 349
#
# _framework density 19.880282999999999
#
# number of rings (size 3 to 8) (size 9 to 14) (size 15 to 20)
#    0.000    1.833    1.667    4.000    0.000    3.333 
#    0.000    4.167    0.000    0.000    0.000    0.000 
#    0.000    0.000    0.000    0.000    0.000    0.000 
#
# Total GULP energy -297659.155160 kJ/mol
# GULP energy per Si atom -12402.464798 kJ/mol
# Density = 1.983503 g / cm^3
# Si number density = 19.880283 Si / 1000 Ang^3
#
#
#
# Elastic Constant Matrix: (Units=GPa)
#
#
# Indices 1 2 3 4 5 6 
#
# 1 105.7888 3.2547 50.2811 0.0001 -12.6737 -0.0014
# 2 3.2547 30.1048 14.6809 -0.0003 0.4793 -0.0014
# 3 50.2811 14.6809 133.2719 0.0001 -18.1276 0.0002
# 4 0.0001 -0.0003 0.0001 23.0706 0.0001 -6.0574
# 5 -12.6737 0.4793 -18.1276 0.0001 33.5628 -0.0001
# 6 -0.0014 -0.0014 0.0002 -6.0574 -0.0001 31.9248
#
#
#
# Elastic Compliance Matrix: (Units=1/GPa)
#
#
# Indices 1 2 3 4 5 6 
#
# 1 0.011681 0.000751 -0.004200 0.000000 0.002132 0.000001
# 2 0.000751 0.035396 -0.004547 0.000001 -0.002677 0.000002
# 3 -0.004200 -0.004547 0.010126 0.000000 0.003948 0.000000
# 4 0.000000 0.000001 0.000000 0.045618 0.000000 0.008655
# 5 0.002132 -0.002677 0.003948 0.000000 0.032771 0.000000
# 6 0.000001 0.000002 0.000000 0.008655 0.000000 0.032966
#
#
# Mechanical properties :
#
#
# Convention : Reuss Voigt Hill
#
# Bulk Modulus (GPa) = 24.26459 45.06655 34.66557
# Shear Modulus (GPa) = 25.21616 31.10823 28.16220
#
# Velocity S-wave (km/s) = 3.56532 3.96002 3.76784
# Velocity P-wave (km/s) = 5.40190 6.60509 6.03356
#
# Compressibility (1/GPa) = 0.04121232
#
# Stress axis : x y z
#
# Youngs Moduli (GPa) = 85.60699 28.25182 98.75682
#
# Poissons Ratio (x) = -0.02123 0.41477
# Poissons Ratio (y) = -0.06431 0.44902
# Poissons Ratio (z) = 0.35954 0.12845
#
# Static dielectric constant tensor:
#      x y z
#    x 3.863800 0.000000 0.122440 
#    y 0.000000 3.404200 0.000000 
#    z 0.122440 0.000000 3.830370 
# 
# 
# High freq. dielectric constant tensor:
#      x y z
#    x 1.788230 0.000000 -0.002200 
#    y 0.000000 1.757620 0.000000 
#    z -0.002200 0.000000 1.775380 
# 
# From -- ./inp_files/308614.got.cif
#   From: 2010.06.25/outbox.cif.g09.slc.cpg/sg12_155_cif.got.tgz:308614.got - 2010.06.28 00:19:55.
