data_PCOD8106071
_publ_section_title
;
Structure prediction by ZEFSAII (Michael W. Deem and Ramdas Pophale) SiO2 
 PCOD8106071
Probable space group: C 2/M
;
_chemical_formula_sum "Si O2"
_cell_formula_units_Z 64
_cell_length_a 17.961504
_cell_length_b 8.819275
_cell_length_c 20.644045
_cell_angle_alpha 90.000000
_cell_angle_beta 90.692848
_cell_angle_gamma 90.000000
_cell_volume 3269.931293
_symmetry_space_group_name_H-M "C 2/M"
_symmetry_group_IT_number 12
_symmetry_cell_setting 'monoclinic'
loop_
_space_group_symop_operation_xyz
x,y,z
-x,y,-z
-x,-y,-z
x,-y,z
1/2+x,1/2+y,z
1/2-x,1/2+y,-z
1/2-x,1/2-y,-z
1/2+x,1/2-y,z
loop_
_atom_site_type_symbol
_atom_site_label
_atom_site_fract_x
_atom_site_fract_y
_atom_site_fract_z
Si Si1 0.673430 0.679507 0.112515
Si Si2 0.329267 0.824523 0.508944
Si Si3 0.834259 0.179459 0.122493
Si Si4 0.418983 0.678174 0.250384
Si Si5 0.087418 0.324347 0.995354
Si Si6 0.669488 0.679039 0.363858
Si Si7 0.840405 0.674787 0.366860
Si Si8 0.584416 0.319727 0.236937
O O1 0.688266 0.500000 0.114783
O O2 0.750513 0.768053 0.111370
O O3 0.627849 0.720491 0.048317
O O4 0.627432 0.738589 0.173979
O O5 0.250000 0.750000 0.500000
O O6 0.369070 0.748103 0.571538
O O7 0.371588 0.800645 0.440647
O O8 0.318604 0.000000 0.523693
O O9 0.860587 0.227280 0.194643
O O10 0.841069 0.000000 0.111011
O O11 0.888187 0.267289 0.074539
O O12 0.426133 0.500000 0.254010
O O13 0.392975 0.733461 0.319881
O O14 0.500601 0.745922 0.235131
O O15 0.109563 0.500000 0.005171
O O16 0.000000 0.299376 0.000000
O O17 0.663629 0.500000 0.369332
O O18 0.755267 0.732276 0.359577
O O19 0.626160 0.742642 0.301073
O O20 0.843888 0.500000 0.346703
O O21 0.584584 0.500000 0.237098
#
# Coordination Sequence:
#
# PCOD8106071 Si02
#       8
#     8   8   8   8   8   8   8   8
#     4  11  22  39  63  85 111 148 187 228 275 325
#     4   9  17  30  49  75 105 136 175 219 265 318
#     4  11  23  39  59  85 116 147 186 231 273 322
#     4  10  21  36  55  79 107 141 181 224 269 323
#     4  11  24  41  61  87 118 149 183 224 271 325
#     4   9  17  32  54  77 103 136 177 222 265 317
#     4   9  18  32  51  76 105 138 175 219 272 324
#     4   9  19  36  56  79 107 141 181 223 272 327
#
# _framework density 19.572277
#
# number of rings (size 3 to 8) (size 9 to 14) (size 15 to 20)
#    0.000    2.125    0.000    4.125    0.000    6.500 
#    0.000    3.750    0.000    3.750    0.000    0.000 
#    0.000    0.000    0.000    0.000    0.000    0.000 
#
# Total GULP energy -396783.239470 kJ/mol
# GULP energy per Si atom -12399.476233 kJ/mol
# Density = 1.952773 g / cm^3
# Si number density = 19.572277 Si / 1000 Ang^3
#
#
#
# Elastic Constant Matrix: (Units=GPa)
#
#
# Indices 1 2 3 4 5 6 
#
# 1 90.2327 26.3004 35.3949 0.0000 -14.5661 0.0000
# 2 26.3004 37.8465 30.6072 0.0000 -5.3072 0.0000
# 3 35.3949 30.6072 117.5357 0.0000 -21.1692 0.0000
# 4 0.0000 0.0000 0.0000 33.7215 0.0000 -6.0717
# 5 -14.5661 -5.3072 -21.1692 0.0000 21.6521 0.0000
# 6 0.0000 0.0000 0.0000 -6.0717 0.0000 16.7671
#
#
#
# Elastic Compliance Matrix: (Units=1/GPa)
#
#
# Indices 1 2 3 4 5 6 
#
# 1 0.015166 -0.008721 -0.001024 0.000000 0.007064 0.000000
# 2 -0.008721 0.038489 -0.008198 0.000000 -0.004447 0.000000
# 3 -0.001024 -0.008198 0.012702 0.000000 0.009720 0.000000
# 4 0.000000 0.000000 0.000000 0.031723 0.000000 0.011488
# 5 0.007064 -0.004447 0.009720 0.000000 0.059351 0.000000
# 6 0.000000 0.000000 0.000000 0.011488 0.000000 0.063800
#
#
# Mechanical properties :
#
#
# Convention : Reuss Voigt Hill
#
# Bulk Modulus (GPa) = 32.81667 47.80221 40.30944
# Shear Modulus (GPa) = 18.70748 24.64898 21.67823
#
# Velocity S-wave (km/s) = 3.09498 3.55263 3.33167
# Velocity P-wave (km/s) = 5.43831 6.42687 5.95314
#
# Compressibility (1/GPa) = 0.03047231
#
# Stress axis : x y z
#
# Youngs Moduli (GPa) = 65.93551 25.98170 78.72885
#
# Poissons Ratio (x) = 0.22658 0.08061
# Poissons Ratio (y) = 0.57501 0.64538
# Poissons Ratio (z) = 0.06751 0.21299
#
# Static dielectric constant tensor:
#      x y z
#    x 3.512350 0.000000 0.007940 
#    y 0.000000 3.475370 0.000000 
#    z 0.007940 0.000000 4.010840 
# 
# 
# High freq. dielectric constant tensor:
#      x y z
#    x 1.748900 0.000000 -0.000630 
#    y 0.000000 1.750720 0.000000 
#    z -0.000630 0.000000 1.783790 
# 
# From -- ./inp_files/313982.got.cif
#   From: 2010.06.25/outbox.cif.g09.slc.cpg/sg12_157_cif.got.tgz:313982.got - 2010.06.28 00:19:55.
