data_PCOD8106686
_publ_section_title
;
Structure prediction by ZEFSAII (Michael W. Deem and Ramdas Pophale) SiO2 
 PCOD8106686
Probable space group: C 2/M
;
_chemical_formula_sum "Si O2"
_cell_formula_units_Z 48
_cell_length_a 20.327348
_cell_length_b 9.240868
_cell_length_c 15.009776
_cell_angle_alpha 90.000000
_cell_angle_beta 100.984980
_cell_angle_gamma 90.000000
_cell_volume 2767.810746
_symmetry_space_group_name_H-M "C 2/M"
_symmetry_group_IT_number 12
_symmetry_cell_setting 'monoclinic'
loop_
_space_group_symop_operation_xyz
x,y,z
-x,y,-z
-x,-y,-z
x,-y,z
1/2+x,1/2+y,z
1/2-x,1/2+y,-z
1/2-x,1/2-y,-z
1/2+x,1/2-y,z
loop_
_atom_site_type_symbol
_atom_site_label
_atom_site_fract_x
_atom_site_fract_y
_atom_site_fract_z
Si Si1 0.680986 0.163376 0.582439
Si Si2 0.922989 0.333101 0.963036
Si Si3 0.838853 0.836545 0.590282
Si Si4 0.143667 0.666184 0.235889
Si Si5 0.183911 0.830981 0.951698
Si Si6 0.296260 0.665237 0.244262
O O1 0.759765 0.168534 0.585014
O O2 0.642568 0.250408 0.494874
O O3 0.665651 0.235617 0.673933
O O4 0.653821 0.000000 0.576459
O O5 0.904551 0.500000 0.978882
O O6 0.907948 0.297306 0.856131
O O7 0.880739 0.230269 0.015830
O O8 0.000000 0.299108 0.000000
O O9 0.875507 0.762882 0.683782
O O10 0.865018 0.000000 0.587650
O O11 0.139038 0.500000 0.264990
O O12 0.217598 0.703254 0.218684
O O13 0.172015 0.805201 0.843779
O O14 0.192740 0.000000 0.975582
O O15 0.250000 0.750000 0.000000
O O16 0.306004 0.500000 0.277163
#
# Coordination Sequence:
#
# PCOD8106686 Si02
#       6
#     8   8   8   8   8   8
#     4   9  16  25  39  63  93 125 158 197 243 295
#     4  10  21  37  54  74 103 138 175 215 259 304
#     4   9  16  25  39  62  92 126 160 197 243 295
#     4   9  16  29  46  66  94 129 166 204 247 296
#     4  11  21  34  53  76 103 135 174 214 258 306
#     4   9  17  29  45  67  96 129 162 203 249 296
#
# _framework density 17.342224999999999
#
# number of rings (size 3 to 8) (size 9 to 14) (size 15 to 20)
#    0.000    2.500    1.667    1.500    0.000    6.333 
#    0.000    0.000    0.000    0.000    0.000    1.167 
#    0.000    9.333    0.000    0.000    0.000    0.000 
#
# Total GULP energy -297619.242796 kJ/mol
# GULP energy per Si atom -12400.801783 kJ/mol
# Density = 1.730275 g / cm^3
# Si number density = 17.342225 Si / 1000 Ang^3
#
#
#
# Elastic Constant Matrix: (Units=GPa)
#
#
# Indices 1 2 3 4 5 6 
#
# 1 49.1870 40.0882 45.8531 0.0000 3.9811 0.0000
# 2 40.0882 136.8830 93.8477 0.0000 -0.2428 0.0000
# 3 45.8531 93.8477 151.5357 0.0000 9.1936 0.0000
# 4 0.0000 0.0000 0.0000 38.0077 0.0000 -2.3108
# 5 3.9811 -0.2428 9.1936 0.0000 14.4725 0.0000
# 6 0.0000 0.0000 0.0000 -2.3108 0.0000 16.0294
#
#
#
# Elastic Compliance Matrix: (Units=1/GPa)
#
#
# Indices 1 2 3 4 5 6 
#
# 1 0.030070 -0.004813 -0.005836 0.000000 -0.004645 0.000000
# 2 -0.004813 0.013889 -0.007530 0.000000 0.006340 0.000000
# 3 -0.005836 -0.007530 0.013457 0.000000 -0.007070 0.000000
# 4 0.000000 0.000000 0.000000 0.026543 0.000000 0.003826
# 5 -0.004645 0.006340 -0.007070 0.000000 0.074972 0.000000
# 6 0.000000 0.000000 0.000000 0.003826 0.000000 0.062937
#
#
# Mechanical properties :
#
#
# Convention : Reuss Voigt Hill
#
# Bulk Modulus (GPa) = 47.48856 77.46484 62.47670
# Shear Modulus (GPa) = 18.85047 24.22303 21.53675
#
# Velocity S-wave (km/s) = 3.30050 3.74139 3.52784
# Velocity P-wave (km/s) = 6.47820 7.96425 7.25935
#
# Compressibility (1/GPa) = 0.02105770
#
# Stress axis : x y z
#
# Youngs Moduli (GPa) = 33.25563 72.00033 74.31008
#
# Poissons Ratio (x) = 0.34657 0.43368
# Poissons Ratio (y) = 0.16008 0.55953
# Poissons Ratio (z) = 0.19408 0.54214
#
# Static dielectric constant tensor:
#      x y z
#    x 2.712080 0.000000 0.004200 
#    y 0.000000 3.369130 0.000000 
#    z 0.004200 0.000000 3.429160 
# 
# 
# High freq. dielectric constant tensor:
#      x y z
#    x 1.600810 0.000000 0.004370 
#    y 0.000000 1.679690 0.000000 
#    z 0.004370 0.000000 1.686880 
# 
# From -- ./inp_files/221721.got.cif
#   From: 2010.06.25/outbox.cif.g09.slc.cpg/sg12_111_cif.got.tgz:221721.got - 2010.06.28 00:19:55.
