data_PCOD8106015
_publ_section_title
;
Structure prediction by ZEFSAII (Michael W. Deem and Ramdas Pophale) SiO2 
 PCOD8106015
Probable space group: C 2/M
;
_chemical_formula_sum "Si O2"
_cell_formula_units_Z 56
_cell_length_a 31.235735
_cell_length_b 8.919807
_cell_length_c 12.566168
_cell_angle_alpha 90.000000
_cell_angle_beta 124.139131
_cell_angle_gamma 90.000000
_cell_volume 2897.817723
_symmetry_space_group_name_H-M "C 2/M"
_symmetry_group_IT_number 12
_symmetry_cell_setting 'monoclinic'
loop_
_space_group_symop_operation_xyz
x,y,z
-x,y,-z
-x,-y,-z
x,-y,z
1/2+x,1/2+y,z
1/2-x,1/2+y,-z
1/2-x,1/2-y,-z
1/2+x,1/2-y,z
loop_
_atom_site_type_symbol
_atom_site_label
_atom_site_fract_x
_atom_site_fract_y
_atom_site_fract_z
Si Si1 0.105422 0.677217 0.550297
Si Si2 0.179250 0.174018 0.486650
Si Si3 0.703279 0.826191 0.306757
Si Si4 0.110466 0.174454 0.771674
Si Si5 0.519928 0.826365 0.913766
Si Si6 0.364129 0.827043 0.984287
Si Si7 0.006474 0.825367 0.330865
O O1 0.105538 0.500000 0.553697
O O2 0.138264 0.732487 0.496208
O O3 0.129970 0.740227 0.693711
O O4 0.046951 0.736852 0.459797
O O5 0.235778 0.205228 0.613893
O O6 0.176742 0.227886 0.361375
O O7 0.164379 0.000000 0.470904
O O8 0.691391 0.000000 0.314794
O O9 0.679664 0.777703 0.160565
O O10 0.143039 0.230745 0.918703
O O11 0.050259 0.211780 0.704728
O O12 0.120952 0.000000 0.770811
O O13 0.580860 0.795084 0.993610
O O14 0.489100 0.728753 0.784558
O O15 0.506790 0.000000 0.874565
O O16 0.500000 0.772750 0.000000
O O17 0.358565 0.000000 0.008561
O O18 0.019551 0.000000 0.356255
#
# Coordination Sequence:
#
# PCOD8106015 Si02
#       7
#     8   8   8   8   8   8   8
#     4  12  24  37  57  81 109 145 189 233 278 330
#     4  10  21  37  57  84 114 144 184 232 280 328
#     4   9  19  37  60  84 113 148 184 226 276 331
#     4  10  21  38  57  81 113 146 183 227 275 329
#     4   9  18  31  49  78 113 148 183 220 263 320
#     4   9  18  34  56  80 110 147 185 221 268 327
#     4  10  21  36  54  79 111 147 183 225 276 327
#
# _framework density 19.324887
#
# number of rings (size 3 to 8) (size 9 to 14) (size 15 to 20)
#    0.000    2.143    0.000    3.000    2.000    4.857 
#    0.000    0.714    0.000    0.000    0.000    0.000 
#    0.000    0.000    0.000    0.000    0.000    0.000 
#
# Total GULP energy -347332.775831 kJ/mol
# GULP energy per Si atom -12404.741994 kJ/mol
# Density = 1.928090 g / cm^3
# Si number density = 19.324887 Si / 1000 Ang^3
#
#
#
# Elastic Constant Matrix: (Units=GPa)
#
#
# Indices 1 2 3 4 5 6 
#
# 1 36.2529 27.8224 22.0682 0.0000 -7.1082 0.0000
# 2 27.8224 103.9501 50.3237 0.0000 -6.8725 0.0000
# 3 22.0682 50.3237 122.0494 0.0000 -4.0230 0.0000
# 4 0.0000 0.0000 0.0000 35.0670 0.0000 -4.5860
# 5 -7.1082 -6.8725 -4.0230 0.0000 23.0115 0.0000
# 6 0.0000 0.0000 0.0000 -4.5860 0.0000 25.7588
#
#
#
# Elastic Compliance Matrix: (Units=1/GPa)
#
#
# Indices 1 2 3 4 5 6 
#
# 1 0.037248 -0.007843 -0.003218 0.000000 0.008601 0.000000
# 2 -0.007843 0.013845 -0.004258 0.000000 0.000968 0.000000
# 3 -0.003218 -0.004258 0.010517 0.000000 -0.000427 0.000000
# 4 0.000000 0.000000 0.000000 0.029197 0.000000 0.005198
# 5 0.008601 0.000968 -0.000427 0.000000 0.046328 0.000000
# 6 0.000000 0.000000 0.000000 0.005198 0.000000 0.039747
#
#
# Mechanical properties :
#
#
# Convention : Reuss Voigt Hill
#
# Bulk Modulus (GPa) = 32.28768 51.40900 41.84834
# Shear Modulus (GPa) = 22.95220 27.57000 25.26110
#
# Velocity S-wave (km/s) = 3.45004 3.78121 3.61942
# Velocity P-wave (km/s) = 5.71091 6.76193 6.25852
#
# Compressibility (1/GPa) = 0.03097157
#
# Stress axis : x y z
#
# Youngs Moduli (GPa) = 26.84683 72.22923 95.08450
#
# Poissons Ratio (x) = 0.56651 0.30594
# Poissons Ratio (y) = 0.21057 0.40491
# Poissons Ratio (z) = 0.08638 0.30759
#
# Static dielectric constant tensor:
#      x y z
#    x 3.348420 0.000000 -0.051350 
#    y 0.000000 3.509380 0.000000 
#    z -0.051350 0.000000 3.686240 
# 
# 
# High freq. dielectric constant tensor:
#      x y z
#    x 1.735100 0.000000 -0.010000 
#    y 0.000000 1.754320 0.000000 
#    z -0.010000 0.000000 1.760200 
# 
# From -- ./inp_files/187748.got.cif
#   From: 2010.06.25/outbox.cif.g09.slc.cpg/sg12_94_cif.got.tgz:187748.got - 2010.06.28 00:19:55.
