data_PCOD8106290
_publ_section_title
;
Structure prediction by ZEFSAII (Michael W. Deem and Ramdas Pophale) SiO2 
 PCOD8106290
Probable space group: C 2/M
;
_chemical_formula_sum "Si O2"
_cell_formula_units_Z 64
_cell_length_a 13.553039
_cell_length_b 13.060668
_cell_length_c 18.718933
_cell_angle_alpha 90.000000
_cell_angle_beta 84.549596
_cell_angle_gamma 90.000000
_cell_volume 3298.490058
_symmetry_space_group_name_H-M "C 2/M"
_symmetry_group_IT_number 12
_symmetry_cell_setting 'monoclinic'
loop_
_space_group_symop_operation_xyz
x,y,z
-x,y,-z
-x,-y,-z
x,-y,z
1/2+x,1/2+y,z
1/2-x,1/2+y,-z
1/2-x,1/2-y,-z
1/2+x,1/2-y,z
loop_
_atom_site_type_symbol
_atom_site_label
_atom_site_fract_x
_atom_site_fract_y
_atom_site_fract_z
Si Si1 0.115526 0.193635 0.984650
Si Si2 0.456872 0.305149 0.395524
Si Si3 0.257953 0.307681 0.772871
Si Si4 0.665635 0.882479 0.632626
Si Si5 0.361224 0.617798 0.535695
Si Si6 0.278242 0.116467 0.071178
Si Si7 0.029097 0.884158 0.247758
Si Si8 0.846302 0.115854 0.169624
O O1 0.138218 0.314278 0.972990
O O2 0.160919 0.132901 0.914387
O O3 0.169241 0.149994 0.051283
O O4 0.000000 0.173810 0.000000
O O5 0.428321 0.187552 0.380612
O O6 0.564013 0.308588 0.426078
O O7 0.372680 0.357529 0.450914
O O8 0.461255 0.368014 0.321967
O O9 0.207711 0.357541 0.707655
O O10 0.219281 0.370560 0.843822
O O11 0.376822 0.309556 0.758520
O O12 0.228914 0.188815 0.782542
O O13 0.749836 0.860580 0.567742
O O14 0.630570 0.000000 0.632670
O O15 0.390723 0.500000 0.549409
O O16 0.301803 0.000000 0.049416
O O17 0.959735 0.860700 0.184650
O O18 0.069748 0.000000 0.243132
O O19 0.816305 0.000000 0.190977
#
# Coordination Sequence:
#
# PCOD8106290 Si02
#       8
#     8   8   8   8   8   8   8   8
#     4  10  21  37  57  84 116 144 183 235 283 332
#     4  11  20  35  57  86 112 140 185 239 272 329
#     4  11  21  37  58  82 114 147 194 233 272 333
#     4  11  22  37  57  81 114 153 187 230 283 334
#     4  10  21  38  61  85 111 145 187 233 283 331
#     4  10  21  36  57  82 111 151 189 227 276 335
#     4  11  20  34  59  84 108 147 189 231 277 329
#     4  10  22  38  58  84 115 146 184 235 288 333
#
# _framework density 19.402816999999999
#
# number of rings (size 3 to 8) (size 9 to 14) (size 15 to 20)
#    0.000    1.500    2.500    4.125    0.000    2.250 
#    0.000    1.875    0.000    5.250    0.000    0.000 
#    0.000    0.000    0.000    0.000    0.000    0.000 
#
# Total GULP energy -396894.471643 kJ/mol
# GULP energy per Si atom -12402.952239 kJ/mol
# Density = 1.935866 g / cm^3
# Si number density = 19.402817 Si / 1000 Ang^3
#
#
#
# Elastic Constant Matrix: (Units=GPa)
#
#
# Indices 1 2 3 4 5 6 
#
# 1 73.1571 53.7232 7.2657 0.0000 3.6401 0.0000
# 2 53.7232 130.2358 21.5626 0.0000 4.3657 0.0000
# 3 7.2657 21.5626 50.5046 0.0000 0.6019 0.0000
# 4 0.0000 0.0000 0.0000 21.4613 0.0000 0.6057
# 5 3.6401 4.3657 0.6019 0.0000 22.6562 0.0000
# 6 0.0000 0.0000 0.0000 0.6057 0.0000 28.0901
#
#
#
# Elastic Compliance Matrix: (Units=1/GPa)
#
#
# Indices 1 2 3 4 5 6 
#
# 1 0.019689 -0.008181 0.000679 0.000000 -0.001605 0.000000
# 2 -0.008181 0.011713 -0.003814 0.000000 -0.000841 0.000000
# 3 0.000679 -0.003814 0.021330 0.000000 0.000059 0.000000
# 4 0.000000 0.000000 0.000000 0.046624 0.000000 -0.001005
# 5 -0.001605 -0.000841 0.000059 0.000000 0.044556 0.000000
# 6 0.000000 0.000000 0.000000 -0.001005 0.000000 0.035621
#
#
# Mechanical properties :
#
#
# Convention : Reuss Voigt Hill
#
# Bulk Modulus (GPa) = 33.22080 46.55559 39.88820
# Shear Modulus (GPa) = 23.56299 25.86457 24.71378
#
# Velocity S-wave (km/s) = 3.48862 3.65503 3.57279
# Velocity P-wave (km/s) = 5.77807 6.46983 6.13371
#
# Compressibility (1/GPa) = 0.03010162
#
# Stress axis : x y z
#
# Youngs Moduli (GPa) = 50.78970 85.37865 46.88232
#
# Poissons Ratio (x) = 0.69844 -0.03185
# Poissons Ratio (y) = 0.41549 0.17880
# Poissons Ratio (z) = -0.03450 0.32561
#
# Static dielectric constant tensor:
#      x y z
#    x 3.316570 0.000000 0.040790 
#    y 0.000000 3.551150 0.000000 
#    z 0.040790 0.000000 3.745680 
# 
# 
# High freq. dielectric constant tensor:
#      x y z
#    x 1.735690 0.000000 0.003430 
#    y 0.000000 1.751730 0.000000 
#    z 0.003430 0.000000 1.770750 
# 
# From -- ./inp_files/269287.got.cif
#   From: 2010.06.25/outbox.cif.g09.slc.cpg/sg12_135_cif.got.tgz:269287.got - 2010.06.28 00:19:55.
