data_PCOD8106501
_publ_section_title
;
Structure prediction by ZEFSAII (Michael W. Deem and Ramdas Pophale) SiO2 
 PCOD8106501
Probable space group: C 2/M
;
_chemical_formula_sum "Si O2"
_cell_formula_units_Z 64
_cell_length_a 27.038856
_cell_length_b 11.224430
_cell_length_c 20.235789
_cell_angle_alpha 90.000000
_cell_angle_beta 32.269491
_cell_angle_gamma 90.000000
_cell_volume 3278.947405
_symmetry_space_group_name_H-M "C 2/M"
_symmetry_group_IT_number 12
_symmetry_cell_setting 'monoclinic'
loop_
_space_group_symop_operation_xyz
x,y,z
-x,y,-z
-x,-y,-z
x,-y,z
1/2+x,1/2+y,z
1/2-x,1/2+y,-z
1/2-x,1/2-y,-z
1/2+x,1/2-y,z
loop_
_atom_site_type_symbol
_atom_site_label
_atom_site_fract_x
_atom_site_fract_y
_atom_site_fract_z
Si Si1 0.302184 0.220974 0.842113
Si Si2 0.639659 0.864683 0.085381
Si Si3 0.932209 0.635207 0.326904
Si Si4 0.472216 0.368061 0.601449
Si Si5 0.779474 0.630126 0.724959
Si Si6 0.402729 0.366549 0.143398
Si Si7 0.646611 0.292188 0.469807
Si Si8 0.156374 0.366593 0.712404
O O1 0.323789 0.139175 0.880718
O O2 0.389496 0.305790 0.733173
O O3 0.290433 0.142076 0.790740
O O4 0.207072 0.292378 0.960901
O O5 0.535183 0.811372 0.196901
O O6 0.641113 0.000000 0.058716
O O7 0.946965 0.500000 0.332822
O O8 0.879578 0.697460 0.445595
O O9 0.864503 0.645475 0.341129
O O10 0.500000 0.305572 0.500000
O O11 0.436834 0.500000 0.625044
O O12 0.559567 0.376032 0.552597
O O13 0.817573 0.500000 0.661955
O O14 0.671211 0.641388 0.831414
O O15 0.834071 0.727553 0.621558
O O16 0.394811 0.500000 0.187104
O O17 0.390836 0.251261 0.203629
O O18 0.500000 0.352151 0.000000
O O19 0.734002 0.366739 0.396995
O O20 0.120601 0.500000 0.776760
#
# Coordination Sequence:
#
# PCOD8106501 Si02
#       8
#     8   8   8   8   8   8   8   8
#     4  11  21  38  58  83 115 150 195 235 294 344
#     4  10  22  38  58  82 115 152 191 238 291 349
#     4  10  21  38  60  87 118 153 194 244 295 355
#     4  11  22  37  56  81 115 152 193 236 288 349
#     4  10  21  36  59  88 114 147 191 244 295 347
#     4   9  20  39  61  86 121 158 201 248 297 353
#     4  11  20  39  59  86 116 154 193 241 295 350
#     4  10  22  38  60  89 123 157 198 246 298 355
#
# _framework density 19.518459
#
# number of rings (size 3 to 8) (size 9 to 14) (size 15 to 20)
#    0.000    1.750    2.500    1.875    1.750    0.750 
#    0.000    2.500    0.000    0.000    0.000    0.000 
#    0.000    0.000    0.000    0.000    0.000    0.000 
#
# Total GULP energy -396568.733154 kJ/mol
# GULP energy per Si atom -12392.772911 kJ/mol
# Density = 1.947403 g / cm^3
# Si number density = 19.518459 Si / 1000 Ang^3
#
#
#
# Elastic Constant Matrix: (Units=GPa)
#
#
# Indices 1 2 3 4 5 6 
#
# 1 84.2131 19.1888 17.3449 -0.0002 1.1927 0.0001
# 2 19.1888 93.1163 32.6919 -0.0008 1.4654 0.0003
# 3 17.3449 32.6919 83.7680 -0.0004 -0.1126 0.0002
# 4 -0.0002 -0.0008 -0.0004 54.2791 0.0001 3.1454
# 5 1.1927 1.4654 -0.1126 0.0001 22.0783 0.0000
# 6 0.0001 0.0003 0.0002 3.1454 0.0000 28.1015
#
#
#
# Elastic Compliance Matrix: (Units=1/GPa)
#
#
# Indices 1 2 3 4 5 6 
#
# 1 0.012713 -0.001954 -0.001870 0.000000 -0.000567 0.000000
# 2 -0.001954 0.012761 -0.004576 0.000000 -0.000765 0.000000
# 3 -0.001870 -0.004576 0.014112 0.000000 0.000477 0.000000
# 4 0.000000 0.000000 0.000000 0.018544 0.000000 -0.002076
# 5 -0.000567 -0.000765 0.000477 0.000000 0.045377 0.000000
# 6 0.000000 0.000000 0.000000 -0.002076 0.000000 0.035818
#
#
# Mechanical properties :
#
#
# Convention : Reuss Voigt Hill
#
# Bulk Modulus (GPa) = 43.89180 44.39427 44.14304
# Shear Modulus (GPa) = 30.53978 33.68323 32.11151
#
# Velocity S-wave (km/s) = 3.95987 4.15868 4.06049
# Velocity P-wave (km/s) = 6.59118 6.77153 6.68196
#
# Compressibility (1/GPa) = 0.02278330
#
# Stress axis : x y z
#
# Youngs Moduli (GPa) = 78.65838 78.36523 70.86311
#
# Poissons Ratio (x) = 0.15314 0.13255
# Poissons Ratio (y) = 0.15372 0.32430
# Poissons Ratio (z) = 0.14713 0.35864
#
# Static dielectric constant tensor:
#      x y z
#    x 3.641960 0.000000 -0.166300 
#    y 0.000000 3.682290 0.000000 
#    z -0.166300 0.000000 3.552580 
# 
# 
# High freq. dielectric constant tensor:
#      x y z
#    x 1.765090 0.000000 -0.014630 
#    y 0.000000 1.761180 0.000000 
#    z -0.014630 0.000000 1.757670 
# 
# From -- ./inp_files/327810.got.cif
#   From: 2010.06.25/outbox.cif.g09.slc.cpg/sg12_164_cif.got.tgz:327810.got - 2010.06.28 00:19:55.
