data_PCOD8106838
_publ_section_title
;
Structure prediction by ZEFSAII (Michael W. Deem and Ramdas Pophale) SiO2 
 PCOD8106838
Probable space group: C 2/M
;
_chemical_formula_sum "Si O2"
_cell_formula_units_Z 64
_cell_length_a 29.255191
_cell_length_b 9.070621
_cell_length_c 18.171322
_cell_angle_alpha 90.000000
_cell_angle_beta 40.428519
_cell_angle_gamma 90.000000
_cell_volume 3127.056379
_symmetry_space_group_name_H-M "C 2/M"
_symmetry_group_IT_number 12
_symmetry_cell_setting 'monoclinic'
loop_
_space_group_symop_operation_xyz
x,y,z
-x,y,-z
-x,-y,-z
x,-y,z
1/2+x,1/2+y,z
1/2-x,1/2+y,-z
1/2-x,1/2-y,-z
1/2+x,1/2-y,z
loop_
_atom_site_type_symbol
_atom_site_label
_atom_site_fract_x
_atom_site_fract_y
_atom_site_fract_z
Si Si1 0.186521 0.675101 0.122557
Si Si2 0.813485 0.831747 0.724308
Si Si3 0.838306 0.331142 0.144159
Si Si4 0.603590 0.328274 0.518081
Si Si5 0.952032 0.166172 0.927103
Si Si6 0.681283 0.827542 0.552327
Si Si7 0.047749 0.832231 0.243128
Si Si8 0.415700 0.830068 0.193537
O O1 0.194892 0.500000 0.105625
O O2 0.187407 0.721032 0.206589
O O3 0.111672 0.723274 0.181597
O O4 0.250000 0.750000 0.000000
O O5 0.744529 0.805389 0.759652
O O6 0.878235 0.798139 0.589895
O O7 0.817091 0.000000 0.749468
O O8 0.858491 0.500000 0.106668
O O9 0.862677 0.276245 0.194690
O O10 0.876495 0.240356 0.033155
O O11 0.613618 0.500000 0.525927
O O12 0.656839 0.237503 0.504320
O O13 0.522060 0.280799 0.627503
O O14 0.971857 0.179046 0.817901
O O15 0.011353 0.243705 0.903568
O O16 0.947071 0.000000 0.960109
O O17 0.750000 0.750000 0.500000
O O18 0.618531 0.797294 0.686057
O O19 0.697417 0.000000 0.523468
O O20 0.068974 0.000000 0.238564
O O21 0.434211 0.000000 0.161210
#
# Coordination Sequence:
#
# PCOD8106838 Si02
#       8
#     8   8   8   8   8   8   8   8
#     4  12  26  44  68  96 127 160 205 257 312 376
#     4  10  22  42  67  92 123 162 205 251 309 374
#     4  10  21  37  57  83 117 160 205 250 303 366
#     4  10  21  41  66  92 125 164 208 256 309 375
#     4  11  22  36  57  87 120 156 201 253 306 363
#     4  11  22  36  58  86 121 166 215 263 311 367
#     4  10  22  41  65  92 126 165 206 255 315 377
#     4  10  21  37  56  82 117 159 205 250 301 365
#
# _framework density 20.466532999999998
#
# number of rings (size 3 to 8) (size 9 to 14) (size 15 to 20)
#    0.000    1.500    1.250    3.750    0.000    9.500 
#    0.000    3.750    0.000    0.000    0.000    0.000 
#    0.000    0.000    0.000    0.000    0.000    0.000 
#
# Total GULP energy -396919.073020 kJ/mol
# GULP energy per Si atom -12403.721032 kJ/mol
# Density = 2.041995 g / cm^3
# Si number density = 20.466533 Si / 1000 Ang^3
#
#
#
# Elastic Constant Matrix: (Units=GPa)
#
#
# Indices 1 2 3 4 5 6 
#
# 1 95.0859 49.2911 36.1344 -0.0063 -6.9685 0.0040
# 2 49.2911 108.4951 57.0614 -0.0100 -6.7746 0.0110
# 3 36.1344 57.0614 118.8110 -0.0113 -6.0456 0.0075
# 4 -0.0063 -0.0100 -0.0113 30.9098 0.0108 0.5772
# 5 -6.9685 -6.7746 -6.0456 0.0108 32.4991 -0.0055
# 6 0.0040 0.0110 0.0075 0.5772 -0.0055 36.1760
#
#
#
# Elastic Compliance Matrix: (Units=1/GPa)
#
#
# Indices 1 2 3 4 5 6 
#
# 1 0.014062 -0.005463 -0.001573 0.000000 0.001584 0.000001
# 2 -0.005463 0.014525 -0.005270 0.000001 0.000876 -0.000003
# 3 -0.001573 -0.005270 0.011462 0.000002 0.000696 -0.000001
# 4 0.000000 0.000001 0.000002 0.032362 -0.000010 -0.000516
# 5 0.001584 0.000876 0.000696 -0.000010 0.031422 0.000004
# 6 0.000001 -0.000003 -0.000001 -0.000516 0.000004 0.027651
#
#
# Mechanical properties :
#
#
# Convention : Reuss Voigt Hill
#
# Bulk Modulus (GPa) = 64.77435 67.48508 66.12971
# Shear Modulus (GPa) = 31.00956 31.91065 31.46010
#
# Velocity S-wave (km/s) = 3.89670 3.95291 3.92490
# Velocity P-wave (km/s) = 7.20856 7.34023 7.27469
#
# Compressibility (1/GPa) = 0.01543821
#
# Stress axis : x y z
#
# Youngs Moduli (GPa) = 71.11205 68.84579 87.24859
#
# Poissons Ratio (x) = 0.37609 0.13721
# Poissons Ratio (y) = 0.38847 0.45980
# Poissons Ratio (z) = 0.11183 0.36282
#
# Static dielectric constant tensor:
#      x y z
#    x 3.641820 -0.000020 0.047040 
#    y -0.000020 3.688210 0.000030 
#    z 0.047040 0.000030 3.939640 
# 
# 
# High freq. dielectric constant tensor:
#      x y z
#    x 1.800220 0.000000 -0.001440 
#    y 0.000000 1.792700 0.000000 
#    z -0.001440 0.000000 1.813640 
# 
# From -- ./inp_files/295473.got.cif
#   From: 2010.06.25/outbox.cif.g09.slc.cpg/sg12_148_cif.got.tgz:295473.got - 2010.06.28 00:19:55.
