data_PCOD8106893
_publ_section_title
;
Structure prediction by ZEFSAII (Michael W. Deem and Ramdas Pophale) SiO2 
 PCOD8106893
Probable space group: C 2/M
;
_chemical_formula_sum "Si O2"
_cell_formula_units_Z 56
_cell_length_a 17.867312
_cell_length_b 8.743963
_cell_length_c 28.650304
_cell_angle_alpha 90.000000
_cell_angle_beta 39.174356
_cell_angle_gamma 90.000000
_cell_volume 2827.453952
_symmetry_space_group_name_H-M "C 2/M"
_symmetry_group_IT_number 12
_symmetry_cell_setting 'monoclinic'
loop_
_space_group_symop_operation_xyz
x,y,z
-x,y,-z
-x,-y,-z
x,-y,z
1/2+x,1/2+y,z
1/2-x,1/2+y,-z
1/2-x,1/2-y,-z
1/2+x,1/2-y,z
loop_
_atom_site_type_symbol
_atom_site_label
_atom_site_fract_x
_atom_site_fract_y
_atom_site_fract_z
Si Si1 0.203556 0.180209 0.569859
Si Si2 0.483674 0.319181 0.146366
Si Si3 0.868373 0.681349 0.573290
Si Si4 0.562715 0.677512 0.279557
Si Si5 0.147684 0.679921 0.144901
Si Si6 0.230062 0.177380 0.285753
Si Si7 0.085255 0.818567 0.999011
O O1 0.250000 0.250000 0.500000
O O2 0.282320 0.243884 0.574405
O O3 0.068952 0.230536 0.643521
O O4 0.214960 0.000000 0.560270
O O5 0.466237 0.500000 0.154838
O O6 0.566903 0.272713 0.148510
O O7 0.357831 0.241401 0.212220
O O8 0.541441 0.259618 0.070379
O O9 0.867091 0.500000 0.574990
O O10 0.824037 0.739143 0.643992
O O11 0.000000 0.744679 0.500000
O O12 0.565765 0.500000 0.262796
O O13 0.607352 0.784153 0.216539
O O14 0.645371 0.710039 0.283409
O O15 0.136270 0.500000 0.140569
O O16 0.281666 0.739584 0.073728
O O17 0.240595 0.000000 0.292316
O O18 0.081584 0.000000 0.998728
O O19 0.000000 0.749881 0.000000
#
# Coordination Sequence:
#
# PCOD8106893 Si02
#       7
#     8   8   8   8   8   8   8
#     4  10  21  37  57  81 111 147 186 231 283 338
#     4  11  22  38  60  83 115 155 189 233 294 347
#     4  10  21  37  58  85 116 152 194 236 284 346
#     4  10  22  39  57  82 117 153 189 234 289 341
#     4  11  22  37  60  88 116 149 194 239 279 338
#     4  11  23  38  58  85 115 149 195 245 288 339
#     4   9  19  36  58  85 115 149 191 236 283 338
#
# _framework density 19.805803999999998
#
# number of rings (size 3 to 8) (size 9 to 14) (size 15 to 20)
#    0.000    1.714    0.000    4.286    0.000    4.857 
#    0.000    2.143    0.000    5.143    0.000    0.000 
#    0.000    0.000    0.000    0.000    0.000    0.000 
#
# Total GULP energy -347337.793850 kJ/mol
# GULP energy per Si atom -12404.921209 kJ/mol
# Density = 1.976072 g / cm^3
# Si number density = 19.805804 Si / 1000 Ang^3
#
#
#
# Elastic Constant Matrix: (Units=GPa)
#
#
# Indices 1 2 3 4 5 6 
#
# 1 206.1542 207.6181 197.2186 -0.0012 -20.2478 -0.0013
# 2 207.6181 543.5483 381.8753 -0.0036 -8.3340 -0.0014
# 3 197.2186 381.8753 420.8145 -0.0019 -15.4934 0.0017
# 4 -0.0012 -0.0036 -0.0019 58.2438 0.0001 -7.1969
# 5 -20.2478 -8.3340 -15.4934 0.0001 44.6328 -0.0002
# 6 -0.0013 -0.0014 0.0017 -7.1969 -0.0002 16.2404
#
#
#
# Elastic Compliance Matrix: (Units=1/GPa)
#
#
# Indices 1 2 3 4 5 6 
#
# 1 0.009505 -0.001469 -0.003011 0.000000 0.002992 0.000001
# 2 -0.001469 0.005322 -0.004183 0.000000 -0.001125 0.000001
# 3 -0.003011 -0.004183 0.007601 0.000000 0.000492 -0.000002
# 4 0.000000 0.000000 0.000000 0.018164 0.000000 0.008049
# 5 0.002992 -0.001125 0.000492 0.000000 0.023723 0.000000
# 6 0.000001 0.000001 -0.000002 0.008049 0.000000 0.065142
#
#
# Mechanical properties :
#
#
# Convention : Reuss Voigt Hill
#
# Bulk Modulus (GPa) = 195.98387 304.88234 250.43310
# Shear Modulus (GPa) = 33.67368 49.41039 41.54203
#
# Velocity S-wave (km/s) = 4.12781 5.00016 4.58478
# Velocity P-wave (km/s) = 11.04020 13.69692 12.43968
#
# Compressibility (1/GPa) = 0.00510246
#
# Stress axis : x y z
#
# Youngs Moduli (GPa) = 105.20927 187.89092 131.55715
#
# Poissons Ratio (x) = 0.27604 0.39614
# Poissons Ratio (y) = 0.15457 0.55026
# Poissons Ratio (z) = 0.31680 0.78588
#
# Static dielectric constant tensor:
#      x y z
#    x 3.690550 -0.000010 0.060630 
#    y -0.000010 3.428940 0.000000 
#    z 0.060630 0.000000 3.678870 
# 
# 
# High freq. dielectric constant tensor:
#      x y z
#    x 1.793970 0.000000 -0.002610 
#    y 0.000000 1.756440 0.000000 
#    z -0.002610 0.000000 1.791870 
# 
# From -- ./inp_files/275548.got.cif
#   From: 2010.06.25/outbox.cif.g09.slc.cpg/sg12_138_cif.got.tgz:275548.got - 2010.06.28 00:19:55.
