data_PCOD8106739
_publ_section_title
;
Structure prediction by ZEFSAII (Michael W. Deem and Ramdas Pophale) SiO2 
 PCOD8106739
Probable space group: C 2/M
;
_chemical_formula_sum "Si O2"
_cell_formula_units_Z 56
_cell_length_a 19.020494
_cell_length_b 9.446485
_cell_length_c 20.942639
_cell_angle_alpha 90.000000
_cell_angle_beta 55.425482
_cell_angle_gamma 90.000000
_cell_volume 3098.335269
_symmetry_space_group_name_H-M "C 2/M"
_symmetry_group_IT_number 12
_symmetry_cell_setting 'monoclinic'
loop_
_space_group_symop_operation_xyz
x,y,z
-x,y,-z
-x,-y,-z
x,-y,z
1/2+x,1/2+y,z
1/2-x,1/2+y,-z
1/2-x,1/2-y,-z
1/2+x,1/2-y,z
loop_
_atom_site_type_symbol
_atom_site_label
_atom_site_fract_x
_atom_site_fract_y
_atom_site_fract_z
Si Si1 0.170686 0.165823 0.855830
Si Si2 0.337046 0.165853 0.459514
Si Si3 0.900815 0.339195 0.289975
Si Si4 0.098849 0.157492 0.460673
Si Si5 0.008913 0.834153 0.857099
Si Si6 0.322650 0.666964 0.000495
Si Si7 0.762822 0.161225 0.708453
O O1 0.178618 0.212265 0.924950
O O2 0.246839 0.241462 0.778198
O O3 0.077928 0.211389 0.875652
O O4 0.183825 0.000000 0.841088
O O5 0.250000 0.250000 0.500000
O O6 0.395696 0.195386 0.367501
O O7 0.387895 0.223016 0.493671
O O8 0.317506 0.000000 0.477266
O O9 0.929234 0.500000 0.263231
O O10 0.807836 0.309038 0.308961
O O11 0.971150 0.240606 0.220428
O O12 0.146819 0.200501 0.370348
O O13 0.000000 0.149451 0.500000
O O14 0.132513 0.000000 0.464440
O O15 0.013535 0.000000 0.842791
O O16 0.915083 0.787054 0.926886
O O17 0.307340 0.500000 0.000109
O O18 0.250000 0.750000 0.000000
O O19 0.760520 0.000000 0.733648
#
# Coordination Sequence:
#
# PCOD8106739 Si02
#       7
#     8   8   8   8   8   8   8
#     4   9  18  34  57  81 102 133 176 221 264 308
#     4  11  21  35  57  82 111 145 185 229 274 325
#     4   9  18  33  53  80 110 137 171 224 275 313
#     4  10  21  38  56  77 110 150 187 227 275 323
#     4   9  18  34  57  81 103 134 179 221 259 311
#     4  10  21  37  55  78 110 142 172 213 262 317
#     4   9  17  33  54  78 108 138 175 221 267 318
#
# _framework density 18.074221999999999
#
# number of rings (size 3 to 8) (size 9 to 14) (size 15 to 20)
#    0.000    2.429    1.429    0.857    0.000    4.857 
#    2.571    0.000    0.000    4.286    0.000    0.000 
#    0.000    0.000    0.000    0.000    0.000    0.000 
#
# Total GULP energy -347203.313561 kJ/mol
# GULP energy per Si atom -12400.118341 kJ/mol
# Density = 1.803308 g / cm^3
# Si number density = 18.074222 Si / 1000 Ang^3
#
#
#
# Elastic Constant Matrix: (Units=GPa)
#
#
# Indices 1 2 3 4 5 6 
#
# 1 78.7213 46.4514 67.2900 0.0000 -2.4470 0.0000
# 2 46.4514 73.6515 73.1535 0.0000 6.0703 0.0000
# 3 67.2900 73.1535 168.8747 0.0000 -5.3750 0.0000
# 4 0.0000 0.0000 0.0000 35.4867 0.0000 1.9108
# 5 -2.4470 6.0703 -5.3750 0.0000 24.9487 0.0000
# 6 0.0000 0.0000 0.0000 1.9108 0.0000 27.4382
#
#
#
# Elastic Compliance Matrix: (Units=1/GPa)
#
#
# Indices 1 2 3 4 5 6 
#
# 1 0.022645 -0.010077 -0.004541 0.000000 0.003695 0.000000
# 2 -0.010077 0.030049 -0.009330 0.000000 -0.010310 0.000000
# 3 -0.004541 -0.009330 0.011912 0.000000 0.004391 0.000000
# 4 0.000000 0.000000 0.000000 0.028286 0.000000 -0.001970
# 5 0.003695 -0.010310 0.004391 0.000000 0.043899 0.000000
# 6 0.000000 0.000000 0.000000 -0.001970 0.000000 0.036583
#
#
# Mechanical properties :
#
#
# Convention : Reuss Voigt Hill
#
# Bulk Modulus (GPa) = 59.83632 77.22636 68.53134
# Shear Modulus (GPa) = 22.04213 26.53156 24.28684
#
# Velocity S-wave (km/s) = 3.49597 3.83550 3.66967
# Velocity P-wave (km/s) = 7.03374 7.90158 7.48025
#
# Compressibility (1/GPa) = 0.01671226
#
# Stress axis : x y z
#
# Youngs Moduli (GPa) = 44.15968 33.27884 83.94902
#
# Poissons Ratio (x) = 0.33534 0.38117
# Poissons Ratio (y) = 0.44499 0.78322
# Poissons Ratio (z) = 0.20051 0.31048
#
# Static dielectric constant tensor:
#      x y z
#    x 3.123720 0.000000 -0.016620 
#    y 0.000000 3.599500 0.000000 
#    z -0.016620 0.000000 3.480840 
# 
# 
# High freq. dielectric constant tensor:
#      x y z
#    x 1.678260 0.000000 -0.001320 
#    y 0.000000 1.698370 0.000000 
#    z -0.001320 0.000000 1.712420 
# 
# From -- ./inp_files/319704.got.cif
#   From: 2010.06.25/outbox.cif.g09.slc.cpg/sg12_160_cif.got.tgz:319704.got - 2010.06.28 00:19:55.
