data_PCOD8106479
_publ_section_title
;
Structure prediction by ZEFSAII (Michael W. Deem and Ramdas Pophale) SiO2 
 PCOD8106479
Probable space group: C 2/M
;
_chemical_formula_sum "Si O2"
_cell_formula_units_Z 64
_cell_length_a 20.168064
_cell_length_b 23.754977
_cell_length_c 12.071253
_cell_angle_alpha 90.000000
_cell_angle_beta 142.884381
_cell_angle_gamma 90.000000
_cell_volume 3489.753541
_symmetry_space_group_name_H-M "C 2/M"
_symmetry_group_IT_number 12
_symmetry_cell_setting 'monoclinic'
loop_
_space_group_symop_operation_xyz
x,y,z
-x,y,-z
-x,-y,-z
x,-y,z
1/2+x,1/2+y,z
1/2-x,1/2+y,-z
1/2-x,1/2-y,-z
1/2+x,1/2-y,z
loop_
_atom_site_type_symbol
_atom_site_label
_atom_site_fract_x
_atom_site_fract_y
_atom_site_fract_z
Si Si1 0.380208 0.659447 0.306197
Si Si2 0.910331 0.731438 0.785976
Si Si3 0.917191 0.230666 0.139601
Si Si4 0.231249 0.741325 0.711025
Si Si5 0.522042 0.174630 0.405878
Si Si6 0.777051 0.435087 0.835331
Si Si7 0.606920 0.894223 0.215712
Si Si8 0.499422 0.060969 0.266961
O O1 0.500000 0.640479 0.500000
O O2 0.391606 0.684323 0.197584
O O3 0.332105 0.703351 0.331538
O O4 0.309862 0.602428 0.212942
O O5 0.795039 0.751817 0.680278
O O6 0.890653 0.667029 0.720951
O O7 0.962505 0.773502 0.761843
O O8 0.000000 0.727304 0.000000
O O9 0.928509 0.293192 0.208378
O O10 0.816067 0.224728 0.920821
O O11 0.147772 0.693804 0.557879
O O12 0.500000 0.193375 0.500000
O O13 0.510859 0.108020 0.376125
O O14 0.737439 0.500000 0.774283
O O15 0.791125 0.409554 0.729070
O O16 0.887490 0.430217 0.051780
O O17 0.598854 0.936067 0.309854
O O18 0.500000 0.901918 0.000000
O O19 0.503597 0.000000 0.331106
#
# Coordination Sequence:
#
# PCOD8106479 Si02
#       8
#     8   8   8   8   8   8   8   8
#     4  12  22  36  53  82 114 150 188 228 279 335
#     4   9  18  32  55  85 110 141 183 226 281 336
#     4  11  21  37  56  80 115 150 182 235 277 336
#     4  11  21  36  57  82 113 150 183 227 283 338
#     4  12  23  35  53  85 112 148 189 221 278 335
#     4  10  21  36  59  84 110 150 191 230 286 340
#     4   9  15  30  57  83 110 137 176 232 288 341
#     4  10  21  37  56  81 113 145 184 235 285 333
#
# _framework density 18.339403999999998
#
# number of rings (size 3 to 8) (size 9 to 14) (size 15 to 20)
#    0.000    1.500    5.000    1.500    1.750    2.500 
#    2.250    0.000    0.000    0.000    0.000    0.000 
#    0.000    3.000    0.000    0.000    0.000    0.000 
#
# Total GULP energy -396419.900068 kJ/mol
# GULP energy per Si atom -12388.121877 kJ/mol
# Density = 1.829766 g / cm^3
# Si number density = 18.339404 Si / 1000 Ang^3
#
#
#
# Elastic Constant Matrix: (Units=GPa)
#
#
# Indices 1 2 3 4 5 6 
#
# 1 110.0441 43.5713 9.9207 0.0000 10.8643 0.0000
# 2 43.5713 101.9957 24.3254 0.0000 11.4051 0.0000
# 3 9.9207 24.3254 36.8571 0.0000 5.0668 0.0000
# 4 0.0000 0.0000 0.0000 23.6609 0.0000 0.6016
# 5 10.8643 11.4051 5.0668 0.0000 23.5750 0.0000
# 6 0.0000 0.0000 0.0000 0.6016 0.0000 27.6265
#
#
#
# Elastic Compliance Matrix: (Units=1/GPa)
#
#
# Indices 1 2 3 4 5 6 
#
# 1 0.011138 -0.004514 0.000398 0.000000 -0.003035 0.000000
# 2 -0.004514 0.013863 -0.007521 0.000000 -0.003010 0.000000
# 3 0.000398 -0.007521 0.032473 0.000000 -0.003524 0.000000
# 4 0.000000 0.000000 0.000000 0.042287 0.000000 -0.000921
# 5 -0.003035 -0.003010 -0.003524 0.000000 0.046030 0.000000
# 6 0.000000 0.000000 0.000000 -0.000921 0.000000 0.036217
#
#
# Mechanical properties :
#
#
# Convention : Reuss Voigt Hill
#
# Bulk Modulus (GPa) = 29.23854 44.94796 37.09325
# Shear Modulus (GPa) = 23.07544 26.37779 24.72661
#
# Velocity S-wave (km/s) = 3.55102 3.79662 3.67587
# Velocity P-wave (km/s) = 5.72631 6.61674 6.18757
#
# Compressibility (1/GPa) = 0.03420143
#
# Stress axis : x y z
#
# Youngs Moduli (GPa) = 89.78144 72.13588 30.79514
#
# Poissons Ratio (x) = 0.32560 -0.01226
# Poissons Ratio (y) = 0.40525 0.23160
# Poissons Ratio (z) = -0.03575 0.54250
#
# Static dielectric constant tensor:
#      x y z
#    x 3.851100 0.000000 0.033600 
#    y 0.000000 3.251830 0.000000 
#    z 0.033600 0.000000 3.219040 
# 
# 
# High freq. dielectric constant tensor:
#      x y z
#    x 1.727190 0.000000 -0.005230 
#    y 0.000000 1.685970 0.000000 
#    z -0.005230 0.000000 1.691940 
# 
# From -- ./inp_files/170195.got.cif
#   From: 2010.06.25/outbox.cif.g09.slc.cpg/sg12_86_cif.got.tgz:170195.got - 2010.06.28 00:19:55.
