data_PCOD8106268
_publ_section_title
;
Structure prediction by ZEFSAII (Michael W. Deem and Ramdas Pophale) SiO2 
 PCOD8106268
Probable space group: C 2/M
;
_chemical_formula_sum "Si O2"
_cell_formula_units_Z 56
_cell_length_a 9.788578
_cell_length_b 23.018083
_cell_length_c 14.594336
_cell_angle_alpha 90.000000
_cell_angle_beta 121.438035
_cell_angle_gamma 90.000000
_cell_volume 2805.603922
_symmetry_space_group_name_H-M "C 2/M"
_symmetry_group_IT_number 12
_symmetry_cell_setting 'monoclinic'
loop_
_space_group_symop_operation_xyz
x,y,z
-x,y,-z
-x,-y,-z
x,-y,z
1/2+x,1/2+y,z
1/2-x,1/2+y,-z
1/2-x,1/2-y,-z
1/2+x,1/2-y,z
loop_
_atom_site_type_symbol
_atom_site_label
_atom_site_fract_x
_atom_site_fract_y
_atom_site_fract_z
Si Si1 0.179926 0.737662 0.573694
Si Si2 0.258984 0.339038 0.266689
Si Si3 0.856703 0.776303 0.119499
Si Si4 0.408492 0.149061 0.176197
Si Si5 0.339782 0.935484 0.997980
Si Si6 0.938131 0.935569 0.246542
Si Si7 0.842629 0.850868 0.758527
O O1 0.250000 0.750000 0.500000
O O2 0.179761 0.794957 0.635968
O O3 0.288814 0.688060 0.655123
O O4 0.000000 0.714571 0.500000
O O5 0.251924 0.308244 0.162439
O O6 0.385902 0.391742 0.308740
O O7 0.093005 0.371009 0.237320
O O8 0.932325 0.718209 0.186677
O O9 0.005318 0.817533 0.139489
O O10 0.750000 0.750000 0.000000
O O11 0.306504 0.133935 0.229586
O O12 0.313388 0.117134 0.060516
O O13 0.193482 0.934483 0.878565
O O14 0.351214 0.000000 0.048588
O O15 0.500000 0.921260 0.000000
O O16 0.103211 0.913310 0.260302
O O17 0.962684 0.000000 0.295111
#
# Coordination Sequence:
#
# PCOD8106268 Si02
#       7
#     8   8   8   8   8   8   8
#     4  12  23  42  68  89 123 159 203 276 330 377
#     4  11  22  39  60  95 124 164 219 247 317 392
#     4  11  22  35  55  84 134 173 193 243 305 376
#     4  12  20  34  57  82 127 156 204 264 295 356
#     4  10  21  36  56  86 118 172 221 245 287 358
#     4  10  22  41  62  85 131 172 211 254 297 368
#     4  11  24  40  58  96 125 158 214 255 322 384
#
# _framework density 19.960052000000001
#
# number of rings (size 3 to 8) (size 9 to 14) (size 15 to 20)
#    0.000    1.000    4.286    4.286    0.000    4.000 
#    0.000    1.429    0.000    4.286    0.000    0.000 
#    0.000    0.000    0.000    0.000    0.000    0.000 
#
# Total GULP energy -347010.465560 kJ/mol
# GULP energy per Si atom -12393.230913 kJ/mol
# Density = 1.991462 g / cm^3
# Si number density = 19.960052 Si / 1000 Ang^3
#
#
#
# Elastic Constant Matrix: (Units=GPa)
#
#
# Indices 1 2 3 4 5 6 
#
# 1 125.2249 36.2244 23.2374 0.0000 -18.3589 0.0000
# 2 36.2244 131.6061 22.5031 0.0000 -12.5642 0.0000
# 3 23.2374 22.5031 69.3032 0.0000 -9.7514 0.0000
# 4 0.0000 0.0000 0.0000 30.4802 0.0000 19.0230
# 5 -18.3589 -12.5642 -9.7514 0.0000 32.1162 0.0000
# 6 0.0000 0.0000 0.0000 19.0230 0.0000 60.0914
#
#
#
# Elastic Compliance Matrix: (Units=1/GPa)
#
#
# Indices 1 2 3 4 5 6 
#
# 1 0.009501 -0.001883 -0.001999 0.000000 0.004087 0.000000
# 2 -0.001883 0.008609 -0.001924 0.000000 0.001707 0.000000
# 3 -0.001999 -0.001924 0.016147 0.000000 0.003008 0.000000
# 4 0.000000 0.000000 0.000000 0.040886 0.000000 -0.012943
# 5 0.004087 0.001707 0.003008 0.000000 0.035054 0.000000
# 6 0.000000 0.000000 0.000000 -0.012943 0.000000 0.020739
#
#
# Mechanical properties :
#
#
# Convention : Reuss Voigt Hill
#
# Bulk Modulus (GPa) = 44.15938 54.45156 49.30547
# Shear Modulus (GPa) = 33.31210 40.81552 37.06381
#
# Velocity S-wave (km/s) = 4.08970 4.52692 4.31385
# Velocity P-wave (km/s) = 6.66879 7.39348 7.04046
#
# Compressibility (1/GPa) = 0.02264525
#
# Stress axis : x y z
#
# Youngs Moduli (GPa) = 105.25760 116.16231 61.92936
#
# Poissons Ratio (x) = 0.21873 0.12380
# Poissons Ratio (y) = 0.19820 0.11913
# Poissons Ratio (z) = 0.21041 0.22346
#
# Static dielectric constant tensor:
#      x y z
#    x 3.736100 0.000000 -0.116070 
#    y 0.000000 4.151420 0.000000 
#    z -0.116070 0.000000 3.229010 
# 
# 
# High freq. dielectric constant tensor:
#      x y z
#    x 1.793700 0.000000 0.003690 
#    y 0.000000 1.778590 0.000000 
#    z 0.003690 0.000000 1.742750 
# 
# From -- ./inp_files/198526.got.cif
#   From: 2010.06.25/outbox.cif.g09.slc.cpg/sg12_100_cif.got.tgz:198526.got - 2010.06.28 00:19:55.
