data_PCOD8106445
_publ_section_title
;
Structure prediction by ZEFSAII (Michael W. Deem and Ramdas Pophale) SiO2 
 PCOD8106445
Probable space group: C 2/M
;
_chemical_formula_sum "Si O2"
_cell_formula_units_Z 52
_cell_length_a 18.319225
_cell_length_b 21.220567
_cell_length_c 6.483394
_cell_angle_alpha 90.000000
_cell_angle_beta 97.204161
_cell_angle_gamma 90.000000
_cell_volume 2500.485813
_symmetry_space_group_name_H-M "C 2/M"
_symmetry_group_IT_number 12
_symmetry_cell_setting 'monoclinic'
loop_
_space_group_symop_operation_xyz
x,y,z
-x,y,-z
-x,-y,-z
x,-y,z
1/2+x,1/2+y,z
1/2-x,1/2+y,-z
1/2-x,1/2-y,-z
1/2+x,1/2-y,z
loop_
_atom_site_type_symbol
_atom_site_label
_atom_site_fract_x
_atom_site_fract_y
_atom_site_fract_z
Si Si1 0.300165 0.929630 0.192140
Si Si2 0.191742 0.861897 0.867563
Si Si3 0.916725 0.634646 0.995295
Si Si4 0.814675 0.353513 0.580280
Si Si5 0.000000 0.174180 0.500000
Si Si6 0.961896 0.930491 0.201564
Si Si7 0.626766 0.241500 0.711008
O O1 0.372759 0.923976 0.076592
O O2 0.320700 0.914694 0.435405
O O3 0.268936 0.000000 0.163775
O O4 0.239997 0.880371 0.083152
O O5 0.238184 0.862896 0.671909
O O6 0.123034 0.908832 0.830289
O O7 0.168643 0.788846 0.881516
O O8 0.914314 0.693007 0.153521
O O9 0.883197 0.651720 0.760528
O O10 0.000000 0.613059 0.000000
O O11 0.817896 0.292826 0.428999
O O12 0.988154 0.124689 0.681985
O O13 0.070284 0.218306 0.552921
O O14 0.963550 0.000000 0.311184
O O15 0.000000 0.939720 0.000000
#
# Coordination Sequence:
#
# PCOD8106445 Si02
#       7
#     8   8   8   8   4   8   8
#     4  10  23  41  60  86 117 152 197 241 286 342
#     4  10  22  38  60  87 118 156 193 236 289 340
#     4  10  22  40  62  87 119 153 188 237 293 347
#     4  10  22  38  60  86 117 153 191 238 290 345
#     4  10  21  36  60  88 117 156 196 234 286 342
#     4  10  22  39  58  85 121 158 198 240 282 334
#     4  10  21  36  58  89 120 152 192 237 287 344
#
# _framework density 20.795960000000001
#
# number of rings (size 3 to 8) (size 9 to 14) (size 15 to 20)
#    0.000    2.000    0.000    2.077    0.000   19.385 
#    0.000    0.769    0.000    0.000    0.000    0.000 
#    0.000    0.000    0.000    0.000    0.000    0.000 
#
# Total GULP energy -322207.646563 kJ/mol
# GULP energy per Si atom -12392.601791 kJ/mol
# Density = 2.074863 g / cm^3
# Si number density = 20.795960 Si / 1000 Ang^3
#
#
#
# Elastic Constant Matrix: (Units=GPa)
#
#
# Indices 1 2 3 4 5 6 
#
# 1 110.2822 33.8417 38.1358 0.0000 5.9072 0.0000
# 2 33.8417 109.2650 35.7592 0.0000 5.6556 0.0000
# 3 38.1358 35.7592 96.5243 0.0000 6.7944 0.0000
# 4 0.0000 0.0000 0.0000 19.6284 0.0000 -5.8452
# 5 5.9072 5.6556 6.7944 0.0000 25.1558 0.0000
# 6 0.0000 0.0000 0.0000 -5.8452 0.0000 33.2085
#
#
#
# Elastic Compliance Matrix: (Units=1/GPa)
#
#
# Indices 1 2 3 4 5 6 
#
# 1 0.011001 -0.002221 -0.003443 0.000000 -0.001154 0.000000
# 2 -0.002221 0.010907 -0.003086 0.000000 -0.001097 0.000000
# 3 -0.003443 -0.003086 0.013005 0.000000 -0.002010 0.000000
# 4 0.000000 0.000000 0.000000 0.053765 0.000000 0.009463
# 5 -0.001154 -0.001097 -0.002010 0.000000 0.040813 0.000000
# 6 0.000000 0.000000 0.000000 0.009463 0.000000 0.031779
#
#
# Mechanical properties :
#
#
# Convention : Reuss Voigt Hill
#
# Bulk Modulus (GPa) = 57.42412 59.06055 58.24234
# Shear Modulus (GPa) = 27.08958 29.48751 28.28854
#
# Velocity S-wave (km/s) = 3.61312 3.76964 3.69221
# Velocity P-wave (km/s) = 6.71411 6.88539 6.80029
#
# Compressibility (1/GPa) = 0.01741429
#
# Stress axis : x y z
#
# Youngs Moduli (GPa) = 90.89712 91.68724 76.89405
#
# Poissons Ratio (x) = 0.20364 0.26471
# Poissons Ratio (y) = 0.20188 0.23728
# Poissons Ratio (z) = 0.31291 0.28293
#
# Static dielectric constant tensor:
#      x y z
#    x 3.676380 0.000000 0.051200 
#    y 0.000000 3.850030 0.000000 
#    z 0.051200 0.000000 3.825470 
# 
# 
# High freq. dielectric constant tensor:
#      x y z
#    x 1.808200 0.000000 0.001490 
#    y 0.000000 1.819990 0.000000 
#    z 0.001490 0.000000 1.816720 
# 
# From -- ./inp_files/21262.got.cif
#   From: 2010.06.25/outbox.cif.g09.slc.cpg/sg12_11_cif.got.tgz:21262.got - 2010.06.28 00:19:55.
