data_PCOD8106484
_publ_section_title
;
Structure prediction by ZEFSAII (Michael W. Deem and Ramdas Pophale) SiO2 
 PCOD8106484
Probable space group: C 2/M
;
_chemical_formula_sum "Si O2"
_cell_formula_units_Z 64
_cell_length_a 35.131882
_cell_length_b 8.730175
_cell_length_c 15.613377
_cell_angle_alpha 90.000000
_cell_angle_beta 42.730296
_cell_angle_gamma 90.000000
_cell_volume 3249.390422
_symmetry_space_group_name_H-M "C 2/M"
_symmetry_group_IT_number 12
_symmetry_cell_setting 'monoclinic'
loop_
_space_group_symop_operation_xyz
x,y,z
-x,y,-z
-x,-y,-z
x,-y,z
1/2+x,1/2+y,z
1/2-x,1/2+y,-z
1/2-x,1/2-y,-z
1/2+x,1/2-y,z
loop_
_atom_site_type_symbol
_atom_site_label
_atom_site_fract_x
_atom_site_fract_y
_atom_site_fract_z
Si Si1 0.505137 0.318032 0.125570
Si Si2 0.787580 0.180969 0.012181
Si Si3 0.284709 0.682733 0.364977
Si Si4 0.604876 0.822958 0.234530
Si Si5 0.767710 0.680862 0.724067
Si Si6 0.911156 0.182042 0.154754
Si Si7 0.500131 0.320043 0.326152
Si Si8 0.389843 0.822816 0.575227
O O1 0.503183 0.500000 0.130665
O O2 0.448085 0.258229 0.174074
O O3 0.508593 0.254440 0.216125
O O4 0.559396 0.261649 0.982199
O O5 0.852228 0.227541 0.894635
O O6 0.781125 0.000000 0.019142
O O7 0.750000 0.250000 0.000000
O O8 0.766439 0.246800 0.138266
O O9 0.282963 0.500000 0.371771
O O10 0.250000 0.750000 0.500000
O O11 0.257962 0.746657 0.321214
O O12 0.348274 0.746890 0.265248
O O13 0.542127 0.766975 0.319854
O O14 0.618887 0.793331 0.310072
O O15 0.610806 0.000000 0.201162
O O16 0.761436 0.500000 0.735634
O O17 0.832884 0.727082 0.621947
O O18 0.909515 0.000000 0.157238
O O19 0.511765 0.500000 0.311972
O O20 0.437429 0.286511 0.459851
O O21 0.405341 0.000000 0.532465
#
# Coordination Sequence:
#
# PCOD8106484 Si02
#       8
#     8   8   8   8   8   8   8   8
#     4   8  16  31  52  80 108 139 180 232 284 334
#     4  11  21  38  63  90 119 153 197 243 288 344
#     4  10  21  36  59  85 114 151 189 231 280 340
#     4  11  23  40  59  82 115 156 195 233 286 346
#     4   9  20  38  59  84 114 157 198 228 284 358
#     4   8  15  31  54  77 107 144 182 221 275 338
#     4  11  23  35  56  88 114 141 190 247 291 333
#     4  10  21  40  58  75 111 158 194 227 280 352
#
# _framework density 19.696002
#
# number of rings (size 3 to 8) (size 9 to 14) (size 15 to 20)
#    0.000    2.250    1.250    2.250    3.500    2.500 
#    0.000    1.250    0.000    0.000    0.000    4.375 
#    0.000    0.000    0.000    0.000    0.000    0.000 
#
# Total GULP energy -396821.947327 kJ/mol
# GULP energy per Si atom -12400.685854 kJ/mol
# Density = 1.965117 g / cm^3
# Si number density = 19.696002 Si / 1000 Ang^3
#
#
#
# Elastic Constant Matrix: (Units=GPa)
#
#
# Indices 1 2 3 4 5 6 
#
# 1 135.6341 25.2070 65.8015 0.0001 -7.0480 0.0000
# 2 25.2070 34.7759 26.7076 -0.0033 7.3683 0.0004
# 3 65.8015 26.7076 129.9948 -0.0003 -8.8110 0.0002
# 4 0.0001 -0.0033 -0.0003 31.1003 0.0002 -3.6170
# 5 -7.0480 7.3683 -8.8110 0.0002 34.7705 0.0001
# 6 0.0000 0.0004 0.0002 -3.6170 0.0001 20.1366
#
#
#
# Elastic Compliance Matrix: (Units=1/GPa)
#
#
# Indices 1 2 3 4 5 6 
#
# 1 0.010372 -0.004788 -0.004126 -0.000001 0.002072 0.000000
# 2 -0.004788 0.039491 -0.006433 0.000004 -0.010969 0.000000
# 3 -0.004126 -0.006433 0.011333 -0.000001 0.003399 0.000000
# 4 -0.000001 0.000004 -0.000001 0.032840 -0.000001 0.005899
# 5 0.002072 -0.010969 0.003399 -0.000001 0.032366 0.000000
# 6 0.000000 0.000000 0.000000 0.005899 0.000000 0.050720
#
#
# Mechanical properties :
#
#
# Convention : Reuss Voigt Hill
#
# Bulk Modulus (GPa) = 32.78546 59.53746 46.16146
# Shear Modulus (GPa) = 22.93739 29.38071 26.15905
#
# Velocity S-wave (km/s) = 3.41628 3.86646 3.64832
# Velocity P-wave (km/s) = 5.67831 7.08706 6.42144
#
# Compressibility (1/GPa) = 0.03050133
#
# Stress axis : x y z
#
# Youngs Moduli (GPa) = 96.41367 25.32215 88.23612
#
# Poissons Ratio (x) = 0.12125 0.36406
# Poissons Ratio (y) = 0.46165 0.56765
# Poissons Ratio (z) = 0.39780 0.16290
#
# Static dielectric constant tensor:
#      x y z
#    x 3.898270 0.000000 0.039250 
#    y 0.000000 3.174370 0.000000 
#    z 0.039250 0.000000 3.800820 
# 
# 
# High freq. dielectric constant tensor:
#      x y z
#    x 1.779420 0.000000 -0.002880 
#    y 0.000000 1.727110 0.000000 
#    z -0.002880 0.000000 1.779350 
# 
# From -- ./inp_files/249890.got.cif
#   From: 2010.06.25/outbox.cif.g09.slc.cpg/sg12_125_cif.got.tgz:249890.got - 2010.06.28 00:19:55.
