data_PCOD8106330
_publ_section_title
;
Structure prediction by ZEFSAII (Michael W. Deem and Ramdas Pophale) SiO2 
 PCOD8106330
Probable space group: C 2/M
;
_chemical_formula_sum "Si O2"
_cell_formula_units_Z 56
_cell_length_a 28.544849
_cell_length_b 9.057453
_cell_length_c 19.482823
_cell_angle_alpha 90.000000
_cell_angle_beta 33.601327
_cell_angle_gamma 90.000000
_cell_volume 2787.618806
_symmetry_space_group_name_H-M "C 2/M"
_symmetry_group_IT_number 12
_symmetry_cell_setting 'monoclinic'
loop_
_space_group_symop_operation_xyz
x,y,z
-x,y,-z
-x,-y,-z
x,-y,z
1/2+x,1/2+y,z
1/2-x,1/2+y,-z
1/2-x,1/2-y,-z
1/2+x,1/2-y,z
loop_
_atom_site_type_symbol
_atom_site_label
_atom_site_fract_x
_atom_site_fract_y
_atom_site_fract_z
Si Si1 0.758028 0.831601 0.703456
Si Si2 0.050926 0.828596 0.506102
Si Si3 0.294294 0.828380 0.382543
Si Si4 0.458165 0.673397 0.212134
Si Si5 0.999375 0.666960 0.296602
Si Si6 0.308510 0.165900 0.980484
Si Si7 0.853472 0.172403 0.058059
O O1 0.849348 0.795000 0.624834
O O2 0.762018 0.804038 0.616794
O O3 0.685539 0.726462 0.822771
O O4 0.731949 0.000000 0.750789
O O5 0.000000 0.783298 0.500000
O O6 0.015323 0.730323 0.610443
O O7 0.036293 0.000000 0.541945
O O8 0.250000 0.750000 0.500000
O O9 0.386040 0.755879 0.256843
O O10 0.305402 0.000000 0.386155
O O11 0.439871 0.500000 0.236385
O O12 0.453730 0.732523 0.295492
O O13 0.546941 0.710652 0.066985
O O14 0.963890 0.500000 0.335177
O O15 0.098456 0.669290 0.163124
O O16 0.274859 0.000000 0.031122
O O17 0.250000 0.250000 0.000000
O O18 0.302510 0.244871 0.060858
O O19 0.838619 0.000000 0.066875
#
# Coordination Sequence:
#
# PCOD8106330 Si02
#       7
#     8   8   8   8   8   8   8
#     4  10  23  41  59  86 122 159 198 246 301 362
#     4  10  22  39  59  84 116 158 200 242 302 363
#     4  11  23  39  63  92 123 160 203 248 300 358
#     4  10  21  39  62  88 120 156 198 246 299 358
#     4  10  21  37  58  86 116 150 195 246 297 352
#     4  10  21  36  57  85 117 154 197 245 296 354
#     4  10  22  39  60  87 119 158 200 247 301 356
#
# _framework density 20.088830000000002
#
# number of rings (size 3 to 8) (size 9 to 14) (size 15 to 20)
#    0.000    1.857    0.000    3.000    2.000    7.143 
#    0.000    2.857    0.000    0.000    0.000    0.000 
#    0.000    0.000    0.000    0.000    0.000    0.000 
#
# Total GULP energy -347321.856702 kJ/mol
# GULP energy per Si atom -12404.352025 kJ/mol
# Density = 2.004311 g / cm^3
# Si number density = 20.088830 Si / 1000 Ang^3
#
#
#
# Elastic Constant Matrix: (Units=GPa)
#
#
# Indices 1 2 3 4 5 6 
#
# 1 108.4917 51.3485 50.1228 0.0063 -13.0499 -0.0021
# 2 51.3485 120.3188 52.6320 0.0058 1.1854 -0.0014
# 3 50.1228 52.6320 85.5173 0.0080 14.0125 -0.0015
# 4 0.0063 0.0058 0.0080 37.4310 -0.0013 2.9579
# 5 -13.0499 1.1854 14.0125 -0.0013 29.6017 -0.0023
# 6 -0.0021 -0.0014 -0.0015 2.9579 -0.0023 36.3477
#
#
#
# Elastic Compliance Matrix: (Units=1/GPa)
#
#
# Indices 1 2 3 4 5 6 
#
# 1 0.016656 -0.002852 -0.010005 0.000000 0.012193 0.000001
# 2 -0.002852 0.012130 -0.005971 0.000000 0.001084 0.000000
# 3 -0.010005 -0.005971 0.023759 -0.000003 -0.015418 -0.000001
# 4 0.000000 0.000000 -0.000003 0.026889 0.000002 -0.002188
# 5 0.012193 0.001084 -0.015418 0.000002 0.046412 0.000003
# 6 0.000001 0.000000 -0.000001 -0.002188 0.000003 0.027690
#
#
# Mechanical properties :
#
#
# Convention : Reuss Voigt Hill
#
# Bulk Modulus (GPa) = 67.16643 69.17049 68.16846
# Shear Modulus (GPa) = 25.48997 31.35770 28.42383
#
# Velocity S-wave (km/s) = 3.56597 3.95517 3.76561
# Velocity P-wave (km/s) = 7.10368 7.44076 7.27417
#
# Compressibility (1/GPa) = 0.01488839
#
# Stress axis : x y z
#
# Youngs Moduli (GPa) = 60.03851 82.44183 42.08904
#
# Poissons Ratio (x) = 0.23511 0.42110
# Poissons Ratio (y) = 0.17122 0.25133
# Poissons Ratio (z) = 0.60069 0.49229
#
# Static dielectric constant tensor:
#      x y z
#    x 3.636540 0.000000 -0.134070 
#    y 0.000000 3.782390 0.000000 
#    z -0.134070 0.000000 3.443320 
# 
# 
# High freq. dielectric constant tensor:
#      x y z
#    x 1.786640 0.000000 -0.004320 
#    y 0.000000 1.793900 0.000000 
#    z -0.004320 0.000000 1.784410 
# 
# From -- ./inp_files/292419.got.cif
#   From: 2010.06.25/outbox.cif.g09.slc.cpg/sg12_147_cif.got.tgz:292419.got - 2010.06.28 00:19:55.
