data_PCOD8106836
_publ_section_title
;
Structure prediction by ZEFSAII (Michael W. Deem and Ramdas Pophale) SiO2 
 PCOD8106836
Probable space group: C 2/M
;
_chemical_formula_sum "Si O2"
_cell_formula_units_Z 56
_cell_length_a 12.662450
_cell_length_b 13.759854
_cell_length_c 19.806550
_cell_angle_alpha 90.000000
_cell_angle_beta 119.307141
_cell_angle_gamma 90.000000
_cell_volume 3009.268982
_symmetry_space_group_name_H-M "C 2/M"
_symmetry_group_IT_number 12
_symmetry_cell_setting 'monoclinic'
loop_
_space_group_symop_operation_xyz
x,y,z
-x,y,-z
-x,-y,-z
x,-y,z
1/2+x,1/2+y,z
1/2-x,1/2+y,-z
1/2-x,1/2-y,-z
1/2+x,1/2-y,z
loop_
_atom_site_type_symbol
_atom_site_label
_atom_site_fract_x
_atom_site_fract_y
_atom_site_fract_z
Si Si1 0.383715 0.386873 0.282529
Si Si2 0.192386 0.610740 0.453050
Si Si3 0.857274 0.608801 0.715509
Si Si4 0.941623 0.796084 0.553657
Si Si5 0.950310 0.196772 0.050120
Si Si6 0.689011 0.390359 0.103267
Si Si7 0.087233 0.735323 0.817288
O O1 0.420169 0.500000 0.291968
O O2 0.244243 0.372759 0.259813
O O3 0.466635 0.328281 0.360128
O O4 0.402703 0.340819 0.214316
O O5 0.160896 0.500000 0.463997
O O6 0.204667 0.622173 0.376499
O O7 0.086952 0.681155 0.448060
O O8 0.320189 0.640962 0.525373
O O9 0.910304 0.500000 0.739726
O O10 0.963941 0.685159 0.756442
O O11 0.000000 0.817803 0.500000
O O12 0.907433 0.258478 0.099898
O O13 0.065111 0.128479 0.107298
O O14 0.838460 0.133177 0.984995
O O15 0.000000 0.260691 0.000000
O O16 0.731624 0.500000 0.124129
O O17 0.797251 0.327249 0.168663
#
# Coordination Sequence:
#
# PCOD8106836 Si02
#       7
#     8   8   8   8   8   8   8
#     4  11  24  37  54  85 113 147 190 232 278 326
#     4  10  21  37  59  85 111 146 190 235 276 324
#     4  10  21  37  56  82 117 147 184 230 281 334
#     4  11  21  38  61  81 111 152 193 229 273 329
#     4   8  20  36  58  80 111 144 184 224 274 327
#     4   9  19  36  59  83 108 143 188 220 270 339
#     4  12  20  37  59  83 114 146 182 232 281 329
#
# _framework density 18.609171
#
# number of rings (size 3 to 8) (size 9 to 14) (size 15 to 20)
#    0.857    0.857    2.857    3.000    0.000    2.000 
#    0.000    0.000    0.000    1.714    0.000    0.000 
#    0.000    0.000    0.000    0.000    0.000    0.000 
#
# Total GULP energy -347016.079782 kJ/mol
# GULP energy per Si atom -12393.431421 kJ/mol
# Density = 1.856682 g / cm^3
# Si number density = 18.609171 Si / 1000 Ang^3
#
#
#
# Elastic Constant Matrix: (Units=GPa)
#
#
# Indices 1 2 3 4 5 6 
#
# 1 62.1494 33.1963 25.3401 0.0000 10.1351 0.0000
# 2 33.1963 108.9148 27.0760 0.0000 15.0132 0.0000
# 3 25.3401 27.0760 50.1565 0.0000 1.7547 0.0000
# 4 0.0000 0.0000 0.0000 21.8948 0.0000 1.9310
# 5 10.1351 15.0132 1.7547 0.0000 30.2438 0.0000
# 6 0.0000 0.0000 0.0000 1.9310 0.0000 25.2832
#
#
#
# Elastic Compliance Matrix: (Units=1/GPa)
#
#
# Indices 1 2 3 4 5 6 
#
# 1 0.022791 -0.003950 -0.009202 0.000000 -0.005143 0.000000
# 2 -0.003950 0.012081 -0.004372 0.000000 -0.004420 0.000000
# 3 -0.009202 -0.004372 0.026817 0.000000 0.003698 0.000000
# 4 0.000000 0.000000 0.000000 0.045983 0.000000 -0.003512
# 5 -0.005143 -0.004420 0.003698 0.000000 0.036768 0.000000
# 6 0.000000 0.000000 0.000000 -0.003512 0.000000 0.039820
#
#
# Mechanical properties :
#
#
# Convention : Reuss Voigt Hill
#
# Bulk Modulus (GPa) = 37.53482 43.60507 40.56994
# Shear Modulus (GPa) = 21.91174 24.52491 23.21833
#
# Velocity S-wave (km/s) = 3.43515 3.63422 3.53609
# Velocity P-wave (km/s) = 5.99563 6.41038 6.20647
#
# Compressibility (1/GPa) = 0.02664193
#
# Stress axis : x y z
#
# Youngs Moduli (GPa) = 43.87752 82.77161 37.28929
#
# Poissons Ratio (x) = 0.32694 0.34314
# Poissons Ratio (y) = 0.17331 0.16302
# Poissons Ratio (z) = 0.40377 0.36186
#
# Static dielectric constant tensor:
#      x y z
#    x 3.318470 0.000000 0.046450 
#    y 0.000000 3.308910 0.000000 
#    z 0.046450 0.000000 3.344010 
# 
# 
# High freq. dielectric constant tensor:
#      x y z
#    x 1.717010 0.000000 0.014010 
#    y 0.000000 1.711050 0.000000 
#    z 0.014010 0.000000 1.718560 
# 
# From -- ./inp_files/263389.got.cif
#   From: 2010.06.25/outbox.cif.g09.slc.cpg/sg12_132_cif.got.tgz:263389.got - 2010.06.28 00:19:55.
