data_PCOD8106823
_publ_section_title
;
Structure prediction by ZEFSAII (Michael W. Deem and Ramdas Pophale) SiO2 
 PCOD8106823
Probable space group: C 2/M
;
_chemical_formula_sum "Si O2"
_cell_formula_units_Z 56
_cell_length_a 30.659178
_cell_length_b 8.827008
_cell_length_c 10.928653
_cell_angle_alpha 90.000000
_cell_angle_beta 111.474324
_cell_angle_gamma 90.000000
_cell_volume 2752.296251
_symmetry_space_group_name_H-M "C 2/M"
_symmetry_group_IT_number 12
_symmetry_cell_setting 'monoclinic'
loop_
_space_group_symop_operation_xyz
x,y,z
-x,y,-z
-x,-y,-z
x,-y,z
1/2+x,1/2+y,z
1/2-x,1/2+y,-z
1/2-x,1/2-y,-z
1/2+x,1/2-y,z
loop_
_atom_site_type_symbol
_atom_site_label
_atom_site_fract_x
_atom_site_fract_y
_atom_site_fract_z
Si Si1 0.468131 0.178759 0.578226
Si Si2 0.206309 0.830735 0.807637
Si Si3 0.201033 0.168987 0.088102
Si Si4 0.864554 0.678840 0.826292
Si Si5 0.699958 0.322297 0.435334
Si Si6 0.138504 0.677766 0.577780
Si Si7 0.032883 0.319584 0.144406
O O1 0.500000 0.247645 0.500000
O O2 0.415593 0.224152 0.488598
O O3 0.480260 0.238609 0.730301
O O4 0.475136 0.000000 0.588101
O O5 0.253748 0.752533 0.805282
O O6 0.160463 0.728250 0.729741
O O7 0.202566 0.000000 0.746457
O O8 0.209191 0.843323 0.954166
O O9 0.152041 0.263994 0.056847
O O10 0.197236 0.000000 0.140661
O O11 0.862974 0.500000 0.811400
O O12 0.823586 0.758960 0.709830
O O13 0.915230 0.738699 0.836622
O O14 0.705306 0.500000 0.433757
O O15 0.750000 0.250000 0.500000
O O16 0.667189 0.275913 0.512445
O O17 0.144706 0.500000 0.559308
O O18 0.030968 0.500000 0.142565
O O19 0.000000 0.256698 0.000000
#
# Coordination Sequence:
#
# PCOD8106823 Si02
#       7
#     8   8   8   8   8   8   8
#     4   9  18  34  57  86 119 153 195 251 307 359
#     4  10  21  37  56  81 116 157 198 241 291 355
#     4  10  21  37  56  81 116 157 198 241 291 355
#     4  11  21  36  58  86 118 151 194 246 299 355
#     4  12  24  38  58  84 118 158 198 240 297 360
#     4  11  21  36  58  86 118 151 194 246 299 355
#     4   9  18  34  57  86 119 153 195 251 307 359
#
# _framework density 20.346647000000001
#
# number of rings (size 3 to 8) (size 9 to 14) (size 15 to 20)
#    0.000    1.714    1.429    3.857    0.000    2.857 
#    0.000    2.857    0.000    3.429    0.000    0.000 
#    0.000    0.000    0.000    0.000    0.000    0.000 
#
# Total GULP energy -346974.057884 kJ/mol
# GULP energy per Si atom -12391.930639 kJ/mol
# Density = 2.030034 g / cm^3
# Si number density = 20.346647 Si / 1000 Ang^3
#
#
#
# Elastic Constant Matrix: (Units=GPa)
#
#
# Indices 1 2 3 4 5 6 
#
# 1 154.1069 35.4189 59.6957 0.0000 -5.7346 0.0000
# 2 35.4189 70.4493 25.3383 0.0000 -2.0109 0.0000
# 3 59.6957 25.3383 92.9669 0.0000 2.7855 0.0000
# 4 0.0000 0.0000 0.0000 23.4340 0.0000 -0.8270
# 5 -5.7346 -2.0109 2.7855 0.0000 21.3250 0.0000
# 6 0.0000 0.0000 0.0000 -0.8270 0.0000 25.1067
#
#
#
# Elastic Compliance Matrix: (Units=1/GPa)
#
#
# Indices 1 2 3 4 5 6 
#
# 1 0.009269 -0.002665 -0.005313 0.000000 0.002935 0.000000
# 2 -0.002665 0.016594 -0.002848 0.000000 0.001220 0.000000
# 3 -0.005313 -0.002848 0.015054 0.000000 -0.003664 0.000000
# 4 0.000000 0.000000 0.000000 0.042723 0.000000 0.001407
# 5 0.002935 0.001220 -0.003664 0.000000 0.048276 0.000000
# 6 0.000000 0.000000 0.000000 0.001407 0.000000 0.039876
#
#
# Mechanical properties :
#
#
# Convention : Reuss Voigt Hill
#
# Bulk Modulus (GPa) = 51.90975 62.04763 56.97869
# Shear Modulus (GPa) = 25.01673 27.11116 26.06394
#
# Velocity S-wave (km/s) = 3.51026 3.65425 3.58298
# Velocity P-wave (km/s) = 6.48053 6.95458 6.72174
#
# Compressibility (1/GPa) = 0.01926420
#
# Stress axis : x y z
#
# Youngs Moduli (GPa) = 107.88677 60.26398 66.42660
#
# Poissons Ratio (x) = 0.16062 0.35294
# Poissons Ratio (y) = 0.28754 0.18917
# Poissons Ratio (z) = 0.57323 0.17162
#
# Static dielectric constant tensor:
#      x y z
#    x 3.852890 0.000000 -0.221730 
#    y 0.000000 1.744620 0.000000 
#    z -0.221730 0.000000 4.116380 
# 
# 
# High freq. dielectric constant tensor:
#      x y z
#    x 1.799260 0.000000 -0.010160 
#    y 0.000000 1.773440 0.000000 
#    z -0.010160 0.000000 1.803250 
# 
# From -- ./inp_files/186847.got.cif
#   From: 2010.06.25/outbox.cif.g09.slc.cpg/sg12_94_cif.got.tgz:186847.got - 2010.06.28 00:19:55.
