data_PCOD8106596
_publ_section_title
;
Structure prediction by ZEFSAII (Michael W. Deem and Ramdas Pophale) SiO2 
 PCOD8106596
Probable space group: C 2/M
;
_chemical_formula_sum "Si O2"
_cell_formula_units_Z 56
_cell_length_a 17.780725
_cell_length_b 16.442005
_cell_length_c 20.059997
_cell_angle_alpha 90.000000
_cell_angle_beta 150.395617
_cell_angle_gamma 90.000000
_cell_volume 2897.139587
_symmetry_space_group_name_H-M "C 2/M"
_symmetry_group_IT_number 12
_symmetry_cell_setting 'monoclinic'
loop_
_space_group_symop_operation_xyz
x,y,z
-x,y,-z
-x,-y,-z
x,-y,z
1/2+x,1/2+y,z
1/2-x,1/2+y,-z
1/2-x,1/2-y,-z
1/2+x,1/2-y,z
loop_
_atom_site_type_symbol
_atom_site_label
_atom_site_fract_x
_atom_site_fract_y
_atom_site_fract_z
Si Si1 0.827465 0.707494 0.159656
Si Si2 0.941216 0.863856 0.388656
Si Si3 0.764524 0.500000 0.802915
Si Si4 0.766072 0.227443 0.708320
Si Si5 0.978508 0.500000 0.089908
Si Si6 0.869558 0.251434 0.533379
Si Si7 0.578418 0.819834 0.917924
Si Si8 0.678434 0.408844 0.142639
O O1 0.888860 0.699786 0.132895
O O2 0.736114 0.630005 0.117288
O O3 0.970411 0.713008 0.319007
O O4 0.714041 0.786447 0.070858
O O5 0.836809 0.920737 0.263815
O O6 0.852620 0.782640 0.342942
O O7 0.000000 0.910843 0.500000
O O8 0.089639 0.840138 0.459251
O O9 0.841107 0.500000 0.788235
O O10 0.894177 0.500000 0.955750
O O11 0.701312 0.201966 0.585352
O O12 0.782059 0.144743 0.762106
O O13 0.923968 0.276666 0.823015
O O14 0.934066 0.417554 0.093180
O O15 0.750000 0.250000 0.500000
O O16 0.747875 0.500000 0.204156
O O17 0.500000 0.415423 0.000000
#
# Coordination Sequence:
#
# PCOD8106596 Si02
#       8
#     8   8   4   8   4   8   8   8
#     4  11  23  41  66  90 124 167 212 253 318 372
#     4  10  21  36  61  87 120 161 199 245 302 366
#     4  11  21  36  56  92 123 157 200 249 307 368
#     4  11  21  40  66  92 123 157 209 258 308 374
#     4  11  24  34  60  94 129 153 199 262 309 367
#     4  11  22  39  64  90 122 165 208 250 307 375
#     4  11  23  40  63  96 124 166 207 259 311 379
#     4  11  24  41  67  96 123 162 211 267 315 370
#
# _framework density 19.329411
#
# number of rings (size 3 to 8) (size 9 to 14) (size 15 to 20)
#    0.000    1.143    5.714    1.071    1.000    0.000 
#    0.000    1.429    3.143    0.000    0.000    0.000 
#    0.000    0.000    0.000    0.000    0.000    0.000 
#
# Total GULP energy -346956.635901 kJ/mol
# GULP energy per Si atom -12391.308425 kJ/mol
# Density = 1.928542 g / cm^3
# Si number density = 19.329411 Si / 1000 Ang^3
#
#
#
# Elastic Constant Matrix: (Units=GPa)
#
#
# Indices 1 2 3 4 5 6 
#
# 1 98.9548 28.7979 20.5775 -0.0014 6.5633 -0.0016
# 2 28.7979 105.3491 29.0415 0.0029 -6.3483 -0.0019
# 3 20.5775 29.0415 91.9291 0.0035 -1.6564 -0.0033
# 4 -0.0014 0.0029 0.0035 33.6022 0.0007 2.7408
# 5 6.5633 -6.3483 -1.6564 0.0007 30.3008 -0.0027
# 6 -0.0016 -0.0019 -0.0033 2.7408 -0.0027 16.6439
#
#
#
# Elastic Compliance Matrix: (Units=1/GPa)
#
#
# Indices 1 2 3 4 5 6 
#
# 1 0.011509 -0.002861 -0.001730 0.000001 -0.003187 0.000000
# 2 -0.002861 0.011232 -0.002857 -0.000001 0.002817 0.000001
# 3 -0.001730 -0.002857 0.012176 -0.000001 0.000442 0.000002
# 4 0.000001 -0.000001 -0.000001 0.030165 -0.000002 -0.004967
# 5 -0.003187 0.002817 0.000442 -0.000002 0.034307 0.000006
# 6 0.000000 0.000001 0.000002 -0.004967 0.000006 0.060900
#
#
# Mechanical properties :
#
#
# Convention : Reuss Voigt Hill
#
# Bulk Modulus (GPa) = 49.94867 50.34075 50.14471
# Shear Modulus (GPa) = 27.49384 30.63045 29.06215
#
# Velocity S-wave (km/s) = 3.77554 3.98509 3.88173
# Velocity P-wave (km/s) = 6.70098 6.87566 6.78888
#
# Compressibility (1/GPa) = 0.02002055
#
# Stress axis : x y z
#
# Youngs Moduli (GPa) = 86.88529 89.03324 82.13109
#
# Poissons Ratio (x) = 0.25476 0.14207
# Poissons Ratio (y) = 0.24861 0.23465
# Poissons Ratio (z) = 0.15029 0.25437
#
# Static dielectric constant tensor:
#      x y z
#    x 3.740980 -0.000030 0.039090 
#    y -0.000030 3.534030 -0.000010 
#    z 0.039090 -0.000010 3.964990 
# 
# 
# High freq. dielectric constant tensor:
#      x y z
#    x 1.760790 0.000000 0.004710 
#    y 0.000000 1.730880 0.000000 
#    z 0.004710 0.000000 1.769820 
# 
# From -- ./inp_files/316809.got.cif
#   From: 2010.06.25/outbox.cif.g09.slc.cpg/sg12_159_cif.got.tgz:316809.got - 2010.06.28 00:19:55.
