data_PCOD8106045
_publ_section_title
;
Structure prediction by ZEFSAII (Michael W. Deem and Ramdas Pophale) SiO2 
 PCOD8106045
Probable space group: C 2/M
;
_chemical_formula_sum "Si O2"
_cell_formula_units_Z 56
_cell_length_a 28.593734
_cell_length_b 8.794165
_cell_length_c 16.763799
_cell_angle_alpha 90.000000
_cell_angle_beta 138.754844
_cell_angle_gamma 90.000000
_cell_volume 2779.132867
_symmetry_space_group_name_H-M "C 2/M"
_symmetry_group_IT_number 12
_symmetry_cell_setting 'monoclinic'
loop_
_space_group_symop_operation_xyz
x,y,z
-x,y,-z
-x,-y,-z
x,-y,z
1/2+x,1/2+y,z
1/2-x,1/2+y,-z
1/2-x,1/2-y,-z
1/2+x,1/2-y,z
loop_
_atom_site_type_symbol
_atom_site_label
_atom_site_fract_x
_atom_site_fract_y
_atom_site_fract_z
Si Si1 0.165467 0.678771 0.555564
Si Si2 0.914499 0.678779 0.700824
Si Si3 0.036340 0.174046 0.466207
Si Si4 0.078452 0.319617 0.114525
Si Si5 0.793491 0.180428 0.983103
Si Si6 0.953682 0.173423 0.201796
Si Si7 0.787165 0.679882 0.807982
O O1 0.181562 0.500000 0.576632
O O2 0.141090 0.740870 0.436624
O O3 0.102511 0.715768 0.536307
O O4 0.234963 0.770159 0.670149
O O5 0.916209 0.500000 0.694513
O O6 0.892321 0.732530 0.760943
O O7 0.994697 0.733260 0.789254
O O8 0.000000 0.230242 0.500000
O O9 0.977041 0.190997 0.322845
O O10 0.063636 0.000000 0.507675
O O11 0.072948 0.500000 0.106208
O O12 0.133869 0.266013 0.117834
O O13 0.000000 0.248951 0.000000
O O14 0.764169 0.239431 0.860613
O O15 0.786868 0.000000 0.978784
O O16 0.750000 0.250000 0.000000
O O17 0.874317 0.237993 0.093629
O O18 0.956430 0.000000 0.176718
O O19 0.783028 0.500000 0.814170
#
# Coordination Sequence:
#
# PCOD8106045 Si02
#       7
#     8   8   8   8   8   8   8
#     4  10  21  36  54  82 119 153 189 240 293 345
#     4   9  18  35  59  85 115 151 192 237 286 342
#     4   9  18  33  56  81 107 145 189 234 281 340
#     4   9  18  34  59  88 114 147 195 243 288 343
#     4  11  24  40  58  83 116 153 192 236 289 347
#     4   9  19  35  54  81 113 144 183 230 283 340
#     4  11  23  39  60  84 114 153 197 243 291 346
#
# _framework density 20.150169999999999
#
# number of rings (size 3 to 8) (size 9 to 14) (size 15 to 20)
#    0.000    2.286    0.000    2.143    2.000    3.714 
#    0.000    1.429    0.000    3.857    0.000    0.000 
#    0.000    0.000    0.000    0.000    0.000    0.000 
#
# Total GULP energy -347191.403875 kJ/mol
# GULP energy per Si atom -12399.692996 kJ/mol
# Density = 2.010431 g / cm^3
# Si number density = 20.150170 Si / 1000 Ang^3
#
#
#
# Elastic Constant Matrix: (Units=GPa)
#
#
# Indices 1 2 3 4 5 6 
#
# 1 124.8441 28.5993 46.7532 0.0000 -15.1018 0.0000
# 2 28.5993 47.4406 27.0538 0.0000 -2.1800 0.0000
# 3 46.7532 27.0538 108.0253 0.0000 6.5189 0.0000
# 4 0.0000 0.0000 0.0000 27.0835 0.0000 3.1330
# 5 -15.1018 -2.1800 6.5189 0.0000 26.8088 0.0000
# 6 0.0000 0.0000 0.0000 3.1330 0.0000 23.6369
#
#
#
# Elastic Compliance Matrix: (Units=1/GPa)
#
#
# Indices 1 2 3 4 5 6 
#
# 1 0.011448 -0.004082 -0.004366 0.000000 0.007179 0.000000
# 2 -0.004082 0.026384 -0.004903 0.000000 0.001038 0.000000
# 3 -0.004366 -0.004903 0.012734 0.000000 -0.005954 0.000000
# 4 0.000000 0.000000 0.000000 0.037498 0.000000 -0.004970
# 5 0.007179 0.001038 -0.005954 0.000000 0.042877 0.000000
# 6 0.000000 0.000000 0.000000 -0.004970 0.000000 0.042965
#
#
# Mechanical properties :
#
#
# Convention : Reuss Voigt Hill
#
# Bulk Modulus (GPa) = 41.90490 53.90252 47.90371
# Shear Modulus (GPa) = 23.97343 27.36608 25.66976
#
# Velocity S-wave (km/s) = 3.45300 3.68925 3.57308
# Velocity P-wave (km/s) = 6.06128 6.70491 6.39120
#
# Compressibility (1/GPa) = 0.02386356
#
# Stress axis : x y z
#
# Youngs Moduli (GPa) = 87.34802 37.90191 78.53030
#
# Poissons Ratio (x) = 0.15472 0.34284
# Poissons Ratio (y) = 0.35656 0.38507
# Poissons Ratio (z) = 0.38134 0.18585
#
# Static dielectric constant tensor:
#      x y z
#    x 3.738480 0.000000 -0.101360 
#    y 0.000000 3.429720 0.000000 
#    z -0.101360 0.000000 3.869370 
# 
# 
# High freq. dielectric constant tensor:
#      x y z
#    x 1.788120 0.000000 -0.007800 
#    y 0.000000 1.767180 0.000000 
#    z -0.007800 0.000000 1.795490 
# 
# From -- ./inp_files/292566.got.cif
#   From: 2010.06.25/outbox.cif.g09.slc.cpg/sg12_147_cif.got.tgz:292566.got - 2010.06.28 00:19:55.
