data_PCOD8106418
_publ_section_title
;
Structure prediction by ZEFSAII (Michael W. Deem and Ramdas Pophale) SiO2 
 PCOD8106418
Probable space group: C 2/M
;
_chemical_formula_sum "Si O2"
_cell_formula_units_Z 52
_cell_length_a 15.728898
_cell_length_b 15.865087
_cell_length_c 19.597204
_cell_angle_alpha 90.000000
_cell_angle_beta 147.074721
_cell_angle_gamma 90.000000
_cell_volume 2658.093442
_symmetry_space_group_name_H-M "C 2/M"
_symmetry_group_IT_number 12
_symmetry_cell_setting 'monoclinic'
loop_
_space_group_symop_operation_xyz
x,y,z
-x,y,-z
-x,-y,-z
x,-y,z
1/2+x,1/2+y,z
1/2-x,1/2+y,-z
1/2-x,1/2-y,-z
1/2+x,1/2-y,z
loop_
_atom_site_type_symbol
_atom_site_label
_atom_site_fract_x
_atom_site_fract_y
_atom_site_fract_z
Si Si1 0.170791 0.343691 0.831727
Si Si2 0.582871 0.253172 0.421840
Si Si3 0.208911 0.093520 0.226102
Si Si4 0.379884 0.591218 0.479923
Si Si5 0.500000 0.845683 0.500000
Si Si6 0.023951 0.242965 0.936723
Si Si7 0.455798 0.096382 0.800448
O O1 0.249607 0.399821 0.826079
O O2 0.048735 0.278601 0.717281
O O3 0.082070 0.403742 0.824731
O O4 0.300761 0.289366 0.959334
O O5 0.750000 0.250000 0.500000
O O6 0.549520 0.351296 0.413035
O O7 0.578465 0.209350 0.493056
O O8 0.364913 0.096923 0.376724
O O9 0.093294 0.169636 0.169543
O O10 0.134003 0.000000 0.186659
O O11 0.500000 0.587317 0.500000
O O12 0.356489 0.500000 0.497777
O O13 0.212763 0.624453 0.341076
O O14 0.999551 0.333437 0.885539
O O15 0.000000 0.258796 0.000000
O O16 0.451122 0.000000 0.827091
#
# Coordination Sequence:
#
# PCOD8106418 Si02
#       7
#     8   8   8   8   4   8   8
#     4  10  22  37  60  85 115 152 199 239 284 357
#     4  11  20  36  62  85 117 158 191 243 300 347
#     4  10  21  38  61  87 119 155 193 240 292 349
#     4  10  21  36  58  87 116 152 199 243 291 350
#     4  10  21  36  59  90 120 152 201 238 296 354
#     4  10  23  39  58  87 115 152 197 238 289 352
#     4  11  22  39  61  84 116 154 194 243 294 347
#
# _framework density 19.562892999999999
#
# number of rings (size 3 to 8) (size 9 to 14) (size 15 to 20)
#    0.000    1.692    2.308    2.077    4.308    3.692 
#    0.000    1.538    0.000    0.000    0.000    0.000 
#    0.000    0.000    0.000    0.000    0.000    0.000 
#
# Total GULP energy -322291.675405 kJ/mol
# GULP energy per Si atom -12395.833669 kJ/mol
# Density = 1.951837 g / cm^3
# Si number density = 19.562893 Si / 1000 Ang^3
#
#
#
# Elastic Constant Matrix: (Units=GPa)
#
#
# Indices 1 2 3 4 5 6 
#
# 1 81.2723 26.6742 19.8496 -0.0005 10.4628 0.0002
# 2 26.6742 144.1416 58.4293 0.0004 -3.8684 0.0004
# 3 19.8496 58.4293 77.7373 -0.0011 8.1893 0.0005
# 4 -0.0005 0.0004 -0.0011 66.6371 -0.0011 -18.1736
# 5 10.4628 -3.8684 8.1893 -0.0011 27.6184 0.0004
# 6 0.0002 0.0004 0.0005 -18.1736 0.0004 35.7210
#
#
#
# Elastic Compliance Matrix: (Units=1/GPa)
#
#
# Indices 1 2 3 4 5 6 
#
# 1 0.014028 -0.002165 -0.001407 0.000000 -0.005201 0.000000
# 2 -0.002165 0.010700 -0.007983 0.000000 0.004686 0.000000
# 3 -0.001407 -0.007983 0.019907 0.000000 -0.006488 0.000000
# 4 0.000000 0.000000 0.000000 0.017424 0.000000 0.008865
# 5 -0.005201 0.004686 -0.006488 0.000000 0.040758 0.000000
# 6 0.000000 0.000000 0.000000 0.008865 0.000000 0.032505
#
#
# Mechanical properties :
#
#
# Convention : Reuss Voigt Hill
#
# Bulk Modulus (GPa) = 46.45820 57.00639 51.73230
# Shear Modulus (GPa) = 30.19179 39.20852 34.70016
#
# Velocity S-wave (km/s) = 3.93277 4.48172 4.21619
# Velocity P-wave (km/s) = 6.66498 7.48227 7.08542
#
# Compressibility (1/GPa) = 0.02152473
#
# Stress axis : x y z
#
# Youngs Moduli (GPa) = 71.28580 93.45597 50.23375
#
# Poissons Ratio (x) = 0.20237 0.07066
# Poissons Ratio (y) = 0.15436 0.40103
# Poissons Ratio (z) = 0.10027 0.74609
#
# Static dielectric constant tensor:
#      x y z
#    x 3.616350 -0.000040 0.166910 
#    y -0.000040 4.307460 -0.000010 
#    z 0.166910 -0.000010 3.655120 
# 
# 
# High freq. dielectric constant tensor:
#      x y z
#    x 1.760090 0.000000 0.014980 
#    y 0.000000 1.768820 0.000000 
#    z 0.014980 0.000000 1.757800 
# 
# From -- ./inp_files/270591.got.cif
#   From: 2010.06.25/outbox.cif.g09.slc.cpg/sg12_136_cif.got.tgz:270591.got - 2010.06.28 00:19:55.
