data_PCOD8106787
_publ_section_title
;
Structure prediction by ZEFSAII (Michael W. Deem and Ramdas Pophale) SiO2 
 PCOD8106787
Probable space group: C 2/M
;
_chemical_formula_sum "Si O2"
_cell_formula_units_Z 64
_cell_length_a 29.619894
_cell_length_b 9.296024
_cell_length_c 25.367712
_cell_angle_alpha 90.000000
_cell_angle_beta 151.325897
_cell_angle_gamma 90.000000
_cell_volume 3351.557749
_symmetry_space_group_name_H-M "C 2/M"
_symmetry_group_IT_number 12
_symmetry_cell_setting 'monoclinic'
loop_
_space_group_symop_operation_xyz
x,y,z
-x,y,-z
-x,-y,-z
x,-y,z
1/2+x,1/2+y,z
1/2-x,1/2+y,-z
1/2-x,1/2-y,-z
1/2+x,1/2-y,z
loop_
_atom_site_type_symbol
_atom_site_label
_atom_site_fract_x
_atom_site_fract_y
_atom_site_fract_z
Si Si1 0.417584 0.166643 0.785961
Si Si2 0.503478 0.664713 0.777022
Si Si3 0.632514 0.838560 0.746185
Si Si4 0.599102 0.833899 0.029594
Si Si5 0.468786 0.667893 0.625568
Si Si6 0.178198 0.161755 0.017886
Si Si7 0.218322 0.832178 0.626728
Si Si8 0.749970 0.667618 0.238543
O O1 0.446850 0.254572 0.764474
O O2 0.314628 0.217688 0.697844
O O3 0.418983 0.000000 0.771162
O O4 0.487061 0.192674 0.907449
O O5 0.469821 0.500000 0.744582
O O6 0.479594 0.732401 0.695588
O O7 0.617328 0.675832 0.902035
O O8 0.544762 0.735139 0.663988
O O9 0.684550 0.801354 0.744763
O O10 0.592785 0.000000 0.704122
O O11 0.708855 0.820143 0.872389
O O12 0.646276 0.738331 0.123888
O O13 0.621063 0.000000 0.064417
O O14 0.643751 0.788921 0.019952
O O15 0.490033 0.500000 0.648108
O O16 0.364886 0.703677 0.499011
O O17 0.160731 0.000000 0.024664
O O18 0.200152 0.741210 0.660701
O O19 0.220958 0.000000 0.644360
O O20 0.736566 0.500000 0.235847
#
# Coordination Sequence:
#
# PCOD8106787 Si02
#       8
#     8   8   8   8   8   8   8   8
#     4   9  19  35  55  79 107 139 173 211 257 310
#     4   9  18  34  55  79 108 139 172 213 260 308
#     4   9  19  35  54  76 104 136 169 213 265 314
#     4   9  16  29  52  80 106 133 167 208 257 312
#     4  10  22  37  53  76 105 139 180 221 258 302
#     4   8  15  30  51  76 107 138 167 206 258 313
#     4  10  22  39  54  73 105 141 179 219 258 305
#     4  10  21  37  56  79 106 136 171 213 264 315
#
# _framework density 19.095599
#
# number of rings (size 3 to 8) (size 9 to 14) (size 15 to 20)
#    0.000    2.750    0.000    1.500    0.000    6.500 
#    0.000    5.000    0.000    0.000    0.000    0.000 
#    0.000    0.000    0.000    0.000    0.000    0.000 
#
# Total GULP energy -396616.330324 kJ/mol
# GULP energy per Si atom -12394.260323 kJ/mol
# Density = 1.905214 g / cm^3
# Si number density = 19.095599 Si / 1000 Ang^3
#
#
#
# Elastic Constant Matrix: (Units=GPa)
#
#
# Indices 1 2 3 4 5 6 
#
# 1 65.5269 34.9548 37.9756 0.0000 2.0877 0.0000
# 2 34.9548 65.6903 42.0062 0.0000 -0.3979 0.0000
# 3 37.9756 42.0062 98.3318 0.0000 -1.1491 0.0000
# 4 0.0000 0.0000 0.0000 25.6480 0.0000 -0.9810
# 5 2.0877 -0.3979 -1.1491 0.0000 33.7988 0.0000
# 6 0.0000 0.0000 0.0000 -0.9810 0.0000 26.7833
#
#
#
# Elastic Compliance Matrix: (Units=1/GPa)
#
#
# Indices 1 2 3 4 5 6 
#
# 1 0.023080 -0.009052 -0.005067 0.000000 -0.001704 0.000000
# 2 -0.009052 0.024494 -0.006961 0.000000 0.000611 0.000000
# 3 -0.005067 -0.006961 0.015109 0.000000 0.000745 0.000000
# 4 0.000000 0.000000 0.000000 0.039044 0.000000 0.001430
# 5 -0.001704 0.000611 0.000745 0.000000 0.029725 0.000000
# 6 0.000000 0.000000 0.000000 0.001430 0.000000 0.037389
#
#
# Mechanical properties :
#
#
# Convention : Reuss Voigt Hill
#
# Bulk Modulus (GPa) = 48.72151 51.04692 49.88421
# Shear Modulus (GPa) = 22.95255 24.88684 23.91969
#
# Velocity S-wave (km/s) = 3.47072 3.61401 3.54309
# Velocity P-wave (km/s) = 6.45222 6.64869 6.55119
#
# Compressibility (1/GPa) = 0.02052482
#
# Stress axis : x y z
#
# Youngs Moduli (GPa) = 43.32742 40.82580 66.18720
#
# Poissons Ratio (x) = 0.36954 0.33535
# Poissons Ratio (y) = 0.39218 0.46072
# Poissons Ratio (z) = 0.21952 0.28418
#
# Static dielectric constant tensor:
#      x y z
#    x 3.161240 0.000000 -0.029400 
#    y 0.000000 3.454240 0.000000 
#    z -0.029400 0.000000 3.790820 
# 
# 
# High freq. dielectric constant tensor:
#      x y z
#    x 1.712190 0.000000 -0.001120 
#    y 0.000000 1.740940 0.000000 
#    z -0.001120 0.000000 1.753430 
# 
# From -- ./inp_files/353506.got.cif
#   From: 2010.06.25/outbox.cif.g09.slc.cpg/sg12_177_cif.got.tgz:353506.got - 2010.06.28 00:19:55.
