data_PCOD8106173
_publ_section_title
;
Structure prediction by ZEFSAII (Michael W. Deem and Ramdas Pophale) SiO2 
 PCOD8106173
Probable space group: C 2/M
;
_chemical_formula_sum "Si O2"
_cell_formula_units_Z 64
_cell_length_a 9.516202
_cell_length_b 22.985356
_cell_length_c 31.564458
_cell_angle_alpha 90.000000
_cell_angle_beta 151.385779
_cell_angle_gamma 90.000000
_cell_volume 3306.487706
_symmetry_space_group_name_H-M "C 2/M"
_symmetry_group_IT_number 12
_symmetry_cell_setting 'monoclinic'
loop_
_space_group_symop_operation_xyz
x,y,z
-x,y,-z
-x,-y,-z
x,-y,z
1/2+x,1/2+y,z
1/2-x,1/2+y,-z
1/2-x,1/2-y,-z
1/2+x,1/2-y,z
loop_
_atom_site_type_symbol
_atom_site_label
_atom_site_fract_x
_atom_site_fract_y
_atom_site_fract_z
Si Si1 0.726122 0.564880 0.455213
Si Si2 0.868211 0.189000 0.266184
Si Si3 0.869341 0.835660 0.509051
Si Si4 0.595459 0.566591 0.072537
Si Si5 0.162610 0.280594 0.922928
Si Si6 0.635648 0.254954 0.643454
Si Si7 0.774690 0.657445 0.976834
Si Si8 0.211416 0.064579 0.733327
O O1 0.784428 0.500000 0.487158
O O2 0.738451 0.605342 0.498855
O O3 0.415873 0.567751 0.348037
O O4 0.000000 0.586259 0.500000
O O5 0.524737 0.196952 0.166040
O O6 0.927703 0.216191 0.327989
O O7 0.937099 0.119466 0.281832
O O8 0.051776 0.222797 0.278660
O O9 0.604887 0.792454 0.430906
O O10 0.000000 0.856273 0.500000
O O11 0.116314 0.805932 0.603715
O O12 0.493117 0.500000 0.050661
O O13 0.431696 0.603751 0.065248
O O14 0.939604 0.572963 0.172785
O O15 0.500000 0.588323 0.000000
O O16 0.089414 0.212298 0.910130
O O17 0.500000 0.290511 0.000000
O O18 0.065277 0.317479 0.938649
O O19 0.000000 0.636041 0.000000
O O20 0.131558 0.000000 0.731424
#
# Coordination Sequence:
#
# PCOD8106173 Si02
#       8
#     8   8   8   8   8   8   8   8
#     4  10  21  38  64  89 115 160 204 245 300 359
#     4  12  23  39  61  91 121 155 206 246 300 362
#     4  11  22  41  57  86 126 150 195 244 310 355
#     4  10  21  39  63  87 116 162 208 246 294 353
#     4  10  23  38  57  84 122 165 196 242 299 357
#     4  11  25  37  59  91 115 161 189 253 301 360
#     4  10  21  36  55  86 119 160 194 249 300 350
#     4  10  21  37  61  90 116 154 204 249 288 350
#
# _framework density 19.355886000000002
#
# number of rings (size 3 to 8) (size 9 to 14) (size 15 to 20)
#    0.000    1.500    2.500    2.625    7.000    1.000 
#    0.000    0.000    0.000    0.000    0.000    0.000 
#    0.000    0.000    0.000    0.000    0.000    0.000 
#
# Total GULP energy -396618.355679 kJ/mol
# GULP energy per Si atom -12394.323615 kJ/mol
# Density = 1.931183 g / cm^3
# Si number density = 19.355886 Si / 1000 Ang^3
#
#
#
# Elastic Constant Matrix: (Units=GPa)
#
#
# Indices 1 2 3 4 5 6 
#
# 1 105.1724 54.2573 24.1063 -0.0162 0.5175 -0.0067
# 2 54.2573 110.7184 19.1151 0.0007 5.9658 -0.0046
# 3 24.1063 19.1151 89.0514 0.0061 -3.1950 0.0140
# 4 -0.0162 0.0007 0.0061 1.1312 -0.0071 5.3006
# 5 0.5175 5.9658 -3.1950 -0.0071 23.1057 -0.0074
# 6 -0.0067 -0.0046 0.0140 5.3006 -0.0074 28.3104
#
#
#
# Elastic Compliance Matrix: (Units=1/GPa)
#
#
# Indices 1 2 3 4 5 6 
#
# 1 0.013171 -0.006125 -0.002216 0.001578 0.000980 -0.000292
# 2 -0.006125 0.012400 -0.001119 -0.000901 -0.003219 0.000169
# 3 -0.002216 -0.001119 0.012142 -0.000443 0.002017 0.000077
# 4 0.001578 -0.000901 -0.000443 7.209440 0.001933 -1.349846
# 5 0.000980 -0.003219 0.002017 0.001933 0.044368 -0.000352
# 6 -0.000292 0.000169 0.000077 -1.349846 -0.000352 0.288059
#
#
# Mechanical properties :
#
#
# Convention : Reuss Voigt Hill
#
# Bulk Modulus (GPa) = 53.20888 55.54440 54.37664
# Shear Modulus (GPa) = 0.65748 24.34036 12.49892
#
# Velocity S-wave (km/s) = 0.58345 3.55000 2.54390
# Velocity P-wave (km/s) = 5.29182 6.74996 6.06487
#
# Compressibility (1/GPa) = 0.01879386
#
# Stress axis : x y z
#
# Youngs Moduli (GPa) = 75.92342 80.64462 82.35960
#
# Poissons Ratio (x) = 0.49393 0.18248
# Poissons Ratio (y) = 0.46502 0.09218
# Poissons Ratio (z) = 0.16822 0.09026
#
# Static dielectric constant tensor:
#      x y z
#    x 3.604720 -0.000150 -0.004310 
#    y -0.000150 3.885540 -0.000130 
#    z -0.004310 -0.000130 3.606330 
# 
# 
# High freq. dielectric constant tensor:
#      x y z
#    x 1.727460 0.000000 -0.003210 
#    y 0.000000 1.772210 0.000000 
#    z -0.003210 0.000000 1.754910 
# 
# From -- ./inp_files/373299.got.cif
#   From: 2010.06.25/outbox.cif.g09.slc.cpg/sg12_187_cif.got.tgz:373299.got - 2010.06.28 00:19:55.
