data_PCOD8106645
_publ_section_title
;
Structure prediction by ZEFSAII (Michael W. Deem and Ramdas Pophale) SiO2 
 PCOD8106645
Probable space group: C 2/M
;
_chemical_formula_sum "Si O2"
_cell_formula_units_Z 32
_cell_length_a 18.641685
_cell_length_b 7.617100
_cell_length_c 10.578374
_cell_angle_alpha 90.000000
_cell_angle_beta 80.522823
_cell_angle_gamma 90.000000
_cell_volume 1481.580819
_symmetry_space_group_name_H-M "C 2/M"
_symmetry_group_IT_number 12
_symmetry_cell_setting 'monoclinic'
loop_
_space_group_symop_operation_xyz
x,y,z
-x,y,-z
-x,-y,-z
x,-y,z
1/2+x,1/2+y,z
1/2-x,1/2+y,-z
1/2-x,1/2-y,-z
1/2+x,1/2-y,z
loop_
_atom_site_type_symbol
_atom_site_label
_atom_site_fract_x
_atom_site_fract_y
_atom_site_fract_z
Si Si1 0.936739 0.500000 0.916286
Si Si2 0.327786 0.298544 0.923699
Si Si3 0.720877 0.702568 0.336092
Si Si4 0.864094 0.198074 0.395395
Si Si5 0.024789 0.500000 0.639752
O O1 0.889465 0.672925 0.961690
O O2 0.960649 0.500000 0.762055
O O3 0.000000 0.500000 0.000000
O O4 0.347871 0.500000 0.948598
O O5 0.324679 0.261944 0.775560
O O6 0.250000 0.250000 0.000000
O O7 0.739283 0.500000 0.351111
O O8 0.799243 0.799817 0.310067
O O9 0.670447 0.771033 0.464384
O O10 0.930050 0.324706 0.341204
O O11 0.894814 0.000000 0.398539
O O12 0.000000 0.500000 0.500000
#
# Coordination Sequence:
#
# PCOD8106645 Si02
#       5
#     4   8   8   8   4
#     4  12  30  48  68 104 149 181 223 288 356 413
#     4  11  24  44  72  98 130 182 236 283 331 410
#     4   9  19  37  63  98 133 162 230 285 332 388
#     4  10  21  36  63  98 129 173 220 284 334 404
#     4  12  26  44  66  92 144 181 221 269 361 406
#
# _framework density 21.598552000000002
#
# number of rings (size 3 to 8) (size 9 to 14) (size 15 to 20)
#    0.000    1.500    2.500    1.500    7.000    2.000 
#    0.000    0.000    0.000    0.000    0.000    0.000 
#    0.000    0.000    0.000    0.000    0.000    0.000 
#
# Total GULP energy -198414.621978 kJ/mol
# GULP energy per Si atom -12400.913874 kJ/mol
# Density = 2.154939 g / cm^3
# Si number density = 21.598552 Si / 1000 Ang^3
#
#
#
# Elastic Constant Matrix: (Units=GPa)
#
#
# Indices 1 2 3 4 5 6 
#
# 1 119.2791 74.7514 30.9614 0.0000 -1.1369 0.0000
# 2 74.7514 152.2301 29.4884 0.0000 3.1040 0.0000
# 3 30.9614 29.4884 58.6065 0.0000 3.6849 0.0000
# 4 0.0000 0.0000 0.0000 25.8623 0.0000 -0.1037
# 5 -1.1369 3.1040 3.6849 0.0000 36.0108 0.0000
# 6 0.0000 0.0000 0.0000 -0.1037 0.0000 40.1290
#
#
#
# Elastic Compliance Matrix: (Units=1/GPa)
#
#
# Indices 1 2 3 4 5 6 
#
# 1 0.012975 -0.005600 -0.004120 0.000000 0.001314 0.000000
# 2 -0.005600 0.009698 -0.001869 0.000000 -0.000821 0.000000
# 3 -0.004120 -0.001869 0.020309 0.000000 -0.002047 0.000000
# 4 0.000000 0.000000 0.000000 0.038667 0.000000 0.000100
# 5 0.001314 -0.000821 -0.002047 0.000000 0.028091 0.000000
# 6 0.000000 0.000000 0.000000 0.000100 0.000000 0.024920
#
#
# Mechanical properties :
#
#
# Convention : Reuss Voigt Hill
#
# Bulk Modulus (GPa) = 50.49631 66.72423 58.61027
# Shear Modulus (GPa) = 30.40654 33.39473 31.90063
#
# Velocity S-wave (km/s) = 3.75614 3.93638 3.84732
# Velocity P-wave (km/s) = 6.49936 7.18472 6.85062
#
# Compressibility (1/GPa) = 0.01980343
#
# Stress axis : x y z
#
# Youngs Moduli (GPa) = 77.07085 103.11666 49.24028
#
# Poissons Ratio (x) = 0.57746 0.20285
# Poissons Ratio (y) = 0.43160 0.09205
# Poissons Ratio (z) = 0.31749 0.19276
#
# Static dielectric constant tensor:
#      x y z
#    x 3.777390 0.000000 -0.129290 
#    y 0.000000 4.452400 0.000000 
#    z -0.129290 0.000000 5.719350 
# 
# 
# High freq. dielectric constant tensor:
#      x y z
#    x 1.836660 0.000000 0.001760 
#    y 0.000000 1.859670 0.000000 
#    z 0.001760 0.000000 1.843200 
# 
# From -- ./inp_files/150987.got.cif
#   From: 2010.06.25/outbox.cif.g09.slc.cpg/sg12_76_cif.got.tgz:150987.got - 2010.06.28 00:19:55.
