data_PCOD8106298
_publ_section_title
;
Structure prediction by ZEFSAII (Michael W. Deem and Ramdas Pophale) SiO2 
 PCOD8106298
Probable space group: C 2/M
;
_chemical_formula_sum "Si O2"
_cell_formula_units_Z 56
_cell_length_a 17.046506
_cell_length_b 13.704430
_cell_length_c 14.753750
_cell_angle_alpha 90.000000
_cell_angle_beta 129.486606
_cell_angle_gamma 90.000000
_cell_volume 2660.042030
_symmetry_space_group_name_H-M "C 2/M"
_symmetry_group_IT_number 12
_symmetry_cell_setting 'monoclinic'
loop_
_space_group_symop_operation_xyz
x,y,z
-x,y,-z
-x,-y,-z
x,-y,z
1/2+x,1/2+y,z
1/2-x,1/2+y,-z
1/2-x,1/2-y,-z
1/2+x,1/2-y,z
loop_
_atom_site_type_symbol
_atom_site_label
_atom_site_fract_x
_atom_site_fract_y
_atom_site_fract_z
Si Si1 0.437254 0.888622 0.368926
Si Si2 0.506344 0.109280 0.222605
Si Si3 0.388971 0.702344 0.098214
Si Si4 0.738280 0.237042 0.838064
Si Si5 0.088596 0.890206 0.291480
Si Si6 0.091678 0.888078 0.502359
Si Si7 0.299641 0.208660 0.699883
O O1 0.500000 0.843377 0.500000
O O2 0.507493 0.878563 0.331911
O O3 0.331074 0.834702 0.272986
O O4 0.409344 0.000000 0.370440
O O5 0.427533 0.185042 0.119647
O O6 0.621051 0.128713 0.276301
O O7 0.473351 0.000000 0.169948
O O8 0.328753 0.689732 0.149225
O O9 0.483601 0.629317 0.160857
O O10 0.314335 0.677771 0.960134
O O11 0.805272 0.294623 0.813595
O O12 0.059138 0.874810 0.374570
O O13 0.175069 0.815765 0.322056
O O14 0.126814 0.000000 0.300042
O O15 0.187341 0.818950 0.586999
O O16 0.000000 0.853372 0.500000
O O17 0.120520 0.000000 0.545610
#
# Coordination Sequence:
#
# PCOD8106298 Si02
#       7
#     8   8   8   8   8   8   8
#     4   9  19  36  58  83 111 147 192 238 281 330
#     4   9  19  37  59  83 113 147 185 233 286 337
#     4   9  20  40  59  80 110 149 193 238 278 331
#     4  10  21  36  57  83 112 146 192 236 282 337
#     4  10  22  38  57  83 116 153 190 231 283 342
#     4  10  21  38  60  86 115 149 191 235 282 339
#     4  11  22  36  57  84 116 150 184 233 289 340
#
# _framework density 21.052298
#
# number of rings (size 3 to 8) (size 9 to 14) (size 15 to 20)
#    0.000    2.286    0.000    1.714    0.000    8.571 
#    0.000    8.571    0.000    0.429    0.000    0.000 
#    0.000    0.000    0.000    0.000    0.000    0.000 
#
# Total GULP energy -347176.364735 kJ/mol
# GULP energy per Si atom -12399.155883 kJ/mol
# Density = 2.100438 g / cm^3
# Si number density = 21.052298 Si / 1000 Ang^3
#
#
#
# Elastic Constant Matrix: (Units=GPa)
#
#
# Indices 1 2 3 4 5 6 
#
# 1 126.5965 39.3676 40.5521 0.0000 8.4110 0.0000
# 2 39.3676 89.7831 36.3663 0.0000 2.4562 0.0000
# 3 40.5521 36.3663 136.3233 0.0000 6.7211 0.0000
# 4 0.0000 0.0000 0.0000 18.3527 0.0000 -0.1446
# 5 8.4110 2.4562 6.7211 0.0000 28.4697 0.0000
# 6 0.0000 0.0000 0.0000 -0.1446 0.0000 21.6282
#
#
#
# Elastic Compliance Matrix: (Units=1/GPa)
#
#
# Indices 1 2 3 4 5 6 
#
# 1 0.009709 -0.003444 -0.001864 0.000000 -0.002131 0.000000
# 2 -0.003444 0.013711 -0.002656 0.000000 0.000461 0.000000
# 3 -0.001864 -0.002656 0.008661 0.000000 -0.001265 0.000000
# 4 0.000000 0.000000 0.000000 0.054491 0.000000 0.000364
# 5 -0.002131 0.000461 -0.001265 0.000000 0.036013 0.000000
# 6 0.000000 0.000000 0.000000 0.000364 0.000000 0.046238
#
#
# Mechanical properties :
#
#
# Convention : Reuss Voigt Hill
#
# Bulk Modulus (GPa) = 61.90855 65.03054 63.46955
# Shear Modulus (GPa) = 26.29702 29.45125 27.87413
#
# Velocity S-wave (km/s) = 3.53813 3.74432 3.64269
# Velocity P-wave (km/s) = 6.79427 7.04630 6.92143
#
# Compressibility (1/GPa) = 0.01615286
#
# Stress axis : x y z
#
# Youngs Moduli (GPa) = 102.99985 72.93377 115.46035
#
# Poissons Ratio (x) = 0.25115 0.21526
# Poissons Ratio (y) = 0.35469 0.30667
# Poissons Ratio (z) = 0.19203 0.19371
#
# Static dielectric constant tensor:
#      x y z
#    x 3.947900 0.000000 -0.114080 
#    y 0.000000 3.760550 0.000000 
#    z -0.114080 0.000000 3.734090 
# 
# 
# High freq. dielectric constant tensor:
#      x y z
#    x 1.835630 0.000000 -0.001480 
#    y 0.000000 1.811750 0.000000 
#    z -0.001480 0.000000 1.817640 
# 
# From -- ./inp_files/225409.got.cif
#   From: 2010.06.25/outbox.cif.g09.slc.cpg/sg12_113_cif.got.tgz:225409.got - 2010.06.28 00:19:55.
