data_PCOD8106025
_publ_section_title
;
Structure prediction by ZEFSAII (Michael W. Deem and Ramdas Pophale) SiO2 
 PCOD8106025
Probable space group: C 2/M
;
_chemical_formula_sum "Si O2"
_cell_formula_units_Z 56
_cell_length_a 27.529182
_cell_length_b 18.520674
_cell_length_c 18.556507
_cell_angle_alpha 90.000000
_cell_angle_beta 18.407601
_cell_angle_gamma 90.000000
_cell_volume 2987.610315
_symmetry_space_group_name_H-M "C 2/M"
_symmetry_group_IT_number 12
_symmetry_cell_setting 'monoclinic'
loop_
_space_group_symop_operation_xyz
x,y,z
-x,y,-z
-x,-y,-z
x,-y,z
1/2+x,1/2+y,z
1/2-x,1/2+y,-z
1/2-x,1/2-y,-z
1/2+x,1/2-y,z
loop_
_atom_site_type_symbol
_atom_site_label
_atom_site_fract_x
_atom_site_fract_y
_atom_site_fract_z
Si Si1 0.046962 0.658030 0.599503
Si Si2 0.914865 0.315625 0.042987
Si Si3 0.094463 0.175414 0.554268
Si Si4 0.235395 0.177785 0.976215
Si Si5 0.674367 0.669581 0.896921
Si Si6 0.583576 0.918521 0.694624
Si Si7 0.896720 0.081515 0.324041
O O1 0.058390 0.739409 0.614825
O O2 0.183347 0.645057 0.351474
O O3 0.052711 0.603376 0.656869
O O4 0.889550 0.634956 0.779905
O O5 0.732670 0.336913 0.303626
O O6 0.923248 0.235087 0.999932
O O7 0.000000 0.318036 0.000000
O O8 0.991702 0.370830 0.880824
O O9 0.150755 0.139627 0.548837
O O10 0.927012 0.139782 0.769982
O O11 0.232266 0.192094 0.894894
O O12 0.250000 0.250000 0.000000
O O13 0.561422 0.600935 0.058344
O O14 0.766432 0.911929 0.447100
O O15 0.526593 0.000000 0.787269
O O16 0.903827 0.000000 0.345541
#
# Coordination Sequence:
#
# PCOD8106025 Si02
#       7
#     8   8   8   8   8   8   8
#     4  10  21  37  59  83 113 150 188 236 276 333
#     4  11  21  35  59  88 116 144 185 237 289 340
#     4   9  19  35  58  86 108 144 186 233 284 332
#     4   9  17  36  59  85 115 144 185 235 284 332
#     4  10  22  35  59  89 113 146 188 235 284 336
#     4  11  24  38  55  81 117 155 191 231 283 341
#     4  10  21  36  54  79 115 151 184 229 280 338
#
# _framework density 18.744078999999999
#
# number of rings (size 3 to 8) (size 9 to 14) (size 15 to 20)
#    0.000    2.000    1.429    3.000    4.000    2.571 
#    0.000    6.429    0.000    5.143    0.000    0.000 
#    0.000    0.000    0.000    0.000    0.000    0.000 
#
# Total GULP energy -346986.639712 kJ/mol
# GULP energy per Si atom -12392.379990 kJ/mol
# Density = 1.870142 g / cm^3
# Si number density = 18.744079 Si / 1000 Ang^3
#
#
#
# Elastic Constant Matrix: (Units=GPa)
#
#
# Indices 1 2 3 4 5 6 
#
# 1 114.1489 26.3252 61.0542 -0.0044 2.1766 0.0045
# 2 26.3252 48.2421 46.0926 -0.0048 -3.2663 0.0045
# 3 61.0542 46.0926 122.1824 0.0017 -5.6168 0.0051
# 4 -0.0044 -0.0048 0.0017 16.1100 0.0017 -2.4718
# 5 2.1766 -3.2663 -5.6168 0.0017 24.7997 -0.0040
# 6 0.0045 0.0045 0.0051 -2.4718 -0.0040 17.3305
#
#
#
# Elastic Compliance Matrix: (Units=1/GPa)
#
#
# Indices 1 2 3 4 5 6 
#
# 1 0.012162 -0.001392 -0.005669 0.000004 -0.002535 -0.000001
# 2 -0.001392 0.032627 -0.011529 0.000010 0.001808 -0.000003
# 3 -0.005669 -0.011529 0.015481 -0.000007 0.002485 0.000000
# 4 0.000004 0.000010 -0.000007 0.063462 -0.000003 0.009052
# 5 -0.002535 0.001808 0.002485 -0.000003 0.041347 0.000008
# 6 -0.000001 -0.000003 0.000000 0.009052 0.000008 0.058993
#
#
# Mechanical properties :
#
#
# Convention : Reuss Voigt Hill
#
# Bulk Modulus (GPa) = 43.31107 61.27973 52.29540
# Shear Modulus (GPa) = 18.59102 21.72146 20.15624
#
# Velocity S-wave (km/s) = 3.15276 3.40787 3.28279
# Velocity P-wave (km/s) = 6.03406 6.94612 6.50609
#
# Compressibility (1/GPa) = 0.02308878
#
# Stress axis : x y z
#
# Youngs Moduli (GPa) = 82.22470 30.64988 64.59667
#
# Poissons Ratio (x) = 0.04267 0.36617
# Poissons Ratio (y) = 0.11447 0.74476
# Poissons Ratio (z) = 0.46609 0.35337
#
# Static dielectric constant tensor:
#      x y z
#    x 3.665080 -0.000010 -0.290100 
#    y -0.000010 3.253640 0.000010 
#    z -0.290100 0.000010 3.984840 
# 
# 
# High freq. dielectric constant tensor:
#      x y z
#    x 1.726190 0.000000 -0.008340 
#    y 0.000000 1.700710 0.000000 
#    z -0.008340 0.000000 1.749700 
# 
# From -- ./inp_files/293832.got.cif
#   From: 2010.06.25/outbox.cif.g09.slc.cpg/sg12_147_cif.got.tgz:293832.got - 2010.06.28 00:19:55.
