data_PCOD8106506
_publ_section_title
;
Structure prediction by ZEFSAII (Michael W. Deem and Ramdas Pophale) SiO2 
 PCOD8106506
Probable space group: C 2/M
;
_chemical_formula_sum "Si O2"
_cell_formula_units_Z 64
_cell_length_a 26.239482
_cell_length_b 18.032327
_cell_length_c 23.681250
_cell_angle_alpha 90.000000
_cell_angle_beta 16.578564
_cell_angle_gamma 90.000000
_cell_volume 3197.119015
_symmetry_space_group_name_H-M "C 2/M"
_symmetry_group_IT_number 12
_symmetry_cell_setting 'monoclinic'
loop_
_space_group_symop_operation_xyz
x,y,z
-x,y,-z
-x,-y,-z
x,-y,z
1/2+x,1/2+y,z
1/2-x,1/2+y,-z
1/2-x,1/2-y,-z
1/2+x,1/2-y,z
loop_
_atom_site_type_symbol
_atom_site_label
_atom_site_fract_x
_atom_site_fract_y
_atom_site_fract_z
Si Si1 0.835841 0.087958 0.027414
Si Si2 0.659412 0.913629 0.989668
Si Si3 0.503262 0.837000 0.561772
Si Si4 0.257098 0.913878 0.392773
Si Si5 0.092516 0.087712 0.173403
Si Si6 0.641380 0.315811 0.311437
Si Si7 0.150594 0.682205 0.805303
Si Si8 0.591571 0.660873 0.844402
O O1 0.640418 0.112806 0.253713
O O2 0.845686 0.000000 0.018184
O O3 0.868446 0.120254 0.929710
O O4 0.995595 0.118738 0.895751
O O5 0.753601 0.885307 0.946692
O O6 0.735824 0.869151 0.855361
O O7 0.698718 0.000000 0.937261
O O8 0.448269 0.897839 0.218468
O O9 0.500000 0.859416 0.500000
O O10 0.448183 0.750153 0.629990
O O11 0.696493 0.856267 0.382660
O O12 0.236670 0.871413 0.354765
O O13 0.101543 0.884467 0.599007
O O14 0.230832 0.000000 0.406982
O O15 0.093521 0.000000 0.169339
O O16 0.500000 0.363745 0.500000
O O17 0.742982 0.276344 0.256659
O O18 0.064390 0.750690 0.862126
O O19 0.000000 0.635048 0.000000
O O20 0.500000 0.634623 0.000000
#
# Coordination Sequence:
#
# PCOD8106506 Si02
#       8
#     8   8   8   8   8   8   8   8
#     4  11  25  43  66  91 116 152 200 250 302 369
#     4  10  21  37  60  88 122 165 209 251 286 335
#     4  11  21  41  63  89 123 158 187 238 307 368
#     4  10  21  36  59  88 122 163 206 251 293 339
#     4   9  21  42  60  82 120 161 202 248 300 349
#     4  11  20  35  59  86 123 167 198 233 299 359
#     4  11  19  33  59  86 122 162 195 240 293 351
#     4  11  22  40  64  90 123 158 191 237 308 370
#
# _framework density 20.018021000000001
#
# number of rings (size 3 to 8) (size 9 to 14) (size 15 to 20)
#    0.000    1.500    5.000    1.500    0.000    3.000 
#    0.000    3.750    0.000    0.000    0.000    0.000 
#    0.000    0.000    0.000    0.000    0.000    0.000 
#
# Total GULP energy -396519.404996 kJ/mol
# GULP energy per Si atom -12391.231406 kJ/mol
# Density = 1.997246 g / cm^3
# Si number density = 20.018021 Si / 1000 Ang^3
#
#
#
# Elastic Constant Matrix: (Units=GPa)
#
#
# Indices 1 2 3 4 5 6 
#
# 1 137.9050 47.4410 75.4680 0.0401 4.0170 0.0825
# 2 47.4410 60.1809 39.5386 -0.2596 5.3273 -0.2788
# 3 75.4680 39.5386 152.3633 -0.1188 0.1947 -0.2253
# 4 0.0401 -0.2596 -0.1188 14.5949 -0.0470 -17.7372
# 5 4.0170 5.3273 0.1947 -0.0470 40.7496 -0.0103
# 6 0.0825 -0.2788 -0.2253 -17.7372 -0.0103 2.9678
#
#
#
# Elastic Compliance Matrix: (Units=1/GPa)
#
#
# Indices 1 2 3 4 5 6 
#
# 1 0.011769 -0.006534 -0.004132 0.000273 -0.000286 0.000375
# 2 -0.006534 0.023934 -0.002973 -0.000492 -0.002471 -0.000743
# 3 -0.004132 -0.002973 0.009380 -0.000113 0.000751 -0.000123
# 4 0.000273 -0.000492 -0.000113 -0.010926 0.000009 -0.065360
# 5 -0.000286 -0.002471 0.000751 0.000009 0.024888 -0.000028
# 6 0.000375 -0.000743 -0.000123 -0.065360 -0.000028 -0.053769
#
#
# Mechanical properties :
#
#
# Convention : Reuss Voigt Hill
#
# Bulk Modulus (GPa) = 56.16671 75.03826 65.60249
# Shear Modulus (GPa) = 129.90552 24.19589 77.05070
#
# Velocity S-wave (km/s) = 8.06444 3.48042 6.21082
# Velocity P-wave (km/s) = 10.71599 7.32924 9.18015
#
# Compressibility (1/GPa) = 0.01780414
#
# Stress axis : x y z
#
# Youngs Moduli (GPa) = 84.97132 41.78203 106.60597
#
# Poissons Ratio (x) = 0.27301 0.44055
# Poissons Ratio (y) = 0.55521 0.31691
# Poissons Ratio (z) = 0.35114 0.12421
#
# Static dielectric constant tensor:
#      x y z
#    x 3.746660 -0.000100 -0.161990 
#    y -0.000100 3.316970 0.000500 
#    z -0.161990 0.000500 4.153390 
# 
# 
# High freq. dielectric constant tensor:
#      x y z
#    x 1.774910 -0.000010 -0.013910 
#    y -0.000010 1.749690 0.000030 
#    z -0.013910 0.000030 1.805350 
# 
# From -- ./inp_files/326087.got.cif
#   From: 2010.06.25/outbox.cif.g09.slc.cpg/sg12_164_cif.got.tgz:326087.got - 2010.06.28 00:19:55.
