data_PCOD8106458
_publ_section_title
;
Structure prediction by ZEFSAII (Michael W. Deem and Ramdas Pophale) SiO2 
 PCOD8106458
Probable space group: C 2/M
;
_chemical_formula_sum "Si O2"
_cell_formula_units_Z 64
_cell_length_a 27.883751
_cell_length_b 8.933181
_cell_length_c 24.355193
_cell_angle_alpha 90.000000
_cell_angle_beta 148.799733
_cell_angle_gamma 90.000000
_cell_volume 3142.712483
_symmetry_space_group_name_H-M "C 2/M"
_symmetry_group_IT_number 12
_symmetry_cell_setting 'monoclinic'
loop_
_space_group_symop_operation_xyz
x,y,z
-x,y,-z
-x,-y,-z
x,-y,z
1/2+x,1/2+y,z
1/2-x,1/2+y,-z
1/2-x,1/2-y,-z
1/2+x,1/2-y,z
loop_
_atom_site_type_symbol
_atom_site_label
_atom_site_fract_x
_atom_site_fract_y
_atom_site_fract_z
Si Si1 0.074429 0.829952 0.940184
Si Si2 0.598627 0.171553 0.245326
Si Si3 0.247953 0.671589 0.306709
Si Si4 0.602199 0.329441 0.088236
Si Si5 0.847989 0.828464 0.598009
Si Si6 0.484267 0.671929 0.311974
Si Si7 0.953896 0.178432 0.510780
Si Si8 0.149813 0.677838 0.906552
O O1 0.111563 0.724000 0.928568
O O2 0.973425 0.769739 0.860293
O O3 0.069684 0.000000 0.913316
O O4 0.131695 0.820218 0.052730
O O5 0.701096 0.188252 0.320701
O O6 0.591613 0.240378 0.298666
O O7 0.566676 0.000000 0.215948
O O8 0.256792 0.500000 0.297905
O O9 0.183935 0.745043 0.198574
O O10 0.349597 0.745103 0.409724
O O11 0.600836 0.500000 0.107614
O O12 0.500000 0.259346 0.000000
O O13 0.750000 0.750000 0.500000
O O14 0.908245 0.816892 0.601766
O O15 0.832186 0.000000 0.599803
O O16 0.450452 0.500000 0.275153
O O17 0.486822 0.730821 0.377726
O O18 0.414944 0.769234 0.207230
O O19 0.000000 0.238590 0.500000
O O20 0.949628 0.000000 0.508017
O O21 0.157927 0.500000 0.911289
O O22 0.250000 0.750000 0.000000
#
# Coordination Sequence:
#
# PCOD8106458 Si02
#       8
#     8   8   8   8   8   8   8   8
#     4  11  22  39  61  87 122 163 207 252 309 371
#     4  11  21  34  55  85 121 157 200 254 312 372
#     4  10  21  36  58  90 124 159 209 263 308 366
#     4  10  21  37  58  86 124 167 207 252 313 379
#     4  11  22  35  56  85 122 162 204 254 312 374
#     4  10  21  40  64  90 124 162 203 256 310 362
#     4   9  19  38  63  89 119 159 204 253 305 360
#     4  12  26  44  67  94 126 163 209 258 311 372
#
# _framework density 20.364571999999999
#
# number of rings (size 3 to 8) (size 9 to 14) (size 15 to 20)
#    0.000    1.500    2.500    3.000    0.000    5.250 
#    0.000    1.875    0.000    0.750    0.000    0.000 
#    0.000    0.000    0.000    0.000    0.000    0.000 
#
# Total GULP energy -396699.960054 kJ/mol
# GULP energy per Si atom -12396.873752 kJ/mol
# Density = 2.031822 g / cm^3
# Si number density = 20.364572 Si / 1000 Ang^3
#
#
#
# Elastic Constant Matrix: (Units=GPa)
#
#
# Indices 1 2 3 4 5 6 
#
# 1 104.9819 38.6637 51.5244 0.0000 -8.0888 0.0000
# 2 38.6637 95.9916 47.8216 0.0000 -4.5847 0.0000
# 3 51.5244 47.8216 111.8654 0.0000 -1.4443 0.0000
# 4 0.0000 0.0000 0.0000 33.9342 0.0000 1.1150
# 5 -8.0888 -4.5847 -1.4443 0.0000 37.2655 0.0000
# 6 0.0000 0.0000 0.0000 1.1150 0.0000 24.0944
#
#
#
# Elastic Compliance Matrix: (Units=1/GPa)
#
#
# Indices 1 2 3 4 5 6 
#
# 1 0.013084 -0.002760 -0.004817 0.000000 0.002314 0.000000
# 2 -0.002760 0.013893 -0.004656 0.000000 0.000930 0.000000
# 3 -0.004817 -0.004656 0.013134 0.000000 -0.001109 0.000000
# 4 0.000000 0.000000 0.000000 0.029514 0.000000 -0.001366
# 5 0.002314 0.000930 -0.001109 0.000000 0.027408 0.000000
# 6 0.000000 0.000000 0.000000 -0.001366 0.000000 0.041567
#
#
# Mechanical properties :
#
#
# Convention : Reuss Voigt Hill
#
# Bulk Modulus (GPa) = 63.91439 65.42871 64.67155
# Shear Modulus (GPa) = 29.71229 30.71410 30.21319
#
# Velocity S-wave (km/s) = 3.82385 3.88778 3.85595
# Velocity P-wave (km/s) = 7.13786 7.23544 7.18682
#
# Compressibility (1/GPa) = 0.01564593
#
# Stress axis : x y z
#
# Youngs Moduli (GPa) = 76.42793 71.97767 76.13835
#
# Poissons Ratio (x) = 0.19865 0.36674
# Poissons Ratio (y) = 0.21094 0.35450
# Poissons Ratio (z) = 0.36814 0.33513
#
# Static dielectric constant tensor:
#      x y z
#    x 3.845150 0.000000 -0.049500 
#    y 0.000000 3.567490 0.000000 
#    z -0.049500 0.000000 3.736650 
# 
# 
# High freq. dielectric constant tensor:
#      x y z
#    x 1.797790 0.000000 -0.007630 
#    y 0.000000 1.780250 0.000000 
#    z -0.007630 0.000000 1.801560 
# 
# From -- ./inp_files/249068.got.cif
#   From: 2010.06.25/outbox.cif.g09.slc.cpg/sg12_125_cif.got.tgz:249068.got - 2010.06.28 00:19:55.
