data_PCOD8106082
_publ_section_title
;
Structure prediction by ZEFSAII (Michael W. Deem and Ramdas Pophale) SiO2 
 PCOD8106082
Probable space group: C 2/M
;
_chemical_formula_sum "Si O2"
_cell_formula_units_Z 64
_cell_length_a 23.827395
_cell_length_b 8.903835
_cell_length_c 20.081302
_cell_angle_alpha 90.000000
_cell_angle_beta 124.745590
_cell_angle_gamma 90.000000
_cell_volume 3500.692497
_symmetry_space_group_name_H-M "C 2/M"
_symmetry_group_IT_number 12
_symmetry_cell_setting 'monoclinic'
loop_
_space_group_symop_operation_xyz
x,y,z
-x,y,-z
-x,-y,-z
x,-y,z
1/2+x,1/2+y,z
1/2-x,1/2+y,-z
1/2-x,1/2-y,-z
1/2+x,1/2-y,z
loop_
_atom_site_type_symbol
_atom_site_label
_atom_site_fract_x
_atom_site_fract_y
_atom_site_fract_z
Si Si1 0.427759 0.174609 0.546664
Si Si2 0.305633 0.675846 0.718466
Si Si3 0.947791 0.326931 0.200927
Si Si4 0.106513 0.330572 0.329624
Si Si5 0.048342 0.677558 0.941561
Si Si6 0.662116 0.672230 0.622585
Si Si7 0.565971 0.327824 0.677278
Si Si8 0.098687 0.677755 0.113926
O O1 0.385614 0.200418 0.586386
O O2 0.395140 0.275324 0.467761
O O3 0.505951 0.223733 0.608491
O O4 0.427131 0.000000 0.525879
O O5 0.308143 0.500000 0.728839
O O6 0.345387 0.718825 0.678172
O O7 0.227988 0.725956 0.658824
O O8 0.337678 0.748309 0.806184
O O9 0.928281 0.500000 0.201115
O O10 0.922521 0.270660 0.110700
O O11 0.913022 0.225490 0.234215
O O12 0.028881 0.304677 0.255935
O O13 0.128815 0.500000 0.327034
O O14 0.040373 0.500000 0.936350
O O15 0.971784 0.739904 0.901965
O O16 0.099038 0.725645 0.035795
O O17 0.680997 0.500000 0.620519
O O18 0.632569 0.690691 0.676819
O O19 0.540865 0.500000 0.662113
O O20 0.105589 0.500000 0.126732
#
# Coordination Sequence:
#
# PCOD8106082 Si02
#       8
#     8   8   8   8   8   8   8   8
#     4  10  21  37  59  83 105 131 169 219 266 308
#     4  12  24  35  51  76 108 142 177 217 260 308
#     4   9  16  30  54  82 108 136 173 215 257 304
#     4   9  18  34  54  76 106 141 172 205 255 316
#     4   8  14  27  53  82 105 137 176 208 249 308
#     4  11  24  40  56  73 100 141 182 217 259 314
#     4  10  21  36  55  80 106 136 174 216 264 310
#     4   9  16  31  53  76 107 142 174 209 250 310
#
# _framework density 18.282097
#
# number of rings (size 3 to 8) (size 9 to 14) (size 15 to 20)
#    0.000    2.250    1.250    4.125    0.000    6.500 
#    0.000    1.875    0.000    0.750    0.000    0.000 
#    0.000    0.000    0.000    0.000    0.000    0.000 
#
# Total GULP energy -396755.533076 kJ/mol
# GULP energy per Si atom -12398.610409 kJ/mol
# Density = 1.824049 g / cm^3
# Si number density = 18.282097 Si / 1000 Ang^3
#
#
#
# Elastic Constant Matrix: (Units=GPa)
#
#
# Indices 1 2 3 4 5 6 
#
# 1 62.5215 33.3847 22.2626 0.0000 -19.5140 0.0000
# 2 33.3847 77.5156 20.9266 0.0000 -10.5417 0.0000
# 3 22.2626 20.9266 52.4509 0.0000 -25.8711 0.0000
# 4 0.0000 0.0000 0.0000 23.5005 0.0000 -3.0098
# 5 -19.5140 -10.5417 -25.8711 0.0000 28.2821 0.0000
# 6 0.0000 0.0000 0.0000 -3.0098 0.0000 27.3250
#
#
#
# Elastic Compliance Matrix: (Units=1/GPa)
#
#
# Indices 1 2 3 4 5 6 
#
# 1 0.025135 -0.008860 -0.000379 0.000000 0.013693 0.000000
# 2 -0.008860 0.017582 -0.005534 0.000000 -0.004622 0.000000
# 3 -0.000379 -0.005534 0.036967 0.000000 0.031491 0.000000
# 4 0.000000 0.000000 0.000000 0.043161 0.000000 0.004754
# 5 0.013693 -0.004622 0.031491 0.000000 0.071890 0.000000
# 6 0.000000 0.000000 0.000000 0.004754 0.000000 0.037120
#
#
# Mechanical properties :
#
#
# Convention : Reuss Voigt Hill
#
# Bulk Modulus (GPa) = 19.94553 38.40396 29.17474
# Shear Modulus (GPa) = 17.97820 23.54913 20.76367
#
# Velocity S-wave (km/s) = 3.13929 3.59290 3.37373
# Velocity P-wave (km/s) = 4.90650 6.18578 5.58290
#
# Compressibility (1/GPa) = 0.05013656
#
# Stress axis : x y z
#
# Youngs Moduli (GPa) = 39.78586 56.87617 27.05095
#
# Poissons Ratio (x) = 0.50395 0.01026
# Poissons Ratio (y) = 0.35252 0.14970
# Poissons Ratio (z) = 0.01509 0.31474
#
# Static dielectric constant tensor:
#      x y z
#    x 3.326360 0.000000 -0.427760 
#    y 0.000000 3.251910 0.000000 
#    z -0.427760 0.000000 3.568970 
# 
# 
# High freq. dielectric constant tensor:
#      x y z
#    x 1.690000 0.000000 -0.028060 
#    y 0.000000 1.698090 0.000000 
#    z -0.028060 0.000000 1.706480 
# 
# From -- ./inp_files/324290.got.cif
#   From: 2010.06.25/outbox.cif.g09.slc.cpg/sg12_163_cif.got.tgz:324290.got - 2010.06.28 00:19:55.
