data_PCOD8106219
_publ_section_title
;
Structure prediction by ZEFSAII (Michael W. Deem and Ramdas Pophale) SiO2 
 PCOD8106219
Probable space group: C 2/M
;
_chemical_formula_sum "Si O2"
_cell_formula_units_Z 56
_cell_length_a 10.044370
_cell_length_b 9.138546
_cell_length_c 31.788877
_cell_angle_alpha 90.000000
_cell_angle_beta 103.708897
_cell_angle_gamma 90.000000
_cell_volume 2834.805770
_symmetry_space_group_name_H-M "C 2/M"
_symmetry_group_IT_number 12
_symmetry_cell_setting 'monoclinic'
loop_
_space_group_symop_operation_xyz
x,y,z
-x,y,-z
-x,-y,-z
x,-y,z
1/2+x,1/2+y,z
1/2-x,1/2+y,-z
1/2-x,1/2-y,-z
1/2+x,1/2-y,z
loop_
_atom_site_type_symbol
_atom_site_label
_atom_site_fract_x
_atom_site_fract_y
_atom_site_fract_z
Si Si1 0.924771 0.330504 0.951623
Si Si2 0.114413 0.672069 0.475490
Si Si3 0.789947 0.170814 0.669103
Si Si4 0.660410 0.171148 0.903804
Si Si5 0.906761 0.828891 0.186506
Si Si6 0.012130 0.328122 0.377568
Si Si7 0.213852 0.829943 0.234618
O O1 0.880941 0.500000 0.949256
O O2 0.790467 0.231640 0.938709
O O3 0.023864 0.297038 0.919948
O O4 0.000000 0.285655 0.000000
O O5 0.139452 0.500000 0.477119
O O6 0.250000 0.750000 0.500000
O O7 0.000000 0.718114 0.500000
O O8 0.070265 0.729267 0.426265
O O9 0.647298 0.214142 0.636532
O O10 0.789707 0.220328 0.717397
O O11 0.911428 0.253874 0.655228
O O12 0.820303 0.000000 0.667478
O O13 0.651317 0.250919 0.858803
O O14 0.681900 0.000000 0.897537
O O15 0.829775 0.765981 0.221244
O O16 0.067791 0.797940 0.202432
O O17 0.874839 0.000000 0.180884
O O18 0.032156 0.500000 0.374254
O O19 0.253750 0.000000 0.233753
#
# Coordination Sequence:
#
# PCOD8106219 Si02
#       7
#     8   8   8   8   8   8   8
#     4  10  22  40  61  87 118 151 190 235 282 334
#     4  10  21  37  56  80 111 146 186 231 278 330
#     4  10  21  38  59  83 113 147 183 228 280 333
#     4  11  23  38  59  86 115 151 192 233 281 334
#     4  11  23  38  58  84 114 149 188 231 279 331
#     4  10  21  36  56  83 112 145 186 230 278 333
#     4  10  22  39  59  85 114 146 187 231 278 334
#
# _framework density 19.754442000000001
#
# number of rings (size 3 to 8) (size 9 to 14) (size 15 to 20)
#    0.000    1.714    0.000    3.857    0.000    8.000 
#    0.000    0.000    0.000    0.000    0.000    0.000 
#    0.000    0.000    0.000    0.000    0.000    0.000 
#
# Total GULP energy -347379.685924 kJ/mol
# GULP energy per Si atom -12406.417354 kJ/mol
# Density = 1.970948 g / cm^3
# Si number density = 19.754442 Si / 1000 Ang^3
#
#
#
# Elastic Constant Matrix: (Units=GPa)
#
#
# Indices 1 2 3 4 5 6 
#
# 1 55.0214 33.3146 4.0669 0.0000 -3.3960 0.0000
# 2 33.3146 61.2879 24.5497 0.0000 -1.4520 0.0000
# 3 4.0669 24.5497 95.7119 0.0000 0.0786 0.0000
# 4 0.0000 0.0000 0.0000 32.7718 0.0000 -0.7610
# 5 -3.3960 -1.4520 0.0786 0.0000 36.1770 0.0000
# 6 0.0000 0.0000 0.0000 -0.7610 0.0000 31.8905
#
#
#
# Elastic Compliance Matrix: (Units=1/GPa)
#
#
# Indices 1 2 3 4 5 6 
#
# 1 0.027986 -0.016371 0.003008 0.000000 0.001963 0.000000
# 2 -0.016371 0.027781 -0.006430 0.000000 -0.000408 0.000000
# 3 0.003008 -0.006430 0.011969 0.000000 -0.000002 0.000000
# 4 0.000000 0.000000 0.000000 0.030531 0.000000 0.000729
# 5 0.001963 -0.000408 -0.000002 0.000000 0.027810 0.000000
# 6 0.000000 0.000000 0.000000 0.000729 0.000000 0.031375
#
#
# Mechanical properties :
#
#
# Convention : Reuss Voigt Hill
#
# Bulk Modulus (GPa) = 35.52192 37.32040 36.42116
# Shear Modulus (GPa) = 24.22233 30.17386 27.19810
#
# Velocity S-wave (km/s) = 3.50547 3.91250 3.71456
# Velocity P-wave (km/s) = 5.86560 6.27243 6.07242
#
# Compressibility (1/GPa) = 0.02815163
#
# Stress axis : x y z
#
# Youngs Moduli (GPa) = 35.73211 35.99548 83.54622
#
# Poissons Ratio (x) = 0.58928 -0.25134
# Poissons Ratio (y) = 0.58497 0.53719
# Poissons Ratio (z) = -0.10749 0.23144
#
# Static dielectric constant tensor:
#      x y z
#    x 3.581350 0.000000 0.044280 
#    y 0.000000 3.522890 0.000000 
#    z 0.044280 0.000000 3.768130 
# 
# 
# High freq. dielectric constant tensor:
#      x y z
#    x 1.780930 0.000000 0.001040 
#    y 0.000000 1.765250 0.000000 
#    z 0.001040 0.000000 1.789320 
# 
# From -- ./inp_files/357520.got.cif
#   From: 2010.06.25/outbox.cif.g09.slc.cpg/sg12_179_cif.got.tgz:357520.got - 2010.06.28 00:19:55.
