data_PCOD8106019
_publ_section_title
;
Structure prediction by ZEFSAII (Michael W. Deem and Ramdas Pophale) SiO2 
 PCOD8106019
Probable space group: C 2/M
;
_chemical_formula_sum "Si O2"
_cell_formula_units_Z 64
_cell_length_a 18.100986
_cell_length_b 8.696922
_cell_length_c 30.369490
_cell_angle_alpha 90.000000
_cell_angle_beta 137.776211
_cell_angle_gamma 90.000000
_cell_volume 3212.866988
_symmetry_space_group_name_H-M "C 2/M"
_symmetry_group_IT_number 12
_symmetry_cell_setting 'monoclinic'
loop_
_space_group_symop_operation_xyz
x,y,z
-x,y,-z
-x,-y,-z
x,-y,z
1/2+x,1/2+y,z
1/2-x,1/2+y,-z
1/2-x,1/2-y,-z
1/2+x,1/2-y,z
loop_
_atom_site_type_symbol
_atom_site_label
_atom_site_fract_x
_atom_site_fract_y
_atom_site_fract_z
Si Si1 0.606856 0.677686 0.315888
Si Si2 0.692766 0.178349 0.184969
Si Si3 0.379270 0.681624 0.937176
Si Si4 0.562749 0.321701 0.683387
Si Si5 0.994871 0.680640 0.431896
Si Si6 0.214288 0.318126 0.938215
Si Si7 0.664221 0.319164 0.570507
Si Si8 0.030680 0.320683 0.192906
O O1 0.640935 0.500000 0.332470
O O2 0.503797 0.712742 0.301633
O O3 0.708443 0.778066 0.377821
O O4 0.574581 0.721796 0.252506
O O5 0.660304 0.275199 0.128454
O O6 0.812489 0.231100 0.253879
O O7 0.606512 0.215947 0.184863
O O8 0.692543 0.000000 0.171888
O O9 0.382825 0.500000 0.942538
O O10 0.294851 0.747972 0.936102
O O11 0.500000 0.751658 0.000000
O O12 0.556763 0.500000 0.667066
O O13 0.510900 0.220470 0.621871
O O14 0.007304 0.500000 0.444179
O O15 0.101634 0.762724 0.499327
O O16 0.885025 0.738600 0.407791
O O17 0.220809 0.500000 0.944391
O O18 0.091472 0.264586 0.872518
O O19 0.250000 0.250000 0.000000
O O20 0.649022 0.500000 0.569096
O O21 0.034535 0.500000 0.207377
#
# Coordination Sequence:
#
# PCOD8106019 Si02
#       8
#     8   8   8   8   8   8   8   8
#     4  11  23  38  58  85 115 149 193 239 283 341
#     4  10  21  37  58  82 108 144 187 230 280 340
#     4  10  21  36  54  79 112 147 184 230 283 336
#     4  10  22  39  57  82 117 152 188 234 290 346
#     4  11  22  38  62  90 117 148 193 239 280 337
#     4  10  21  36  55  81 112 147 188 233 282 339
#     4  11  22  39  62  85 116 155 190 232 289 341
#     4  10  21  37  57  82 112 146 188 237 291 349
#
# _framework density 19.919903000000001
#
# number of rings (size 3 to 8) (size 9 to 14) (size 15 to 20)
#    0.000    1.625    0.000    5.625    0.000    4.750 
#    0.000    0.000    0.000    0.000    0.000    0.000 
#    0.000    0.000    0.000    0.000    0.000    0.000 
#
# Total GULP energy -396998.702282 kJ/mol
# GULP energy per Si atom -12406.209446 kJ/mol
# Density = 1.987456 g / cm^3
# Si number density = 19.919903 Si / 1000 Ang^3
#
#
#
# Elastic Constant Matrix: (Units=GPa)
#
#
# Indices 1 2 3 4 5 6 
#
# 1 125.9185 22.0852 63.2479 0.0000 10.0200 0.0000
# 2 22.0852 41.8421 20.8812 0.0000 0.8819 0.0000
# 3 63.2479 20.8812 126.8451 0.0000 8.5548 0.0000
# 4 0.0000 0.0000 0.0000 36.7719 0.0000 -5.6621
# 5 10.0200 0.8819 8.5548 0.0000 41.3623 0.0000
# 6 0.0000 0.0000 0.0000 -5.6621 0.0000 21.9781
#
#
#
# Elastic Compliance Matrix: (Units=1/GPa)
#
#
# Indices 1 2 3 4 5 6 
#
# 1 0.011114 -0.003400 -0.004873 0.000000 -0.001612 0.000000
# 2 -0.003400 0.027083 -0.002819 0.000000 0.000829 0.000000
# 3 -0.004873 -0.002819 0.010845 0.000000 -0.001002 0.000000
# 4 0.000000 0.000000 0.000000 0.028318 0.000000 0.007295
# 5 -0.001612 0.000829 -0.001002 0.000000 0.024757 0.000000
# 6 0.000000 0.000000 0.000000 0.007295 0.000000 0.047379
#
#
# Mechanical properties :
#
#
# Convention : Reuss Voigt Hill
#
# Bulk Modulus (GPa) = 37.23322 56.33713 46.78517
# Shear Modulus (GPa) = 27.68022 32.58188 30.13105
#
# Velocity S-wave (km/s) = 3.73175 4.04870 3.89345
# Velocity P-wave (km/s) = 6.10737 7.08514 6.61434
#
# Compressibility (1/GPa) = 0.02685774
#
# Stress axis : x y z
#
# Youngs Moduli (GPa) = 89.97564 36.92297 92.20652
#
# Poissons Ratio (x) = 0.12555 0.44935
# Poissons Ratio (y) = 0.30594 0.25992
# Poissons Ratio (z) = 0.43848 0.10408
#
# Static dielectric constant tensor:
#      x y z
#    x 3.852400 0.000000 0.238780 
#    y 0.000000 3.536030 0.000000 
#    z 0.238780 0.000000 3.752460 
# 
# 
# High freq. dielectric constant tensor:
#      x y z
#    x 1.787580 0.000000 0.003790 
#    y 0.000000 1.771290 0.000000 
#    z 0.003790 0.000000 1.790580 
# 
# From -- ./inp_files/378316.got.cif
#   From: 2010.06.25/outbox.cif.g09.slc.cpg/sg12_190_cif.got.tgz:378316.got - 2010.06.28 00:19:55.
