data_PCOD8106675
_publ_section_title
;
Structure prediction by ZEFSAII (Michael W. Deem and Ramdas Pophale) SiO2 
 PCOD8106675
Probable space group: C 2/M
;
_chemical_formula_sum "Si O2"
_cell_formula_units_Z 64
_cell_length_a 24.887650
_cell_length_b 9.037268
_cell_length_c 23.383530
_cell_angle_alpha 90.000000
_cell_angle_beta 132.987048
_cell_angle_gamma 90.000000
_cell_volume 3847.247424
_symmetry_space_group_name_H-M "C 2/M"
_symmetry_group_IT_number 12
_symmetry_cell_setting 'monoclinic'
loop_
_space_group_symop_operation_xyz
x,y,z
-x,y,-z
-x,-y,-z
x,-y,z
1/2+x,1/2+y,z
1/2-x,1/2+y,-z
1/2-x,1/2-y,-z
1/2+x,1/2-y,z
loop_
_atom_site_type_symbol
_atom_site_label
_atom_site_fract_x
_atom_site_fract_y
_atom_site_fract_z
Si Si1 0.224758 0.175657 0.091258
Si Si2 0.920056 0.171613 0.079066
Si Si3 0.871474 0.172317 0.169087
Si Si4 0.468459 0.827161 0.917342
Si Si5 0.823298 0.669884 0.340712
Si Si6 0.439742 0.830165 0.323249
Si Si7 0.053425 0.674865 0.492214
Si Si8 0.800161 0.327110 0.807646
O O1 0.295406 0.239595 0.110440
O O2 0.223168 0.235394 0.154090
O O3 0.231464 0.000000 0.097571
O O4 0.153067 0.230928 0.005440
O O5 0.915493 0.204215 0.142933
O O6 0.991243 0.253584 0.106815
O O7 0.929534 0.000000 0.072666
O O8 0.922410 0.224559 0.257941
O O9 0.853252 0.000000 0.162983
O O10 0.382909 0.788960 0.849985
O O11 0.484243 0.000000 0.925746
O O12 0.500000 0.763030 0.000000
O O13 0.796824 0.500000 0.324627
O O14 0.879863 0.691059 0.329516
O O15 0.862940 0.718982 0.429693
O O16 0.752970 0.775521 0.282190
O O17 0.521442 0.783071 0.406223
O O18 0.439478 0.000000 0.301940
O O19 0.047003 0.500000 0.494310
O O20 0.000000 0.750220 0.500000
O O21 0.790190 0.500000 0.813168
#
# Coordination Sequence:
#
# PCOD8106675 Si02
#       8
#     8   8   8   8   8   8   8   8
#     4  11  21  34  51  71  95 130 171 202 237 289
#     4  10  23  38  52  71  95 128 170 210 245 285
#     4  11  22  34  48  72 104 132 161 202 248 288
#     4  10  21  37  54  72  95 127 164 204 253 296
#     4   9  16  28  47  71  99 130 165 197 235 288
#     4   9  16  28  47  71  98 131 167 194 232 289
#     4   7  12  24  43  67  96 128 160 197 231 277
#     4  11  21  32  49  74 102 129 159 202 251 290
#
# _framework density 16.635269000000001
#
# number of rings (size 3 to 8) (size 9 to 14) (size 15 to 20)
#    0.000    2.250    2.500    3.000    0.000    2.750 
#    0.000    0.625    0.000    2.250    0.000    0.875 
#    0.000    0.000    0.000    0.000    0.000    0.000 
#
# Total GULP energy -396654.276846 kJ/mol
# GULP energy per Si atom -12395.446151 kJ/mol
# Density = 1.659741 g / cm^3
# Si number density = 16.635269 Si / 1000 Ang^3
#
#
#
# Elastic Constant Matrix: (Units=GPa)
#
#
# Indices 1 2 3 4 5 6 
#
# 1 75.9969 35.3851 35.4242 0.0000 7.2555 0.0000
# 2 35.3851 54.3566 31.4379 0.0000 8.4766 0.0000
# 3 35.4242 31.4379 116.2635 0.0000 18.1181 0.0000
# 4 0.0000 0.0000 0.0000 24.4152 0.0000 1.6671
# 5 7.2555 8.4766 18.1181 0.0000 13.5030 0.0000
# 6 0.0000 0.0000 0.0000 1.6671 0.0000 25.6591
#
#
#
# Elastic Compliance Matrix: (Units=1/GPa)
#
#
# Indices 1 2 3 4 5 6 
#
# 1 0.019734 -0.011147 -0.003081 0.000000 0.000528 0.000000
# 2 -0.011147 0.028689 -0.003146 0.000000 -0.007799 0.000000
# 3 -0.003081 -0.003146 0.012422 0.000000 -0.013038 0.000000
# 4 0.000000 0.000000 0.000000 0.041141 0.000000 -0.002673
# 5 0.000528 -0.007799 -0.013038 0.000000 0.096164 0.000000
# 6 0.000000 0.000000 0.000000 -0.002673 0.000000 0.039146
#
#
# Mechanical properties :
#
#
# Convention : Reuss Voigt Hill
#
# Bulk Modulus (GPa) = 38.31674 50.12348 44.22011
# Shear Modulus (GPa) = 17.80984 22.34012 20.07498
#
# Velocity S-wave (km/s) = 3.27556 3.66859 3.47763
# Velocity P-wave (km/s) = 6.11467 6.93837 6.53950
#
# Compressibility (1/GPa) = 0.02609826
#
# Stress axis : x y z
#
# Youngs Moduli (GPa) = 50.67304 34.85625 80.50064
#
# Poissons Ratio (x) = 0.38855 0.24801
# Poissons Ratio (y) = 0.56486 0.25324
# Poissons Ratio (z) = 0.15612 0.10965
#
# Static dielectric constant tensor:
#      x y z
#    x 2.818050 0.000000 0.118790 
#    y 0.000000 3.007910 0.000000 
#    z 0.118790 0.000000 3.557490 
# 
# 
# High freq. dielectric constant tensor:
#      x y z
#    x 1.599470 0.000000 0.008600 
#    y 0.000000 1.632770 0.000000 
#    z 0.008600 0.000000 1.653810 
# 
# From -- ./inp_files/348584.got.cif
#   From: 2010.06.25/outbox.cif.g09.slc.cpg/sg12_175_cif.got.tgz:348584.got - 2010.06.28 00:19:55.
