data_PCOD8106612
_publ_section_title
;
Structure prediction by ZEFSAII (Michael W. Deem and Ramdas Pophale) SiO2 
 PCOD8106612
Probable space group: C 2/M
;
_chemical_formula_sum "Si O2"
_cell_formula_units_Z 56
_cell_length_a 14.640972
_cell_length_b 29.903521
_cell_length_c 12.140645
_cell_angle_alpha 90.000000
_cell_angle_beta 29.679109
_cell_angle_gamma 90.000000
_cell_volume 2631.865507
_symmetry_space_group_name_H-M "C 2/M"
_symmetry_group_IT_number 12
_symmetry_cell_setting 'monoclinic'
loop_
_space_group_symop_operation_xyz
x,y,z
-x,y,-z
-x,-y,-z
x,-y,z
1/2+x,1/2+y,z
1/2-x,1/2+y,-z
1/2-x,1/2-y,-z
1/2+x,1/2-y,z
loop_
_atom_site_type_symbol
_atom_site_label
_atom_site_fract_x
_atom_site_fract_y
_atom_site_fract_z
Si Si1 0.827298 0.814444 0.906965
Si Si2 0.008545 0.733924 0.367349
Si Si3 0.787853 0.608711 0.699538
Si Si4 0.374134 0.300297 0.223641
Si Si5 0.161396 0.446520 0.562307
Si Si6 0.548585 0.550497 0.566855
Si Si7 0.746184 0.088117 0.019772
O O1 0.896488 0.783154 0.733846
O O2 0.792815 0.865332 0.907673
O O3 0.998588 0.811781 0.808513
O O4 0.634171 0.798239 0.161293
O O5 0.000000 0.715962 0.500000
O O6 0.794216 0.730341 0.554250
O O7 0.694116 0.654372 0.762003
O O8 0.754660 0.571274 0.640849
O O9 0.000000 0.618762 0.500000
O O10 0.702637 0.591517 0.904350
O O11 0.500000 0.274460 0.000000
O O12 0.154789 0.500000 0.562720
O O13 0.280356 0.428732 0.542672
O O14 0.961785 0.425362 0.786451
O O15 0.500000 0.574474 0.500000
O O16 0.604639 0.500000 0.480820
O O17 0.372431 0.550731 0.831665
#
# Coordination Sequence:
#
# PCOD8106612 Si02
#       7
#     8   8   8   8   8   8   8
#     4  11  24  37  60  88 116 158 202 244 304 356
#     4  11  22  40  58  84 120 153 199 254 297 358
#     4  10  21  36  61  91 124 153 194 244 303 369
#     4  12  20  36  63  86 116 162 199 240 299 365
#     4  10  22  38  61  92 123 156 197 248 304 359
#     4  10  23  41  61  85 116 160 209 248 290 350
#     4  11  21  38  60  89 120 157 197 247 302 358
#
# _framework density 21.277684000000001
#
# number of rings (size 3 to 8) (size 9 to 14) (size 15 to 20)
#    0.000    1.286    2.857    3.857    0.000    4.286 
#    0.000    3.571    0.000    1.714    0.000    0.000 
#    0.000    0.000    0.000    0.000    0.000    0.000 
#
# Total GULP energy -346989.644991 kJ/mol
# GULP energy per Si atom -12392.487321 kJ/mol
# Density = 2.122925 g / cm^3
# Si number density = 21.277684 Si / 1000 Ang^3
#
#
#
# Elastic Constant Matrix: (Units=GPa)
#
#
# Indices 1 2 3 4 5 6 
#
# 1 96.4437 16.6407 39.8837 0.0000 -10.4427 0.0000
# 2 16.6407 64.5726 26.3062 0.0000 -5.7159 0.0000
# 3 39.8837 26.3062 122.3011 -0.0001 -10.3165 0.0000
# 4 0.0000 0.0000 -0.0001 39.4153 0.0001 2.7949
# 5 -10.4427 -5.7159 -10.3165 0.0001 28.9169 0.0000
# 6 0.0000 0.0000 0.0000 2.7949 0.0000 28.7587
#
#
#
# Elastic Compliance Matrix: (Units=1/GPa)
#
#
# Indices 1 2 3 4 5 6 
#
# 1 0.012381 -0.001520 -0.003463 0.000000 0.002935 0.000000
# 2 -0.001520 0.017287 -0.003073 0.000000 0.001772 0.000000
# 3 -0.003463 -0.003073 0.010115 0.000000 0.001750 0.000000
# 4 0.000000 0.000000 0.000000 0.025547 0.000000 -0.002483
# 5 0.002935 0.001772 0.001750 0.000000 0.036617 0.000000
# 6 0.000000 0.000000 0.000000 -0.002483 0.000000 0.035013
#
#
# Mechanical properties :
#
#
# Convention : Reuss Voigt Hill
#
# Bulk Modulus (GPa) = 42.24750 49.88651 46.06701
# Shear Modulus (GPa) = 31.06328 32.78396 31.92362
#
# Velocity S-wave (km/s) = 3.82501 3.92952 3.87762
# Velocity P-wave (km/s) = 6.27742 6.63962 6.46106
#
# Compressibility (1/GPa) = 0.02367004
#
# Stress axis : x y z
#
# Youngs Moduli (GPa) = 80.76934 57.84700 98.86752
#
# Poissons Ratio (x) = 0.08793 0.34238
# Poissons Ratio (y) = 0.12277 0.30384
# Poissons Ratio (z) = 0.27971 0.17777
#
# Static dielectric constant tensor:
#      x y z
#    x 4.156080 0.000000 -0.042890 
#    y 0.000000 3.815710 0.000000 
#    z -0.042890 0.000000 4.352260 
# 
# 
# High freq. dielectric constant tensor:
#      x y z
#    x 1.836920 0.000000 -0.014480 
#    y 0.000000 1.816040 0.000000 
#    z -0.014480 0.000000 1.844980 
# 
# From -- ./inp_files/150442.got.cif
#   From: 2010.06.25/outbox.cif.g09.slc.cpg/sg12_76_cif.got.tgz:150442.got - 2010.06.28 00:19:55.
