data_PCOD8106192
_publ_section_title
;
Structure prediction by ZEFSAII (Michael W. Deem and Ramdas Pophale) SiO2 
 PCOD8106192
Probable space group: C 2/M
;
_chemical_formula_sum "Si O2"
_cell_formula_units_Z 48
_cell_length_a 22.463044
_cell_length_b 13.821953
_cell_length_c 13.027701
_cell_angle_alpha 90.000000
_cell_angle_beta 39.158292
_cell_angle_gamma 90.000000
_cell_volume 2554.201175
_symmetry_space_group_name_H-M "C 2/M"
_symmetry_group_IT_number 12
_symmetry_cell_setting 'monoclinic'
loop_
_space_group_symop_operation_xyz
x,y,z
-x,y,-z
-x,-y,-z
x,-y,z
1/2+x,1/2+y,z
1/2-x,1/2+y,-z
1/2-x,1/2-y,-z
1/2+x,1/2-y,z
loop_
_atom_site_type_symbol
_atom_site_label
_atom_site_fract_x
_atom_site_fract_y
_atom_site_fract_z
Si Si1 0.970259 0.391789 0.234510
Si Si2 0.959338 0.797939 0.943698
Si Si3 0.929207 0.704542 0.502066
Si Si4 0.234708 0.108931 0.759966
Si Si5 0.258478 0.136773 0.493852
Si Si6 0.916674 0.893655 0.397186
O O1 0.013230 0.500000 0.169807
O O2 0.966343 0.358803 0.357714
O O3 0.865358 0.393361 0.326691
O O4 0.035140 0.317593 0.083856
O O5 0.020323 0.855933 0.780182
O O6 0.851914 0.831209 0.077673
O O7 0.000000 0.824531 0.000000
O O8 0.827649 0.665364 0.672471
O O9 0.921749 0.818074 0.483795
O O10 0.000000 0.690320 0.500000
O O11 0.227864 0.100918 0.646537
O O12 0.234731 0.000000 0.804955
O O13 0.250000 0.250000 0.500000
O O14 0.190473 0.093152 0.498760
O O15 0.951531 0.000000 0.387340
#
# Coordination Sequence:
#
# PCOD8106192 Si02
#       6
#     8   8   8   8   8   8
#     4  10  21  36  56  81 114 149 184 226 275 329
#     4  11  21  34  52  84 123 145 174 217 275 344
#     4  10  22  40  60  80 105 143 195 240 267 312
#     4  11  21  34  56  85 112 141 181 226 276 330
#     4  11  16  33  54  82 114 144 181 227 275 324
#     4  11  21  34  56  82 114 150 182 224 277 326
#
# _framework density 18.792569
#
# number of rings (size 3 to 8) (size 9 to 14) (size 15 to 20)
#    0.000    1.333    6.667    3.500    0.000    2.667 
#    0.000    4.167    0.000    2.000    0.000    0.000 
#    0.000    0.000    0.000    0.000    0.000    0.000 
#
# Total GULP energy -297582.488084 kJ/mol
# GULP energy per Si atom -12399.270337 kJ/mol
# Density = 1.874980 g / cm^3
# Si number density = 18.792569 Si / 1000 Ang^3
#
#
#
# Elastic Constant Matrix: (Units=GPa)
#
#
# Indices 1 2 3 4 5 6 
#
# 1 96.9500 24.1296 37.3071 0.0000 -16.4368 0.0000
# 2 24.1296 182.2674 49.7014 0.0000 -14.5573 0.0000
# 3 37.3071 49.7014 88.8904 0.0000 -19.3567 0.0000
# 4 0.0000 0.0000 0.0000 -159.6433 0.0000 -51.0387
# 5 -16.4368 -14.5573 -19.3567 0.0000 13.9481 0.0000
# 6 0.0000 0.0000 0.0000 -51.0387 0.0000 -3.7886
#
#
#
# Elastic Compliance Matrix: (Units=1/GPa)
#
#
# Indices 1 2 3 4 5 6 
#
# 1 0.013478 -0.000007 -0.003147 0.000000 0.011509 0.000000
# 2 -0.000007 0.006534 -0.003106 0.000000 0.002501 0.000000
# 3 -0.003147 -0.003106 0.018334 0.000000 0.018494 0.000000
# 4 0.000000 0.000000 0.000000 0.001894 0.000000 -0.025518
# 5 0.011509 0.002501 0.018494 0.000000 0.113532 0.000000
# 6 0.000000 0.000000 0.000000 -0.025518 0.000000 0.079817
#
#
# Mechanical properties :
#
#
# Convention : Reuss Voigt Hill
#
# Bulk Modulus (GPa) = 38.71838 65.59822 52.15830
# Shear Modulus (GPa) = 19.62954 -12.76544 3.43205
#
# Velocity S-wave (km/s) = 3.23544 -2.60913 1.35286
# Velocity P-wave (km/s) = 5.88261 5.08974 5.50048
#
# Compressibility (1/GPa) = 0.02582752
#
# Stress axis : x y z
#
# Youngs Moduli (GPa) = 74.19247 153.04497 54.54262
#
# Poissons Ratio (x) = 0.00109 0.17163
# Poissons Ratio (y) = 0.00053 0.16940
# Poissons Ratio (z) = 0.23346 0.47533
#
# Static dielectric constant tensor:
#      x y z
#    x 3.338310 0.000000 -0.155470 
#    y 0.000000 3.781180 0.000000 
#    z -0.155470 0.000000 3.337320 
# 
# 
# High freq. dielectric constant tensor:
#      x y z
#    x 1.698080 0.000000 -0.014240 
#    y 0.000000 1.753050 0.000000 
#    z -0.014240 0.000000 1.711790 
# 
# From -- ./inp_files/143529.got.cif
#   From: 2010.06.25/outbox.cif.g09.slc.cpg/sg12_72_cif.got.tgz:143529.got - 2010.06.28 00:19:55.
