data_PCOD8106500
_publ_section_title
;
Structure prediction by ZEFSAII (Michael W. Deem and Ramdas Pophale) SiO2 
 PCOD8106500
Probable space group: C 2/M
;
_chemical_formula_sum "Si O2"
_cell_formula_units_Z 48
_cell_length_a 11.886335
_cell_length_b 19.083032
_cell_length_c 15.240982
_cell_angle_alpha 90.000000
_cell_angle_beta 36.366211
_cell_angle_gamma 90.000000
_cell_volume 2049.849881
_symmetry_space_group_name_H-M "C 2/M"
_symmetry_group_IT_number 12
_symmetry_cell_setting 'monoclinic'
loop_
_space_group_symop_operation_xyz
x,y,z
-x,y,-z
-x,-y,-z
x,-y,z
1/2+x,1/2+y,z
1/2-x,1/2+y,-z
1/2-x,1/2-y,-z
1/2+x,1/2-y,z
loop_
_atom_site_type_symbol
_atom_site_label
_atom_site_fract_x
_atom_site_fract_y
_atom_site_fract_z
Si Si1 0.775557 0.076169 0.644725
Si Si2 0.782499 0.129871 0.456482
Si Si3 0.297185 0.322288 0.782551
Si Si4 0.389553 0.168397 0.728799
Si Si5 0.117791 0.079403 0.788413
Si Si6 0.253993 0.167267 0.995198
O O1 0.709859 0.086460 0.586317
O O2 0.708049 0.136132 0.755985
O O3 0.000000 0.077121 0.500000
O O4 0.702312 0.000000 0.723985
O O5 0.600100 0.180638 0.555552
O O6 0.810129 0.078893 0.357017
O O7 0.974634 0.172037 0.353501
O O8 0.263409 0.238987 0.793326
O O9 0.198681 0.354138 0.933245
O O10 0.286782 0.104700 0.744650
O O11 0.404417 0.147875 0.824326
O O12 0.942458 0.131790 0.911199
O O13 0.060138 0.000000 0.849663
O O14 0.250000 0.250000 0.000000
#
# Coordination Sequence:
#
# PCOD8106500 Si02
#       6
#     8   8   8   8   8   8
#     4   9  18  34  57  83 112 151 198 245 293 344
#     4  10  21  36  59  87 121 159 202 247 293 349
#     4   9  20  37  59  86 116 156 203 251 300 351
#     4  11  22  37  59  88 121 158 201 247 294 350
#     4  11  24  41  61  87 121 159 196 240 301 365
#     4   9  21  41  61  84 116 157 200 242 294 359
#
# _framework density 23.416349
#
# number of rings (size 3 to 8) (size 9 to 14) (size 15 to 20)
#    0.000    2.167    0.000    2.000    0.000   15.333 
#    0.000    2.500    0.000    1.000    0.000    0.000 
#    0.000    0.000    0.000    0.000    0.000    0.000 
#
# Total GULP energy -297342.429071 kJ/mol
# GULP energy per Si atom -12389.267878 kJ/mol
# Density = 2.336305 g / cm^3
# Si number density = 23.416349 Si / 1000 Ang^3
#
#
#
# Elastic Constant Matrix: (Units=GPa)
#
#
# Indices 1 2 3 4 5 6 
#
# 1 67.2694 35.7050 17.4313 0.0236 32.0711 -0.0132
# 2 35.7050 128.2357 36.6740 0.0003 13.1636 0.0035
# 3 17.4313 36.6740 100.6152 0.0364 17.8131 -0.0229
# 4 0.0236 0.0003 0.0364 25.2712 -0.0017 2.7989
# 5 32.0711 13.1636 17.8131 -0.0017 31.7455 -0.0046
# 6 -0.0132 0.0035 -0.0229 2.7989 -0.0046 19.3485
#
#
#
# Elastic Compliance Matrix: (Units=1/GPa)
#
#
# Indices 1 2 3 4 5 6 
#
# 1 0.032935 -0.006566 0.002327 -0.000039 -0.031856 0.000024
# 2 -0.006566 0.010134 -0.003316 0.000012 0.004292 -0.000011
# 3 0.002327 -0.003316 0.012121 -0.000022 -0.007777 0.000018
# 4 -0.000039 0.000012 -0.000022 0.040215 0.000048 -0.005817
# 5 -0.031856 0.004292 -0.007777 0.000048 0.066268 -0.000023
# 6 0.000024 -0.000011 0.000018 -0.005817 -0.000023 0.052525
#
#
# Mechanical properties :
#
#
# Convention : Reuss Voigt Hill
#
# Bulk Modulus (GPa) = 24.94934 52.86011 38.90473
# Shear Modulus (GPa) = 20.60423 29.02704 24.81564
#
# Velocity S-wave (km/s) = 2.96954 3.52462 3.25892
# Velocity P-wave (km/s) = 4.73660 6.25995 5.55078
#
# Compressibility (1/GPa) = 0.04008122
#
# Stress axis : x y z
#
# Youngs Moduli (GPa) = 30.36273 98.67692 82.49895
#
# Poissons Ratio (x) = 0.64788 -0.19199
# Poissons Ratio (y) = 0.19935 0.27358
# Poissons Ratio (z) = -0.07066 0.32723
#
# Static dielectric constant tensor:
#      x y z
#    x 4.312630 -0.000040 0.412070 
#    y -0.000040 3.991480 0.000050 
#    z 0.412070 0.000050 4.646250 
# 
# 
# High freq. dielectric constant tensor:
#      x y z
#    x 1.924460 0.000000 0.017730 
#    y 0.000000 1.904900 0.000010 
#    z 0.017730 0.000010 1.931710 
# 
# From -- ./inp_files/207935.got.cif
#   From: 2010.06.25/outbox.cif.g09.slc.cpg/sg12_104_cif.got.tgz:207935.got - 2010.06.28 00:19:55.
