data_PCOD8106620
_publ_section_title
;
Structure prediction by ZEFSAII (Michael W. Deem and Ramdas Pophale) SiO2 
 PCOD8106620
Probable space group: C 2/M
;
_chemical_formula_sum "Si O2"
_cell_formula_units_Z 56
_cell_length_a 11.180537
_cell_length_b 19.207737
_cell_length_c 17.880421
_cell_angle_alpha 90.000000
_cell_angle_beta 130.602041
_cell_angle_gamma 90.000000
_cell_volume 2915.414651
_symmetry_space_group_name_H-M "C 2/M"
_symmetry_group_IT_number 12
_symmetry_cell_setting 'monoclinic'
loop_
_space_group_symop_operation_xyz
x,y,z
-x,y,-z
-x,-y,-z
x,-y,z
1/2+x,1/2+y,z
1/2-x,1/2+y,-z
1/2-x,1/2-y,-z
1/2+x,1/2-y,z
loop_
_atom_site_type_symbol
_atom_site_label
_atom_site_fract_x
_atom_site_fract_y
_atom_site_fract_z
Si Si1 0.095438 0.831160 0.965627
Si Si2 0.626637 0.810966 0.699718
Si Si3 0.073933 0.296645 0.848289
Si Si4 0.219803 0.329444 0.466624
Si Si5 0.897416 0.078389 0.793005
Si Si6 0.965535 0.080316 0.650586
Si Si7 0.266065 0.667689 0.315163
O O1 0.058973 0.775543 0.886003
O O2 0.032995 0.904573 0.909005
O O3 0.280586 0.840011 0.058082
O O4 0.000000 0.806931 0.000000
O O5 0.603503 0.779965 0.773401
O O6 0.466045 0.843437 0.602053
O O7 0.750533 0.872546 0.749164
O O8 0.680068 0.747369 0.670227
O O9 0.911994 0.340478 0.789441
O O10 0.250000 0.250000 0.500000
O O11 0.309979 0.380225 0.559422
O O12 0.278699 0.348586 0.407826
O O13 0.970998 0.088454 0.741523
O O14 0.839431 0.000000 0.782205
O O15 0.124339 0.113853 0.683428
O O16 0.957333 0.000000 0.622245
#
# Coordination Sequence:
#
# PCOD8106620 Si02
#       7
#     8   8   8   8   8   8   8
#     4  11  20  37  63  92 121 155 200 250 305 361
#     4  11  21  39  61  91 124 155 203 254 299 354
#     4  10  21  36  61  95 120 153 199 251 303 351
#     4  11  23  36  62  94 117 157 205 248 297 352
#     4  11  24  41  61  86 122 163 198 249 310 360
#     4  11  25  43  60  86 125 166 202 244 304 364
#     4  11  21  37  63  88 124 158 198 250 294 357
#
# _framework density 19.208245000000002
#
# number of rings (size 3 to 8) (size 9 to 14) (size 15 to 20)
#    0.000    1.143    4.286    2.143    0.000    4.857 
#    0.000    4.286    0.000    1.714    0.000    0.000 
#    0.000    0.000    0.000    0.000    0.000    0.000 
#
# Total GULP energy -347277.657509 kJ/mol
# GULP energy per Si atom -12402.773482 kJ/mol
# Density = 1.916453 g / cm^3
# Si number density = 19.208245 Si / 1000 Ang^3
#
#
#
# Elastic Constant Matrix: (Units=GPa)
#
#
# Indices 1 2 3 4 5 6 
#
# 1 96.4991 40.7736 32.8678 0.0000 13.5054 0.0000
# 2 40.7736 102.7446 30.9539 0.0000 8.8832 0.0000
# 3 32.8678 30.9539 86.6818 0.0000 20.3014 0.0000
# 4 0.0000 0.0000 0.0000 27.6523 0.0000 -1.4760
# 5 13.5054 8.8832 20.3014 0.0000 30.6406 0.0000
# 6 0.0000 0.0000 0.0000 -1.4760 0.0000 28.9793
#
#
#
# Elastic Compliance Matrix: (Units=1/GPa)
#
#
# Indices 1 2 3 4 5 6 
#
# 1 0.013558 -0.004244 -0.002976 0.000000 -0.002774 0.000000
# 2 -0.004244 0.012247 -0.002806 0.000000 0.000179 0.000000
# 3 -0.002976 -0.002806 0.015588 0.000000 -0.008203 0.000000
# 4 0.000000 0.000000 0.000000 0.036262 0.000000 0.001847
# 5 -0.002774 0.000179 -0.008203 0.000000 0.039242 0.000000
# 6 0.000000 0.000000 0.000000 0.001847 0.000000 0.034601
#
#
# Mechanical properties :
#
#
# Convention : Reuss Voigt Hill
#
# Bulk Modulus (GPa) = 46.85770 55.01289 50.93530
# Shear Modulus (GPa) = 27.98561 29.54314 28.76437
#
# Velocity S-wave (km/s) = 3.82115 3.92605 3.87395
# Velocity P-wave (km/s) = 6.62690 7.01813 6.82532
#
# Compressibility (1/GPa) = 0.02134121
#
# Stress axis : x y z
#
# Youngs Moduli (GPa) = 73.75873 81.65268 64.15207
#
# Poissons Ratio (x) = 0.34654 0.19089
# Poissons Ratio (y) = 0.31303 0.18002
# Poissons Ratio (z) = 0.21947 0.22913
#
# Static dielectric constant tensor:
#      x y z
#    x 3.714950 0.000000 0.078050 
#    y 0.000000 3.393560 0.000000 
#    z 0.078050 0.000000 3.839360 
# 
# 
# High freq. dielectric constant tensor:
#      x y z
#    x 1.761870 0.000000 0.000750 
#    y 0.000000 1.721380 0.000000 
#    z 0.000750 0.000000 1.765750 
# 
# From -- ./inp_files/264311.got.cif
#   From: 2010.06.25/outbox.cif.g09.slc.cpg/sg12_133_cif.got.tgz:264311.got - 2010.06.28 00:19:55.
