data_PCOD8106277
_publ_section_title
;
Structure prediction by ZEFSAII (Michael W. Deem and Ramdas Pophale) SiO2 
 PCOD8106277
Probable space group: C 2/M
;
_chemical_formula_sum "Si O2"
_cell_formula_units_Z 44
_cell_length_a 5.297313
_cell_length_b 17.962727
_cell_length_c 22.005017
_cell_angle_alpha 90.000000
_cell_angle_beta 97.319597
_cell_angle_gamma 90.000000
_cell_volume 2076.806407
_symmetry_space_group_name_H-M "C 2/M"
_symmetry_group_IT_number 12
_symmetry_cell_setting 'monoclinic'
loop_
_space_group_symop_operation_xyz
x,y,z
-x,y,-z
-x,-y,-z
x,-y,z
1/2+x,1/2+y,z
1/2-x,1/2+y,-z
1/2-x,1/2-y,-z
1/2+x,1/2-y,z
loop_
_atom_site_type_symbol
_atom_site_label
_atom_site_fract_x
_atom_site_fract_y
_atom_site_fract_z
Si Si1 0.269668 0.586848 0.537164
Si Si2 0.231659 0.000000 0.960341
Si Si3 0.703865 0.218190 0.931122
Si Si4 0.393929 0.704527 0.781451
Si Si5 0.609785 0.583268 0.121203
Si Si6 0.824596 0.204542 0.638965
O O1 0.500000 0.610046 0.500000
O O2 0.277709 0.500000 0.552385
O O3 0.303899 0.627975 0.601974
O O4 0.000000 0.610050 0.500000
O O5 0.176646 0.926602 0.916479
O O6 0.500000 0.000000 0.000000
O O7 0.000000 0.000000 0.000000
O O8 0.438712 0.250546 0.897104
O O9 0.717068 0.128885 0.923335
O O10 0.750000 0.250000 0.000000
O O11 0.645881 0.753406 0.799482
O O12 0.411868 0.625105 0.815778
O O13 0.362767 0.683781 0.710235
O O14 0.732380 0.500000 0.133283
O O15 0.565926 0.250370 0.621085
#
# Coordination Sequence:
#
# PCOD8106277 Si02
#       6
#     8   4   8   8   8   8
#     4  10  21  36  56  87 130 172 209 257 311 361
#     4  10  26  44  62  90 128 150 188 250 306 358
#     4  10  22  40  60  85 116 150 187 229 292 357
#     4  10  22  43  66  90 124 160 204 255 311 365
#     4  10  24  44  65  94 117 160 199 250 300 372
#     4  10  21  37  61  91 121 163 211 260 304 361
#
# _framework density 21.186375000000002
#
# number of rings (size 3 to 8) (size 9 to 14) (size 15 to 20)
#    0.545    1.455    0.000    2.182    2.545    5.818 
#    0.000    1.818    0.000    6.545    0.000    0.000 
#    0.000    0.000    0.000    0.000    0.000    0.000 
#
# Total GULP energy -272644.813232 kJ/mol
# GULP energy per Si atom -12392.946056 kJ/mol
# Density = 2.113815 g / cm^3
# Si number density = 21.186375 Si / 1000 Ang^3
#
#
#
# Elastic Constant Matrix: (Units=GPa)
#
#
# Indices 1 2 3 4 5 6 
#
# 1 181.4810 59.4514 57.5386 0.0000 4.3426 0.0000
# 2 59.4514 151.7776 74.8743 0.0000 0.7872 0.0000
# 3 57.5386 74.8743 110.5160 0.0000 -0.2693 0.0000
# 4 0.0000 0.0000 0.0000 50.1348 0.0000 0.9311
# 5 4.3426 0.7872 -0.2693 0.0000 16.8414 0.0000
# 6 0.0000 0.0000 0.0000 0.9311 0.0000 20.0823
#
#
#
# Elastic Compliance Matrix: (Units=1/GPa)
#
#
# Indices 1 2 3 4 5 6 
#
# 1 0.006836 -0.001368 -0.002636 0.000000 -0.001741 0.000000
# 2 -0.001368 0.010175 -0.006182 0.000000 -0.000222 0.000000
# 3 -0.002636 -0.006182 0.014612 0.000000 0.001202 0.000000
# 4 0.000000 0.000000 0.000000 0.019963 0.000000 -0.000926
# 5 -0.001741 -0.000222 0.001202 0.000000 0.059856 0.000000
# 6 0.000000 0.000000 0.000000 -0.000926 0.000000 0.049838
#
#
# Mechanical properties :
#
#
# Convention : Reuss Voigt Hill
#
# Bulk Modulus (GPa) = 88.88446 91.94480 90.41463
# Shear Modulus (GPa) = 26.96813 34.20572 30.58692
#
# Velocity S-wave (km/s) = 3.57164 4.02246 3.80374
# Velocity P-wave (km/s) = 7.68463 8.06634 7.87780
#
# Compressibility (1/GPa) = 0.01125056
#
# Stress axis : x y z
#
# Youngs Moduli (GPa) = 146.28642 98.27736 68.43535
#
# Poissons Ratio (x) = 0.13444 0.18043
# Poissons Ratio (y) = 0.20012 0.42307
# Poissons Ratio (z) = 0.38568 0.60755
#
# Static dielectric constant tensor:
#      x y z
#    x 4.954580 0.000000 -0.505830 
#    y 0.000000 3.751860 0.000000 
#    z -0.505830 0.000000 3.835740 
# 
# 
# High freq. dielectric constant tensor:
#      x y z
#    x 1.846280 0.000000 0.000590 
#    y 0.000000 1.826020 0.000000 
#    z 0.000590 0.000000 1.834560 
# 
# From -- ./inp_files/297618.got.cif
#   From: 2010.06.25/outbox.cif.g09.slc.cpg/sg12_149_cif.got.tgz:297618.got - 2010.06.28 00:19:55.
