data_PCOD8106616
_publ_section_title
;
Structure prediction by ZEFSAII (Michael W. Deem and Ramdas Pophale) SiO2 
 PCOD8106616
Probable space group: C 2/M
;
_chemical_formula_sum "Si O2"
_cell_formula_units_Z 48
_cell_length_a 21.911869
_cell_length_b 21.611994
_cell_length_c 4.952601
_cell_angle_alpha 90.000000
_cell_angle_beta 111.602284
_cell_angle_gamma 90.000000
_cell_volume 2180.616560
_symmetry_space_group_name_H-M "C 2/M"
_symmetry_group_IT_number 12
_symmetry_cell_setting 'monoclinic'
loop_
_space_group_symop_operation_xyz
x,y,z
-x,y,-z
-x,-y,-z
x,-y,z
1/2+x,1/2+y,z
1/2-x,1/2+y,-z
1/2-x,1/2-y,-z
1/2+x,1/2-y,z
loop_
_atom_site_type_symbol
_atom_site_label
_atom_site_fract_x
_atom_site_fract_y
_atom_site_fract_z
Si Si1 0.424982 0.428736 0.465499
Si Si2 0.456799 0.769854 0.169950
Si Si3 0.246303 0.367366 0.542389
Si Si4 0.758926 0.500000 0.359667
Si Si5 0.841399 0.500000 0.992472
Si Si6 0.115645 0.853846 0.090199
Si Si7 0.843999 0.366080 0.103033
O O1 0.500000 0.423342 0.500000
O O2 0.402100 0.500000 0.440843
O O3 0.417964 0.397724 0.744804
O O4 0.379037 0.391902 0.180260
O O5 0.500000 0.754875 0.500000
O O6 0.400461 0.816973 0.159779
O O7 0.500000 0.799771 0.000000
O O8 0.428141 0.706363 0.013008
O O9 0.277869 0.437055 0.617801
O O10 0.311782 0.327639 0.704997
O O11 0.186856 0.356896 0.652550
O O12 0.216356 0.355093 0.200549
O O13 0.774948 0.500000 0.067186
O O14 0.826312 0.500000 0.649091
O O15 0.877012 0.434890 0.123592
#
# Coordination Sequence:
#
# PCOD8106616 Si02
#       7
#     8   8   8   4   4   8   8
#     4  11  24  41  61  88 127 173 220 266 306 355
#     4  12  26  44  66  88 121 171 221 264 313 375
#     4  10  21  36  61  94 125 163 197 260 315 382
#     4   8  16  30  52  83 121 154 186 228 305 376
#     4   8  16  34  58  85 120 152 185 248 305 364
#     4  12  24  40  63  93 127 167 212 266 311 374
#     4  10  21  41  63  92 128 162 206 253 323 382
#
# _framework density 22.012124
#
# number of rings (size 3 to 8) (size 9 to 14) (size 15 to 20)
#    0.000    1.500    0.000    5.500    2.333    2.667 
#    3.000    0.833    0.000    0.000    0.000    0.000 
#    0.000    0.000    0.000    0.000    0.000    0.000 
#
# Total GULP energy -297543.745080 kJ/mol
# GULP energy per Si atom -12397.656045 kJ/mol
# Density = 2.196202 g / cm^3
# Si number density = 22.012124 Si / 1000 Ang^3
#
#
#
# Elastic Constant Matrix: (Units=GPa)
#
#
# Indices 1 2 3 4 5 6 
#
# 1 67.0632 29.2784 12.5277 0.0000 3.0279 0.0000
# 2 29.2784 85.8145 21.3067 0.0000 10.1296 0.0000
# 3 12.5277 21.3067 72.9362 0.0000 -5.4036 0.0000
# 4 0.0000 0.0000 0.0000 7.6509 0.0000 -13.8320
# 5 3.0279 10.1296 -5.4036 0.0000 35.9414 0.0000
# 6 0.0000 0.0000 0.0000 -13.8320 0.0000 -1.6437
#
#
#
# Elastic Compliance Matrix: (Units=1/GPa)
#
#
# Indices 1 2 3 4 5 6 
#
# 1 0.017648 -0.005666 -0.001383 0.000000 -0.000098 0.000000
# 2 -0.005666 0.015023 -0.003735 0.000000 -0.004318 0.000000
# 3 -0.001383 -0.003735 0.015296 0.000000 0.003469 0.000000
# 4 0.000000 0.000000 0.000000 0.008061 0.000000 -0.067837
# 5 -0.000098 -0.004318 0.003469 0.000000 0.029570 0.000000
# 6 0.000000 0.000000 0.000000 -0.067837 0.000000 -0.037523
#
#
# Mechanical properties :
#
#
# Convention : Reuss Voigt Hill
#
# Bulk Modulus (GPa) = 37.88163 39.11549 38.49856
# Shear Modulus (GPa) = 63.73862 19.23645 41.48754
#
# Velocity S-wave (km/s) = 5.38693 2.95939 4.34609
# Velocity P-wave (km/s) = 7.47922 5.43009 6.53547
#
# Compressibility (1/GPa) = 0.02639802
#
# Stress axis : x y z
#
# Youngs Moduli (GPa) = 56.66414 66.56253 65.37464
#
# Poissons Ratio (x) = 0.37715 0.09043
# Poissons Ratio (y) = 0.32107 0.24421
# Poissons Ratio (z) = 0.07838 0.24864
#
# Static dielectric constant tensor:
#      x y z
#    x 3.724700 0.000000 -0.153780 
#    y 0.000000 4.101670 0.000000 
#    z -0.153780 0.000000 4.128660 
# 
# 
# High freq. dielectric constant tensor:
#      x y z
#    x 1.850870 0.000000 -0.020060 
#    y 0.000000 1.865370 0.000000 
#    z -0.020060 0.000000 1.877610 
# 
# From -- ./inp_files/20995.got.cif
#   From: 2010.06.25/outbox.cif.g09.slc.cpg/sg12_11_cif.got.tgz:20995.got - 2010.06.28 00:19:55.
