data_PCOD8106650
_publ_section_title
;
Structure prediction by ZEFSAII (Michael W. Deem and Ramdas Pophale) SiO2 
 PCOD8106650
Probable space group: C 2/M
;
_chemical_formula_sum "Si O2"
_cell_formula_units_Z 52
_cell_length_a 16.770346
_cell_length_b 20.741977
_cell_length_c 9.168569
_cell_angle_alpha 90.000000
_cell_angle_beta 51.534109
_cell_angle_gamma 90.000000
_cell_volume 2497.144229
_symmetry_space_group_name_H-M "C 2/M"
_symmetry_group_IT_number 12
_symmetry_cell_setting 'monoclinic'
loop_
_space_group_symop_operation_xyz
x,y,z
-x,y,-z
-x,-y,-z
x,-y,z
1/2+x,1/2+y,z
1/2-x,1/2+y,-z
1/2-x,1/2-y,-z
1/2+x,1/2-y,z
loop_
_atom_site_type_symbol
_atom_site_label
_atom_site_fract_x
_atom_site_fract_y
_atom_site_fract_z
Si Si1 0.000000 0.387043 0.000000
Si Si2 0.315998 0.801390 0.135711
Si Si3 0.969041 0.569649 0.339712
Si Si4 0.749219 0.425368 0.700307
Si Si5 0.895321 0.817680 0.204552
Si Si6 0.635734 0.163853 0.242199
Si Si7 0.398996 0.711260 0.536915
O O1 0.899985 0.342843 0.123359
O O2 0.002855 0.432982 0.134339
O O3 0.321681 0.729268 0.195429
O O4 0.202562 0.828507 0.300662
O O5 0.335678 0.799985 0.940050
O O6 0.997466 0.500000 0.375193
O O7 0.848545 0.581635 0.485942
O O8 0.030467 0.624773 0.352054
O O9 0.719112 0.500000 0.762932
O O10 0.656143 0.388431 0.727214
O O11 0.775526 0.388097 0.821497
O O12 0.914370 0.789745 0.345009
O O13 0.000000 0.823981 0.000000
O O14 0.618032 0.215641 0.389492
O O15 0.500000 0.681929 0.500000
#
# Coordination Sequence:
#
# PCOD8106650 Si02
#       7
#     4   8   8   8   8   8   8
#     4  10  21  36  64  92 129 164 202 254 314 378
#     4  11  23  40  63  99 131 161 202 257 321 377
#     4  10  21  38  59  92 129 165 203 248 307 377
#     4  11  24  41  64  88 122 169 216 256 304 372
#     4  12  26  42  64  93 125 164 213 262 314 366
#     4  11  23  37  65  97 131 159 200 254 318 381
#     4  12  25  38  65  97 129 163 205 258 323 374
#
# _framework density 20.823786999999999
#
# number of rings (size 3 to 8) (size 9 to 14) (size 15 to 20)
#    0.000    0.923    2.308    4.846    6.462    1.538 
#    0.000    0.000    0.000    1.385    0.000    0.000 
#    0.000    0.000    0.000    0.000    0.000    0.000 
#
# Total GULP energy -322313.237468 kJ/mol
# GULP energy per Si atom -12396.662980 kJ/mol
# Density = 2.077639 g / cm^3
# Si number density = 20.823787 Si / 1000 Ang^3
#
#
#
# Elastic Constant Matrix: (Units=GPa)
#
#
# Indices 1 2 3 4 5 6 
#
# 1 122.6909 55.5475 68.8525 0.0000 -6.4075 0.0000
# 2 55.5475 87.3629 52.4947 0.0000 8.5435 0.0000
# 3 68.8525 52.4947 132.8526 0.0000 3.7415 0.0000
# 4 0.0000 0.0000 0.0000 26.2189 0.0000 -1.5473
# 5 -6.4075 8.5435 3.7415 0.0000 51.7804 0.0000
# 6 0.0000 0.0000 0.0000 -1.5473 0.0000 27.5767
#
#
#
# Elastic Compliance Matrix: (Units=1/GPa)
#
#
# Indices 1 2 3 4 5 6 
#
# 1 0.013808 -0.006201 -0.004793 0.000000 0.003078 0.000000
# 2 -0.006201 0.018016 -0.003807 0.000000 -0.003465 0.000000
# 3 -0.004793 -0.003807 0.011538 0.000000 -0.000799 0.000000
# 4 0.000000 0.000000 0.000000 0.038267 0.000000 0.002147
# 5 0.003078 -0.003465 -0.000799 0.000000 0.020323 0.000000
# 6 0.000000 0.000000 0.000000 0.002147 0.000000 0.036383
#
#
# Mechanical properties :
#
#
# Convention : Reuss Voigt Hill
#
# Bulk Modulus (GPa) = 72.67469 77.41065 75.04267
# Shear Modulus (GPa) = 28.98148 32.18264 30.58206
#
# Velocity S-wave (km/s) = 3.73466 3.93552 3.83640
# Velocity P-wave (km/s) = 7.31933 7.60959 7.46587
#
# Compressibility (1/GPa) = 0.01375995
#
# Stress axis : x y z
#
# Youngs Moduli (GPa) = 72.41969 55.50691 86.66952
#
# Poissons Ratio (x) = 0.34419 0.41540
# Poissons Ratio (y) = 0.44906 0.32999
# Poissons Ratio (z) = 0.34710 0.21134
#
# Static dielectric constant tensor:
#      x y z
#    x 4.249650 0.000000 0.110280 
#    y 0.000000 3.675510 0.000000 
#    z 0.110280 0.000000 4.004090 
# 
# 
# High freq. dielectric constant tensor:
#      x y z
#    x 1.823980 0.000000 0.001070 
#    y 0.000000 1.795060 0.000000 
#    z 0.001070 0.000000 1.824550 
# 
# From -- ./inp_files/77960.got.cif
#   From: 2010.06.25/outbox.cif.g09.slc.cpg/sg12_39_cif.got.tgz:77960.got - 2010.06.28 00:19:55.
