data_PCOD8106027
_publ_section_title
;
Structure prediction by ZEFSAII (Michael W. Deem and Ramdas Pophale) SiO2 
 PCOD8106027
Probable space group: C 2/M
;
_chemical_formula_sum "Si O2"
_cell_formula_units_Z 56
_cell_length_a 25.589241
_cell_length_b 9.432460
_cell_length_c 18.777038
_cell_angle_alpha 90.000000
_cell_angle_beta 140.776064
_cell_angle_gamma 90.000000
_cell_volume 2865.952830
_symmetry_space_group_name_H-M "C 2/M"
_symmetry_group_IT_number 12
_symmetry_cell_setting 'monoclinic'
loop_
_space_group_symop_operation_xyz
x,y,z
-x,y,-z
-x,-y,-z
x,-y,z
1/2+x,1/2+y,z
1/2-x,1/2+y,-z
1/2-x,1/2-y,-z
1/2+x,1/2-y,z
loop_
_atom_site_type_symbol
_atom_site_label
_atom_site_fract_x
_atom_site_fract_y
_atom_site_fract_z
Si Si1 0.622986 0.164140 0.476885
Si Si2 0.305083 0.340130 0.724327
Si Si3 0.832935 0.836495 0.599171
Si Si4 0.155435 0.333906 0.978161
Si Si5 0.087248 0.332700 0.058492
Si Si6 0.495597 0.345542 0.412412
Si Si7 0.343058 0.337451 0.158018
O O1 0.711125 0.198505 0.605298
O O2 0.602768 0.258500 0.385005
O O3 0.553708 0.212587 0.458033
O O4 0.615206 0.000000 0.448640
O O5 0.310660 0.500000 0.760020
O O6 0.360301 0.325756 0.710573
O O7 0.337949 0.234014 0.818114
O O8 0.750000 0.750000 0.500000
O O9 0.819237 0.000000 0.562904
O O10 0.143865 0.500000 0.952432
O O11 0.101569 0.288180 0.990966
O O12 0.252120 0.292852 0.089884
O O13 0.124016 0.252207 0.874914
O O14 0.094760 0.500000 0.074911
O O15 0.000000 0.278952 0.000000
O O16 0.500000 0.362120 0.500000
O O17 0.522834 0.500000 0.408412
O O18 0.403633 0.309334 0.288149
O O19 0.342378 0.500000 0.132475
#
# Coordination Sequence:
#
# PCOD8106027 Si02
#       7
#     8   8   8   8   8   8   8
#     4  10  21  36  54  80 112 148 192 234 281 340
#     4   9  20  36  54  79 110 146 185 227 276 336
#     4   9  17  32  53  78 109 143 185 227 267 326
#     4   9  19  37  60  83 111 148 191 236 283 336
#     4  10  22  37  55  83 113 142 183 233 287 344
#     4  10  22  37  56  84 117 150 188 231 285 349
#     4   9  19  37  59  84 111 146 194 237 278 339
#
# _framework density 19.539750999999999
#
# number of rings (size 3 to 8) (size 9 to 14) (size 15 to 20)
#    0.000    2.571    0.000    1.714    2.000    6.286 
#    0.000    2.857    0.000    0.000    0.000    0.000 
#    0.000    0.000    0.000    0.000    0.000    0.000 
#
# Total GULP energy -347007.866288 kJ/mol
# GULP energy per Si atom -12393.138082 kJ/mol
# Density = 1.949528 g / cm^3
# Si number density = 19.539751 Si / 1000 Ang^3
#
#
#
# Elastic Constant Matrix: (Units=GPa)
#
#
# Indices 1 2 3 4 5 6 
#
# 1 108.2452 38.4531 37.0611 0.0000 -7.5606 0.0000
# 2 38.4531 73.7893 34.4479 0.0000 -4.3956 0.0000
# 3 37.0611 34.4479 95.5363 0.0000 -11.0014 0.0000
# 4 0.0000 0.0000 0.0000 25.1525 0.0000 -2.6062
# 5 -7.5606 -4.3956 -11.0014 0.0000 22.2176 0.0000
# 6 0.0000 0.0000 0.0000 -2.6062 0.0000 31.8746
#
#
#
# Elastic Compliance Matrix: (Units=1/GPa)
#
#
# Indices 1 2 3 4 5 6 
#
# 1 0.012027 -0.004905 -0.002691 0.000000 0.001790 0.000000
# 2 -0.004905 0.018297 -0.004741 0.000000 -0.000396 0.000000
# 3 -0.002691 -0.004741 0.013794 0.000000 0.004976 0.000000
# 4 0.000000 0.000000 0.000000 0.040097 0.000000 0.003279
# 5 0.001790 -0.000396 0.004976 0.000000 0.048004 0.000000
# 6 0.000000 0.000000 0.000000 0.003279 0.000000 0.031641
#
#
# Mechanical properties :
#
#
# Convention : Reuss Voigt Hill
#
# Bulk Modulus (GPa) = 51.42562 55.27722 53.35142
# Shear Modulus (GPa) = 25.63910 27.02286 26.33098
#
# Velocity S-wave (km/s) = 3.62629 3.72286 3.67489
# Velocity P-wave (km/s) = 6.62638 6.84329 6.73571
#
# Compressibility (1/GPa) = 0.01944556
#
# Stress axis : x y z
#
# Youngs Moduli (GPa) = 83.14656 54.65233 72.49777
#
# Poissons Ratio (x) = 0.26805 0.19509
# Poissons Ratio (y) = 0.40780 0.34368
# Poissons Ratio (z) = 0.22375 0.25909
#
# Static dielectric constant tensor:
#      x y z
#    x 4.152570 0.000000 -0.212260 
#    y 0.000000 3.624750 0.000000 
#    z -0.212260 0.000000 3.393080 
# 
# 
# High freq. dielectric constant tensor:
#      x y z
#    x 1.758670 0.000000 -0.007970 
#    y 0.000000 1.763230 0.000000 
#    z -0.007970 0.000000 1.745790 
# 
# From -- ./inp_files/292502.got.cif
#   From: 2010.06.25/outbox.cif.g09.slc.cpg/sg12_147_cif.got.tgz:292502.got - 2010.06.28 00:19:55.
