data_PCOD8106424
_publ_section_title
;
Structure prediction by ZEFSAII (Michael W. Deem and Ramdas Pophale) SiO2 
 PCOD8106424
Probable space group: C 2/M
;
_chemical_formula_sum "Si O2"
_cell_formula_units_Z 56
_cell_length_a 8.877679
_cell_length_b 27.217735
_cell_length_c 20.386763
_cell_angle_alpha 90.000000
_cell_angle_beta 34.001346
_cell_angle_gamma 90.000000
_cell_volume 2754.713707
_symmetry_space_group_name_H-M "C 2/M"
_symmetry_group_IT_number 12
_symmetry_cell_setting 'monoclinic'
loop_
_space_group_symop_operation_xyz
x,y,z
-x,y,-z
-x,-y,-z
x,-y,z
1/2+x,1/2+y,z
1/2-x,1/2+y,-z
1/2-x,1/2-y,-z
1/2+x,1/2-y,z
loop_
_atom_site_type_symbol
_atom_site_label
_atom_site_fract_x
_atom_site_fract_y
_atom_site_fract_z
Si Si1 0.144730 0.817360 0.561278
Si Si2 0.477938 0.586066 0.183648
Si Si3 0.207205 0.741648 0.651260
Si Si4 0.821460 0.093949 0.742161
Si Si5 0.748546 0.942699 0.044718
Si Si6 0.864904 0.500000 0.652305
Si Si7 0.393643 0.500000 0.396727
Si Si8 0.835721 0.317652 0.705891
O O1 0.962312 0.793874 0.570592
O O2 0.972376 0.857388 0.663155
O O3 0.250198 0.774584 0.570894
O O4 0.416330 0.838075 0.429073
O O5 0.628251 0.587863 0.198745
O O6 0.687702 0.567844 0.054035
O O7 0.230312 0.548108 0.274611
O O8 0.361378 0.638525 0.204446
O O9 0.160080 0.776585 0.730845
O O10 0.947036 0.706978 0.732618
O O11 0.931047 0.048784 0.660102
O O12 0.500056 0.092978 0.845790
O O13 0.667026 0.000000 0.081916
O O14 0.000000 0.929152 0.000000
O O15 0.752689 0.500000 0.619813
O O16 0.187247 0.500000 0.532123
#
# Coordination Sequence:
#
# PCOD8106424 Si02
#       8
#     8   8   8   8   8   4   4   8
#     4  11  20  35  59  93 127 163 200 244 300 359
#     4  11  22  37  63  90 120 157 202 248 292 361
#     4  10  21  36  58  87 128 167 204 244 293 360
#     4  11  22  37  63  90 120 157 202 248 292 361
#     4  11  25  45  65  84 115 158 210 254 300 352
#     4   9  18  33  55  90 126 153 182 235 298 357
#     4   9  18  33  55  90 126 153 182 235 298 357
#     4  11  20  35  59  93 127 163 200 244 300 359
#
# _framework density 20.328792
#
# number of rings (size 3 to 8) (size 9 to 14) (size 15 to 20)
#    0.000    1.429    2.857    4.714    2.000    1.714 
#    0.000    0.000    0.000    6.000    0.000    0.000 
#    0.000    0.000    0.000    0.000    0.000    0.000 
#
# Total GULP energy -347156.311030 kJ/mol
# GULP energy per Si atom -12398.439680 kJ/mol
# Density = 2.028252 g / cm^3
# Si number density = 20.328792 Si / 1000 Ang^3
#
#
#
# Elastic Constant Matrix: (Units=GPa)
#
#
# Indices 1 2 3 4 5 6 
#
# 1 99.6183 31.1855 24.8921 0.0007 -11.9795 0.0010
# 2 31.1855 75.2852 28.5955 0.0006 -5.6387 0.0006
# 3 24.8921 28.5955 94.1389 0.0002 -7.8441 0.0013
# 4 0.0007 0.0006 0.0002 19.5509 -0.0001 7.5557
# 5 -11.9795 -5.6387 -7.8441 -0.0001 24.6529 -0.0011
# 6 0.0010 0.0006 0.0013 7.5557 -0.0011 -0.6454
#
#
#
# Elastic Compliance Matrix: (Units=1/GPa)
#
#
# Indices 1 2 3 4 5 6 
#
# 1 0.012278 -0.004135 -0.001615 0.000000 0.004507 0.000000
# 2 -0.004135 0.016508 -0.003877 0.000000 0.000533 -0.000001
# 3 -0.001615 -0.003877 0.012417 -0.000001 0.002279 0.000003
# 4 0.000000 0.000000 -0.000001 0.009258 0.000004 0.108394
# 5 0.004507 0.000533 0.002279 0.000004 0.043600 -0.000011
# 6 0.000000 -0.000001 0.000003 0.108394 -0.000011 -0.280479
#
#
# Mechanical properties :
#
#
# Convention : Reuss Voigt Hill
#
# Bulk Modulus (GPa) = 45.55815 48.70985 47.13400
# Shear Modulus (GPa) = -31.27994 21.00299 -5.13847
#
# Velocity S-wave (km/s) = -3.92688 3.21777 -1.59159
# Velocity P-wave (km/s) = 1.37795 6.14967 4.45630
#
# Compressibility (1/GPa) = 0.02194997
#
# Stress axis : x y z
#
# Youngs Moduli (GPa) = 81.44450 60.57635 80.53375
#
# Poissons Ratio (x) = 0.25049 0.13007
# Poissons Ratio (y) = 0.33678 0.31220
# Poissons Ratio (z) = 0.13154 0.23483
#
# Static dielectric constant tensor:
#      x y z
#    x 3.773060 0.000000 -0.097210 
#    y 0.000000 3.804550 0.000000 
#    z -0.097210 0.000000 3.475740 
# 
# 
# High freq. dielectric constant tensor:
#      x y z
#    x 1.796450 0.000000 -0.007700 
#    y 0.000000 1.795660 0.000000 
#    z -0.007700 0.000000 1.769290 
# 
# From -- ./inp_files/303035.got.cif
#   From: 2010.06.25/outbox.cif.g09.slc.cpg/sg12_152_cif.got.tgz:303035.got - 2010.06.28 00:19:55.
