data_PCOD8106016
_publ_section_title
;
Structure prediction by ZEFSAII (Michael W. Deem and Ramdas Pophale) SiO2 
 PCOD8106016
Probable space group: C 2/M
;
_chemical_formula_sum "Si O2"
_cell_formula_units_Z 48
_cell_length_a 18.194680
_cell_length_b 8.793113
_cell_length_c 20.685048
_cell_angle_alpha 90.000000
_cell_angle_beta 131.817108
_cell_angle_gamma 90.000000
_cell_volume 2466.387418
_symmetry_space_group_name_H-M "C 2/M"
_symmetry_group_IT_number 12
_symmetry_cell_setting 'monoclinic'
loop_
_space_group_symop_operation_xyz
x,y,z
-x,y,-z
-x,-y,-z
x,-y,z
1/2+x,1/2+y,z
1/2-x,1/2+y,-z
1/2-x,1/2-y,-z
1/2+x,1/2-y,z
loop_
_atom_site_type_symbol
_atom_site_label
_atom_site_fract_x
_atom_site_fract_y
_atom_site_fract_z
Si Si1 0.518160 0.823994 0.755932
Si Si2 0.241845 0.323111 0.925494
Si Si3 0.154423 0.319365 0.595025
Si Si4 0.891180 0.678767 0.913738
Si Si5 0.508628 0.180759 0.402969
Si Si6 0.865227 0.820143 0.759811
O O1 0.633326 0.799507 0.833879
O O2 0.489952 0.755156 0.669085
O O3 0.460044 0.733589 0.776387
O O4 0.488845 0.000000 0.744678
O O5 0.270234 0.500000 0.945617
O O6 0.316342 0.235673 0.923454
O O7 0.250000 0.250000 0.000000
O O8 0.153162 0.500000 0.596860
O O9 0.107236 0.265549 0.498969
O O10 0.265590 0.257358 0.666939
O O11 0.087375 0.257420 0.614932
O O12 0.879873 0.500000 0.897663
O O13 0.867513 0.759634 0.833202
O O14 0.000000 0.724021 0.000000
O O15 0.502285 0.000000 0.395966
O O16 0.864626 0.000000 0.762352
#
# Coordination Sequence:
#
# PCOD8106016 Si02
#       6
#     8   8   8   8   8   8
#     4  10  21  36  54  79 111 147 185 223 267 321
#     4  11  23  39  60  85 112 143 182 225 269 321
#     4   8  15  29  51  79 106 137 181 227 270 320
#     4  11  24  41  60  82 109 142 181 224 271 325
#     4   8  14  29  53  76 103 141 182 224 270 319
#     4  11  22  35  54  82 113 144 182 226 271 322
#
# _framework density 19.461660999999999
#
# number of rings (size 3 to 8) (size 9 to 14) (size 15 to 20)
#    0.000    2.167    0.000    4.500    0.000   10.000 
#    0.000    0.000    0.000    1.000    0.000    7.000 
#    0.000    0.000    0.000    0.000    0.000    0.000 
#
# Total GULP energy -297594.066427 kJ/mol
# GULP energy per Si atom -12399.752768 kJ/mol
# Density = 1.941737 g / cm^3
# Si number density = 19.461661 Si / 1000 Ang^3
#
#
#
# Elastic Constant Matrix: (Units=GPa)
#
#
# Indices 1 2 3 4 5 6 
#
# 1 111.3360 17.4859 44.6270 0.0000 -7.2061 0.0000
# 2 17.4859 34.6898 31.0820 0.0000 6.8695 0.0000
# 3 44.6270 31.0820 112.8364 0.0000 -5.5660 0.0000
# 4 0.0000 0.0000 0.0000 -23.5760 0.0000 30.8318
# 5 -7.2061 6.8695 -5.5660 0.0000 41.3643 0.0000
# 6 0.0000 0.0000 0.0000 30.8318 0.0000 7.1818
#
#
#
# Elastic Compliance Matrix: (Units=1/GPa)
#
#
# Indices 1 2 3 4 5 6 
#
# 1 0.010930 -0.002783 -0.003462 0.000000 0.001900 0.000000
# 2 -0.002783 0.041676 -0.010816 0.000000 -0.008862 0.000000
# 3 -0.003462 -0.010816 0.013359 0.000000 0.002991 0.000000
# 4 0.000000 0.000000 0.000000 -0.006413 0.000000 0.027530
# 5 0.001900 -0.008862 0.002991 0.000000 0.026381 0.000000
# 6 0.000000 0.000000 0.000000 0.027530 0.000000 0.021052
#
#
# Mechanical properties :
#
#
# Convention : Reuss Voigt Hill
#
# Bulk Modulus (GPa) = 31.40658 49.47244 40.43951
# Shear Modulus (GPa) = 32.95503 16.03851 24.49677
#
# Velocity S-wave (km/s) = 4.11947 2.87384 3.55169
# Velocity P-wave (km/s) = 6.22892 6.04050 6.13543
#
# Compressibility (1/GPa) = 0.03184046
#
# Stress axis : x y z
#
# Youngs Moduli (GPa) = 91.49323 23.99449 74.85730
#
# Poissons Ratio (x) = 0.06679 0.25918
# Poissons Ratio (y) = 0.25467 0.80969
# Poissons Ratio (z) = 0.31677 0.25953
#
# Static dielectric constant tensor:
#      x y z
#    x 3.661730 0.000000 0.003830 
#    y 0.000000 3.305380 0.000000 
#    z 0.003830 0.000000 3.993090 
# 
# 
# High freq. dielectric constant tensor:
#      x y z
#    x 1.765650 0.000000 -0.002340 
#    y 0.000000 1.728040 0.000000 
#    z -0.002340 0.000000 1.778760 
# 
# From -- ./inp_files/345709.got.cif
#   From: 2010.06.25/outbox.cif.g09.slc.cpg/sg12_173_cif.got.tgz:345709.got - 2010.06.28 00:19:55.
