data_PCOD8106991
_publ_section_title
;
Structure prediction by ZEFSAII (Michael W. Deem and Ramdas Pophale) SiO2 
 PCOD8106991
Probable space group: C 2/M
;
_chemical_formula_sum "Si O2"
_cell_formula_units_Z 56
_cell_length_a 21.088697
_cell_length_b 8.801791
_cell_length_c 17.953128
_cell_angle_alpha 90.000000
_cell_angle_beta 56.793209
_cell_angle_gamma 90.000000
_cell_volume 2788.241505
_symmetry_space_group_name_H-M "C 2/M"
_symmetry_group_IT_number 12
_symmetry_cell_setting 'monoclinic'
loop_
_space_group_symop_operation_xyz
x,y,z
-x,y,-z
-x,-y,-z
x,-y,z
1/2+x,1/2+y,z
1/2-x,1/2+y,-z
1/2-x,1/2-y,-z
1/2+x,1/2-y,z
loop_
_atom_site_type_symbol
_atom_site_label
_atom_site_fract_x
_atom_site_fract_y
_atom_site_fract_z
Si Si1 0.640518 0.172771 0.719614
Si Si2 0.364384 0.675578 0.929840
Si Si3 0.293623 0.674030 0.703846
Si Si4 0.666624 0.321429 0.554576
Si Si5 0.084488 0.322175 0.468071
Si Si6 0.495409 0.822855 0.088352
Si Si7 0.268664 0.824835 0.872153
O O1 0.727104 0.196688 0.687187
O O2 0.624450 0.279413 0.658987
O O3 0.587066 0.213033 0.824270
O O4 0.625618 0.000000 0.704196
O O5 0.362781 0.500000 0.907618
O O6 0.447578 0.724137 0.899780
O O7 0.341113 0.775543 0.873850
O O8 0.308012 0.708770 0.034034
O O9 0.320365 0.500000 0.689183
O O10 0.363368 0.779921 0.635777
O O11 0.262876 0.722323 0.803420
O O12 0.676259 0.500000 0.541027
O O13 0.750000 0.250000 0.500000
O O14 0.613218 0.265708 0.522274
O O15 0.089131 0.500000 0.481674
O O16 0.000000 0.271782 0.500000
O O17 0.516880 0.000000 0.079983
O O18 0.500000 0.767864 0.000000
O O19 0.277237 0.000000 0.844491
#
# Coordination Sequence:
#
# PCOD8106991 Si02
#       7
#     8   8   8   8   8   8   8
#     4  10  22  39  62  92 123 162 208 254 310 373
#     4  10  21  37  57  84 117 156 203 253 304 360
#     4  11  22  38  63  91 120 156 202 253 304 370
#     4  12  24  41  67  94 125 165 211 262 316 377
#     4  11  25  44  66  93 127 164 204 257 319 379
#     4  10  21  38  60  87 123 163 202 249 307 368
#     4  10  21  37  59  84 116 158 201 249 305 368
#
# _framework density 20.084341999999999
#
# number of rings (size 3 to 8) (size 9 to 14) (size 15 to 20)
#    0.000    1.429    1.429    3.857    0.000    6.571 
#    0.000    1.429    0.000    0.000    0.000    0.000 
#    0.000    0.000    0.000    0.000    0.000    0.000 
#
# Total GULP energy -347350.229022 kJ/mol
# GULP energy per Si atom -12405.365322 kJ/mol
# Density = 2.003863 g / cm^3
# Si number density = 20.084342 Si / 1000 Ang^3
#
#
#
# Elastic Constant Matrix: (Units=GPa)
#
#
# Indices 1 2 3 4 5 6 
#
# 1 100.0446 56.5913 29.6439 -0.0001 -1.1253 0.0000
# 2 56.5913 87.3067 47.4089 -0.0003 0.4999 0.0000
# 3 29.6439 47.4089 90.8546 0.0001 7.3315 0.0000
# 4 -0.0001 -0.0003 0.0001 34.9983 0.0000 4.2827
# 5 -1.1253 0.4999 7.3315 0.0000 33.6290 -0.0001
# 6 0.0000 0.0000 0.0000 4.2827 -0.0001 33.2222
#
#
#
# Elastic Compliance Matrix: (Units=1/GPa)
#
#
# Indices 1 2 3 4 5 6 
#
# 1 0.015800 -0.010351 0.000194 0.000000 0.000640 0.000000
# 2 -0.010351 0.022849 -0.008642 0.000000 0.001198 0.000000
# 3 0.000194 -0.008642 0.015719 0.000000 -0.003292 0.000000
# 4 0.000000 0.000000 0.000000 0.029031 0.000000 -0.003742
# 5 0.000640 0.001198 -0.003292 0.000000 0.030458 0.000000
# 6 0.000000 0.000000 0.000000 -0.003742 0.000000 0.030583
#
#
# Mechanical properties :
#
#
# Convention : Reuss Voigt Hill
#
# Bulk Modulus (GPa) = 59.62984 60.61044 60.12014
# Shear Modulus (GPa) = 26.64865 30.00735 28.32800
#
# Velocity S-wave (km/s) = 3.64653 3.86951 3.75967
# Velocity P-wave (km/s) = 6.89084 7.08573 6.98897
#
# Compressibility (1/GPa) = 0.01677013
#
# Stress axis : x y z
#
# Youngs Moduli (GPa) = 63.29061 43.76536 63.61881
#
# Poissons Ratio (x) = 0.45300 -0.01235
# Poissons Ratio (y) = 0.65509 0.54982
# Poissons Ratio (z) = -0.01229 0.37824
#
# Static dielectric constant tensor:
#      x y z
#    x 3.615010 0.000000 0.041200 
#    y 0.000000 3.657070 0.000000 
#    z 0.041200 0.000000 3.715320 
# 
# 
# High freq. dielectric constant tensor:
#      x y z
#    x 1.783040 0.000000 0.005380 
#    y 0.000000 1.788350 0.000000 
#    z 0.005380 0.000000 1.790910 
# 
# From -- ./inp_files/280906.got.cif
#   From: 2010.06.25/outbox.cif.g09.slc.cpg/sg12_141_cif.got.tgz:280906.got - 2010.06.28 00:19:55.
