data_PCOD8106265
_publ_section_title
;
Structure prediction by ZEFSAII (Michael W. Deem and Ramdas Pophale) SiO2 
 PCOD8106265
Probable space group: C 2/M
;
_chemical_formula_sum "Si O2"
_cell_formula_units_Z 64
_cell_length_a 16.140097
_cell_length_b 9.113101
_cell_length_c 21.474560
_cell_angle_alpha 90.000000
_cell_angle_beta 90.588885
_cell_angle_gamma 90.000000
_cell_volume 3158.447475
_symmetry_space_group_name_H-M "C 2/M"
_symmetry_group_IT_number 12
_symmetry_cell_setting 'monoclinic'
loop_
_space_group_symop_operation_xyz
x,y,z
-x,y,-z
-x,-y,-z
x,-y,z
1/2+x,1/2+y,z
1/2-x,1/2+y,-z
1/2-x,1/2-y,-z
1/2+x,1/2-y,z
loop_
_atom_site_type_symbol
_atom_site_label
_atom_site_fract_x
_atom_site_fract_y
_atom_site_fract_z
Si Si1 0.361895 0.674432 0.351645
Si Si2 0.672027 0.835579 0.021033
Si Si3 0.335469 0.664510 0.211973
Si Si4 0.145203 0.661401 0.236093
Si Si5 0.081787 0.170235 0.126619
Si Si6 0.022201 0.170041 0.429013
Si Si7 0.822655 0.671979 0.623806
Si Si8 0.579608 0.166025 0.892964
O O1 0.357438 0.500000 0.354573
O O2 0.368976 0.722893 0.279222
O O3 0.443872 0.733945 0.388219
O O4 0.273634 0.730107 0.381449
O O5 0.641869 0.760269 0.083169
O O6 0.696545 0.000000 0.039652
O O7 0.750000 0.750000 0.000000
O O8 0.608209 0.833482 0.964140
O O9 0.371301 0.500000 0.198539
O O10 0.237747 0.655972 0.212306
O O11 0.354534 0.781400 0.157898
O O12 0.104884 0.500000 0.226420
O O13 0.093962 0.783224 0.198359
O O14 0.142767 0.706584 0.307619
O O15 0.989618 0.210686 0.107965
O O16 0.099161 0.000000 0.117767
O O17 0.111443 0.247135 0.420040
O O18 0.000000 0.195821 0.500000
O O19 0.034022 0.000000 0.412776
O O20 0.824828 0.500000 0.608344
O O21 0.550360 0.000000 0.876068
#
# Coordination Sequence:
#
# PCOD8106265 Si02
#       8
#     8   8   8   8   8   8   8   8
#     4   8  17  36  58  81 116 157 194 237 296 354
#     4  11  24  42  62  82 110 148 188 235 287 339
#     4   9  18  35  59  83 108 146 190 231 284 350
#     4   9  19  37  59  83 113 146 185 237 294 346
#     4  12  25  38  57  84 113 148 189 232 283 345
#     4  10  21  36  56  85 121 158 197 243 293 347
#     4   9  19  37  60  84 114 155 199 244 293 353
#     4  11  24  39  56  82 115 147 184 236 288 334
#
# _framework density 20.263119
#
# number of rings (size 3 to 8) (size 9 to 14) (size 15 to 20)
#    0.000    2.125    0.000    4.500    1.750    7.250 
#    0.000    2.500    0.000    0.000    0.000    0.000 
#    0.000    0.000    0.000    0.000    0.000    0.000 
#
# Total GULP energy -396610.731972 kJ/mol
# GULP energy per Si atom -12394.085374 kJ/mol
# Density = 2.021700 g / cm^3
# Si number density = 20.263119 Si / 1000 Ang^3
#
#
#
# Elastic Constant Matrix: (Units=GPa)
#
#
# Indices 1 2 3 4 5 6 
#
# 1 55.9722 18.6447 2.3586 0.0000 -3.8876 0.0000
# 2 18.6447 92.2430 25.7864 0.0000 -1.7856 0.0000
# 3 2.3586 25.7864 48.0535 0.0000 -2.9744 0.0000
# 4 0.0000 0.0000 0.0000 21.9252 0.0000 -5.1630
# 5 -3.8876 -1.7856 -2.9744 0.0000 35.0771 0.0000
# 6 0.0000 0.0000 0.0000 -5.1630 0.0000 29.8673
#
#
#
# Elastic Compliance Matrix: (Units=1/GPa)
#
#
# Indices 1 2 3 4 5 6 
#
# 1 0.019375 -0.004290 0.001478 0.000000 0.002054 0.000000
# 2 -0.004290 0.013704 -0.007167 0.000000 -0.000386 0.000000
# 3 0.001478 -0.007167 0.024701 0.000000 0.001894 0.000000
# 4 0.000000 0.000000 0.000000 0.047545 0.000000 0.008219
# 5 0.002054 -0.000386 0.001894 0.000000 0.028877 0.000000
# 6 0.000000 0.000000 0.000000 0.008219 0.000000 0.034902
#
#
# Mechanical properties :
#
#
# Convention : Reuss Voigt Hill
#
# Bulk Modulus (GPa) = 26.43913 32.20534 29.32224
# Shear Modulus (GPa) = 24.79301 27.33920 26.06610
#
# Velocity S-wave (km/s) = 3.50173 3.67714 3.59051
# Velocity P-wave (km/s) = 5.42455 5.82723 5.62949
#
# Compressibility (1/GPa) = 0.03782272
#
# Stress axis : x y z
#
# Youngs Moduli (GPa) = 51.61200 72.97080 40.48443
#
# Poissons Ratio (x) = 0.31302 -0.05984
# Poissons Ratio (y) = 0.22140 0.29016
# Poissons Ratio (z) = -0.07629 0.52300
#
# Static dielectric constant tensor:
#      x y z
#    x 3.703170 0.000000 0.117860 
#    y 0.000000 3.561300 0.000000 
#    z 0.117860 0.000000 3.618310 
# 
# 
# High freq. dielectric constant tensor:
#      x y z
#    x 1.795510 0.000000 -0.001000 
#    y 0.000000 1.773200 0.000000 
#    z -0.001000 0.000000 1.794960 
# 
# From -- ./inp_files/314158.got.cif
#   From: 2010.06.25/outbox.cif.g09.slc.cpg/sg12_158_cif.got.tgz:314158.got - 2010.06.28 00:19:55.
