data_PCOD8106798
_publ_section_title
;
Structure prediction by ZEFSAII (Michael W. Deem and Ramdas Pophale) SiO2 
 PCOD8106798
Probable space group: C 2/M
;
_chemical_formula_sum "Si O2"
_cell_formula_units_Z 56
_cell_length_a 19.142684
_cell_length_b 8.925957
_cell_length_c 20.222105
_cell_angle_alpha 90.000000
_cell_angle_beta 119.934409
_cell_angle_gamma 90.000000
_cell_volume 2994.341131
_symmetry_space_group_name_H-M "C 2/M"
_symmetry_group_IT_number 12
_symmetry_cell_setting 'monoclinic'
loop_
_space_group_symop_operation_xyz
x,y,z
-x,y,-z
-x,-y,-z
x,-y,z
1/2+x,1/2+y,z
1/2-x,1/2+y,-z
1/2-x,1/2-y,-z
1/2+x,1/2-y,z
loop_
_atom_site_type_symbol
_atom_site_label
_atom_site_fract_x
_atom_site_fract_y
_atom_site_fract_z
Si Si1 0.220366 0.331809 0.305133
Si Si2 0.994232 0.175067 0.118537
Si Si3 0.874855 0.676860 0.427403
Si Si4 0.044893 0.671635 0.272437
Si Si5 0.683799 0.676323 0.015538
Si Si6 0.482217 0.821840 0.594972
Si Si7 0.147227 0.677852 0.132911
O O1 0.253987 0.500000 0.319252
O O2 0.285157 0.229629 0.371595
O O3 0.140651 0.320544 0.311165
O O4 0.201208 0.277222 0.221722
O O5 0.000864 0.228425 0.197094
O O6 0.056710 0.260068 0.100121
O O7 0.013367 0.000000 0.122615
O O8 0.904550 0.213590 0.053301
O O9 0.875722 0.500000 0.428628
O O10 0.908243 0.736032 0.513961
O O11 0.933890 0.734126 0.397003
O O12 0.015240 0.500000 0.250196
O O13 0.023518 0.742277 0.333635
O O14 0.699953 0.500000 0.027405
O O15 0.691312 0.747983 0.091590
O O16 0.750000 0.750000 0.000000
O O17 0.478475 0.000000 0.596843
O O18 0.141242 0.500000 0.121650
#
# Coordination Sequence:
#
# PCOD8106798 Si02
#       7
#     8   8   8   8   8   8   8
#     4   9  19  33  49  74 105 132 164 210 258 305
#     4  10  21  37  56  80 108 136 173 222 267 310
#     4   9  17  31  52  74  98 133 173 213 257 307
#     4   9  18  34  54  74 100 137 175 211 256 312
#     4  11  24  39  56  81 112 142 175 219 264 308
#     4   8  16  32  51  72  99 132 174 216 253 302
#     4  10  21  38  59  80 106 142 178 214 262 319
#
# _framework density 18.701944000000001
#
# number of rings (size 3 to 8) (size 9 to 14) (size 15 to 20)
#    0.000    2.571    0.000    3.429    0.000    8.571 
#    0.000    5.714    0.000    0.000    0.000    0.000 
#    0.000    0.000    0.000    0.000    0.000    0.000 
#
# Total GULP energy -347178.362431 kJ/mol
# GULP energy per Si atom -12399.227230 kJ/mol
# Density = 1.865938 g / cm^3
# Si number density = 18.701944 Si / 1000 Ang^3
#
#
#
# Elastic Constant Matrix: (Units=GPa)
#
#
# Indices 1 2 3 4 5 6 
#
# 1 51.5070 16.0907 15.9440 0.0000 -21.7352 0.0000
# 2 16.0907 47.9223 12.7759 0.0000 -0.3024 0.0000
# 3 15.9440 12.7759 50.5994 0.0000 -13.3769 0.0000
# 4 0.0000 0.0000 0.0000 30.1180 0.0000 1.6408
# 5 -21.7352 -0.3024 -13.3769 0.0000 39.1839 0.0000
# 6 0.0000 0.0000 0.0000 1.6408 0.0000 25.4434
#
#
#
# Elastic Compliance Matrix: (Units=1/GPa)
#
#
# Indices 1 2 3 4 5 6 
#
# 1 0.029653 -0.009061 -0.002996 0.000000 0.015355 0.000000
# 2 -0.009061 0.025275 -0.005280 0.000000 -0.006634 0.000000
# 3 -0.002996 -0.005280 0.023732 0.000000 0.006399 0.000000
# 4 0.000000 0.000000 0.000000 0.033320 0.000000 -0.002149
# 5 0.015355 -0.006634 0.006399 0.000000 0.036172 0.000000
# 6 0.000000 0.000000 0.000000 -0.002149 0.000000 0.039441
#
#
# Mechanical properties :
#
#
# Convention : Reuss Voigt Hill
#
# Bulk Modulus (GPa) = 22.73495 26.62777 24.68136
# Shear Modulus (GPa) = 21.10329 25.96360 23.53345
#
# Velocity S-wave (km/s) = 3.36281 3.73001 3.55116
# Velocity P-wave (km/s) = 5.22119 5.72883 5.48089
#
# Compressibility (1/GPa) = 0.04398513
#
# Stress axis : x y z
#
# Youngs Moduli (GPa) = 33.72378 39.56433 42.13681
#
# Poissons Ratio (x) = 0.35848 0.12626
# Poissons Ratio (y) = 0.30556 0.22250
# Poissons Ratio (z) = 0.10105 0.20892
#
# Static dielectric constant tensor:
#      x y z
#    x 3.468260 0.000000 -0.155190 
#    y 0.000000 3.281310 0.000000 
#    z -0.155190 0.000000 3.579710 
# 
# 
# High freq. dielectric constant tensor:
#      x y z
#    x 1.723820 0.000000 -0.007440 
#    y 0.000000 1.711880 0.000000 
#    z -0.007440 0.000000 1.734700 
# 
# From -- ./inp_files/313771.got.cif
#   From: 2010.06.25/outbox.cif.g09.slc.cpg/sg12_157_cif.got.tgz:313771.got - 2010.06.28 00:19:55.
