data_PCOD8106392
_publ_section_title
;
Structure prediction by ZEFSAII (Michael W. Deem and Ramdas Pophale) SiO2 
 PCOD8106392
Probable space group: C 2/M
;
_chemical_formula_sum "Si O2"
_cell_formula_units_Z 56
_cell_length_a 12.913275
_cell_length_b 21.138851
_cell_length_c 10.891386
_cell_angle_alpha 90.000000
_cell_angle_beta 82.210461
_cell_angle_gamma 90.000000
_cell_volume 2945.607767
_symmetry_space_group_name_H-M "C 2/M"
_symmetry_group_IT_number 12
_symmetry_cell_setting 'monoclinic'
loop_
_space_group_symop_operation_xyz
x,y,z
-x,y,-z
-x,-y,-z
x,-y,z
1/2+x,1/2+y,z
1/2-x,1/2+y,-z
1/2-x,1/2-y,-z
1/2+x,1/2-y,z
loop_
_atom_site_type_symbol
_atom_site_label
_atom_site_fract_x
_atom_site_fract_y
_atom_site_fract_z
Si Si1 0.756101 0.153812 0.348024
Si Si2 0.200345 0.570742 0.151178
Si Si3 0.047034 0.427721 0.817820
Si Si4 0.033983 0.779646 0.633240
Si Si5 0.325765 0.835820 0.035952
Si Si6 0.406712 0.859333 0.423986
Si Si7 0.842743 0.754505 0.815952
O O1 0.751921 0.088448 0.273079
O O2 0.875365 0.172134 0.346858
O O3 0.703394 0.144172 0.488617
O O4 0.691113 0.206063 0.284136
O O5 0.232420 0.500000 0.112750
O O6 0.075953 0.580819 0.179702
O O7 0.243675 0.617068 0.037910
O O8 0.074786 0.500000 0.852841
O O9 0.084827 0.378232 0.914885
O O10 0.102423 0.412398 0.679567
O O11 0.071607 0.707750 0.643612
O O12 0.000000 0.793388 0.500000
O O13 0.942181 0.791929 0.746588
O O14 0.250420 0.804508 0.148551
O O15 0.372873 0.781119 0.938667
O O16 0.500000 0.878575 0.500000
#
# Coordination Sequence:
#
# PCOD8106392 Si02
#       7
#     8   8   8   8   8   8   8
#     4  11  21  36  57  84 112 152 183 228 283 335
#     4  10  21  38  57  80 112 151 190 228 279 338
#     4  11  22  34  56  86 117 151 186 231 280 332
#     4  11  22  35  59  86 115 145 187 232 284 337
#     4  10  21  36  58  83 119 147 183 229 283 334
#     4  11  19  35  56  83 118 148 184 226 278 342
#     4  10  21  38  57  87 115 149 184 228 282 341
#
# _framework density 19.011357
#
# number of rings (size 3 to 8) (size 9 to 14) (size 15 to 20)
#    0.000    1.429    4.286    3.000    2.000    3.143 
#    0.000    7.143    0.000    3.000    0.000    0.000 
#    0.000    0.000    0.000    0.000    0.000    0.000 
#
# Total GULP energy -347225.680827 kJ/mol
# GULP energy per Si atom -12400.917172 kJ/mol
# Density = 1.896809 g / cm^3
# Si number density = 19.011357 Si / 1000 Ang^3
#
#
#
# Elastic Constant Matrix: (Units=GPa)
#
#
# Indices 1 2 3 4 5 6 
#
# 1 77.5077 30.2143 31.2844 0.0000 0.5017 0.0000
# 2 30.2143 81.5765 28.1850 0.0000 5.8878 0.0000
# 3 31.2844 28.1850 98.9157 0.0000 -10.8939 0.0000
# 4 0.0000 0.0000 0.0000 23.5393 0.0000 4.2133
# 5 0.5017 5.8878 -10.8939 0.0000 27.5591 0.0000
# 6 0.0000 0.0000 0.0000 4.2133 0.0000 25.6387
#
#
#
# Elastic Compliance Matrix: (Units=1/GPa)
#
#
# Indices 1 2 3 4 5 6 
#
# 1 0.016294 -0.004613 -0.003934 0.000000 -0.000866 0.000000
# 2 -0.004613 0.015495 -0.003462 0.000000 -0.004595 0.000000
# 3 -0.003934 -0.003462 0.012996 0.000000 0.005948 0.000000
# 4 0.000000 0.000000 0.000000 0.043770 0.000000 -0.007193
# 5 -0.000866 -0.004595 0.005948 0.000000 0.039634 0.000000
# 6 0.000000 0.000000 0.000000 -0.007193 0.000000 0.040186
#
#
# Mechanical properties :
#
#
# Convention : Reuss Voigt Hill
#
# Bulk Modulus (GPa) = 48.15744 48.59635 48.37690
# Shear Modulus (GPa) = 25.08596 26.56849 25.82723
#
# Velocity S-wave (km/s) = 3.63647 3.74238 3.68980
# Velocity P-wave (km/s) = 6.55879 6.65516 6.60715
#
# Compressibility (1/GPa) = 0.02076522
#
# Stress axis : x y z
#
# Youngs Moduli (GPa) = 61.37299 64.53748 76.94950
#
# Poissons Ratio (x) = 0.29772 0.30274
# Poissons Ratio (y) = 0.28312 0.26641
# Poissons Ratio (z) = 0.24146 0.22344
#
# Static dielectric constant tensor:
#      x y z
#    x 3.218900 0.000000 0.029650 
#    y 0.000000 3.459170 0.000000 
#    z 0.029650 0.000000 3.756110 
# 
# 
# High freq. dielectric constant tensor:
#      x y z
#    x 1.708270 0.000000 0.003030 
#    y 0.000000 1.720300 0.000000 
#    z 0.003030 0.000000 1.759170 
# 
# From -- ./inp_files/133142.got.cif
#   From: 2010.06.25/outbox.cif.g09.slc.cpg/sg12_67_cif.got.tgz:133142.got - 2010.06.28 00:19:55.
