data_PCOD8106383
_publ_section_title
;
Structure prediction by ZEFSAII (Michael W. Deem and Ramdas Pophale) SiO2 
 PCOD8106383
Probable space group: C 2/M
;
_chemical_formula_sum "Si O2"
_cell_formula_units_Z 56
_cell_length_a 21.049214
_cell_length_b 21.399967
_cell_length_c 17.009165
_cell_angle_alpha 90.000000
_cell_angle_beta 159.219975
_cell_angle_gamma 90.000000
_cell_volume 2718.268642
_symmetry_space_group_name_H-M "C 2/M"
_symmetry_group_IT_number 12
_symmetry_cell_setting 'monoclinic'
loop_
_space_group_symop_operation_xyz
x,y,z
-x,y,-z
-x,-y,-z
x,-y,z
1/2+x,1/2+y,z
1/2-x,1/2+y,-z
1/2-x,1/2-y,-z
1/2+x,1/2-y,z
loop_
_atom_site_type_symbol
_atom_site_label
_atom_site_fract_x
_atom_site_fract_y
_atom_site_fract_z
Si Si1 0.496090 0.316960 0.585940
Si Si2 0.009497 0.190186 0.920307
Si Si3 0.566021 0.431269 0.266662
Si Si4 0.256221 0.610823 0.013855
Si Si5 0.608412 0.817327 0.695931
Si Si6 0.883639 0.316860 0.790961
Si Si7 0.964983 0.567898 0.789203
O O1 0.500000 0.341665 0.500000
O O2 0.666021 0.339979 0.832839
O O3 0.488504 0.242091 0.580727
O O4 0.314845 0.340659 0.418505
O O5 0.959259 0.125425 0.821464
O O6 0.885458 0.249300 0.747688
O O7 0.208599 0.209916 0.126830
O O8 0.000000 0.173584 0.000000
O O9 0.540091 0.500000 0.197048
O O10 0.423166 0.427823 0.172685
O O11 0.766710 0.424550 0.527660
O O12 0.142033 0.641205 0.811164
O O13 0.113698 0.567236 0.892829
O O14 0.500000 0.853726 0.500000
O O15 0.995147 0.372958 0.880319
O O16 0.000000 0.297218 0.000000
O O17 0.982602 0.500000 0.852504
#
# Coordination Sequence:
#
# PCOD8106383 Si02
#       7
#     8   8   8   8   8   8   8
#     4  11  21  37  60  91 130 162 201 263 311 372
#     4  10  21  37  63  91 122 162 205 260 315 365
#     4  10  23  42  61  90 125 164 209 256 309 369
#     4  11  22  40  64  89 121 169 208 258 310 369
#     4  10  21  36  57  91 129 161 207 256 311 373
#     4  11  22  39  63  93 125 159 209 258 313 375
#     4  11  24  41  64  88 124 166 205 257 311 369
#
# _framework density 20.601348000000002
#
# number of rings (size 3 to 8) (size 9 to 14) (size 15 to 20)
#    0.000    1.429    1.429    6.000    4.000    2.286 
#    0.000    0.000    0.000    4.286    0.000    0.000 
#    0.000    0.000    0.000    0.000    0.000    0.000 
#
# Total GULP energy -346978.258769 kJ/mol
# GULP energy per Si atom -12392.080670 kJ/mol
# Density = 2.055446 g / cm^3
# Si number density = 20.601348 Si / 1000 Ang^3
#
#
#
# Elastic Constant Matrix: (Units=GPa)
#
#
# Indices 1 2 3 4 5 6 
#
# 1 84.7582 47.2305 32.5551 0.0000 10.8525 0.0000
# 2 47.2305 142.7466 30.3702 -0.0001 -3.0060 0.0000
# 3 32.5551 30.3702 90.6872 0.0000 0.3701 -0.0001
# 4 0.0000 -0.0001 0.0000 60.1094 0.0000 39.6299
# 5 10.8525 -3.0060 0.3701 0.0000 45.9946 0.0000
# 6 0.0000 0.0000 -0.0001 39.6299 0.0000 40.1481
#
#
#
# Elastic Compliance Matrix: (Units=1/GPa)
#
#
# Indices 1 2 3 4 5 6 
#
# 1 0.016612 -0.004651 -0.004389 0.000000 -0.004188 0.000000
# 2 -0.004651 0.008857 -0.001303 0.000000 0.001687 0.000000
# 3 -0.004389 -0.001303 0.013035 0.000000 0.000845 0.000000
# 4 0.000000 0.000000 0.000000 0.047639 0.000000 -0.047024
# 5 -0.004188 0.001687 0.000845 0.000000 0.022833 0.000000
# 6 0.000000 0.000000 0.000000 -0.047024 0.000000 0.071325
#
#
# Mechanical properties :
#
#
# Convention : Reuss Voigt Hill
#
# Bulk Modulus (GPa) = 56.12205 59.83373 57.97789
# Shear Modulus (GPa) = 24.16304 43.11951 33.64128
#
# Velocity S-wave (km/s) = 3.42846 4.57994 4.04538
# Velocity P-wave (km/s) = 6.55542 7.55477 7.07276
#
# Compressibility (1/GPa) = 0.01781831
#
# Stress axis : x y z
#
# Youngs Moduli (GPa) = 60.19811 112.90420 76.71378
#
# Poissons Ratio (x) = 0.52510 0.33668
# Poissons Ratio (y) = 0.27997 0.09999
# Poissons Ratio (z) = 0.26419 0.14717
#
# Static dielectric constant tensor:
#      x y z
#    x 3.860750 0.000000 0.175460 
#    y 0.000000 3.765910 0.000000 
#    z 0.175460 0.000000 3.881850 
# 
# 
# High freq. dielectric constant tensor:
#      x y z
#    x 1.802070 0.000000 0.018620 
#    y 0.000000 1.798930 0.000000 
#    z 0.018620 0.000000 1.814810 
# 
# From -- ./inp_files/286096.got.cif
#   From: 2010.06.25/outbox.cif.g09.slc.cpg/sg12_144_cif.got.tgz:286096.got - 2010.06.28 00:19:55.
