data_PCOD8106385
_publ_section_title
;
Structure prediction by ZEFSAII (Michael W. Deem and Ramdas Pophale) SiO2 
 PCOD8106385
Probable space group: C 2/M
;
_chemical_formula_sum "Si O2"
_cell_formula_units_Z 52
_cell_length_a 5.296558
_cell_length_b 24.937847
_cell_length_c 21.231476
_cell_angle_alpha 90.000000
_cell_angle_beta 63.753656
_cell_angle_gamma 90.000000
_cell_volume 2515.228037
_symmetry_space_group_name_H-M "C 2/M"
_symmetry_group_IT_number 12
_symmetry_cell_setting 'monoclinic'
loop_
_space_group_symop_operation_xyz
x,y,z
-x,y,-z
-x,-y,-z
x,-y,z
1/2+x,1/2+y,z
1/2-x,1/2+y,-z
1/2-x,1/2-y,-z
1/2+x,1/2-y,z
loop_
_atom_site_type_symbol
_atom_site_label
_atom_site_fract_x
_atom_site_fract_y
_atom_site_fract_z
Si Si1 0.983453 0.218190 0.202994
Si Si2 0.353223 0.782870 0.582217
Si Si3 0.674403 0.624597 0.690707
Si Si4 0.000000 0.913444 0.000000
Si Si5 0.889117 0.438326 0.275277
Si Si6 0.023992 0.557956 0.875273
Si Si7 0.254974 0.652942 0.925761
O O1 0.683100 0.245835 0.224764
O O2 0.933715 0.162296 0.241887
O O3 0.135184 0.206931 0.119318
O O4 0.500000 0.795005 0.500000
O O5 0.560131 0.748893 0.604716
O O6 0.291576 0.840032 0.620288
O O7 0.418741 0.588357 0.694233
O O8 0.924629 0.588290 0.690662
O O9 0.993279 0.874122 0.940986
O O10 0.265032 0.949807 0.953060
O O11 0.845973 0.500000 0.298734
O O12 0.050562 0.432983 0.190080
O O13 0.186676 0.500000 0.862662
O O14 0.194493 0.609258 0.878542
O O15 0.000000 0.667991 0.000000
#
# Coordination Sequence:
#
# PCOD8106385 Si02
#       7
#     8   8   8   4   8   8   8
#     4  12  26  40  62  86 116 157 208 252 306 365
#     4  10  21  39  66 102 137 172 214 257 310 365
#     4  12  22  42  66  93 132 162 208 259 315 363
#     4  10  21  36  58  80 112 150 200 256 327 380
#     4  11  24  40  66  94 126 165 209 258 314 380
#     4  10  21  37  57  84 113 151 201 262 324 374
#     4  10  23  39  56  77 115 148 199 252 312 374
#
# _framework density 20.67407
#
# number of rings (size 3 to 8) (size 9 to 14) (size 15 to 20)
#    0.000    1.231    1.538    4.385    4.308    4.000 
#    0.000    0.000    0.000    2.769    0.000    0.000 
#    0.000    0.000    0.000    0.000    0.000    0.000 
#
# Total GULP energy -322267.795335 kJ/mol
# GULP energy per Si atom -12394.915205 kJ/mol
# Density = 2.062702 g / cm^3
# Si number density = 20.674070 Si / 1000 Ang^3
#
#
#
# Elastic Constant Matrix: (Units=GPa)
#
#
# Indices 1 2 3 4 5 6 
#
# 1 137.8227 59.2074 27.0975 0.0000 12.7746 0.0000
# 2 59.2074 114.8322 45.6371 0.0000 8.0230 0.0000
# 3 27.0975 45.6371 81.8524 0.0000 8.9024 0.0000
# 4 0.0000 0.0000 0.0000 36.4229 0.0000 -0.4360
# 5 12.7746 8.0230 8.9024 0.0000 14.6174 0.0000
# 6 0.0000 0.0000 0.0000 -0.4360 0.0000 32.6775
#
#
#
# Elastic Compliance Matrix: (Units=1/GPa)
#
#
# Indices 1 2 3 4 5 6 
#
# 1 0.009805 -0.004631 -0.000009 0.000000 -0.006022 0.000000
# 2 -0.004631 0.013461 -0.006007 0.000000 0.000317 0.000000
# 3 -0.000009 -0.006007 0.016289 0.000000 -0.006616 0.000000
# 4 0.000000 0.000000 0.000000 0.027460 0.000000 0.000366
# 5 -0.006022 0.000317 -0.006616 0.000000 0.077529 0.000000
# 6 0.000000 0.000000 0.000000 0.000366 0.000000 0.030607
#
#
# Mechanical properties :
#
#
# Convention : Reuss Voigt Hill
#
# Bulk Modulus (GPa) = 54.76058 66.48793 60.62426
# Shear Modulus (GPa) = 24.68749 30.24792 27.46770
#
# Velocity S-wave (km/s) = 3.45936 3.82918 3.64896
# Velocity P-wave (km/s) = 6.51931 7.19583 6.86591
#
# Compressibility (1/GPa) = 0.01826131
#
# Stress axis : x y z
#
# Youngs Moduli (GPa) = 101.98733 74.28718 61.39246
#
# Poissons Ratio (x) = 0.34404 0.00055
# Poissons Ratio (y) = 0.47233 0.36877
# Poissons Ratio (z) = 0.00091 0.44622
#
# Static dielectric constant tensor:
#      x y z
#    x 3.818080 0.000000 0.100290 
#    y 0.000000 3.698430 0.000000 
#    z 0.100290 0.000000 3.524020 
# 
# 
# High freq. dielectric constant tensor:
#      x y z
#    x 1.811780 0.000000 0.003530 
#    y 0.000000 1.812140 0.000000 
#    z 0.003530 0.000000 1.797580 
# 
# From -- ./inp_files/297839.got.cif
#   From: 2010.06.25/outbox.cif.g09.slc.cpg/sg12_149_cif.got.tgz:297839.got - 2010.06.28 00:19:55.
