data_PCOD8106891
_publ_section_title
;
Structure prediction by ZEFSAII (Michael W. Deem and Ramdas Pophale) SiO2 
 PCOD8106891
Probable space group: C 2/M
;
_chemical_formula_sum "Si O2"
_cell_formula_units_Z 48
_cell_length_a 10.201804
_cell_length_b 9.041344
_cell_length_c 26.981281
_cell_angle_alpha 90.000000
_cell_angle_beta 79.251345
_cell_angle_gamma 90.000000
_cell_volume 2445.035122
_symmetry_space_group_name_H-M "C 2/M"
_symmetry_group_IT_number 12
_symmetry_cell_setting 'monoclinic'
loop_
_space_group_symop_operation_xyz
x,y,z
-x,y,-z
-x,-y,-z
x,-y,z
1/2+x,1/2+y,z
1/2-x,1/2+y,-z
1/2-x,1/2-y,-z
1/2+x,1/2-y,z
loop_
_atom_site_type_symbol
_atom_site_label
_atom_site_fract_x
_atom_site_fract_y
_atom_site_fract_z
Si Si1 0.382469 0.174506 0.472089
Si Si2 0.380613 0.328135 0.970483
Si Si3 0.569920 0.826065 0.135852
Si Si4 0.753559 0.170646 0.306277
Si Si5 0.187278 0.830001 0.810356
Si Si6 0.535393 0.174980 0.642261
O O1 0.500000 0.225060 0.500000
O O2 0.250000 0.250000 0.500000
O O3 0.415975 0.231475 0.414656
O O4 0.362159 0.000000 0.474747
O O5 0.348842 0.500000 0.965220
O O6 0.425605 0.258943 0.915891
O O7 0.500000 0.302733 0.000000
O O8 0.250000 0.250000 0.000000
O O9 0.701071 0.785224 0.157715
O O10 0.440001 0.774649 0.174865
O O11 0.560724 0.000000 0.126626
O O12 0.749894 0.196087 0.247868
O O13 0.615205 0.230764 0.338595
O O14 0.873688 0.261125 0.321056
O O15 0.774761 0.000000 0.318480
O O16 0.143040 0.000000 0.820799
O O17 0.541077 0.000000 0.645782
#
# Coordination Sequence:
#
# PCOD8106891 Si02
#       6
#     8   8   8   8   8   8
#     4  10  21  37  57  81 111 147 186 230 281 335
#     4  11  24  41  61  87 119 153 191 235 282 335
#     4  11  23  39  61  87 115 150 191 234 281 333
#     4  10  21  38  59  82 112 149 186 228 280 335
#     4  10  22  39  58  84 116 148 186 232 280 333
#     4  10  21  37  57  83 113 145 186 234 280 332
#
# _framework density 19.631620000000002
#
# number of rings (size 3 to 8) (size 9 to 14) (size 15 to 20)
#    0.000    1.667    0.000    4.000    0.000   11.667 
#    0.000    0.000    0.000    0.000    0.000    0.000 
#    0.000    0.000    0.000    0.000    0.000    0.000 
#
# Total GULP energy -297742.856279 kJ/mol
# GULP energy per Si atom -12405.952345 kJ/mol
# Density = 1.958694 g / cm^3
# Si number density = 19.631620 Si / 1000 Ang^3
#
#
#
# Elastic Constant Matrix: (Units=GPa)
#
#
# Indices 1 2 3 4 5 6 
#
# 1 114.6949 49.5086 28.3969 0.0000 -7.4816 0.0000
# 2 49.5086 64.3471 33.3523 0.0000 0.1930 0.0000
# 3 28.3969 33.3523 95.7884 0.0000 -2.9368 0.0000
# 4 0.0000 0.0000 0.0000 33.3764 0.0000 -4.4398
# 5 -7.4816 0.1930 -2.9368 0.0000 43.6188 0.0000
# 6 0.0000 0.0000 0.0000 -4.4398 0.0000 33.2831
#
#
#
# Elastic Compliance Matrix: (Units=1/GPa)
#
#
# Indices 1 2 3 4 5 6 
#
# 1 0.013297 -0.010043 -0.000374 0.000000 0.002300 0.000000
# 2 -0.010043 0.026561 -0.006340 0.000000 -0.002267 0.000000
# 3 -0.000374 -0.006340 0.012784 0.000000 0.000825 0.000000
# 4 0.000000 0.000000 0.000000 0.030503 0.000000 0.004069
# 5 0.002300 -0.002267 0.000825 0.000000 0.023386 0.000000
# 6 0.000000 0.000000 0.000000 0.004069 0.000000 0.030588
#
#
# Mechanical properties :
#
#
# Convention : Reuss Voigt Hill
#
# Bulk Modulus (GPa) = 52.28685 55.26069 53.77377
# Shear Modulus (GPa) = 28.24707 32.96049 30.60378
#
# Velocity S-wave (km/s) = 3.79734 4.10194 3.95258
# Velocity P-wave (km/s) = 6.77630 7.11650 6.94848
#
# Compressibility (1/GPa) = 0.01912527
#
# Stress axis : x y z
#
# Youngs Moduli (GPa) = 75.20629 37.64892 78.22527
#
# Poissons Ratio (x) = 0.37812 0.02929
# Poissons Ratio (y) = 0.75532 0.49598
# Poissons Ratio (z) = 0.02816 0.23871
#
# Static dielectric constant tensor:
#      x y z
#    x 3.655780 0.000000 -0.079730 
#    y 0.000000 4.179730 0.000000 
#    z -0.079730 0.000000 3.798280 
# 
# 
# High freq. dielectric constant tensor:
#      x y z
#    x 1.779290 0.000000 -0.001090 
#    y 0.000000 1.760840 0.000000 
#    z -0.001090 0.000000 1.784510 
# 
# From -- ./inp_files/334659.got.cif
#   From: 2010.06.25/outbox.cif.g09.slc.cpg/sg12_168_cif.got.tgz:334659.got - 2010.06.28 00:19:55.
