data_PCOD8106677
_publ_section_title
;
Structure prediction by ZEFSAII (Michael W. Deem and Ramdas Pophale) SiO2 
 PCOD8106677
Probable space group: C 2/M
;
_chemical_formula_sum "Si O2"
_cell_formula_units_Z 64
_cell_length_a 31.684692
_cell_length_b 8.945061
_cell_length_c 15.707633
_cell_angle_alpha 90.000000
_cell_angle_beta 53.330417
_cell_angle_gamma 90.000000
_cell_volume 3570.821640
_symmetry_space_group_name_H-M "C 2/M"
_symmetry_group_IT_number 12
_symmetry_cell_setting 'monoclinic'
loop_
_space_group_symop_operation_xyz
x,y,z
-x,y,-z
-x,-y,-z
x,-y,z
1/2+x,1/2+y,z
1/2-x,1/2+y,-z
1/2-x,1/2-y,-z
1/2+x,1/2-y,z
loop_
_atom_site_type_symbol
_atom_site_label
_atom_site_fract_x
_atom_site_fract_y
_atom_site_fract_z
Si Si1 0.359935 0.829023 0.031203
Si Si2 0.225582 0.673438 0.448023
Si Si3 0.240648 0.824555 0.777185
Si Si4 0.385148 0.822998 0.489751
Si Si5 0.974134 0.677431 0.946440
Si Si6 0.602470 0.828490 0.203906
Si Si7 0.009712 0.322921 0.724681
Si Si8 0.155016 0.176279 0.296057
O O1 0.315042 0.718706 0.116998
O O2 0.344907 0.000000 0.071013
O O3 0.412705 0.780448 0.017245
O O4 0.367934 0.809933 0.921169
O O5 0.230840 0.500000 0.458598
O O6 0.250000 0.750000 0.500000
O O7 0.257274 0.720824 0.324897
O O8 0.164453 0.719000 0.510020
O O9 0.285954 0.739437 0.774055
O O10 0.250860 0.000000 0.775701
O O11 0.437655 0.758740 0.382040
O O12 0.380352 0.745644 0.586738
O O13 0.387754 0.000000 0.502078
O O14 0.980030 0.500000 0.939117
O O15 0.004001 0.742684 0.827286
O O16 0.000000 0.747894 0.000000
O O17 0.541471 0.779532 0.268763
O O18 0.629286 0.717665 0.237492
O O19 0.606549 0.000000 0.230391
O O20 0.013425 0.500000 0.726631
O O21 0.156981 0.000000 0.304357
#
# Coordination Sequence:
#
# PCOD8106677 Si02
#       8
#     8   8   8   8   8   8   8   8
#     4   9  18  32  52  78 104 132 168 208 249 293
#     4   9  19  33  50  73 100 130 164 204 247 292
#     4  10  21  37  54  73 100 133 168 206 251 301
#     4   9  18  34  53  74 101 133 169 206 247 295
#     4   8  14  26  47  77 108 133 163 205 245 285
#     4   9  18  34  53  74 102 133 166 204 246 296
#     4   8  15  29  50  73  98 133 171 201 238 293
#     4  11  22  35  52  74  99 129 167 209 254 300
#
# _framework density 17.923045999999999
#
# number of rings (size 3 to 8) (size 9 to 14) (size 15 to 20)
#    0.000    2.875    0.000    3.750    0.000    5.000 
#    0.000    5.625    0.000    1.125    0.000    0.000 
#    0.000    0.000    0.000    0.000    0.000    0.000 
#
# Total GULP energy -396747.953185 kJ/mol
# GULP energy per Si atom -12398.373537 kJ/mol
# Density = 1.788225 g / cm^3
# Si number density = 17.923046 Si / 1000 Ang^3
#
#
#
# Elastic Constant Matrix: (Units=GPa)
#
#
# Indices 1 2 3 4 5 6 
#
# 1 127.0231 39.0210 78.8437 0.0000 7.4956 0.0000
# 2 39.0210 54.1545 36.7857 0.0000 1.5745 -0.0006
# 3 78.8437 36.7857 109.1422 0.0000 -14.9398 0.0000
# 4 0.0000 0.0000 0.0000 25.2776 0.0000 0.1020
# 5 7.4956 1.5745 -14.9398 0.0000 31.8015 0.0000
# 6 0.0000 -0.0006 0.0000 0.1020 0.0000 24.1577
#
#
#
# Elastic Compliance Matrix: (Units=1/GPa)
#
#
# Indices 1 2 3 4 5 6 
#
# 1 0.017519 -0.003646 -0.012789 0.000000 -0.009957 0.000000
# 2 -0.003646 0.025580 -0.006459 0.000000 -0.003441 0.000001
# 3 -0.012789 -0.006459 0.022480 0.000000 0.013895 0.000000
# 4 0.000000 0.000000 0.000000 0.039561 0.000000 -0.000167
# 5 -0.009957 -0.003441 0.013895 0.000000 0.040490 0.000000
# 6 0.000000 0.000001 0.000000 -0.000167 0.000000 0.041395
#
#
# Mechanical properties :
#
#
# Convention : Reuss Voigt Hill
#
# Bulk Modulus (GPa) = 50.52923 66.62452 58.57688
# Shear Modulus (GPa) = 20.88459 25.29201 23.08830
#
# Velocity S-wave (km/s) = 3.41726 3.76060 3.59303
# Velocity P-wave (km/s) = 6.61995 7.49062 7.06870
#
# Compressibility (1/GPa) = 0.01979052
#
# Stress axis : x y z
#
# Youngs Moduli (GPa) = 57.08216 39.09276 44.48346
#
# Poissons Ratio (x) = 0.14253 0.56892
# Poissons Ratio (y) = 0.20812 0.28731
# Poissons Ratio (z) = 0.73005 0.25249
#
# Static dielectric constant tensor:
#      x y z
#    x 3.420420 0.000000 -0.036340 
#    y 0.000000 2.999690 0.000000 
#    z -0.036340 0.000000 3.576370 
# 
# 
# High freq. dielectric constant tensor:
#      x y z
#    x 1.698950 0.000000 -0.001080 
#    y 0.000000 1.663510 0.000000 
#    z -0.001080 0.000000 1.697680 
# 
# From -- ./inp_files/249112.got.cif
#   From: 2010.06.25/outbox.cif.g09.slc.cpg/sg12_125_cif.got.tgz:249112.got - 2010.06.28 00:19:55.
