data_PCOD8106547
_publ_section_title
;
Structure prediction by ZEFSAII (Michael W. Deem and Ramdas Pophale) SiO2 
 PCOD8106547
Probable space group: C 2/M
;
_chemical_formula_sum "Si O2"
_cell_formula_units_Z 48
_cell_length_a 8.711077
_cell_length_b 17.637907
_cell_length_c 24.697798
_cell_angle_alpha 90.000000
_cell_angle_beta 136.655195
_cell_angle_gamma 90.000000
_cell_volume 2604.631855
_symmetry_space_group_name_H-M "C 2/M"
_symmetry_group_IT_number 12
_symmetry_cell_setting 'monoclinic'
loop_
_space_group_symop_operation_xyz
x,y,z
-x,y,-z
-x,-y,-z
x,-y,z
1/2+x,1/2+y,z
1/2-x,1/2+y,-z
1/2-x,1/2-y,-z
1/2+x,1/2-y,z
loop_
_atom_site_type_symbol
_atom_site_label
_atom_site_fract_x
_atom_site_fract_y
_atom_site_fract_z
Si Si1 0.578360 0.328129 0.718202
Si Si2 0.362858 0.587492 0.846759
Si Si3 0.215501 0.327383 0.706828
Si Si4 0.194825 0.667278 0.007020
Si Si5 0.157864 0.589259 0.589119
Si Si6 0.530215 0.912884 0.859145
O O1 0.468301 0.312341 0.749196
O O2 0.593886 0.250840 0.688745
O O3 0.414558 0.384957 0.642820
O O4 0.820909 0.363096 0.787847
O O5 0.416969 0.500000 0.849505
O O6 0.218869 0.619705 0.760293
O O7 0.227385 0.599079 0.867041
O O8 0.591368 0.633423 0.908242
O O9 0.075102 0.370474 0.623589
O O10 0.123647 0.611817 0.940765
O O11 0.250000 0.750000 0.000000
O O12 0.000000 0.673864 0.000000
O O13 0.147708 0.500000 0.594579
O O14 0.000000 0.616498 0.500000
O O15 0.454241 0.000000 0.842921
#
# Coordination Sequence:
#
# PCOD8106547 Si02
#       6
#     8   8   8   8   8   8
#     4  10  21  36  60  87 120 155 198 246 296 355
#     4  11  23  39  60  85 119 158 201 248 300 357
#     4  10  21  36  60  87 120 155 198 246 296 355
#     4  12  25  40  59  83 117 157 201 254 300 351
#     4   9  20  38  62  89 120 158 199 245 300 364
#     4  11  23  39  60  85 119 158 201 248 300 357
#
# _framework density 18.428708
#
# number of rings (size 3 to 8) (size 9 to 14) (size 15 to 20)
#    1.000    0.500    0.000    6.000    0.000    4.667 
#    0.000    0.000    0.000    0.000    0.000    7.000 
#    0.000    0.000    0.000    0.000    0.000    0.000 
#
# Total GULP energy -297582.169520 kJ/mol
# GULP energy per Si atom -12399.257063 kJ/mol
# Density = 1.838676 g / cm^3
# Si number density = 18.428708 Si / 1000 Ang^3
#
#
#
# Elastic Constant Matrix: (Units=GPa)
#
#
# Indices 1 2 3 4 5 6 
#
# 1 87.4293 35.5847 18.3920 0.0001 -17.0643 0.0001
# 2 35.5847 98.5510 28.8801 0.0000 -22.9240 0.0000
# 3 18.3920 28.8801 104.9511 0.0001 -23.2917 0.0001
# 4 0.0001 0.0000 0.0001 29.4100 0.0001 -0.0468
# 5 -17.0643 -22.9240 -23.2917 0.0001 25.2554 0.0001
# 6 0.0001 0.0000 0.0001 -0.0468 0.0001 31.8567
#
#
#
# Elastic Compliance Matrix: (Units=1/GPa)
#
#
# Indices 1 2 3 4 5 6 
#
# 1 0.014144 -0.003645 -0.000112 0.000000 0.006145 0.000000
# 2 -0.003645 0.013922 -0.001175 0.000000 0.009091 0.000000
# 3 -0.000112 -0.001175 0.012093 0.000000 0.010011 0.000000
# 4 0.000000 0.000000 0.000000 0.034002 0.000000 0.000050
# 5 0.006145 0.009091 0.010011 0.000000 0.061231 0.000000
# 6 0.000000 0.000000 0.000000 0.000050 0.000000 0.031391
#
#
# Mechanical properties :
#
#
# Convention : Reuss Voigt Hill
#
# Bulk Modulus (GPa) = 33.00792 50.73836 41.87314
# Shear Modulus (GPa) = 26.77444 31.17603 28.97524
#
# Velocity S-wave (km/s) = 3.81578 4.11750 3.96951
# Velocity P-wave (km/s) = 6.11258 7.08499 6.61667
#
# Compressibility (1/GPa) = 0.03029576
#
# Stress axis : x y z
#
# Youngs Moduli (GPa) = 70.69977 71.82871 82.69401
#
# Poissons Ratio (x) = 0.26182 0.00925
# Poissons Ratio (y) = 0.25770 0.09715
# Poissons Ratio (z) = 0.00791 0.08438
#
# Static dielectric constant tensor:
#      x y z
#    x 3.396500 0.000000 -0.081600 
#    y 0.000000 3.483110 0.000000 
#    z -0.081600 0.000000 3.308520 
# 
# 
# High freq. dielectric constant tensor:
#      x y z
#    x 1.713160 0.000000 -0.007380 
#    y 0.000000 1.731620 0.000000 
#    z -0.007380 0.000000 1.710330 
# 
# From -- ./inp_files/300618.got.cif
#   From: 2010.06.25/outbox.cif.g09.slc.cpg/sg12_151_cif.got.tgz:300618.got - 2010.06.28 00:19:55.
