data_PCOD8106610
_publ_section_title
;
Structure prediction by ZEFSAII (Michael W. Deem and Ramdas Pophale) SiO2 
 PCOD8106610
Probable space group: C 2/M
;
_chemical_formula_sum "Si O2"
_cell_formula_units_Z 40
_cell_length_a 18.099985
_cell_length_b 13.632865
_cell_length_c 14.981073
_cell_angle_alpha 90.000000
_cell_angle_beta 147.220804
_cell_angle_gamma 90.000000
_cell_volume 2001.376980
_symmetry_space_group_name_H-M "C 2/M"
_symmetry_group_IT_number 12
_symmetry_cell_setting 'monoclinic'
loop_
_space_group_symop_operation_xyz
x,y,z
-x,y,-z
-x,-y,-z
x,-y,z
1/2+x,1/2+y,z
1/2-x,1/2+y,-z
1/2-x,1/2-y,-z
1/2+x,1/2-y,z
loop_
_atom_site_type_symbol
_atom_site_label
_atom_site_fract_x
_atom_site_fract_y
_atom_site_fract_z
Si Si1 0.833943 0.114653 0.071216
Si Si2 0.521865 0.721484 0.125429
Si Si3 0.961520 0.108754 0.563331
Si Si4 0.803942 0.287322 0.462699
Si Si5 0.972498 0.614639 0.209553
O O1 0.907033 0.157616 0.057905
O O2 0.915037 0.140071 0.244891
O O3 0.824476 0.000000 0.045842
O O4 0.679154 0.155533 0.921641
O O5 0.669813 0.666028 0.280276
O O6 0.526972 0.828221 0.177876
O O7 0.500000 0.738366 0.000000
O O8 0.847039 0.191293 0.451342
O O9 0.000000 0.103614 0.500000
O O10 0.908501 0.000000 0.538833
O O11 0.750000 0.250000 0.500000
O O12 0.928357 0.363728 0.604461
O O13 0.971852 0.500000 0.186673
#
# Coordination Sequence:
#
# PCOD8106610 Si02
#       5
#     8   8   8   8   8
#     4  10  21  40  62  85 118 161 201 241 293 355
#     4  11  24  39  61  91 123 158 195 243 302 355
#     4  10  21  36  61  91 120 155 200 246 296 355
#     4  10  21  38  58  88 120 160 192 239 302 347
#     4  10  22  40  63  87 117 160 202 245 296 345
#
# _framework density 19.986239000000001
#
# number of rings (size 3 to 8) (size 9 to 14) (size 15 to 20)
#    0.000    1.800    4.000    0.600    2.800    4.800 
#    0.000    0.000    0.000    3.000    0.000    0.000 
#    0.000    0.000    0.000    0.000    0.000    0.000 
#
# Total GULP energy -247823.840984 kJ/mol
# GULP energy per Si atom -12391.192049 kJ/mol
# Density = 1.994075 g / cm^3
# Si number density = 19.986239 Si / 1000 Ang^3
#
#
#
# Elastic Constant Matrix: (Units=GPa)
#
#
# Indices 1 2 3 4 5 6 
#
# 1 98.2925 34.1731 59.6352 0.0001 -2.9734 0.0000
# 2 34.1731 35.5538 26.7090 0.0000 0.3421 0.0000
# 3 59.6352 26.7090 136.6569 0.0001 14.7725 0.0001
# 4 0.0001 0.0000 0.0001 21.2378 0.0001 -0.5499
# 5 -2.9734 0.3421 14.7725 0.0001 31.6022 0.0001
# 6 0.0000 0.0000 0.0001 -0.5499 0.0001 27.6229
#
#
#
# Elastic Compliance Matrix: (Units=1/GPa)
#
#
# Indices 1 2 3 4 5 6 
#
# 1 0.018640 -0.013441 -0.006016 0.000000 0.004712 0.000000
# 2 -0.013441 0.042896 -0.002455 0.000000 -0.000581 0.000000
# 3 -0.006016 -0.002455 0.011039 0.000000 -0.005700 0.000000
# 4 0.000000 0.000000 0.000000 0.047110 0.000000 0.000938
# 5 0.004712 -0.000581 -0.005700 0.000000 0.034757 0.000000
# 6 0.000000 0.000000 0.000000 0.000938 0.000000 0.036220
#
#
# Mechanical properties :
#
#
# Convention : Reuss Voigt Hill
#
# Bulk Modulus (GPa) = 34.78451 56.83753 45.81102
# Shear Modulus (GPa) = 20.48581 26.09166 23.28873
#
# Velocity S-wave (km/s) = 3.20503 3.61706 3.41726
# Velocity P-wave (km/s) = 5.58017 6.77822 6.20816
#
# Compressibility (1/GPa) = 0.02874843
#
# Stress axis : x y z
#
# Youngs Moduli (GPa) = 53.64933 23.31221 90.58765
#
# Poissons Ratio (x) = 0.31335 0.54500
# Poissons Ratio (y) = 0.72113 0.22242
# Poissons Ratio (z) = 0.32277 0.05724
#
# Static dielectric constant tensor:
#      x y z
#    x 3.435520 0.000000 0.232240 
#    y 0.000000 3.652670 0.000000 
#    z 0.232240 0.000000 5.065000 
# 
# 
# High freq. dielectric constant tensor:
#      x y z
#    x 1.765690 0.000000 0.013710 
#    y 0.000000 1.776610 0.000000 
#    z 0.013710 0.000000 1.791830 
# 
# From -- ./inp_files/58957.got.cif
#   From: 2010.06.25/outbox.cif.g09.slc.cpg/sg12_30_cif.got.tgz:58957.got - 2010.06.28 00:19:55.
