data_PCOD8106091
_publ_section_title
;
Structure prediction by ZEFSAII (Michael W. Deem and Ramdas Pophale) SiO2 
 PCOD8106091
Probable space group: C 2/M
;
_chemical_formula_sum "Si O2"
_cell_formula_units_Z 56
_cell_length_a 17.893805
_cell_length_b 8.944541
_cell_length_c 19.877899
_cell_angle_alpha 90.000000
_cell_angle_beta 64.028726
_cell_angle_gamma 90.000000
_cell_volume 2860.207604
_symmetry_space_group_name_H-M "C 2/M"
_symmetry_group_IT_number 12
_symmetry_cell_setting 'monoclinic'
loop_
_space_group_symop_operation_xyz
x,y,z
-x,y,-z
-x,-y,-z
x,-y,z
1/2+x,1/2+y,z
1/2-x,1/2+y,-z
1/2-x,1/2-y,-z
1/2+x,1/2-y,z
loop_
_atom_site_type_symbol
_atom_site_label
_atom_site_fract_x
_atom_site_fract_y
_atom_site_fract_z
Si Si1 0.302582 0.323097 0.728633
Si Si2 0.145340 0.324355 0.875476
Si Si3 0.789123 0.823335 0.582814
Si Si4 0.665352 0.323415 0.009252
Si Si5 0.980038 0.670522 0.860115
Si Si6 0.966444 0.671593 0.711086
Si Si7 0.873624 0.676269 0.431964
O O1 0.301418 0.500000 0.726661
O O2 0.224153 0.265451 0.802258
O O3 0.297288 0.259196 0.654981
O O4 0.385401 0.269780 0.732268
O O5 0.152376 0.500000 0.888539
O O6 0.139564 0.234264 0.946475
O O7 0.063491 0.285648 0.865865
O O8 0.862490 0.753004 0.508844
O O9 0.699883 0.772772 0.589216
O O10 0.799406 0.000000 0.577308
O O11 0.676922 0.500000 0.003552
O O12 0.750000 0.250000 0.000000
O O13 0.593567 0.280590 0.089870
O O14 0.953926 0.500000 0.887055
O O15 0.998594 0.690525 0.774197
O O16 0.944448 0.500000 0.704149
O O17 0.039297 0.729950 0.633528
O O18 0.872071 0.500000 0.442514
#
# Coordination Sequence:
#
# PCOD8106091 Si02
#       7
#     8   8   8   8   8   8   8
#     4  10  21  36  55  80 110 144 182 225 272 323
#     4  10  21  39  62  85 111 146 186 227 275 330
#     4   9  18  34  55  78 105 139 180 224 270 322
#     4  12  25  40  59  85 117 149 183 226 275 326
#     4  10  21  39  62  85 111 146 186 227 275 330
#     4  10  21  36  55  80 110 144 182 225 272 323
#     4   9  18  34  55  78 105 139 180 224 270 322
#
# _framework density 19.578999
#
# number of rings (size 3 to 8) (size 9 to 14) (size 15 to 20)
#    0.000    2.000    0.000    3.429    0.000   10.857 
#    0.000    2.857    0.000    5.143    0.000    0.000 
#    0.000    0.000    0.000    0.000    0.000    0.000 
#
# Total GULP energy -347322.311923 kJ/mol
# GULP energy per Si atom -12404.368283 kJ/mol
# Density = 1.953444 g / cm^3
# Si number density = 19.578999 Si / 1000 Ang^3
#
#
#
# Elastic Constant Matrix: (Units=GPa)
#
#
# Indices 1 2 3 4 5 6 
#
# 1 91.7897 18.3302 20.8256 0.0000 -14.8988 0.0000
# 2 18.3302 39.7281 17.2364 -0.0001 -6.7944 -0.0002
# 3 20.8256 17.2364 91.7416 0.0000 -16.5356 0.0000
# 4 0.0000 -0.0001 0.0000 31.6057 0.0000 -1.9490
# 5 -14.8988 -6.7944 -16.5356 0.0000 39.6733 0.0000
# 6 0.0000 -0.0002 0.0000 -1.9490 0.0000 29.9350
#
#
#
# Elastic Compliance Matrix: (Units=1/GPa)
#
#
# Indices 1 2 3 4 5 6 
#
# 1 0.012693 -0.004673 -0.001393 0.000000 0.003386 0.000000
# 2 -0.004673 0.029407 -0.004187 0.000000 0.001536 0.000000
# 3 -0.001393 -0.004187 0.012736 0.000000 0.004068 0.000000
# 4 0.000000 0.000000 0.000000 0.031767 0.000000 0.002068
# 5 0.003386 0.001536 0.004068 0.000000 0.028436 0.000000
# 6 0.000000 0.000000 0.000000 0.002068 0.000000 0.033540
#
#
# Mechanical properties :
#
#
# Convention : Reuss Voigt Hill
#
# Bulk Modulus (GPa) = 29.12967 37.33820 33.23393
# Shear Modulus (GPa) = 27.69618 31.36728 29.53173
#
# Velocity S-wave (km/s) = 3.76518 4.00695 3.88794
# Velocity P-wave (km/s) = 5.81484 6.36549 6.09639
#
# Compressibility (1/GPa) = 0.03432926
#
# Stress axis : x y z
#
# Youngs Moduli (GPa) = 78.78149 34.00597 78.51525
#
# Poissons Ratio (x) = 0.15891 0.10938
# Poissons Ratio (y) = 0.36815 0.32876
# Poissons Ratio (z) = 0.10976 0.14239
#
# Static dielectric constant tensor:
#      x y z
#    x 3.584900 0.000000 -0.017050 
#    y 0.000000 3.437660 0.000000 
#    z -0.017050 0.000000 3.848810 
# 
# 
# High freq. dielectric constant tensor:
#      x y z
#    x 1.768360 0.000000 -0.001010 
#    y 0.000000 1.745590 0.000000 
#    z -0.001010 0.000000 1.780100 
# 
# From -- ./inp_files/275233.got.cif
#   From: 2010.06.25/outbox.cif.g09.slc.cpg/sg12_138_cif.got.tgz:275233.got - 2010.06.28 00:19:55.
