data_PCOD8106090
_publ_section_title
;
Structure prediction by ZEFSAII (Michael W. Deem and Ramdas Pophale) SiO2 
 PCOD8106090
Probable space group: C 2/M
;
_chemical_formula_sum "Si O2"
_cell_formula_units_Z 44
_cell_length_a 16.913382
_cell_length_b 9.360459
_cell_length_c 15.972670
_cell_angle_alpha 90.000000
_cell_angle_beta 124.419853
_cell_angle_gamma 90.000000
_cell_volume 2086.006887
_symmetry_space_group_name_H-M "C 2/M"
_symmetry_group_IT_number 12
_symmetry_cell_setting 'monoclinic'
loop_
_space_group_symop_operation_xyz
x,y,z
-x,y,-z
-x,-y,-z
x,-y,z
1/2+x,1/2+y,z
1/2-x,1/2+y,-z
1/2-x,1/2-y,-z
1/2+x,1/2-y,z
loop_
_atom_site_type_symbol
_atom_site_label
_atom_site_fract_x
_atom_site_fract_y
_atom_site_fract_z
Si Si1 0.875100 0.664921 0.692537
Si Si2 0.280791 0.159984 0.185423
Si Si3 0.000000 0.231374 0.500000
Si Si4 0.200118 0.654314 0.605965
Si Si5 0.538105 0.340386 0.703853
Si Si6 0.601071 0.835555 0.097657
O O1 0.880692 0.500000 0.669131
O O2 0.767382 0.721026 0.608960
O O3 0.902501 0.687455 0.805258
O O4 0.944531 0.757881 0.677397
O O5 0.286849 0.149335 0.287679
O O6 0.370497 0.252928 0.206696
O O7 0.182218 0.239355 0.101818
O O8 0.283614 0.000000 0.147537
O O9 0.088447 0.324133 0.517573
O O10 0.038166 0.141810 0.602452
O O11 0.230403 0.500000 0.586350
O O12 0.541309 0.500000 0.743726
O O13 0.623395 0.000000 0.089094
O O14 0.500000 0.785831 0.000000
#
# Coordination Sequence:
#
# PCOD8106090 Si02
#       6
#     8   8   4   8   8   8
#     4  10  21  36  55  80 110 141 174 218 268 314
#     4   9  18  33  54  80 109 140 175 217 266 316
#     4  10  22  36  56  80 104 138 184 226 262 310
#     4   9  18  34  55  78 106 140 177 218 265 314
#     4  11  22  37  56  77 106 142 181 222 266 315
#     4   9  18  35  59  84 109 139 176 216 261 317
#
# _framework density 21.092932000000001
#
# number of rings (size 3 to 8) (size 9 to 14) (size 15 to 20)
#    0.000    2.364    0.000    2.182    0.000    9.091 
#    0.000    0.909    0.000    0.000    0.000    0.000 
#    0.000    0.000    0.000    0.000    0.000    0.000 
#
# Total GULP energy -272721.134717 kJ/mol
# GULP energy per Si atom -12396.415214 kJ/mol
# Density = 2.104492 g / cm^3
# Si number density = 21.092932 Si / 1000 Ang^3
#
#
#
# Elastic Constant Matrix: (Units=GPa)
#
#
# Indices 1 2 3 4 5 6 
#
# 1 115.7045 74.3650 32.7744 0.0000 39.1384 0.0000
# 2 74.3650 178.9952 33.1507 0.0000 28.3871 0.0000
# 3 32.7744 33.1507 76.8200 0.0000 33.8013 0.0000
# 4 0.0000 0.0000 0.0000 13.2540 0.0000 5.2065
# 5 39.1384 28.3871 33.8013 0.0000 37.4317 0.0000
# 6 0.0000 0.0000 0.0000 5.2065 0.0000 32.9336
#
#
#
# Elastic Compliance Matrix: (Units=1/GPa)
#
#
# Indices 1 2 3 4 5 6 
#
# 1 0.016228 -0.004684 0.001661 0.000000 -0.014915 0.000000
# 2 -0.004684 0.007752 -0.001518 0.000000 0.000390 0.000000
# 3 0.001661 -0.001518 0.021938 0.000000 -0.020395 0.000000
# 4 0.000000 0.000000 0.000000 0.080444 0.000000 -0.012717
# 5 -0.014915 0.000390 -0.020395 0.000000 0.060432 0.000000
# 6 0.000000 0.000000 0.000000 -0.012717 0.000000 0.032375
#
#
# Mechanical properties :
#
#
# Convention : Reuss Voigt Hill
#
# Bulk Modulus (GPa) = 27.14830 72.45557 49.80193
# Shear Modulus (GPa) = 20.78720 32.13916 26.46318
#
# Velocity S-wave (km/s) = 3.14268 3.90769 3.54588
# Velocity P-wave (km/s) = 5.10562 7.40170 6.35817
#
# Compressibility (1/GPa) = 0.03683472
#
# Stress axis : x y z
#
# Youngs Moduli (GPa) = 61.62078 128.99490 45.58234
#
# Poissons Ratio (x) = 0.60425 -0.07570
# Poissons Ratio (y) = 0.28865 0.06922
# Poissons Ratio (z) = -0.10233 0.19588
#
# Static dielectric constant tensor:
#      x y z
#    x 3.744500 0.000000 0.285550 
#    y 0.000000 4.049460 0.000000 
#    z 0.285550 0.000000 3.705320 
# 
# 
# High freq. dielectric constant tensor:
#      x y z
#    x 1.819560 0.000000 0.022540 
#    y 0.000000 1.832680 0.000000 
#    z 0.022540 0.000000 1.804600 
# 
# From -- ./inp_files/274105.got.cif
#   From: 2010.06.25/outbox.cif.g09.slc.cpg/sg12_138_cif.got.tgz:274105.got - 2010.06.28 00:19:55.
