data_PCOD8106470
_publ_section_title
;
Structure prediction by ZEFSAII (Michael W. Deem and Ramdas Pophale) SiO2 
 PCOD8106470
Probable space group: C 2/M
;
_chemical_formula_sum "Si O2"
_cell_formula_units_Z 48
_cell_length_a 13.091304
_cell_length_b 26.890335
_cell_length_c 7.046502
_cell_angle_alpha 90.000000
_cell_angle_beta 105.601706
_cell_angle_gamma 90.000000
_cell_volume 2389.178979
_symmetry_space_group_name_H-M "C 2/M"
_symmetry_group_IT_number 12
_symmetry_cell_setting 'monoclinic'
loop_
_space_group_symop_operation_xyz
x,y,z
-x,y,-z
-x,-y,-z
x,-y,z
1/2+x,1/2+y,z
1/2-x,1/2+y,-z
1/2-x,1/2-y,-z
1/2+x,1/2-y,z
loop_
_atom_site_type_symbol
_atom_site_label
_atom_site_fract_x
_atom_site_fract_y
_atom_site_fract_z
Si Si1 0.388409 0.144424 0.048385
Si Si2 0.638423 0.409023 0.424476
Si Si3 0.752939 0.818477 0.353528
Si Si4 0.766178 0.442182 0.150253
Si Si5 0.577382 0.555789 0.786045
Si Si6 0.883695 0.278107 0.385789
O O1 0.703984 0.153909 0.149082
O O2 0.366045 0.091480 0.138770
O O3 0.387867 0.188246 0.201245
O O4 0.500000 0.141192 0.000000
O O5 0.659473 0.352761 0.500867
O O6 0.736588 0.430545 0.353062
O O7 0.527396 0.409642 0.252137
O O8 0.627155 0.444312 0.600994
O O9 0.808780 0.768701 0.306587
O O10 0.660452 0.808506 0.457814
O O11 0.796167 0.500000 0.136757
O O12 0.664575 0.425398 0.977141
O O13 0.541784 0.500000 0.819818
O O14 0.000000 0.259185 0.500000
#
# Coordination Sequence:
#
# PCOD8106470 Si02
#       6
#     8   8   8   8   8   8
#     4  12  24  44  66  89 127 166 211 256 314 362
#     4  11  20  37  62  90 127 163 201 251 311 370
#     4  11  24  41  66  96 120 162 208 254 310 377
#     4  11  23  39  62  91 127 169 213 258 302 363
#     4  10  21  36  58  91 129 166 203 249 311 369
#     4  11  24  44  68  91 123 160 205 258 315 373
#
# _framework density 20.090582999999999
#
# number of rings (size 3 to 8) (size 9 to 14) (size 15 to 20)
#    0.000    1.000    5.000    3.000    2.333    1.667 
#    0.000    0.000    0.000    1.500    0.000    0.000 
#    0.000    0.000    0.000    0.000    0.000    0.000 
#
# Total GULP energy -297656.460454 kJ/mol
# GULP energy per Si atom -12402.352519 kJ/mol
# Density = 2.004486 g / cm^3
# Si number density = 20.090583 Si / 1000 Ang^3
#
#
#
# Elastic Constant Matrix: (Units=GPa)
#
#
# Indices 1 2 3 4 5 6 
#
# 1 137.5088 60.8513 38.1464 0.0000 -17.7067 0.0000
# 2 60.8513 104.7073 29.5700 0.0000 -3.7770 0.0000
# 3 38.1464 29.5700 57.4651 0.0000 -2.9848 0.0000
# 4 0.0000 0.0000 0.0000 25.6307 0.0000 4.4620
# 5 -17.7067 -3.7770 -2.9848 0.0000 30.1123 0.0000
# 6 0.0000 0.0000 0.0000 4.4620 0.0000 31.6160
#
#
#
# Elastic Compliance Matrix: (Units=1/GPa)
#
#
# Indices 1 2 3 4 5 6 
#
# 1 0.011631 -0.005214 -0.004741 0.000000 0.005715 0.000000
# 2 -0.005214 0.013533 -0.003592 0.000000 -0.001725 0.000000
# 3 -0.004741 -0.003592 0.022344 0.000000 -0.001023 0.000000
# 4 0.000000 0.000000 0.000000 0.039998 0.000000 -0.005645
# 5 0.005715 -0.001725 -0.001023 0.000000 0.036252 0.000000
# 6 0.000000 0.000000 0.000000 -0.005645 0.000000 0.032426
#
#
# Mechanical properties :
#
#
# Convention : Reuss Voigt Hill
#
# Bulk Modulus (GPa) = 48.98648 61.86852 55.42750
# Shear Modulus (GPa) = 26.30430 28.87936 27.59183
#
# Velocity S-wave (km/s) = 3.62233 3.79549 3.70992
# Velocity P-wave (km/s) = 6.47540 7.07597 6.78233
#
# Compressibility (1/GPa) = 0.02041380
#
# Stress axis : x y z
#
# Youngs Moduli (GPa) = 85.97840 73.89367 44.75474
#
# Poissons Ratio (x) = 0.38531 0.21217
# Poissons Ratio (y) = 0.44832 0.16075
# Poissons Ratio (z) = 0.40760 0.26542
#
# Static dielectric constant tensor:
#      x y z
#    x 3.684680 0.000000 -0.142130 
#    y 0.000000 3.526690 0.000000 
#    z -0.142130 0.000000 3.697540 
# 
# 
# High freq. dielectric constant tensor:
#      x y z
#    x 1.789010 0.000000 -0.014830 
#    y 0.000000 1.779510 0.000000 
#    z -0.014830 0.000000 1.786120 
# 
# From -- ./inp_files/52779.got.cif
#   From: 2010.06.25/outbox.cif.g09.slc.cpg/sg12_27_cif.got.tgz:52779.got - 2010.06.28 00:19:55.
