data_PCOD8106228
_publ_section_title
;
Structure prediction by ZEFSAII (Michael W. Deem and Ramdas Pophale) SiO2 
 PCOD8106228
Probable space group: C 2/M
;
_chemical_formula_sum "Si O2"
_cell_formula_units_Z 40
_cell_length_a 17.564062
_cell_length_b 10.455857
_cell_length_c 15.392116
_cell_angle_alpha 90.000000
_cell_angle_beta 137.589124
_cell_angle_gamma 90.000000
_cell_volume 1906.460828
_symmetry_space_group_name_H-M "C 2/M"
_symmetry_group_IT_number 12
_symmetry_cell_setting 'monoclinic'
loop_
_space_group_symop_operation_xyz
x,y,z
-x,y,-z
-x,-y,-z
x,-y,z
1/2+x,1/2+y,z
1/2-x,1/2+y,-z
1/2-x,1/2-y,-z
1/2+x,1/2-y,z
loop_
_atom_site_type_symbol
_atom_site_label
_atom_site_fract_x
_atom_site_fract_y
_atom_site_fract_z
Si Si1 0.817318 0.644060 0.447136
Si Si2 0.391277 0.139991 0.960829
Si Si3 0.590494 0.355908 0.351304
Si Si4 0.622316 0.785135 0.868227
Si Si5 0.214223 0.640961 0.774902
O O1 0.853836 0.500000 0.506611
O O2 0.683469 0.662820 0.353657
O O3 0.888803 0.751031 0.556784
O O4 0.842540 0.663584 0.366383
O O5 0.300370 0.246699 0.865256
O O6 0.348620 0.000000 0.893543
O O7 0.500000 0.182700 0.000000
O O8 0.421046 0.128217 0.088511
O O9 0.597807 0.500000 0.395617
O O10 0.463763 0.335386 0.207912
O O11 0.620600 0.855772 0.773098
O O12 0.750000 0.750000 0.000000
O O13 0.272182 0.500000 0.824646
#
# Coordination Sequence:
#
# PCOD8106228 Si02
#       5
#     8   8   8   8   8
#     4   9  20  39  62  88 115 148 193 242 289 337
#     4  10  21  36  56  83 114 150 192 238 287 338
#     4  10  21  39  63  87 114 151 195 240 286 342
#     4  10  22  37  56  84 118 152 189 235 285 338
#     4  10  21  37  57  82 114 152 192 234 284 342
#
# _framework density 20.981285
#
# number of rings (size 3 to 8) (size 9 to 14) (size 15 to 20)
#    0.000    2.200    0.000    1.800    0.000   10.000 
#    0.000    7.000    0.000    0.000    0.000    0.000 
#    0.000    0.000    0.000    0.000    0.000    0.000 
#
# Total GULP energy -247790.124253 kJ/mol
# GULP energy per Si atom -12389.506213 kJ/mol
# Density = 2.093353 g / cm^3
# Si number density = 20.981285 Si / 1000 Ang^3
#
#
#
# Elastic Constant Matrix: (Units=GPa)
#
#
# Indices 1 2 3 4 5 6 
#
# 1 106.5156 28.4777 47.2492 0.0000 -17.2349 0.0000
# 2 28.4777 132.5071 47.3168 0.0000 3.4769 0.0000
# 3 47.2492 47.3168 82.2997 0.0000 -3.2987 0.0000
# 4 0.0000 0.0000 0.0000 33.0717 0.0000 10.8539
# 5 -17.2349 3.4769 -3.2987 0.0000 42.0701 0.0000
# 6 0.0000 0.0000 0.0000 10.8539 0.0000 4.7420
#
#
#
# Elastic Compliance Matrix: (Units=1/GPa)
#
#
# Indices 1 2 3 4 5 6 
#
# 1 0.013573 -0.000425 -0.007347 0.000000 0.005020 0.000000
# 2 -0.000425 0.009572 -0.005315 0.000000 -0.001382 0.000000
# 3 -0.007347 -0.005315 0.019382 0.000000 -0.001051 0.000000
# 4 0.000000 0.000000 0.000000 0.121525 0.000000 -0.278152
# 5 0.005020 -0.001382 -0.001051 0.000000 0.025858 0.000000
# 6 0.000000 0.000000 0.000000 -0.278152 0.000000 0.847530
#
#
# Mechanical properties :
#
#
# Convention : Reuss Voigt Hill
#
# Bulk Modulus (GPa) = 61.14717 63.04552 62.09635
# Shear Modulus (GPa) = 4.67698 29.19536 16.93617
#
# Velocity S-wave (km/s) = 1.49464 3.73432 2.84422
# Velocity P-wave (km/s) = 5.67323 6.97906 6.35975
#
# Compressibility (1/GPa) = 0.01635399
#
# Stress axis : x y z
#
# Youngs Moduli (GPa) = 73.67479 104.46895 51.59423
#
# Poissons Ratio (x) = 0.04443 0.37905
# Poissons Ratio (y) = 0.03134 0.27420
# Poissons Ratio (z) = 0.54127 0.55521
#
# Static dielectric constant tensor:
#      x y z
#    x 4.464750 0.000000 -0.455240 
#    y 0.000000 3.781700 0.000000 
#    z -0.455240 0.000000 3.685280 
# 
# 
# High freq. dielectric constant tensor:
#      x y z
#    x 1.837090 0.000000 -0.015420 
#    y 0.000000 1.825650 0.000000 
#    z -0.015420 0.000000 1.797730 
# 
# From -- ./inp_files/222665.got.cif
#   From: 2010.06.25/outbox.cif.g09.slc.cpg/sg12_112_cif.got.tgz:222665.got - 2010.06.28 00:19:55.
