data_PCOD8106617
_publ_section_title
;
Structure prediction by ZEFSAII (Michael W. Deem and Ramdas Pophale) SiO2 
 PCOD8106617
Probable space group: C 2/M
;
_chemical_formula_sum "Si O2"
_cell_formula_units_Z 56
_cell_length_a 14.459572
_cell_length_b 19.450224
_cell_length_c 9.062748
_cell_angle_alpha 90.000000
_cell_angle_beta 87.796194
_cell_angle_gamma 90.000000
_cell_volume 2546.939395
_symmetry_space_group_name_H-M "C 2/M"
_symmetry_group_IT_number 12
_symmetry_cell_setting 'monoclinic'
loop_
_space_group_symop_operation_xyz
x,y,z
-x,y,-z
-x,-y,-z
x,-y,z
1/2+x,1/2+y,z
1/2-x,1/2+y,-z
1/2-x,1/2-y,-z
1/2+x,1/2-y,z
loop_
_atom_site_type_symbol
_atom_site_label
_atom_site_fract_x
_atom_site_fract_y
_atom_site_fract_z
Si Si1 0.738944 0.581497 0.531101
Si Si2 0.410037 0.328494 0.607972
Si Si3 0.395186 0.809774 0.477301
Si Si4 0.142893 0.191488 0.080268
Si Si5 0.342586 0.790670 0.165031
Si Si6 0.278037 0.422959 0.132476
Si Si7 0.895614 0.576297 0.034574
O O1 0.754138 0.500000 0.502737
O O2 0.661786 0.610820 0.424996
O O3 0.833708 0.622530 0.498920
O O4 0.704421 0.596456 0.699117
O O5 0.500000 0.338364 0.500000
O O6 0.366755 0.252370 0.587753
O O7 0.428857 0.330903 0.785167
O O8 0.500000 0.833510 0.500000
O O9 0.383816 0.770955 0.320260
O O10 0.233115 0.223481 0.156745
O O11 0.104147 0.250332 0.971233
O O12 0.164469 0.125833 0.978008
O O13 0.355794 0.872813 0.158620
O O14 0.312858 0.500000 0.097826
O O15 0.167186 0.417489 0.109091
O O16 0.891083 0.500000 0.102438
O O17 0.000000 0.598525 0.000000
#
# Coordination Sequence:
#
# PCOD8106617 Si02
#       7
#     8   8   8   8   8   8   8
#     4  11  24  43  68  94 135 182 224 275 332 401
#     4  11  25  44  68  97 130 172 220 284 342 394
#     4  11  25  41  63  98 141 178 215 272 333 407
#     4  10  21  39  66  94 122 167 224 276 322 385
#     4  10  21  36  61  94 125 175 213 268 320 388
#     4   9  20  38  61  89 121 166 213 262 324 386
#     4   9  19  33  54  84 124 164 207 258 308 373
#
# _framework density 21.987174
#
# number of rings (size 3 to 8) (size 9 to 14) (size 15 to 20)
#    0.000    1.857    1.429    1.286    8.000    2.857 
#    0.000    3.571    0.000    1.714    0.000    0.000 
#    0.000    0.000    0.000    0.000    0.000    0.000 
#
# Total GULP energy -347021.947724 kJ/mol
# GULP energy per Si atom -12393.640990 kJ/mol
# Density = 2.193713 g / cm^3
# Si number density = 21.987174 Si / 1000 Ang^3
#
#
#
# Elastic Constant Matrix: (Units=GPa)
#
#
# Indices 1 2 3 4 5 6 
#
# 1 66.6758 46.4322 33.2437 0.0000 -9.5343 0.0000
# 2 46.4322 131.9945 56.6019 0.0000 -6.2333 0.0000
# 3 33.2437 56.6019 142.1018 0.0000 -15.7838 0.0000
# 4 0.0000 0.0000 0.0000 29.2858 0.0000 -2.6699
# 5 -9.5343 -6.2333 -15.7838 0.0000 24.7902 0.0000
# 6 0.0000 0.0000 0.0000 -2.6699 0.0000 18.3498
#
#
#
# Elastic Compliance Matrix: (Units=1/GPa)
#
#
# Indices 1 2 3 4 5 6 
#
# 1 0.021122 -0.006408 -0.001792 0.000000 0.005371 0.000000
# 2 -0.006408 0.011081 -0.003098 0.000000 -0.001651 0.000000
# 3 -0.001792 -0.003098 0.009176 0.000000 0.004374 0.000000
# 4 0.000000 0.000000 0.000000 0.034605 0.000000 0.005035
# 5 0.005371 -0.001651 0.004374 0.000000 0.044774 0.000000
# 6 0.000000 0.000000 0.000000 0.005035 0.000000 0.055229
#
#
# Mechanical properties :
#
#
# Convention : Reuss Voigt Hill
#
# Bulk Modulus (GPa) = 53.24054 68.14752 60.69403
# Shear Modulus (GPa) = 24.40871 28.11813 26.26342
#
# Velocity S-wave (km/s) = 3.33548 3.57997 3.45989
# Velocity P-wave (km/s) = 6.25307 6.93900 6.60495
#
# Compressibility (1/GPa) = 0.01878268
#
# Stress axis : x y z
#
# Youngs Moduli (GPa) = 47.34387 90.24684 108.97575
#
# Poissons Ratio (x) = 0.57830 0.19532
# Poissons Ratio (y) = 0.30338 0.33760
# Poissons Ratio (z) = 0.08486 0.27958
#
# Static dielectric constant tensor:
#      x y z
#    x 3.706450 0.000000 0.128300 
#    y 0.000000 4.041830 0.000000 
#    z 0.128300 0.000000 4.161770 
# 
# 
# High freq. dielectric constant tensor:
#      x y z
#    x 1.840680 0.000000 0.008230 
#    y 0.000000 1.870960 0.000000 
#    z 0.008230 0.000000 1.870440 
# 
# From -- ./inp_files/64087.got.cif
#   From: 2010.06.25/outbox.cif.g09.slc.cpg/sg12_33_cif.got.tgz:64087.got - 2010.06.28 00:19:55.
