data_PCOD8106334
_publ_section_title
;
Structure prediction by ZEFSAII (Michael W. Deem and Ramdas Pophale) SiO2 
 PCOD8106334
Probable space group: C 2/M
;
_chemical_formula_sum "Si O2"
_cell_formula_units_Z 40
_cell_length_a 29.409999
_cell_length_b 8.954914
_cell_length_c 7.752741
_cell_angle_alpha 90.000000
_cell_angle_beta 75.828614
_cell_angle_gamma 90.000000
_cell_volume 1979.656593
_symmetry_space_group_name_H-M "C 2/M"
_symmetry_group_IT_number 12
_symmetry_cell_setting 'monoclinic'
loop_
_space_group_symop_operation_xyz
x,y,z
-x,y,-z
-x,-y,-z
x,-y,z
1/2+x,1/2+y,z
1/2-x,1/2+y,-z
1/2-x,1/2-y,-z
1/2+x,1/2-y,z
loop_
_atom_site_type_symbol
_atom_site_label
_atom_site_fract_x
_atom_site_fract_y
_atom_site_fract_z
Si Si1 0.395158 0.823830 0.953209
Si Si2 0.701671 0.826691 0.498356
Si Si3 0.297068 0.170850 0.901393
Si Si4 0.444767 0.828733 0.557121
Si Si5 0.890679 0.823291 0.302301
O O1 0.341691 0.771537 0.967128
O O2 0.427224 0.777841 0.761396
O O3 0.398537 0.000000 0.984538
O O4 0.414022 0.735528 0.102899
O O5 0.750000 0.750000 0.500000
O O6 0.690505 0.803205 0.308776
O O7 0.660843 0.748259 0.643344
O O8 0.703933 0.000000 0.548127
O O9 0.287942 0.000000 0.950597
O O10 0.250000 0.250000 0.000000
O O11 0.500000 0.808518 0.500000
O O12 0.422263 0.725353 0.433081
O O13 0.429478 0.000000 0.535783
O O14 0.886503 0.000000 0.304020
#
# Coordination Sequence:
#
# PCOD8106334 Si02
#       5
#     8   8   8   8   8
#     4  10  21  41  65  90 123 165 211 263 316 372
#     4  11  22  39  60  89 126 167 216 262 313 373
#     4  10  21  36  57  85 121 161 205 256 306 365
#     4  10  22  44  72  96 121 162 216 269 321 377
#     4  12  25  40  62  94 131 171 209 257 319 380
#
# _framework density 20.205522999999999
#
# number of rings (size 3 to 8) (size 9 to 14) (size 15 to 20)
#    0.000    1.400    2.000    3.600    0.000    7.600 
#    0.000    4.000    0.000    0.000    0.000    0.000 
#    0.000    0.000    0.000    0.000    0.000    0.000 
#
# Total GULP energy -248088.298877 kJ/mol
# GULP energy per Si atom -12404.414944 kJ/mol
# Density = 2.015953 g / cm^3
# Si number density = 20.205523 Si / 1000 Ang^3
#
#
#
# Elastic Constant Matrix: (Units=GPa)
#
#
# Indices 1 2 3 4 5 6 
#
# 1 78.7381 49.7756 54.2694 0.0000 -0.9508 0.0000
# 2 49.7756 121.2184 69.9053 0.0000 9.5764 0.0000
# 3 54.2694 69.9053 148.2688 0.0000 1.0272 0.0000
# 4 0.0000 0.0000 0.0000 24.9482 0.0000 4.9642
# 5 -0.9508 9.5764 1.0272 0.0000 31.6123 0.0000
# 6 0.0000 0.0000 0.0000 4.9642 0.0000 32.8661
#
#
#
# Elastic Compliance Matrix: (Units=1/GPa)
#
#
# Indices 1 2 3 4 5 6 
#
# 1 0.019316 -0.005542 -0.004474 0.000000 0.002405 0.000000
# 2 -0.005542 0.013266 -0.004198 0.000000 -0.004049 0.000000
# 3 -0.004474 -0.004198 0.010356 0.000000 0.000801 0.000000
# 4 0.000000 0.000000 0.000000 0.041325 0.000000 -0.006242
# 5 0.002405 -0.004049 0.000801 0.000000 0.032906 0.000000
# 6 0.000000 0.000000 0.000000 -0.006242 0.000000 0.031369
#
#
# Mechanical properties :
#
#
# Convention : Reuss Voigt Hill
#
# Bulk Modulus (GPa) = 68.91607 77.34732 73.13170
# Shear Modulus (GPa) = 27.50219 29.50365 28.50292
#
# Velocity S-wave (km/s) = 3.69334 3.82537 3.75994
# Velocity P-wave (km/s) = 7.23666 7.60754 7.42442
#
# Compressibility (1/GPa) = 0.01451040
#
# Stress axis : x y z
#
# Youngs Moduli (GPa) = 51.76961 75.38019 96.56308
#
# Poissons Ratio (x) = 0.41773 0.43203
# Poissons Ratio (y) = 0.28689 0.40539
# Poissons Ratio (z) = 0.23162 0.31646
#
# Static dielectric constant tensor:
#      x y z
#    x 3.604740 0.000000 0.038450 
#    y 0.000000 3.501440 0.000000 
#    z 0.038450 0.000000 4.006400 
# 
# 
# High freq. dielectric constant tensor:
#      x y z
#    x 1.789870 0.000000 0.004220 
#    y 0.000000 1.778740 0.000000 
#    z 0.004220 0.000000 1.807600 
# 
# From -- ./inp_files/107779.got.cif
#   From: 2010.06.25/outbox.cif.g09.slc.cpg/sg12_54_cif.got.tgz:107779.got - 2010.06.28 00:19:55.
