data_PCOD8106906
_publ_section_title
;
Structure prediction by ZEFSAII (Michael W. Deem and Ramdas Pophale) SiO2 
 PCOD8106906
Probable space group: C 2/M
;
_chemical_formula_sum "Si O2"
_cell_formula_units_Z 40
_cell_length_a 26.763350
_cell_length_b 8.951016
_cell_length_c 18.925497
_cell_angle_alpha 90.000000
_cell_angle_beta 151.723743
_cell_angle_gamma 90.000000
_cell_volume 2147.755551
_symmetry_space_group_name_H-M "C 2/M"
_symmetry_group_IT_number 12
_symmetry_cell_setting 'monoclinic'
loop_
_space_group_symop_operation_xyz
x,y,z
-x,y,-z
-x,-y,-z
x,-y,z
1/2+x,1/2+y,z
1/2-x,1/2+y,-z
1/2-x,1/2-y,-z
1/2+x,1/2-y,z
loop_
_atom_site_type_symbol
_atom_site_label
_atom_site_fract_x
_atom_site_fract_y
_atom_site_fract_z
Si Si1 0.382027 0.828481 0.361292
Si Si2 0.271929 0.668725 0.955410
Si Si3 0.329869 0.825711 0.653264
Si Si4 0.208918 0.326953 0.233067
Si Si5 0.444689 0.321736 0.062174
O O1 0.500000 0.766122 0.500000
O O2 0.330580 0.814122 0.220569
O O3 0.319943 0.730764 0.341211
O O4 0.381003 0.000000 0.386316
O O5 0.295248 0.500000 0.004814
O O6 0.250000 0.750000 0.000000
O O7 0.373117 0.731664 0.039163
O O8 0.250000 0.750000 0.500000
O O9 0.286932 0.800199 0.678368
O O10 0.442057 0.747774 0.784623
O O11 0.341013 0.000000 0.649198
O O12 0.194083 0.500000 0.195463
O O13 0.109429 0.237850 0.077012
O O14 0.450906 0.500000 0.064417
#
# Coordination Sequence:
#
# PCOD8106906 Si02
#       5
#     8   8   8   8   8
#     4   9  19  36  56  79 107 141 183 225 267 320
#     4   9  19  34  53  79 108 139 177 220 265 317
#     4  11  24  39  56  82 113 143 180 226 274 324
#     4  10  21  37  57  82 110 142 184 228 269 321
#     4  10  21  38  59  82 109 144 185 224 268 326
#
# _framework density 18.624093999999999
#
# number of rings (size 3 to 8) (size 9 to 14) (size 15 to 20)
#    0.000    2.200    0.000    3.600    0.000   11.600 
#    0.000    4.000    0.000    0.000    0.000    0.000 
#    0.000    0.000    0.000    0.000    0.000    0.000 
#
# Total GULP energy -248033.862993 kJ/mol
# GULP energy per Si atom -12401.693150 kJ/mol
# Density = 1.858170 g / cm^3
# Si number density = 18.624094 Si / 1000 Ang^3
#
#
#
# Elastic Constant Matrix: (Units=GPa)
#
#
# Indices 1 2 3 4 5 6 
#
# 1 108.7035 63.7649 73.6597 0.0000 -0.3756 0.0000
# 2 63.7649 105.5873 65.5272 0.0000 -2.2694 0.0000
# 3 73.6597 65.5272 140.5700 0.0000 20.1339 0.0000
# 4 0.0000 0.0000 0.0000 32.5134 0.0000 2.4930
# 5 -0.3756 -2.2694 20.1339 0.0000 33.9506 0.0000
# 6 0.0000 0.0000 0.0000 2.4930 0.0000 36.7256
#
#
#
# Elastic Compliance Matrix: (Units=1/GPa)
#
#
# Indices 1 2 3 4 5 6 
#
# 1 0.017487 -0.006268 -0.006786 0.000000 0.003799 0.000000
# 2 -0.006268 0.016397 -0.004924 0.000000 0.003947 0.000000
# 3 -0.006786 -0.004924 0.014232 0.000000 -0.008844 0.000000
# 4 0.000000 0.000000 0.000000 0.030917 0.000000 -0.002099
# 5 0.003799 0.003947 -0.008844 0.000000 0.035005 0.000000
# 6 0.000000 0.000000 0.000000 -0.002099 0.000000 0.027371
#
#
# Mechanical properties :
#
#
# Convention : Reuss Voigt Hill
#
# Bulk Modulus (GPa) = 82.23585 84.52939 83.38262
# Shear Modulus (GPa) = 27.56033 30.76519 29.16276
#
# Velocity S-wave (km/s) = 3.85102 4.06877 3.96139
# Velocity P-wave (km/s) = 8.00158 8.21942 8.11123
#
# Compressibility (1/GPa) = 0.01216015
#
# Stress axis : x y z
#
# Youngs Moduli (GPa) = 57.18422 60.98695 70.26391
#
# Poissons Ratio (x) = 0.38225 0.47680
# Poissons Ratio (y) = 0.35842 0.34601
# Poissons Ratio (z) = 0.38804 0.30033
#
# Static dielectric constant tensor:
#      x y z
#    x 3.693560 0.000000 0.297750 
#    y 0.000000 3.578850 0.000000 
#    z 0.297750 0.000000 3.646320 
# 
# 
# High freq. dielectric constant tensor:
#      x y z
#    x 1.730040 0.000000 0.006160 
#    y 0.000000 1.729880 0.000000 
#    z 0.006160 0.000000 1.723640 
# 
# From -- ./inp_files/162401.got.cif
#   From: 2010.06.25/outbox.cif.g09.slc.cpg/sg12_82_cif.got.tgz:162401.got - 2010.06.28 00:19:55.
