data_PCOD8106828
_publ_section_title
;
Structure prediction by ZEFSAII (Michael W. Deem and Ramdas Pophale) SiO2 
 PCOD8106828
Probable space group: C 2/M
;
_chemical_formula_sum "Si O2"
_cell_formula_units_Z 64
_cell_length_a 14.609764
_cell_length_b 8.653697
_cell_length_c 25.748017
_cell_angle_alpha 90.000000
_cell_angle_beta 88.807286
_cell_angle_gamma 90.000000
_cell_volume 3254.577124
_symmetry_space_group_name_H-M "C 2/M"
_symmetry_group_IT_number 12
_symmetry_cell_setting 'monoclinic'
loop_
_space_group_symop_operation_xyz
x,y,z
-x,y,-z
-x,-y,-z
x,-y,z
1/2+x,1/2+y,z
1/2-x,1/2+y,-z
1/2-x,1/2-y,-z
1/2+x,1/2-y,z
loop_
_atom_site_type_symbol
_atom_site_label
_atom_site_fract_x
_atom_site_fract_y
_atom_site_fract_z
Si Si1 0.756683 0.318125 0.922883
Si Si2 0.586215 0.678154 0.266148
Si Si3 0.635342 0.820846 0.371912
Si Si4 0.771620 0.319198 0.805116
Si Si5 0.623487 0.321751 0.722051
Si Si6 0.519146 0.320182 0.558663
Si Si7 0.103373 0.817104 0.003700
Si Si8 0.678038 0.179361 0.613868
O O1 0.767454 0.500000 0.928745
O O2 0.745570 0.267249 0.863395
O O3 0.849080 0.242380 0.944284
O O4 0.665651 0.260693 0.954325
O O5 0.604091 0.500000 0.280202
O O6 0.626468 0.783461 0.311380
O O7 0.638391 0.725022 0.213054
O O8 0.479539 0.710578 0.258587
O O9 0.542466 0.779967 0.402167
O O10 0.716315 0.721276 0.396210
O O11 0.658507 0.000000 0.377751
O O12 0.793748 0.500000 0.802202
O O13 0.687026 0.274084 0.769283
O O14 0.637840 0.500000 0.705710
O O15 0.647052 0.217607 0.672534
O O16 0.500000 0.271799 0.500000
O O17 0.499543 0.500000 0.568413
O O18 0.622853 0.278604 0.571981
O O19 0.098595 0.000000 0.006120
O O20 0.000000 0.749450 0.000000
O O21 0.662017 0.000000 0.603054
#
# Coordination Sequence:
#
# PCOD8106828 Si02
#       8
#     8   8   8   8   8   8   8   8
#     4   9  19  35  54  81 116 152 193 242 296 350
#     4  11  22  36  58  87 117 152 199 245 290 352
#     4  12  24  40  64  90 122 159 198 246 298 356
#     4  10  21  37  56  81 118 159 195 238 297 357
#     4  10  21  37  58  83 117 156 194 239 296 353
#     4  11  25  45  67  92 123 157 198 250 304 359
#     4   9  18  34  58  83 110 148 196 243 294 356
#     4  12  24  39  64  92 121 157 200 245 296 360
#
# _framework density 19.664612999999999
#
# number of rings (size 3 to 8) (size 9 to 14) (size 15 to 20)
#    0.000    1.500    2.500    3.000    0.000    3.750 
#    0.000    2.500    0.000    0.000    0.000    0.000 
#    0.000    0.000    0.000    0.000    0.000    0.000 
#
# Total GULP energy -396964.099574 kJ/mol
# GULP energy per Si atom -12405.128112 kJ/mol
# Density = 1.961986 g / cm^3
# Si number density = 19.664613 Si / 1000 Ang^3
#
#
#
# Elastic Constant Matrix: (Units=GPa)
#
#
# Indices 1 2 3 4 5 6 
#
# 1 102.2222 18.9905 11.8555 0.0000 10.6486 0.0000
# 2 18.9905 53.1545 24.4193 0.0000 0.7520 0.0000
# 3 11.8555 24.4193 80.6040 0.0000 13.5771 0.0000
# 4 0.0000 0.0000 0.0000 25.9096 0.0000 2.0320
# 5 10.6486 0.7520 13.5771 0.0000 27.6800 0.0000
# 6 0.0000 0.0000 0.0000 2.0320 0.0000 30.8036
#
#
#
# Elastic Compliance Matrix: (Units=1/GPa)
#
#
# Indices 1 2 3 4 5 6 
#
# 1 0.010930 -0.003991 0.000318 0.000000 -0.004252 0.000000
# 2 -0.003991 0.023526 -0.007294 0.000000 0.004474 0.000000
# 3 0.000318 -0.007294 0.015868 0.000000 -0.007707 0.000000
# 4 0.000000 0.000000 0.000000 0.038796 0.000000 -0.002559
# 5 -0.004252 0.004474 -0.007707 0.000000 0.041422 0.000000
# 6 0.000000 0.000000 0.000000 -0.002559 0.000000 0.032633
#
#
# Mechanical properties :
#
#
# Convention : Reuss Voigt Hill
#
# Bulk Modulus (GPa) = 35.22389 38.50124 36.86257
# Shear Modulus (GPa) = 25.69735 28.92634 27.31185
#
# Velocity S-wave (km/s) = 3.61886 3.83950 3.73082
# Velocity P-wave (km/s) = 5.95086 6.26715 6.11105
#
# Compressibility (1/GPa) = 0.02838982
#
# Stress axis : x y z
#
# Youngs Moduli (GPa) = 91.49032 42.50527 63.02162
#
# Poissons Ratio (x) = 0.16963 -0.02002
# Poissons Ratio (y) = 0.36512 0.45968
# Poissons Ratio (z) = -0.02906 0.31004
#
# Static dielectric constant tensor:
#      x y z
#    x 3.801350 0.000000 0.010720 
#    y 0.000000 3.470910 0.000000 
#    z 0.010720 0.000000 3.578030 
# 
# 
# High freq. dielectric constant tensor:
#      x y z
#    x 1.778960 0.000000 0.001990 
#    y 0.000000 1.762880 0.000000 
#    z 0.001990 0.000000 1.758870 
# 
# From -- ./inp_files/338933.got.cif
#   From: 2010.06.25/outbox.cif.g09.slc.cpg/sg12_170_cif.got.tgz:338933.got - 2010.06.28 00:19:55.
