data_PCOD8106447
_publ_section_title
;
Structure prediction by ZEFSAII (Michael W. Deem and Ramdas Pophale) SiO2 
 PCOD8106447
Probable space group: C 2/M
;
_chemical_formula_sum "Si O2"
_cell_formula_units_Z 48
_cell_length_a 20.283053
_cell_length_b 13.720145
_cell_length_c 11.675083
_cell_angle_alpha 90.000000
_cell_angle_beta 133.840061
_cell_angle_gamma 90.000000
_cell_volume 2343.438442
_symmetry_space_group_name_H-M "C 2/M"
_symmetry_group_IT_number 12
_symmetry_cell_setting 'monoclinic'
loop_
_space_group_symop_operation_xyz
x,y,z
-x,y,-z
-x,-y,-z
x,-y,z
1/2+x,1/2+y,z
1/2-x,1/2+y,-z
1/2-x,1/2-y,-z
1/2+x,1/2-y,z
loop_
_atom_site_type_symbol
_atom_site_label
_atom_site_fract_x
_atom_site_fract_y
_atom_site_fract_z
Si Si1 0.764867 0.886496 0.922513
Si Si2 0.188625 0.890189 0.769247
Si Si3 0.618002 0.263594 0.365748
Si Si4 0.099012 0.710439 0.591672
Si Si5 0.036018 0.888252 0.915554
Si Si6 0.219796 0.387724 0.357332
O O1 0.679427 0.839687 0.757749
O O2 0.748513 0.000000 0.895126
O O3 0.767116 0.853466 0.058381
O O4 0.858226 0.857057 0.969137
O O5 0.101313 0.824443 0.631167
O O6 0.263950 0.881007 0.759438
O O7 0.151856 0.000000 0.737796
O O8 0.617214 0.198878 0.479363
O O9 0.521298 0.316591 0.234337
O O10 0.694409 0.348558 0.464752
O O11 0.635981 0.184977 0.286092
O O12 0.000000 0.665119 0.500000
O O13 0.023468 0.000000 0.859448
O O14 0.000000 0.874687 0.000000
O O15 0.199979 0.500000 0.368896
#
# Coordination Sequence:
#
# PCOD8106447 Si02
#       6
#     8   8   8   8   8   8
#     4  10  22  40  62  87 118 154 195 243 292 344
#     4   9  19  37  61  87 116 152 196 244 290 338
#     4  10  21  36  58  89 120 157 194 245 292 347
#     4  11  23  38  59  90 119 155 194 236 296 352
#     4  10  22  38  61  91 118 152 197 246 294 343
#     4   9  19  35  59  89 120 158 197 239 294 349
#
# _framework density 20.482721999999999
#
# number of rings (size 3 to 8) (size 9 to 14) (size 15 to 20)
#    0.000    2.167    0.000    2.000    7.000    2.000 
#    0.000    0.000    0.000    1.500    0.000    0.000 
#    0.000    0.000    0.000    0.000    0.000    0.000 
#
# Total GULP energy -297550.429316 kJ/mol
# GULP energy per Si atom -12397.934555 kJ/mol
# Density = 2.043610 g / cm^3
# Si number density = 20.482722 Si / 1000 Ang^3
#
#
#
# Elastic Constant Matrix: (Units=GPa)
#
#
# Indices 1 2 3 4 5 6 
#
# 1 120.1149 50.2053 67.8747 0.0000 1.0601 0.0000
# 2 50.2053 74.3514 42.3604 0.0000 2.8565 0.0000
# 3 67.8747 42.3604 103.3568 0.0000 7.7275 0.0000
# 4 0.0000 0.0000 0.0000 21.4460 0.0000 -4.3565
# 5 1.0601 2.8565 7.7275 0.0000 38.2561 0.0000
# 6 0.0000 0.0000 0.0000 -4.3565 0.0000 27.2938
#
#
#
# Elastic Compliance Matrix: (Units=1/GPa)
#
#
# Indices 1 2 3 4 5 6 
#
# 1 0.015073 -0.005912 -0.007592 0.000000 0.001557 0.000000
# 2 -0.005912 0.019867 -0.004225 0.000000 -0.000466 0.000000
# 3 -0.007592 -0.004225 0.016604 0.000000 -0.002828 0.000000
# 4 0.000000 0.000000 0.000000 0.048191 0.000000 0.007692
# 5 0.001557 -0.000466 -0.002828 0.000000 0.026703 0.000000
# 6 0.000000 0.000000 0.000000 0.007692 0.000000 0.037866
#
#
# Mechanical properties :
#
#
# Convention : Reuss Voigt Hill
#
# Bulk Modulus (GPa) = 62.16729 68.74486 65.45608
# Shear Modulus (GPa) = 24.37566 26.55802 25.46684
#
# Velocity S-wave (km/s) = 3.45347 3.60475 3.52992
# Velocity P-wave (km/s) = 6.80580 7.13869 6.97423
#
# Compressibility (1/GPa) = 0.01608563
#
# Stress axis : x y z
#
# Youngs Moduli (GPa) = 66.34503 50.33499 60.22808
#
# Poissons Ratio (x) = 0.29760 0.45722
# Poissons Ratio (y) = 0.39226 0.25445
# Poissons Ratio (z) = 0.50366 0.21266
#
# Static dielectric constant tensor:
#      x y z
#    x 3.770830 0.000000 -0.181530 
#    y 0.000000 3.834910 0.000000 
#    z -0.181530 0.000000 3.521590 
# 
# 
# High freq. dielectric constant tensor:
#      x y z
#    x 1.803540 0.000000 -0.016660 
#    y 0.000000 1.801510 0.000000 
#    z -0.016660 0.000000 1.786010 
# 
# From -- ./inp_files/167627.got.cif
#   From: 2010.06.25/outbox.cif.g09.slc.cpg/sg12_84_cif.got.tgz:167627.got - 2010.06.28 00:19:55.
