data_PCOD8106364
_publ_section_title
;
Structure prediction by ZEFSAII (Michael W. Deem and Ramdas Pophale) SiO2 
 PCOD8106364
Probable space group: C 2/M
;
_chemical_formula_sum "Si O2"
_cell_formula_units_Z 56
_cell_length_a 25.017155
_cell_length_b 8.486175
_cell_length_c 18.139091
_cell_angle_alpha 90.000000
_cell_angle_beta 136.491873
_cell_angle_gamma 90.000000
_cell_volume 2651.200246
_symmetry_space_group_name_H-M "C 2/M"
_symmetry_group_IT_number 12
_symmetry_cell_setting 'monoclinic'
loop_
_space_group_symop_operation_xyz
x,y,z
-x,y,-z
-x,-y,-z
x,-y,z
1/2+x,1/2+y,z
1/2-x,1/2+y,-z
1/2-x,1/2-y,-z
1/2+x,1/2-y,z
loop_
_atom_site_type_symbol
_atom_site_label
_atom_site_fract_x
_atom_site_fract_y
_atom_site_fract_z
Si Si1 0.347760 0.816918 0.180740
Si Si2 0.904032 0.684624 0.729106
Si Si3 0.275461 0.318261 0.695294
Si Si4 0.486160 0.681867 0.401321
Si Si5 0.078404 0.685028 0.894744
Si Si6 0.211873 0.682380 0.133972
Si Si7 0.361574 0.682866 0.535362
O O1 0.415993 0.793634 0.307968
O O2 0.377034 0.745603 0.131970
O O3 0.272884 0.718550 0.130369
O O4 0.325330 0.000000 0.153413
O O5 0.904251 0.500000 0.746205
O O6 0.860972 0.771750 0.752942
O O7 0.858914 0.717374 0.607775
O O8 0.991547 0.755222 0.813834
O O9 0.258035 0.500000 0.662982
O O10 0.270077 0.286713 0.776882
O O11 0.213212 0.215651 0.588940
O O12 0.500000 0.714604 0.500000
O O13 0.464478 0.500000 0.364944
O O14 0.562540 0.733060 0.433731
O O15 0.071220 0.500000 0.874347
O O16 0.126440 0.723787 0.016837
O O17 0.217493 0.500000 0.161980
O O18 0.362500 0.500000 0.557358
#
# Coordination Sequence:
#
# PCOD8106364 Si02
#       7
#     8   8   8   8   8   8   8
#     4  11  21  38  62  93 126 160 205 253 305 365
#     4  11  22  42  67  92 124 165 208 255 308 370
#     4  12  26  43  62  91 125 162 208 261 314 367
#     4  10  21  36  57  87 124 164 204 248 302 362
#     4   9  21  40  65  93 124 163 208 252 306 370
#     4  11  23  42  64  90 124 166 209 254 310 370
#     4  11  22  39  63  93 126 163 207 255 307 367
#
# _framework density 21.122509000000001
#
# number of rings (size 3 to 8) (size 9 to 14) (size 15 to 20)
#    0.000    1.286    1.429    4.714    0.000    2.571 
#    0.000    7.857    0.000    0.000    0.000    0.000 
#    0.000    0.000    0.000    0.000    0.000    0.000 
#
# Total GULP energy -347376.045067 kJ/mol
# GULP energy per Si atom -12406.287324 kJ/mol
# Density = 2.107443 g / cm^3
# Si number density = 21.122509 Si / 1000 Ang^3
#
#
#
# Elastic Constant Matrix: (Units=GPa)
#
#
# Indices 1 2 3 4 5 6 
#
# 1 75.3396 13.2760 21.6531 0.0000 10.3564 0.0000
# 2 13.2760 52.1943 10.7907 0.0000 0.9361 0.0000
# 3 21.6531 10.7907 98.1442 0.0000 13.4465 0.0000
# 4 0.0000 0.0000 0.0000 16.4042 0.0000 -3.8023
# 5 10.3564 0.9361 13.4465 0.0000 28.2765 0.0000
# 6 0.0000 0.0000 0.0000 -3.8023 0.0000 31.8599
#
#
#
# Elastic Compliance Matrix: (Units=1/GPa)
#
#
# Indices 1 2 3 4 5 6 
#
# 1 0.015128 -0.003277 -0.002389 0.000000 -0.004296 0.000000
# 2 -0.003277 0.020319 -0.001694 0.000000 0.001333 0.000000
# 3 -0.002389 -0.001694 0.011526 0.000000 -0.004550 0.000000
# 4 0.000000 0.000000 0.000000 0.062694 0.000000 0.007482
# 5 -0.004296 0.001333 -0.004550 0.000000 0.039058 0.000000
# 6 0.000000 0.000000 0.000000 0.007482 0.000000 0.032280
#
#
# Mechanical properties :
#
#
# Convention : Reuss Voigt Hill
#
# Bulk Modulus (GPa) = 31.00407 35.23529 33.11968
# Shear Modulus (GPa) = 24.21597 27.30533 25.76065
#
# Velocity S-wave (km/s) = 3.38960 3.59933 3.49604
# Velocity P-wave (km/s) = 5.47990 5.83020 5.65776
#
# Compressibility (1/GPa) = 0.03225383
#
# Stress axis : x y z
#
# Youngs Moduli (GPa) = 66.10357 49.21512 86.76286
#
# Poissons Ratio (x) = 0.16128 0.20725
# Poissons Ratio (y) = 0.21662 0.14695
# Poissons Ratio (z) = 0.15790 0.08335
#
# Static dielectric constant tensor:
#      x y z
#    x 4.006470 0.000000 0.098280 
#    y 0.000000 3.597320 0.000000 
#    z 0.098280 0.000000 3.781560 
# 
# 
# High freq. dielectric constant tensor:
#      x y z
#    x 1.838720 0.000000 0.003320 
#    y 0.000000 1.814470 0.000000 
#    z 0.003320 0.000000 1.832890 
# 
# From -- ./inp_files/288174.got.cif
#   From: 2010.06.25/outbox.cif.g09.slc.cpg/sg12_145_cif.got.tgz:288174.got - 2010.06.28 00:19:55.
