data_PCOD8106121
_publ_section_title
;
Structure prediction by ZEFSAII (Michael W. Deem and Ramdas Pophale) SiO2 
 PCOD8106121
Probable space group: C 2/M
;
_chemical_formula_sum "Si O2"
_cell_formula_units_Z 32
_cell_length_a 8.704660
_cell_length_b 37.986123
_cell_length_c 5.109740
_cell_angle_alpha 90.000000
_cell_angle_beta 65.672476
_cell_angle_gamma 90.000000
_cell_volume 1539.543310
_symmetry_space_group_name_H-M "C 2/M"
_symmetry_group_IT_number 12
_symmetry_cell_setting 'monoclinic'
loop_
_space_group_symop_operation_xyz
x,y,z
-x,y,-z
-x,-y,-z
x,-y,z
1/2+x,1/2+y,z
1/2-x,1/2+y,-z
1/2-x,1/2-y,-z
1/2+x,1/2-y,z
loop_
_atom_site_type_symbol
_atom_site_label
_atom_site_fract_x
_atom_site_fract_y
_atom_site_fract_z
Si Si1 0.302317 0.892575 0.134187
Si Si2 0.298525 0.851142 0.639121
Si Si3 0.388593 0.461080 0.833110
Si Si4 0.113166 0.778899 0.672154
O O1 0.233353 0.877092 0.455055
O O2 0.257470 0.933109 0.116307
O O3 0.500000 0.890463 0.000000
O O4 0.230668 0.868168 0.953861
O O5 0.500000 0.846500 0.500000
O O6 0.214238 0.813502 0.678520
O O7 0.500000 0.462878 0.500000
O O8 0.310032 0.500000 0.943615
O O9 0.500000 0.448763 0.000000
O O10 0.250000 0.750000 0.500000
O O11 0.000000 0.786628 0.500000
O O12 0.000000 0.766403 0.000000
#
# Coordination Sequence:
#
# PCOD8106121 Si02
#       4
#     8   8   8   8
#     4  10  21  37  59  85 115 152 192 239 292 345
#     4  10  22  40  60  86 119 152 192 242 293 347
#     4  10  21  36  55  81 114 151 191 238 289 342
#     4  12  26  43  65  92 122 159 201 244 297 355
#
# _framework density 20.785387
#
# number of rings (size 3 to 8) (size 9 to 14) (size 15 to 20)
#    0.000    1.500    0.000    4.500    0.000    9.500 
#    0.000    0.000    0.000    9.000    0.000    0.000 
#    0.000    0.000    0.000    0.000    0.000    0.000 
#
# Total GULP energy -198409.073772 kJ/mol
# GULP energy per Si atom -12400.567111 kJ/mol
# Density = 2.073808 g / cm^3
# Si number density = 20.785387 Si / 1000 Ang^3
#
#
#
# Elastic Constant Matrix: (Units=GPa)
#
#
# Indices 1 2 3 4 5 6 
#
# 1 60.3402 59.7902 51.6552 0.0000 27.1662 0.0000
# 2 59.7902 163.4434 44.0442 0.0000 10.3516 0.0000
# 3 51.6552 44.0442 134.4749 0.0000 28.3094 0.0000
# 4 0.0000 0.0000 0.0000 33.2914 0.0000 1.2707
# 5 27.1662 10.3516 28.3094 0.0000 32.8013 0.0000
# 6 0.0000 0.0000 0.0000 1.2707 0.0000 39.1438
#
#
#
# Elastic Compliance Matrix: (Units=1/GPa)
#
#
# Indices 1 2 3 4 5 6 
#
# 1 0.053630 -0.015198 -0.008899 0.000000 -0.031940 0.000000
# 2 -0.015198 0.011019 0.000380 0.000000 0.008781 0.000000
# 3 -0.008899 0.000380 0.011247 0.000000 -0.002457 0.000000
# 4 0.000000 0.000000 0.000000 0.030075 0.000000 -0.000976
# 5 -0.031940 0.008781 -0.002457 0.000000 0.056289 0.000000
# 6 0.000000 0.000000 0.000000 -0.000976 0.000000 0.025579
#
#
# Mechanical properties :
#
#
# Convention : Reuss Voigt Hill
#
# Bulk Modulus (GPa) = 35.13279 74.35974 54.74626
# Shear Modulus (GPa) = 20.42815 34.56522 27.49668
#
# Velocity S-wave (km/s) = 3.13839 4.08236 3.64109
# Velocity P-wave (km/s) = 5.48379 7.62060 6.63873
#
# Compressibility (1/GPa) = 0.02846344
#
# Stress axis : x y z
#
# Youngs Moduli (GPa) = 18.64625 90.74961 88.90936
#
# Poissons Ratio (x) = 1.37919 0.79121
# Poissons Ratio (y) = 0.28338 -0.03379
# Poissons Ratio (z) = 0.16593 -0.03449
#
# Static dielectric constant tensor:
#      x y z
#    x 3.808200 0.000000 0.332010 
#    y 0.000000 4.093590 0.000000 
#    z 0.332010 0.000000 4.319920 
# 
# 
# High freq. dielectric constant tensor:
#      x y z
#    x 1.812650 0.000000 0.020550 
#    y 0.000000 1.826060 0.000000 
#    z 0.020550 0.000000 1.827130 
# 
# From -- ./inp_files/3723.got.cif
#   From: 2010.06.25/outbox.cif.g09.slc.cpg/sg12_2_cif.got.tgz:3723.got - 2010.06.28 00:19:55.
