data_PCOD8106234
_publ_section_title
;
Structure prediction by ZEFSAII (Michael W. Deem and Ramdas Pophale) SiO2 
 PCOD8106234
Probable space group: C 2/M
;
_chemical_formula_sum "Si O2"
_cell_formula_units_Z 48
_cell_length_a 18.675820
_cell_length_b 8.980518
_cell_length_c 14.969022
_cell_angle_alpha 90.000000
_cell_angle_beta 81.641864
_cell_angle_gamma 90.000000
_cell_volume 2483.917098
_symmetry_space_group_name_H-M "C 2/M"
_symmetry_group_IT_number 12
_symmetry_cell_setting 'monoclinic'
loop_
_space_group_symop_operation_xyz
x,y,z
-x,y,-z
-x,-y,-z
x,-y,z
1/2+x,1/2+y,z
1/2-x,1/2+y,-z
1/2-x,1/2-y,-z
1/2+x,1/2-y,z
loop_
_atom_site_type_symbol
_atom_site_label
_atom_site_fract_x
_atom_site_fract_y
_atom_site_fract_z
Si Si1 0.070618 0.164800 0.545015
Si Si2 0.234472 0.823663 0.753246
Si Si3 0.802071 0.325483 0.559433
Si Si4 0.960685 0.825277 0.913838
Si Si5 0.425797 0.676159 0.252903
Si Si6 0.694289 0.822519 0.077382
O O1 0.117316 0.279993 0.480039
O O2 0.056797 0.225101 0.648188
O O3 0.000000 0.149763 0.500000
O O4 0.107334 0.000000 0.545915
O O5 0.281136 0.766153 0.661066
O O6 0.152551 0.758580 0.762672
O O7 0.277538 0.767535 0.831538
O O8 0.228885 0.000000 0.754212
O O9 0.792904 0.500000 0.555064
O O10 0.750000 0.250000 0.500000
O O11 0.886097 0.736067 0.924942
O O12 0.011887 0.763370 0.824651
O O13 0.943787 0.000000 0.906312
O O14 0.000000 0.792549 0.000000
O O15 0.424883 0.500000 0.243810
O O16 0.695210 0.000000 0.067563
O O17 0.750000 0.750000 0.000000
#
# Coordination Sequence:
#
# PCOD8106234 Si02
#       6
#     8   8   8   8   8   8
#     4  10  21  36  56  83 117 155 195 239 285 337
#     4   9  19  36  59  83 113 153 192 236 291 343
#     4  11  21  37  60  85 116 155 198 240 286 340
#     4  10  21  38  62  87 114 152 193 231 284 349
#     4   9  17  34  57  80 111 151 191 231 280 340
#     4  11  23  40  62  88 117 149 190 240 291 345
#
# _framework density 19.324317000000001
#
# number of rings (size 3 to 8) (size 9 to 14) (size 15 to 20)
#    0.000    2.000    1.667    2.000    2.333    3.333 
#    0.000    3.333    0.000    0.000    0.000    0.000 
#    0.000    0.000    0.000    0.000    0.000    0.000 
#
# Total GULP energy -297544.532690 kJ/mol
# GULP energy per Si atom -12397.688862 kJ/mol
# Density = 1.928033 g / cm^3
# Si number density = 19.324317 Si / 1000 Ang^3
#
#
#
# Elastic Constant Matrix: (Units=GPa)
#
#
# Indices 1 2 3 4 5 6 
#
# 1 141.3346 43.6954 90.1538 0.0000 -8.7220 0.0000
# 2 43.6954 53.6902 46.8329 0.0000 -2.7634 0.0000
# 3 90.1538 46.8329 185.8426 0.0000 -9.9478 0.0000
# 4 0.0000 0.0000 0.0000 21.0805 0.0000 -7.6256
# 5 -8.7220 -2.7634 -9.9478 0.0000 44.5747 0.0000
# 6 0.0000 0.0000 0.0000 -7.6256 0.0000 27.2778
#
#
#
# Elastic Compliance Matrix: (Units=1/GPa)
#
#
# Indices 1 2 3 4 5 6 
#
# 1 0.011524 -0.005765 -0.004085 0.000000 0.000986 0.000000
# 2 -0.005765 0.026758 -0.003965 0.000000 -0.000354 0.000000
# 3 -0.004085 -0.003965 0.008406 0.000000 0.000831 0.000000
# 4 0.000000 0.000000 0.000000 0.052774 0.000000 0.014753
# 5 0.000986 -0.000354 0.000831 0.000000 0.022791 0.000000
# 6 0.000000 0.000000 0.000000 0.014753 0.000000 0.040784
#
#
# Mechanical properties :
#
#
# Convention : Reuss Voigt Hill
#
# Bulk Modulus (GPa) = 52.47193 82.47017 67.47105
# Shear Modulus (GPa) = 25.37811 31.93232 28.65521
#
# Velocity S-wave (km/s) = 3.62784 4.06943 3.85497
# Velocity P-wave (km/s) = 6.69034 8.05295 7.40306
#
# Compressibility (1/GPa) = 0.01905781
#
# Stress axis : x y z
#
# Youngs Moduli (GPa) = 86.77355 37.37223 118.95835
#
# Poissons Ratio (x) = 0.21545 0.48594
# Poissons Ratio (y) = 0.50025 0.47171
# Poissons Ratio (z) = 0.35447 0.14819
#
# Static dielectric constant tensor:
#      x y z
#    x 3.990380 0.000000 0.187590 
#    y 0.000000 2.419280 0.000000 
#    z 0.187590 0.000000 3.800510 
# 
# 
# High freq. dielectric constant tensor:
#      x y z
#    x 1.762480 0.000000 -0.001050 
#    y 0.000000 1.716710 0.000000 
#    z -0.001050 0.000000 1.772540 
# 
# From -- ./inp_files/221691.got.cif
#   From: 2010.06.25/outbox.cif.g09.slc.cpg/sg12_111_cif.got.tgz:221691.got - 2010.06.28 00:19:55.
