data_PCOD8106196
_publ_section_title
;
Structure prediction by ZEFSAII (Michael W. Deem and Ramdas Pophale) SiO2 
 PCOD8106196
Probable space group: C 2/M
;
_chemical_formula_sum "Si O2"
_cell_formula_units_Z 32
_cell_length_a 9.374808
_cell_length_b 19.380405
_cell_length_c 7.794387
_cell_angle_alpha 90.000000
_cell_angle_beta 79.498560
_cell_angle_gamma 90.000000
_cell_volume 1392.423343
_symmetry_space_group_name_H-M "C 2/M"
_symmetry_group_IT_number 12
_symmetry_cell_setting 'monoclinic'
loop_
_space_group_symop_operation_xyz
x,y,z
-x,y,-z
-x,-y,-z
x,-y,z
1/2+x,1/2+y,z
1/2-x,1/2+y,-z
1/2-x,1/2-y,-z
1/2+x,1/2-y,z
loop_
_atom_site_type_symbol
_atom_site_label
_atom_site_fract_x
_atom_site_fract_y
_atom_site_fract_z
Si Si1 0.430639 0.420369 0.246137
Si Si2 0.726329 0.702677 0.837978
Si Si3 0.037839 0.681066 0.791905
Si Si4 0.221297 0.078880 0.361982
O O1 0.422044 0.500000 0.184567
O O2 0.364070 0.369251 0.114400
O O3 0.332057 0.408500 0.434136
O O4 0.595574 0.399161 0.255256
O O5 0.628808 0.749188 0.732844
O O6 0.884624 0.685639 0.723911
O O7 0.750000 0.750000 0.000000
O O8 0.129374 0.617452 0.704081
O O9 0.000000 0.670145 0.000000
O O10 0.258586 0.000000 0.324360
#
# Coordination Sequence:
#
# PCOD8106196 Si02
#       4
#     8   8   8   8
#     4   9  19  38  63  88 118 156 197 243 297 357
#     4  10  21  37  57  83 117 157 201 244 291 350
#     4  10  21  36  56  81 118 160 199 246 294 347
#     4   9  19  37  61  90 121 154 195 243 297 358
#
# _framework density 22.981515999999999
#
# number of rings (size 3 to 8) (size 9 to 14) (size 15 to 20)
#    0.000    2.500    0.000    3.000    0.000    5.500 
#    0.000    6.250    0.000   18.750    0.000    0.000 
#    0.000    0.000    0.000    0.000    0.000    0.000 
#
# Total GULP energy -198263.918406 kJ/mol
# GULP energy per Si atom -12391.494900 kJ/mol
# Density = 2.292921 g / cm^3
# Si number density = 22.981516 Si / 1000 Ang^3
#
#
#
# Elastic Constant Matrix: (Units=GPa)
#
#
# Indices 1 2 3 4 5 6 
#
# 1 167.5985 71.0568 21.7061 0.0000 -17.0036 0.0000
# 2 71.0568 122.7119 23.5630 0.0000 10.7402 0.0000
# 3 21.7061 23.5630 52.8893 0.0000 -7.6141 0.0000
# 4 0.0000 0.0000 0.0000 24.6387 0.0000 -34.8871
# 5 -17.0036 10.7402 -7.6141 0.0000 33.8324 0.0000
# 6 0.0000 0.0000 0.0000 -34.8871 0.0000 -76.0667
#
#
#
# Elastic Compliance Matrix: (Units=1/GPa)
#
#
# Indices 1 2 3 4 5 6 
#
# 1 0.009089 -0.005771 -0.000246 0.000000 0.006345 0.000000
# 2 -0.005771 0.013088 -0.004628 0.000000 -0.008097 0.000000
# 3 -0.000246 -0.004628 0.021976 0.000000 0.006292 0.000000
# 4 0.000000 0.000000 0.000000 0.024607 0.000000 -0.011286
# 5 0.006345 -0.008097 0.006292 0.000000 0.036732 0.000000
# 6 0.000000 0.000000 0.000000 -0.011286 0.000000 -0.007970
#
#
# Mechanical properties :
#
#
# Convention : Reuss Voigt Hill
#
# Bulk Modulus (GPa) = 43.73828 63.98347 53.86088
# Shear Modulus (GPa) = 39.54659 11.60580 25.57619
#
# Velocity S-wave (km/s) = 4.15275 2.24967 3.33964
# Velocity P-wave (km/s) = 6.48591 5.88640 6.19342
#
# Compressibility (1/GPa) = 0.02286327
#
# Stress axis : x y z
#
# Youngs Moduli (GPa) = 110.02389 76.40383 45.50432
#
# Poissons Ratio (x) = 0.44094 0.01118
# Poissons Ratio (y) = 0.63496 0.21060
# Poissons Ratio (z) = 0.02702 0.35361
#
# Static dielectric constant tensor:
#      x y z
#    x 5.177360 0.000000 -0.056510 
#    y 0.000000 4.245840 0.000000 
#    z -0.056510 0.000000 3.648990 
# 
# 
# High freq. dielectric constant tensor:
#      x y z
#    x 1.926070 0.000000 -0.010680 
#    y 0.000000 1.914650 0.000000 
#    z -0.010680 0.000000 1.872850 
# 
# From -- ./inp_files/37491.got.cif
#   From: 2010.06.25/outbox.cif.g09.slc.cpg/sg12_19_cif.got.tgz:37491.got - 2010.06.28 00:19:55.
