data_PCOD8106956
_publ_section_title
;
Structure prediction by ZEFSAII (Michael W. Deem and Ramdas Pophale) SiO2 
 PCOD8106956
Probable space group: C 2/M
;
_chemical_formula_sum "Si O2"
_cell_formula_units_Z 56
_cell_length_a 25.598932
_cell_length_b 9.131375
_cell_length_c 16.200522
_cell_angle_alpha 90.000000
_cell_angle_beta 45.817304
_cell_angle_gamma 90.000000
_cell_volume 2715.685983
_symmetry_space_group_name_H-M "C 2/M"
_symmetry_group_IT_number 12
_symmetry_cell_setting 'monoclinic'
loop_
_space_group_symop_operation_xyz
x,y,z
-x,y,-z
-x,-y,-z
x,-y,z
1/2+x,1/2+y,z
1/2-x,1/2+y,-z
1/2-x,1/2-y,-z
1/2+x,1/2-y,z
loop_
_atom_site_type_symbol
_atom_site_label
_atom_site_fract_x
_atom_site_fract_y
_atom_site_fract_z
Si Si1 0.425166 0.166702 0.278996
Si Si2 0.915903 0.838128 0.605048
Si Si3 0.147882 0.671048 0.470171
Si Si4 0.661359 0.169528 0.173411
Si Si5 0.173502 0.831954 0.991183
Si Si6 0.227893 0.667433 0.606177
Si Si7 0.467063 0.670640 0.950164
O O1 0.397455 0.221727 0.399032
O O2 0.358958 0.179975 0.285551
O O3 0.491100 0.264320 0.174738
O O4 0.452441 0.000000 0.255552
O O5 0.895156 0.714889 0.562632
O O6 0.895918 0.770870 0.715609
O O7 0.000000 0.861923 0.500000
O O8 0.878927 0.000000 0.635200
O O9 0.163292 0.500000 0.456975
O O10 0.225863 0.752994 0.373798
O O11 0.657754 0.221194 0.082953
O O12 0.637319 0.000000 0.203236
O O13 0.741619 0.189325 0.126609
O O14 0.119163 0.797136 0.973036
O O15 0.160871 0.000000 0.034153
O O16 0.252372 0.500000 0.571795
O O17 0.250000 0.750000 0.500000
O O18 0.483203 0.500000 0.933710
O O19 0.500000 0.737967 0.000000
#
# Coordination Sequence:
#
# PCOD8106956 Si02
#       7
#     8   8   8   8   8   8   8
#     4   9  20  36  55  83 116 151 191 239 290 346
#     4  11  25  41  58  86 123 158 196 244 301 362
#     4  10  21  37  57  83 115 153 197 243 295 357
#     4  10  21  39  64  90 118 157 203 254 303 353
#     4   9  20  40  63  88 119 156 203 251 301 362
#     4   9  17  32  53  79 111 147 191 234 278 339
#     4  10  22  38  57  84 116 151 192 240 297 358
#
# _framework density 20.620940000000001
#
# number of rings (size 3 to 8) (size 9 to 14) (size 15 to 20)
#    0.000    2.286    0.000    2.571    2.000    7.143 
#    0.000    1.429    0.000    0.000    0.000    0.000 
#    0.000    0.000    0.000    0.000    0.000    0.000 
#
# Total GULP energy -346995.548475 kJ/mol
# GULP energy per Si atom -12392.698160 kJ/mol
# Density = 2.057401 g / cm^3
# Si number density = 20.620940 Si / 1000 Ang^3
#
#
#
# Elastic Constant Matrix: (Units=GPa)
#
#
# Indices 1 2 3 4 5 6 
#
# 1 87.5090 21.4861 6.8291 -0.0028 -3.7819 0.0003
# 2 21.4861 89.2136 30.9914 -0.0133 -4.1564 0.0106
# 3 6.8291 30.9914 60.8614 -0.0138 -1.7099 0.0076
# 4 -0.0028 -0.0133 -0.0138 13.3630 0.0051 -0.3208
# 5 -3.7819 -4.1564 -1.7099 0.0051 22.9713 -0.0023
# 6 0.0003 0.0106 0.0076 -0.3208 -0.0023 31.7964
#
#
#
# Elastic Compliance Matrix: (Units=1/GPa)
#
#
# Indices 1 2 3 4 5 6 
#
# 1 0.012197 -0.002925 0.000163 -0.000001 0.001491 0.000001
# 2 -0.002925 0.014407 -0.006963 0.000006 0.001607 -0.000003
# 3 0.000163 -0.006963 0.019965 0.000014 0.000253 -0.000002
# 4 -0.000001 0.000006 0.000014 0.074852 -0.000015 0.000755
# 5 0.001491 0.001607 0.000253 -0.000015 0.044088 0.000002
# 6 0.000001 -0.000003 -0.000002 0.000755 0.000002 0.031458
#
#
# Mechanical properties :
#
#
# Convention : Reuss Voigt Hill
#
# Bulk Modulus (GPa) = 36.87375 39.57746 38.22561
# Shear Modulus (GPa) = 22.17719 25.51129 23.84424
#
# Velocity S-wave (km/s) = 3.28299 3.52114 3.40415
# Velocity P-wave (km/s) = 5.68254 5.98044 5.83339
#
# Compressibility (1/GPa) = 0.02711956
#
# Stress axis : x y z
#
# Youngs Moduli (GPa) = 81.98583 69.41015 50.08685
#
# Poissons Ratio (x) = 0.20299 -0.00814
# Poissons Ratio (y) = 0.23977 0.34875
# Poissons Ratio (z) = -0.01332 0.48330
#
# Static dielectric constant tensor:
#      x y z
#    x 4.035130 -0.000030 -0.319600 
#    y -0.000030 3.842570 0.000050 
#    z -0.319600 0.000050 3.595880 
# 
# 
# High freq. dielectric constant tensor:
#      x y z
#    x 1.807850 0.000000 -0.012880 
#    y 0.000000 1.812550 0.000000 
#    z -0.012880 0.000000 1.784390 
# 
# From -- ./inp_files/292449.got.cif
#   From: 2010.06.25/outbox.cif.g09.slc.cpg/sg12_147_cif.got.tgz:292449.got - 2010.06.28 00:19:55.
