data_PCOD8106776
_publ_section_title
;
Structure prediction by ZEFSAII (Michael W. Deem and Ramdas Pophale) SiO2 
 PCOD8106776
Probable space group: C 2/M
;
_chemical_formula_sum "Si O2"
_cell_formula_units_Z 56
_cell_length_a 9.001221
_cell_length_b 28.516326
_cell_length_c 21.908390
_cell_angle_alpha 90.000000
_cell_angle_beta 34.742718
_cell_angle_gamma 90.000000
_cell_volume 3204.780369
_symmetry_space_group_name_H-M "C 2/M"
_symmetry_group_IT_number 12
_symmetry_cell_setting 'monoclinic'
loop_
_space_group_symop_operation_xyz
x,y,z
-x,y,-z
-x,-y,-z
x,-y,z
1/2+x,1/2+y,z
1/2-x,1/2+y,-z
1/2-x,1/2-y,-z
1/2+x,1/2-y,z
loop_
_atom_site_type_symbol
_atom_site_label
_atom_site_fract_x
_atom_site_fract_y
_atom_site_fract_z
Si Si1 0.412474 0.140709 0.206315
Si Si2 0.577460 0.946977 0.875796
Si Si3 0.923728 0.297898 0.624525
Si Si4 0.919332 0.946977 0.875811
Si Si5 0.421823 0.297897 0.375477
Si Si6 0.825121 0.800207 1.000000
Si Si7 0.237728 0.140709 0.793688
O O1 0.393879 0.086957 0.191492
O O2 0.552751 0.143195 0.223625
O O3 0.120451 0.159273 0.311818
O O4 0.564766 0.171093 0.104182
O O5 0.785027 0.932750 0.857489
O O6 0.629012 0.000000 0.835957
O O7 0.286933 0.942739 0.999992
O O8 0.696735 0.293620 0.651633
O O9 0.867716 0.340729 0.688184
O O10 0.201838 0.307594 0.500000
O O11 0.925526 0.250001 0.662239
O O12 0.159828 0.913044 0.808522
O O13 0.027129 0.000000 0.835977
O O14 0.981497 0.828905 0.895816
O O15 0.750000 0.750000 0.000000
O O16 0.000000 0.792805 0.000000
#
# Coordination Sequence:
#
# PCOD8106776 Si02
#       7
#     8   8   8   8   8   8   8
#     4  11  21  34  52  77 108 140 176 214 261 314
#     4   9  18  33  53  77 105 139 178 216 258 311
#     4  10  21  37  56  78 104 137 179 222 263 309
#     4   9  18  33  53  77 105 139 178 216 258 311
#     4  10  21  37  56  78 104 137 179 222 263 309
#     4  10  22  34  45  70 105 139 170 205 251 306
#     4  11  21  34  52  77 108 140 176 214 261 314
#
# _framework density 17.473897000000001
#
# number of rings (size 3 to 8) (size 9 to 14) (size 15 to 20)
#    0.000    2.000    1.429    3.429    0.000    6.857 
#    0.000    1.429    0.000    0.857    0.000    6.000 
#    0.000    0.000    0.000    0.000    0.000    0.000 
#
# Total GULP energy -347329.951161 kJ/mol
# GULP energy per Si atom -12404.641113 kJ/mol
# Density = 1.743413 g / cm^3
# Si number density = 17.473897 Si / 1000 Ang^3
#
#
#
# Elastic Constant Matrix: (Units=GPa)
#
#
# Indices 1 2 3 4 5 6 
#
# 1 85.3380 52.5274 46.3371 0.0001 0.0910 0.0000
# 2 52.5274 118.8087 46.9915 0.0000 -0.0464 0.0000
# 3 46.3371 46.9915 66.8939 0.0000 -0.2346 0.0000
# 4 0.0001 0.0000 0.0000 27.4040 -0.0004 -0.0818
# 5 0.0910 -0.0464 -0.2346 -0.0004 25.0753 0.0001
# 6 0.0000 0.0000 0.0000 -0.0818 0.0001 37.5744
#
#
#
# Elastic Compliance Matrix: (Units=1/GPa)
#
#
# Indices 1 2 3 4 5 6 
#
# 1 0.020582 -0.004792 -0.010891 0.000000 -0.000186 0.000000
# 2 -0.004792 0.012771 -0.005652 0.000000 -0.000012 0.000000
# 3 -0.010891 -0.005652 0.026465 0.000000 0.000277 0.000000
# 4 0.000000 0.000000 0.000000 0.036491 0.000001 0.000079
# 5 -0.000186 -0.000012 0.000277 0.000001 0.039883 0.000000
# 6 0.000000 0.000000 0.000000 0.000079 0.000000 0.026614
#
#
# Mechanical properties :
#
#
# Convention : Reuss Voigt Hill
#
# Bulk Modulus (GPa) = 58.31922 62.52806 60.42364
# Shear Modulus (GPa) = 23.67517 26.35639 25.01578
#
# Velocity S-wave (km/s) = 3.68487 3.88793 3.78777
# Velocity P-wave (km/s) = 7.17996 7.48439 7.33376
#
# Compressibility (1/GPa) = 0.01714701
#
# Stress axis : x y z
#
# Youngs Moduli (GPa) = 48.58720 78.30272 37.78598
#
# Poissons Ratio (x) = 0.37521 0.41154
# Poissons Ratio (y) = 0.23282 0.21357
# Poissons Ratio (z) = 0.52918 0.44257
#
# Static dielectric constant tensor:
#      x y z
#    x 3.256200 0.000000 -0.001080 
#    y 0.000000 3.241850 0.000000 
#    z -0.001080 0.000000 3.121930 
# 
# 
# High freq. dielectric constant tensor:
#      x y z
#    x 1.683210 0.000000 -0.000210 
#    y 0.000000 1.676430 0.000000 
#    z -0.000210 0.000000 1.657480 
# 
# From -- ./inp_files/199684.got.cif
#   From: 2010.06.25/outbox.cif.g09.slc.cpg/sg12_100_cif.got.tgz:199684.got - 2010.06.28 00:19:55.
