data_PCOD8106689
_publ_section_title
;
Structure prediction by ZEFSAII (Michael W. Deem and Ramdas Pophale) SiO2 
 PCOD8106689
Probable space group: C 2/M
;
_chemical_formula_sum "Si O2"
_cell_formula_units_Z 64
_cell_length_a 12.057623
_cell_length_b 14.357809
_cell_length_c 20.389474
_cell_angle_alpha 90.000000
_cell_angle_beta 103.820971
_cell_angle_gamma 90.000000
_cell_volume 3427.647121
_symmetry_space_group_name_H-M "C 2/M"
_symmetry_group_IT_number 12
_symmetry_cell_setting 'monoclinic'
loop_
_space_group_symop_operation_xyz
x,y,z
-x,y,-z
-x,-y,-z
x,-y,z
1/2+x,1/2+y,z
1/2-x,1/2+y,-z
1/2-x,1/2-y,-z
1/2+x,1/2-y,z
loop_
_atom_site_type_symbol
_atom_site_label
_atom_site_fract_x
_atom_site_fract_y
_atom_site_fract_z
Si Si1 0.758050 0.391174 0.549519
Si Si2 0.090550 0.750328 0.140725
Si Si3 0.073551 0.897712 0.882905
Si Si4 0.441043 0.100090 0.060859
Si Si5 0.238343 0.104834 0.791603
Si Si6 0.906741 0.105158 0.353598
Si Si7 0.420370 0.727033 0.550369
Si Si8 0.803465 0.837034 0.974661
O O1 0.787349 0.500000 0.537804
O O2 0.698062 0.382906 0.611205
O O3 0.676829 0.348373 0.481720
O O4 0.871054 0.326294 0.568039
O O5 0.172685 0.690703 0.199766
O O6 0.149916 0.803004 0.088452
O O7 0.022765 0.834146 0.166166
O O8 0.985271 0.682188 0.111667
O O9 0.190721 0.891441 0.858752
O O10 0.020850 0.000000 0.872191
O O11 0.097257 0.875074 0.963142
O O12 0.303032 0.091823 0.044428
O O13 0.487107 0.000000 0.092126
O O14 0.500000 0.121286 0.000000
O O15 0.139190 0.124891 0.725523
O O16 0.289693 0.000000 0.786157
O O17 0.006178 0.179538 0.381521
O O18 0.955890 0.000000 0.366816
O O19 0.500000 0.748773 0.500000
O O20 0.750000 0.750000 0.000000
#
# Coordination Sequence:
#
# PCOD8106689 Si02
#       8
#     8   8   8   8   8   8   8   8
#     4   9  17  30  50  79 109 137 171 211 249 291
#     4  12  21  35  53  72  96 125 160 202 251 302
#     4  11  23  37  53  73  99 129 163 205 255 310
#     4  11  20  31  49  71  92 117 147 188 239 292
#     4  10  21  37  54  74  99 131 170 211 251 297
#     4   9  18  33  53  74 100 136 175 210 247 292
#     4   9  17  30  51  78 109 140 171 208 250 293
#     4  12  20  34  51  72  98 122 152 199 251 306
#
# _framework density 18.671699
#
# number of rings (size 3 to 8) (size 9 to 14) (size 15 to 20)
#    0.000    1.625    3.750    1.500    0.000    6.250 
#    0.000    0.000    0.000    0.750    0.000    0.000 
#    0.000    0.000    0.000    0.000    0.000    0.000 
#
# Total GULP energy -396422.174134 kJ/mol
# GULP energy per Si atom -12388.192942 kJ/mol
# Density = 1.862920 g / cm^3
# Si number density = 18.671699 Si / 1000 Ang^3
#
#
#
# Elastic Constant Matrix: (Units=GPa)
#
#
# Indices 1 2 3 4 5 6 
#
# 1 63.1531 48.7643 18.7332 0.0000 18.7405 0.0000
# 2 48.7643 150.4899 35.0783 0.0000 20.1646 0.0000
# 3 18.7332 35.0783 66.6547 0.0000 15.5399 0.0000
# 4 0.0000 0.0000 0.0000 22.8963 0.0000 -3.7064
# 5 18.7405 20.1646 15.5399 0.0000 19.9160 0.0000
# 6 0.0000 0.0000 0.0000 -3.7064 0.0000 -89.6332
#
#
#
# Elastic Compliance Matrix: (Units=1/GPa)
#
#
# Indices 1 2 3 4 5 6 
#
# 1 0.025844 -0.005943 0.000160 0.000000 -0.018426 0.000000
# 2 -0.005943 0.009483 -0.002916 0.000000 -0.001734 0.000000
# 3 0.000160 -0.002916 0.019361 0.000000 -0.012305 0.000000
# 4 0.000000 0.000000 0.000000 0.043385 0.000000 -0.001794
# 5 -0.018426 -0.001734 -0.012305 0.000000 0.078906 0.000000
# 6 0.000000 0.000000 0.000000 -0.001794 0.000000 -0.011082
#
#
# Mechanical properties :
#
#
# Convention : Reuss Voigt Hill
#
# Bulk Modulus (GPa) = 26.81668 53.93880 40.37774
# Shear Modulus (GPa) = 25.54626 2.48396 14.01511
#
# Velocity S-wave (km/s) = 3.70291 1.15465 2.74269
# Velocity P-wave (km/s) = 5.71624 5.54331 5.63044
#
# Compressibility (1/GPa) = 0.03729023
#
# Stress axis : x y z
#
# Youngs Moduli (GPa) = 38.69424 105.45610 51.64976
#
# Poissons Ratio (x) = 0.62668 -0.00826
# Poissons Ratio (y) = 0.22994 0.15061
# Poissons Ratio (z) = -0.00619 0.30751
#
# Static dielectric constant tensor:
#      x y z
#    x 3.245740 0.000000 0.084280 
#    y 0.000000 3.732930 0.000000 
#    z 0.084280 0.000000 3.014440 
# 
# 
# High freq. dielectric constant tensor:
#      x y z
#    x 1.717140 0.000000 0.007340 
#    y 0.000000 1.744230 0.000000 
#    z 0.007340 0.000000 1.687440 
# 
# From -- ./inp_files/305468.got.cif
#   From: 2010.06.25/outbox.cif.g09.slc.cpg/sg12_153_cif.got.tgz:305468.got - 2010.06.28 00:19:55.
