data_PCOD8106852
_publ_section_title
;
Structure prediction by ZEFSAII (Michael W. Deem and Ramdas Pophale) SiO2 
 PCOD8106852
Probable space group: C 2/M
;
_chemical_formula_sum "Si O2"
_cell_formula_units_Z 64
_cell_length_a 32.284522
_cell_length_b 8.927870
_cell_length_c 15.562998
_cell_angle_alpha 90.000000
_cell_angle_beta 133.646420
_cell_angle_gamma 90.000000
_cell_volume 3245.949693
_symmetry_space_group_name_H-M "C 2/M"
_symmetry_group_IT_number 12
_symmetry_cell_setting 'monoclinic'
loop_
_space_group_symop_operation_xyz
x,y,z
-x,y,-z
-x,-y,-z
x,-y,z
1/2+x,1/2+y,z
1/2-x,1/2+y,-z
1/2-x,1/2-y,-z
1/2+x,1/2-y,z
loop_
_atom_site_type_symbol
_atom_site_label
_atom_site_fract_x
_atom_site_fract_y
_atom_site_fract_z
Si Si1 0.215326 0.675666 0.194307
Si Si2 0.914662 0.832253 0.813694
Si Si3 0.473872 0.322811 0.593213
Si Si4 0.087745 0.822949 0.663986
Si Si5 0.214308 0.824136 0.873272
Si Si6 0.095667 0.172497 0.005676
Si Si7 0.488630 0.824911 0.784624
Si Si8 0.719140 0.326517 0.376719
O O1 0.209576 0.500000 0.202734
O O2 0.259477 0.713774 0.181985
O O3 0.154285 0.739104 0.078386
O O4 0.238234 0.751431 0.314454
O O5 0.929957 0.811904 0.935421
O O6 0.847887 0.803880 0.704664
O O7 0.949448 0.710520 0.810341
O O8 0.931628 0.000000 0.807597
O O9 0.469442 0.500000 0.602519
O O10 0.538647 0.274943 0.660562
O O11 0.429953 0.268358 0.456741
O O12 0.456268 0.234376 0.653676
O O13 0.149459 0.758190 0.780623
O O14 0.091388 0.000000 0.665225
O O15 0.214632 0.000000 0.891135
O O16 0.250000 0.750000 0.000000
O O17 0.107328 0.000000 0.998702
O O18 0.049473 0.241244 0.875226
O O19 0.499524 0.000000 0.795679
O O20 0.736044 0.500000 0.396460
O O21 0.750000 0.250000 0.500000
#
# Coordination Sequence:
#
# PCOD8106852 Si02
#       8
#     8   8   8   8   8   8   8   8
#     4  10  21  37  56  84 120 152 191 243 297 349
#     4   9  20  38  56  78 108 146 192 233 275 332
#     4   9  18  36  61  83 106 146 194 236 280 336
#     4   8  17  37  61  82 107 144 193 238 279 332
#     4  10  22  38  58  87 119 153 195 243 293 348
#     4  10  21  38  59  79 108 150 193 234 280 341
#     4  12  24  34  52  85 118 145 181 230 287 344
#     4  10  21  38  61  86 115 154 197 239 287 346
#
# _framework density 19.71688
#
# number of rings (size 3 to 8) (size 9 to 14) (size 15 to 20)
#    0.000    2.250    0.000    4.125    1.750    6.500 
#    0.000    4.375    0.000    0.000    0.000    0.000 
#    0.000    0.000    0.000    0.000    0.000    0.000 
#
# Total GULP energy -396844.716009 kJ/mol
# GULP energy per Si atom -12401.397375 kJ/mol
# Density = 1.967200 g / cm^3
# Si number density = 19.716880 Si / 1000 Ang^3
#
#
#
# Elastic Constant Matrix: (Units=GPa)
#
#
# Indices 1 2 3 4 5 6 
#
# 1 69.8752 36.3335 37.5046 0.0000 4.5100 0.0000
# 2 36.3335 92.1973 43.8830 0.0000 -7.8291 0.0000
# 3 37.5046 43.8830 126.1594 0.0000 -0.5661 0.0000
# 4 0.0000 0.0000 0.0000 32.0463 0.0000 -0.6838
# 5 4.5100 -7.8291 -0.5661 0.0000 20.1284 0.0000
# 6 0.0000 0.0000 0.0000 -0.6838 0.0000 26.5774
#
#
#
# Elastic Compliance Matrix: (Units=1/GPa)
#
#
# Indices 1 2 3 4 5 6 
#
# 1 0.020344 -0.006886 -0.003685 0.000000 -0.007340 0.000000
# 2 -0.006886 0.015837 -0.003428 0.000000 0.007607 0.000000
# 3 -0.003685 -0.003428 0.010213 0.000000 -0.000220 0.000000
# 4 0.000000 0.000000 0.000000 0.031222 0.000000 0.000803
# 5 -0.007340 0.007607 -0.000220 0.000000 0.054278 0.000000
# 6 0.000000 0.000000 0.000000 0.000803 0.000000 0.037647
#
#
# Mechanical properties :
#
#
# Convention : Reuss Voigt Hill
#
# Bulk Modulus (GPa) = 54.35977 58.18602 56.27289
# Shear Modulus (GPa) = 24.54928 27.11782 25.83355
#
# Velocity S-wave (km/s) = 3.53241 3.71261 3.62363
# Velocity P-wave (km/s) = 6.65336 6.92479 6.79044
#
# Compressibility (1/GPa) = 0.01839596
#
# Stress axis : x y z
#
# Youngs Moduli (GPa) = 49.15486 63.14153 97.91130
#
# Poissons Ratio (x) = 0.43482 0.36084
# Poissons Ratio (y) = 0.33850 0.33560
# Poissons Ratio (z) = 0.18116 0.21642
#
# Static dielectric constant tensor:
#      x y z
#    x 3.618970 0.000000 0.060980 
#    y 0.000000 3.425090 0.000000 
#    z 0.060980 0.000000 3.776940 
# 
# 
# High freq. dielectric constant tensor:
#      x y z
#    x 1.765830 0.000000 -0.003370 
#    y 0.000000 1.754040 0.000000 
#    z -0.003370 0.000000 1.778920 
# 
# From -- ./inp_files/250100.got.cif
#   From: 2010.06.25/outbox.cif.g09.slc.cpg/sg12_126_cif.got.tgz:250100.got - 2010.06.28 00:19:55.
