data_PCOD8106010
_publ_section_title
;
Structure prediction by ZEFSAII (Michael W. Deem and Ramdas Pophale) SiO2 
 PCOD8106010
Probable space group: C 2/M
;
_chemical_formula_sum "Si O2"
_cell_formula_units_Z 48
_cell_length_a 9.964721
_cell_length_b 9.280752
_cell_length_c 26.356155
_cell_angle_alpha 90.000000
_cell_angle_beta 89.781634
_cell_angle_gamma 90.000000
_cell_volume 2437.402263
_symmetry_space_group_name_H-M "C 2/M"
_symmetry_group_IT_number 12
_symmetry_cell_setting 'monoclinic'
loop_
_space_group_symop_operation_xyz
x,y,z
-x,y,-z
-x,-y,-z
x,-y,z
1/2+x,1/2+y,z
1/2-x,1/2+y,-z
1/2-x,1/2-y,-z
1/2+x,1/2-y,z
loop_
_atom_site_type_symbol
_atom_site_label
_atom_site_fract_x
_atom_site_fract_y
_atom_site_fract_z
Si Si1 0.513177 0.334535 0.606643
Si Si2 0.727313 0.668884 0.775492
Si Si3 0.714285 0.832602 0.449229
Si Si4 0.041376 0.667521 0.944273
Si Si5 0.542809 0.667098 0.278287
Si Si6 0.770575 0.332035 0.889202
O O1 0.469538 0.500000 0.597364
O O2 0.422001 0.231789 0.572839
O O3 0.667591 0.310786 0.591594
O O4 0.500930 0.290319 0.665144
O O5 0.755446 0.500000 0.771691
O O6 0.576445 0.708076 0.759920
O O7 0.826679 0.744074 0.736307
O O8 0.750705 0.727015 0.832310
O O9 0.750000 0.750000 0.500000
O O10 0.691081 0.000000 0.461760
O O11 0.078354 0.500000 0.945570
O O12 0.172975 0.752090 0.927808
O O13 0.922701 0.700371 0.904939
O O14 0.000000 0.721842 0.000000
O O15 0.579030 0.500000 0.274243
O O16 0.736186 0.500000 0.892536
#
# Coordination Sequence:
#
# PCOD8106010 Si02
#       6
#     8   8   8   8   8   8
#     4  10  22  39  57  81 113 145 181 226 272 322
#     4  10  21  37  56  81 112 143 181 228 274 325
#     4  11  23  39  60  85 114 148 185 227 274 323
#     4  10  21  36  54  79 110 143 183 230 277 328
#     4  10  21  37  57  81 109 143 182 223 271 326
#     4  10  21  36  55  80 109 143 183 226 274 329
#
# _framework density 19.693099
#
# number of rings (size 3 to 8) (size 9 to 14) (size 15 to 20)
#    0.000    1.833    0.000    3.500    0.000    7.667 
#    0.000    0.000    0.000    0.000    0.000    0.000 
#    0.000    0.000    0.000    0.000    0.000    0.000 
#
# Total GULP energy -297753.018738 kJ/mol
# GULP energy per Si atom -12406.375781 kJ/mol
# Density = 1.964828 g / cm^3
# Si number density = 19.693099 Si / 1000 Ang^3
#
#
#
# Elastic Constant Matrix: (Units=GPa)
#
#
# Indices 1 2 3 4 5 6 
#
# 1 46.2930 22.2784 -4.9106 0.0000 -5.7292 0.0000
# 2 22.2784 53.2668 18.9674 0.0000 -3.6653 0.0000
# 3 -4.9106 18.9674 81.6172 0.0000 1.5948 0.0000
# 4 0.0000 0.0000 0.0000 29.5648 0.0000 -5.7142
# 5 -5.7292 -3.6653 1.5948 0.0000 41.7248 0.0000
# 6 0.0000 0.0000 0.0000 -5.7142 0.0000 34.7418
#
#
#
# Elastic Compliance Matrix: (Units=1/GPa)
#
#
# Indices 1 2 3 4 5 6 
#
# 1 0.029035 -0.013703 0.004881 0.000000 0.002597 0.000000
# 2 -0.013703 0.027099 -0.007137 0.000000 0.000772 0.000000
# 3 0.004881 -0.007137 0.014214 0.000000 -0.000500 0.000000
# 4 0.000000 0.000000 0.000000 0.034934 0.000000 0.005746
# 5 0.002597 0.000772 -0.000500 0.000000 0.024410 0.000000
# 6 0.000000 0.000000 0.000000 0.005746 0.000000 0.029729
#
#
# Mechanical properties :
#
#
# Convention : Reuss Voigt Hill
#
# Bulk Modulus (GPa) = 26.02155 28.20523 27.11339
# Shear Modulus (GPa) = 24.49169 30.86240 27.67705
#
# Velocity S-wave (km/s) = 3.53039 3.96304 3.75296
# Velocity P-wave (km/s) = 5.46447 5.94091 5.70767
#
# Compressibility (1/GPa) = 0.03842968
#
# Stress axis : x y z
#
# Youngs Moduli (GPa) = 34.44103 36.90156 70.35119
#
# Poissons Ratio (x) = 0.50566 -0.34336
# Poissons Ratio (y) = 0.47194 0.50211
# Poissons Ratio (z) = -0.16810 0.26337
#
# Static dielectric constant tensor:
#      x y z
#    x 3.583660 0.000000 0.123510 
#    y 0.000000 3.515950 0.000000 
#    z 0.123510 0.000000 3.860210 
# 
# 
# High freq. dielectric constant tensor:
#      x y z
#    x 1.774690 0.000000 0.002030 
#    y 0.000000 1.760850 0.000000 
#    z 0.002030 0.000000 1.784210 
# 
# From -- ./inp_files/332033.got.cif
#   From: 2010.06.25/outbox.cif.g09.slc.cpg/sg12_167_cif.got.tgz:332033.got - 2010.06.28 00:19:55.
