data_PCOD8106665
_publ_section_title
;
Structure prediction by ZEFSAII (Michael W. Deem and Ramdas Pophale) SiO2 
 PCOD8106665
Probable space group: C 2/M
;
_chemical_formula_sum "Si O2"
_cell_formula_units_Z 64
_cell_length_a 27.841154
_cell_length_b 8.844226
_cell_length_c 20.428317
_cell_angle_alpha 90.000000
_cell_angle_beta 134.500166
_cell_angle_gamma 90.000000
_cell_volume 3587.735931
_symmetry_space_group_name_H-M "C 2/M"
_symmetry_group_IT_number 12
_symmetry_cell_setting 'monoclinic'
loop_
_space_group_symop_operation_xyz
x,y,z
-x,y,-z
-x,-y,-z
x,-y,z
1/2+x,1/2+y,z
1/2-x,1/2+y,-z
1/2-x,1/2-y,-z
1/2+x,1/2-y,z
loop_
_atom_site_type_symbol
_atom_site_label
_atom_site_fract_x
_atom_site_fract_y
_atom_site_fract_z
Si Si1 0.560806 0.818054 0.247574
Si Si2 0.927829 0.333462 0.884625
Si Si3 0.195788 0.680335 0.899306
Si Si4 0.795130 0.820278 0.599164
Si Si5 0.253307 0.168887 0.191174
Si Si6 0.729337 0.168507 0.292639
Si Si7 0.570760 0.680504 0.844756
Si Si8 0.596357 0.332277 0.013676
O O1 0.544918 0.759827 0.157438
O O2 0.631550 0.753174 0.338863
O O3 0.503749 0.747122 0.240146
O O4 0.563002 0.000000 0.252876
O O5 0.957416 0.500000 0.918157
O O6 0.847759 0.335822 0.802195
O O7 0.947753 0.253832 0.972844
O O8 0.199009 0.500000 0.908745
O O9 0.212860 0.734502 0.842118
O O10 0.121661 0.743313 0.842677
O O11 0.250000 0.750000 0.000000
O O12 0.750000 0.750000 0.500000
O O13 0.761385 0.777433 0.636297
O O14 0.799827 0.000000 0.597264
O O15 0.273007 0.269628 0.273011
O O16 0.173551 0.167156 0.107259
O O17 0.280009 0.000000 0.229615
O O18 0.754653 0.000000 0.334603
O O19 0.573012 0.500000 0.839282
O O20 0.591403 0.738959 0.936814
O O21 0.566306 0.500000 0.982886
#
# Coordination Sequence:
#
# PCOD8106665 Si02
#       8
#     8   8   8   8   8   8   8   8
#     4  10  21  37  52  73 102 134 171 213 258 310
#     4   8  16  29  45  65  93 128 168 209 250 298
#     4  11  21  34  51  72  99 136 183 232 274 311
#     4  11  21  36  59  85 111 139 166 204 252 309
#     4   9  17  31  48  69  99 136 176 222 268 308
#     4   9  17  30  49  77 106 134 168 209 255 308
#     4  11  22  35  48  69  99 136 179 222 267 312
#     4   9  17  29  44  64  93 130 173 215 255 302
#
# _framework density 17.838549
#
# number of rings (size 3 to 8) (size 9 to 14) (size 15 to 20)
#    0.000    2.250    1.250    3.375    0.000    6.000 
#    0.000    2.500    0.000    0.000    0.000    0.875 
#    0.000    7.000    0.000    0.000    0.000    0.000 
#
# Total GULP energy -396691.072344 kJ/mol
# GULP energy per Si atom -12396.596011 kJ/mol
# Density = 1.779795 g / cm^3
# Si number density = 17.838549 Si / 1000 Ang^3
#
#
#
# Elastic Constant Matrix: (Units=GPa)
#
#
# Indices 1 2 3 4 5 6 
#
# 1 132.6475 47.4000 32.0133 0.0000 -8.9881 0.0000
# 2 47.4000 93.4550 23.8087 0.0000 -5.6983 0.0000
# 3 32.0133 23.8087 65.7034 0.0000 -8.2823 0.0000
# 4 0.0000 0.0000 0.0000 23.4313 0.0000 -3.6763
# 5 -8.9881 -5.6983 -8.2823 0.0000 16.8539 0.0000
# 6 0.0000 0.0000 0.0000 -3.6763 0.0000 30.6531
#
#
#
# Elastic Compliance Matrix: (Units=1/GPa)
#
#
# Indices 1 2 3 4 5 6 
#
# 1 0.009899 -0.004101 -0.003034 0.000000 0.002401 0.000000
# 2 -0.004101 0.013552 -0.002783 0.000000 0.001027 0.000000
# 3 -0.003034 -0.002783 0.018532 0.000000 0.006548 0.000000
# 4 0.000000 0.000000 0.000000 0.043496 0.000000 0.005217
# 5 0.002401 0.001027 0.006548 0.000000 0.064179 0.000000
# 6 0.000000 0.000000 0.000000 0.005217 0.000000 0.033249
#
#
# Mechanical properties :
#
#
# Convention : Reuss Voigt Hill
#
# Bulk Modulus (GPa) = 45.15462 55.36108 50.25785
# Shear Modulus (GPa) = 23.79499 26.75992 25.27745
#
# Velocity S-wave (km/s) = 3.65623 3.87734 3.76841
# Velocity P-wave (km/s) = 6.57206 7.15170 6.86800
#
# Compressibility (1/GPa) = 0.02214613
#
# Stress axis : x y z
#
# Youngs Moduli (GPa) = 101.01576 73.78867 53.95983
#
# Poissons Ratio (x) = 0.30264 0.16374
# Poissons Ratio (y) = 0.41431 0.15017
# Poissons Ratio (z) = 0.30653 0.20535
#
# Static dielectric constant tensor:
#      x y z
#    x 3.514010 0.000000 -0.136810 
#    y 0.000000 3.485090 0.000000 
#    z -0.136810 0.000000 3.022870 
# 
# 
# High freq. dielectric constant tensor:
#      x y z
#    x 1.691090 0.000000 -0.008000 
#    y 0.000000 1.698450 0.000000 
#    z -0.008000 0.000000 1.651890 
# 
# From -- ./inp_files/326947.got.cif
#   From: 2010.06.25/outbox.cif.g09.slc.cpg/sg12_164_cif.got.tgz:326947.got - 2010.06.28 00:19:55.
