data_PCOD8106530
_publ_section_title
;
Structure prediction by ZEFSAII (Michael W. Deem and Ramdas Pophale) SiO2 
 PCOD8106530
Probable space group: C 2/M
;
_chemical_formula_sum "Si O2"
_cell_formula_units_Z 56
_cell_length_a 15.407390
_cell_length_b 11.630552
_cell_length_c 17.632430
_cell_angle_alpha 90.000000
_cell_angle_beta 115.877385
_cell_angle_gamma 90.000000
_cell_volume 2842.849244
_symmetry_space_group_name_H-M "C 2/M"
_symmetry_group_IT_number 12
_symmetry_cell_setting 'monoclinic'
loop_
_space_group_symop_operation_xyz
x,y,z
-x,y,-z
-x,-y,-z
x,-y,z
1/2+x,1/2+y,z
1/2-x,1/2+y,-z
1/2-x,1/2-y,-z
1/2+x,1/2-y,z
loop_
_atom_site_type_symbol
_atom_site_label
_atom_site_fract_x
_atom_site_fract_y
_atom_site_fract_z
Si Si1 0.018140 0.128689 0.354368
Si Si2 0.843996 0.500000 0.939804
Si Si3 0.475970 0.236495 0.193582
Si Si4 0.808638 0.128578 0.318023
Si Si5 0.254251 0.275921 0.145884
Si Si6 0.996051 0.500000 0.128118
Si Si7 0.073855 0.127346 0.096067
Si Si8 0.290914 0.631014 0.484197
O O1 0.098573 0.137463 0.449248
O O2 0.029016 0.219651 0.290052
O O3 0.921442 0.157000 0.362809
O O4 0.015245 0.000000 0.317656
O O5 0.776652 0.388807 0.911736
O O6 0.915003 0.500000 0.895346
O O7 0.899084 0.500000 0.041099
O O8 0.360039 0.246021 0.154969
O O9 0.502375 0.105131 0.188645
O O10 0.520482 0.305437 0.141477
O O11 0.754737 0.209403 0.237502
O O12 0.770483 0.144876 0.387723
O O13 0.789985 0.000000 0.281301
O O14 0.174185 0.178868 0.102714
O O15 0.097383 0.000000 0.134353
O O16 0.000000 0.126742 0.000000
O O17 0.252167 0.500000 0.493969
O O18 0.250000 0.750000 0.500000
#
# Coordination Sequence:
#
# PCOD8106530 Si02
#       8
#     8   4   8   8   8   4   8   8
#     4   9  19  38  63  87 115 153 199 246 295 354
#     4  11  22  40  62  87 118 161 207 260 309 358
#     4  11  24  41  63  90 120 161 208 253 307 363
#     4   9  18  36  62  89 114 149 200 245 291 352
#     4  11  23  40  64  91 119 159 206 258 302 364
#     4  11  24  40  60  87 124 159 205 260 317 358
#     4  11  25  42  59  85 121 160 202 253 310 366
#     4  10  21  36  59  92 123 155 193 242 298 360
#
# _framework density 19.698547000000001
#
# number of rings (size 3 to 8) (size 9 to 14) (size 15 to 20)
#    0.000    1.714    2.143    1.714    5.000    4.000 
#    1.286    0.000    1.571    0.857    0.000    0.000 
#    0.000    0.000    0.000    0.000    0.000    0.000 
#
# Total GULP energy -346953.840827 kJ/mol
# GULP energy per Si atom -12391.208601 kJ/mol
# Density = 1.965371 g / cm^3
# Si number density = 19.698547 Si / 1000 Ang^3
#
#
#
# Elastic Constant Matrix: (Units=GPa)
#
#
# Indices 1 2 3 4 5 6 
#
# 1 50.5484 22.8006 -7.0160 0.0000 0.2722 0.0000
# 2 22.8006 137.7954 17.1356 0.0000 -4.3007 0.0000
# 3 -7.0160 17.1356 42.0761 0.0000 3.9049 0.0000
# 4 0.0000 0.0000 0.0000 -977.8293 0.0000 7.8852
# 5 0.2722 -4.3007 3.9049 0.0000 29.1855 0.0000
# 6 0.0000 0.0000 0.0000 7.8852 0.0000 13.8916
#
#
#
# Elastic Compliance Matrix: (Units=1/GPa)
#
#
# Indices 1 2 3 4 5 6 
#
# 1 0.022627 -0.004512 0.005763 0.000000 -0.001647 0.000000
# 2 -0.004512 0.008615 -0.004438 0.000000 0.001905 0.000000
# 3 0.005763 -0.004438 0.026935 0.000000 -0.004312 0.000000
# 4 0.000000 0.000000 0.000000 -0.001018 0.000000 0.000578
# 5 -0.001647 0.001905 -0.004312 0.000000 0.035137 0.000000
# 6 0.000000 0.000000 0.000000 0.000578 0.000000 0.071658
#
#
# Mechanical properties :
#
#
# Convention : Reuss Voigt Hill
#
# Bulk Modulus (GPa) = 19.30349 32.91783 26.11066
# Shear Modulus (GPa) = 26.65324 -173.78380 -73.56528
#
# Velocity S-wave (km/s) = 3.68238 -9.40283 -6.11773
# Velocity P-wave (km/s) = 5.28211 10.05670 6.05130
#
# Compressibility (1/GPa) = 0.05180410
#
# Stress axis : x y z
#
# Youngs Moduli (GPa) = 44.19481 116.07569 37.12656
#
# Poissons Ratio (x) = 0.52375 -0.21398
# Poissons Ratio (y) = 0.19941 0.16476
# Poissons Ratio (z) = -0.25471 0.51511
#
# Static dielectric constant tensor:
#      x y z
#    x 3.556760 0.000000 0.054170 
#    y 0.000000 3.909110 0.000000 
#    z 0.054170 0.000000 3.885350 
# 
# 
# High freq. dielectric constant tensor:
#      x y z
#    x 1.758910 0.000000 0.008890 
#    y 0.000000 1.770730 0.000000 
#    z 0.008890 0.000000 1.777240 
# 
# From -- ./inp_files/269401.got.cif
#   From: 2010.06.25/outbox.cif.g09.slc.cpg/sg12_135_cif.got.tgz:269401.got - 2010.06.28 00:19:55.
