data_PCOD8106536
_publ_section_title
;
Structure prediction by ZEFSAII (Michael W. Deem and Ramdas Pophale) SiO2 
 PCOD8106536
Probable space group: C 2/M
;
_chemical_formula_sum "Si O2"
_cell_formula_units_Z 56
_cell_length_a 12.032640
_cell_length_b 16.314217
_cell_length_c 19.571705
_cell_angle_alpha 90.000000
_cell_angle_beta 46.162409
_cell_angle_gamma 90.000000
_cell_volume 2771.247689
_symmetry_space_group_name_H-M "C 2/M"
_symmetry_group_IT_number 12
_symmetry_cell_setting 'monoclinic'
loop_
_space_group_symop_operation_xyz
x,y,z
-x,y,-z
-x,-y,-z
x,-y,z
1/2+x,1/2+y,z
1/2-x,1/2+y,-z
1/2-x,1/2-y,-z
1/2+x,1/2-y,z
loop_
_atom_site_type_symbol
_atom_site_label
_atom_site_fract_x
_atom_site_fract_y
_atom_site_fract_z
Si Si1 0.222002 0.591415 0.681793
Si Si2 0.766239 0.341325 0.466039
Si Si3 0.118523 0.404510 0.164417
Si Si4 0.905606 0.902428 0.238671
Si Si5 0.104754 0.668676 0.314134
Si Si6 0.522302 0.642316 0.333348
Si Si7 0.916032 0.903401 0.968814
O O1 0.211281 0.500000 0.654971
O O2 0.270499 0.652570 0.599674
O O3 0.339762 0.589374 0.694272
O O4 0.055553 0.617438 0.783273
O O5 0.750000 0.250000 0.500000
O O6 0.635488 0.389862 0.563452
O O7 0.940889 0.375106 0.403487
O O8 0.142097 0.500000 0.170461
O O9 0.163528 0.358314 0.214826
O O10 0.235053 0.378703 0.053619
O O11 0.738277 0.857464 0.310507
O O12 0.004952 0.874199 0.261008
O O13 0.007307 0.867806 0.132342
O O14 0.880601 0.000000 0.248393
O O15 0.069053 0.764720 0.329877
O O16 0.937653 0.000000 0.955767
O O17 0.000000 0.867811 0.000000
#
# Coordination Sequence:
#
# PCOD8106536 Si02
#       7
#     8   8   8   8   8   8   8
#     4  10  21  38  62  86 115 155 204 242 285 357
#     4   9  21  39  59  84 112 157 200 240 291 356
#     4   9  17  34  61  88 110 149 203 250 289 351
#     4  11  23  39  62  91 121 154 201 254 302 354
#     4  10  21  36  60  83 117 153 198 245 298 350
#     4  11  24  38  57  83 125 159 192 238 304 359
#     4   9  16  32  60  88 114 150 197 246 300 357
#
# _framework density 20.207505000000001
#
# number of rings (size 3 to 8) (size 9 to 14) (size 15 to 20)
#    0.000    2.143    1.429    1.286    6.000    2.857 
#    0.000    2.143    3.143    3.429    0.000    0.000 
#    0.000    0.000    0.000    0.000    0.000    0.000 
#
# Total GULP energy -347001.464233 kJ/mol
# GULP energy per Si atom -12392.909437 kJ/mol
# Density = 2.016151 g / cm^3
# Si number density = 20.207505 Si / 1000 Ang^3
#
#
#
# Elastic Constant Matrix: (Units=GPa)
#
#
# Indices 1 2 3 4 5 6 
#
# 1 141.5107 26.4898 78.9697 0.0000 4.2947 0.0000
# 2 26.4898 50.4455 24.1469 0.0000 -3.9934 0.0000
# 3 78.9697 24.1469 142.5332 0.0000 -11.0822 0.0000
# 4 0.0000 0.0000 0.0000 19.6084 0.0000 -0.5490
# 5 4.2947 -3.9934 -11.0822 0.0000 28.3922 0.0000
# 6 0.0000 0.0000 0.0000 -0.5490 0.0000 23.6566
#
#
#
# Elastic Compliance Matrix: (Units=1/GPa)
#
#
# Indices 1 2 3 4 5 6 
#
# 1 0.011159 -0.003361 -0.005962 0.000000 -0.004488 0.000000
# 2 -0.003361 0.022661 -0.001742 0.000000 0.003016 0.000000
# 3 -0.005962 -0.001742 0.010999 0.000000 0.004950 0.000000
# 4 0.000000 0.000000 0.000000 0.051032 0.000000 0.001184
# 5 -0.004488 0.003016 0.004950 0.000000 0.038256 0.000000
# 6 0.000000 0.000000 0.000000 0.001184 0.000000 0.042299
#
#
# Mechanical properties :
#
#
# Convention : Reuss Voigt Hill
#
# Bulk Modulus (GPa) = 44.07599 65.96693 55.02146
# Shear Modulus (GPa) = 24.26000 27.99032 26.12516
#
# Velocity S-wave (km/s) = 3.46865 3.72579 3.59952
# Velocity P-wave (km/s) = 6.15638 7.15712 6.67553
#
# Compressibility (1/GPa) = 0.02268809
#
# Stress axis : x y z
#
# Youngs Moduli (GPa) = 89.61218 44.12842 90.91500
#
# Poissons Ratio (x) = 0.14833 0.54205
# Poissons Ratio (y) = 0.30121 0.15840
# Poissons Ratio (z) = 0.53429 0.07689
#
# Static dielectric constant tensor:
#      x y z
#    x 3.732520 0.000000 -0.393970 
#    y 0.000000 3.416390 0.000000 
#    z -0.393970 0.000000 4.118310 
# 
# 
# High freq. dielectric constant tensor:
#      x y z
#    x 1.786630 0.000000 -0.020330 
#    y 0.000000 1.762770 0.000000 
#    z -0.020330 0.000000 1.793250 
# 
# From -- ./inp_files/264214.got.cif
#   From: 2010.06.25/outbox.cif.g09.slc.cpg/sg12_133_cif.got.tgz:264214.got - 2010.06.28 00:19:55.
