data_PCOD8106395
_publ_section_title
;
Structure prediction by ZEFSAII (Michael W. Deem and Ramdas Pophale) SiO2 
 PCOD8106395
Probable space group: C 2/M
;
_chemical_formula_sum "Si O2"
_cell_formula_units_Z 64
_cell_length_a 9.832009
_cell_length_b 26.677014
_cell_length_c 16.007688
_cell_angle_alpha 90.000000
_cell_angle_beta 125.191252
_cell_angle_gamma 90.000000
_cell_volume 3431.262444
_symmetry_space_group_name_H-M "C 2/M"
_symmetry_group_IT_number 12
_symmetry_cell_setting 'monoclinic'
loop_
_space_group_symop_operation_xyz
x,y,z
-x,y,-z
-x,-y,-z
x,-y,z
1/2+x,1/2+y,z
1/2-x,1/2+y,-z
1/2-x,1/2-y,-z
1/2+x,1/2-y,z
loop_
_atom_site_type_symbol
_atom_site_label
_atom_site_fract_x
_atom_site_fract_y
_atom_site_fract_z
Si Si1 0.771700 0.901202 0.195318
Si Si2 0.595188 0.443265 0.916793
Si Si3 0.075282 0.441315 0.873377
Si Si4 0.251265 0.605765 0.794680
Si Si5 0.304591 0.191044 0.935526
Si Si6 0.816559 0.557751 0.402102
Si Si7 0.994494 0.942236 0.594149
Si Si8 0.195352 0.803265 0.077235
O O1 0.868766 0.939789 0.169147
O O2 0.578908 0.914278 0.138111
O O3 0.785713 0.845684 0.161957
O O4 0.868794 0.905560 0.316616
O O5 0.557330 0.500000 0.928368
O O6 0.433551 0.412693 0.888358
O O7 0.759363 0.422780 0.020589
O O8 0.044048 0.500000 0.869632
O O9 0.102878 0.425320 0.787006
O O10 0.227561 0.596731 0.687660
O O11 0.241255 0.663894 0.820890
O O12 0.236059 0.246489 0.888520
O O13 0.500000 0.187581 0.000000
O O14 0.261093 0.173822 0.013902
O O15 0.803876 0.500000 0.365377
O O16 0.688681 0.566980 0.432609
O O17 0.000000 0.569870 0.500000
O O18 0.000000 0.926821 0.500000
O O19 0.049788 0.000000 0.625108
O O20 0.000000 0.801219 0.000000
#
# Coordination Sequence:
#
# PCOD8106395 Si02
#       8
#     8   8   8   8   8   8   8   8
#     4  12  21  35  57  79 110 153 190 229 276 330
#     4  11  21  34  50  78 117 150 184 222 271 339
#     4  11  23  32  48  80 117 152 182 217 268 338
#     4  12  21  35  57  81 110 151 190 232 280 332
#     4  10  21  38  56  82 116 150 190 232 274 327
#     4  10  22  39  58  81 111 146 187 236 284 333
#     4  10  22  39  58  81 110 146 190 235 279 334
#     4  10  21  36  58  84 112 148 190 233 277 331
#
# _framework density 18.652027
#
# number of rings (size 3 to 8) (size 9 to 14) (size 15 to 20)
#    0.000    1.250    1.250    6.750    1.750    2.000 
#    0.000    0.000    0.000    0.750    0.000    1.750 
#    0.000    0.000    0.000    0.000    0.000    0.000 
#
# Total GULP energy -396839.815379 kJ/mol
# GULP energy per Si atom -12401.244231 kJ/mol
# Density = 1.860957 g / cm^3
# Si number density = 18.652027 Si / 1000 Ang^3
#
#
#
# Elastic Constant Matrix: (Units=GPa)
#
#
# Indices 1 2 3 4 5 6 
#
# 1 100.8492 38.7273 23.9520 0.0000 -11.0337 0.0000
# 2 38.7273 103.9142 60.3191 0.0000 -5.7848 0.0000
# 3 23.9520 60.3191 100.4009 0.0000 -11.1315 0.0000
# 4 0.0000 0.0000 0.0000 28.5654 0.0000 -6.0815
# 5 -11.0337 -5.7848 -11.1315 0.0000 33.1139 0.0000
# 6 0.0000 0.0000 0.0000 -6.0815 0.0000 23.1629
#
#
#
# Elastic Compliance Matrix: (Units=1/GPa)
#
#
# Indices 1 2 3 4 5 6 
#
# 1 0.011904 -0.004324 0.000119 0.000000 0.003251 0.000000
# 2 -0.004324 0.016353 -0.008970 0.000000 -0.001600 0.000000
# 3 0.000119 -0.008970 0.015738 0.000000 0.003763 0.000000
# 4 0.000000 0.000000 0.000000 0.037080 0.000000 0.009736
# 5 0.003251 -0.001600 0.003763 0.000000 0.032267 0.000000
# 6 0.000000 0.000000 0.000000 0.009736 0.000000 0.045729
#
#
# Mechanical properties :
#
#
# Convention : Reuss Voigt Hill
#
# Bulk Modulus (GPa) = 56.67981 61.24013 58.95997
# Shear Modulus (GPa) = 26.13643 29.11283 27.62463
#
# Velocity S-wave (km/s) = 3.74741 3.95503 3.85262
# Velocity P-wave (km/s) = 7.01271 7.33216 7.17421
#
# Compressibility (1/GPa) = 0.01764297
#
# Stress axis : x y z
#
# Youngs Moduli (GPa) = 84.00630 61.15163 63.53986
#
# Poissons Ratio (x) = 0.26443 -0.00753
# Poissons Ratio (y) = 0.36326 0.56997
# Poissons Ratio (z) = -0.00996 0.54854
#
# Static dielectric constant tensor:
#      x y z
#    x 3.640140 0.000000 -0.095530 
#    y 0.000000 3.478430 0.000000 
#    z -0.095530 0.000000 3.184780 
# 
# 
# High freq. dielectric constant tensor:
#      x y z
#    x 1.751390 0.000000 -0.009090 
#    y 0.000000 1.709300 0.000000 
#    z -0.009090 0.000000 1.692290 
# 
# From -- ./inp_files/200937.got.cif
#   From: 2010.06.25/outbox.cif.g09.slc.cpg/sg12_101_cif.got.tgz:200937.got - 2010.06.28 00:19:55.
