data_PCOD8106184
_publ_section_title
;
Structure prediction by ZEFSAII (Michael W. Deem and Ramdas Pophale) SiO2 
 PCOD8106184
Probable space group: C 2/M
;
_chemical_formula_sum "Si O2"
_cell_formula_units_Z 64
_cell_length_a 20.235919
_cell_length_b 19.093883
_cell_length_c 19.815084
_cell_angle_alpha 90.000000
_cell_angle_beta 26.601531
_cell_angle_gamma 90.000000
_cell_volume 3428.314770
_symmetry_space_group_name_H-M "C 2/M"
_symmetry_group_IT_number 12
_symmetry_cell_setting 'monoclinic'
loop_
_space_group_symop_operation_xyz
x,y,z
-x,y,-z
-x,-y,-z
x,-y,z
1/2+x,1/2+y,z
1/2-x,1/2+y,-z
1/2-x,1/2-y,-z
1/2+x,1/2-y,z
loop_
_atom_site_type_symbol
_atom_site_label
_atom_site_fract_x
_atom_site_fract_y
_atom_site_fract_z
Si Si1 0.729455 0.582452 0.940434
Si Si2 0.783096 0.919484 0.519648
Si Si3 0.827694 0.818268 0.592459
Si Si4 0.873430 0.080000 0.817766
Si Si5 0.147824 0.330170 0.401831
Si Si6 0.666314 0.319546 0.261976
Si Si7 0.436069 0.918228 0.395437
Si Si8 0.846340 0.179139 0.106494
O O1 0.700954 0.500000 0.954250
O O2 0.631676 0.627461 0.977243
O O3 0.899592 0.603859 0.774783
O O4 0.684090 0.605053 0.056974
O O5 0.743345 0.871546 0.620388
O O6 0.676942 0.891529 0.557837
O O7 0.950703 0.910858 0.342982
O O8 0.748283 0.000000 0.570424
O O9 0.765828 0.738417 0.647749
O O10 0.807036 0.849654 0.686761
O O11 0.992558 0.807558 0.414193
O O12 0.791107 0.124158 0.834481
O O13 0.828323 0.000000 0.845800
O O14 0.111203 0.386985 0.490367
O O15 0.251775 0.363604 0.249140
O O16 0.000000 0.301732 0.500000
O O17 0.759060 0.249145 0.163710
O O18 0.421620 0.000000 0.417970
O O19 0.000000 0.200815 0.000000
#
# Coordination Sequence:
#
# PCOD8106184 Si02
#       8
#     8   8   8   8   8   8   8   8
#     4  10  21  38  55  76 109 145 175 213 265 318
#     4   9  19  34  54  84 110 135 176 222 260 309
#     4   9  16  33  59  78 107 139 174 219 264 313
#     4   9  19  35  56  80 109 141 176 215 263 317
#     4  11  19  37  57  76 104 139 178 219 264 315
#     4   9  17  35  56  78 108 140 175 216 267 314
#     4  10  21  36  56  80 108 140 177 217 260 313
#     4  11  23  37  54  80 108 137 179 225 263 308
#
# _framework density 18.668064000000001
#
# number of rings (size 3 to 8) (size 9 to 14) (size 15 to 20)
#    0.000    2.250    3.750    0.000    1.750    2.500 
#    4.500    2.500    0.000    0.375    0.000    0.000 
#    0.000    0.000    0.000    0.000    0.000    0.000 
#
# Total GULP energy -396648.081736 kJ/mol
# GULP energy per Si atom -12395.252554 kJ/mol
# Density = 1.862557 g / cm^3
# Si number density = 18.668064 Si / 1000 Ang^3
#
#
#
# Elastic Constant Matrix: (Units=GPa)
#
#
# Indices 1 2 3 4 5 6 
#
# 1 113.9158 61.3681 39.8243 0.0065 17.3861 0.0033
# 2 61.3681 64.4993 27.6415 -0.0120 12.1728 -0.0051
# 3 39.8243 27.6415 56.3250 -0.0052 18.7680 -0.0060
# 4 0.0065 -0.0120 -0.0052 23.8046 0.0044 8.7411
# 5 17.3861 12.1728 18.7680 0.0044 34.7096 0.0038
# 6 0.0033 -0.0051 -0.0060 8.7411 0.0038 28.8463
#
#
#
# Elastic Compliance Matrix: (Units=1/GPa)
#
#
# Indices 1 2 3 4 5 6 
#
# 1 0.019488 -0.015935 -0.005572 -0.000014 -0.001160 -0.000002
# 2 -0.015935 0.032782 -0.004452 0.000020 -0.001108 0.000001
# 3 -0.005572 -0.004452 0.027358 0.000005 -0.010440 0.000005
# 4 -0.000014 0.000020 0.000005 0.047268 -0.000007 -0.014324
# 5 -0.001160 -0.001108 -0.010440 -0.000007 0.035425 -0.000005
# 6 -0.000002 0.000001 0.000005 -0.014324 -0.000005 0.039007
#
#
# Mechanical properties :
#
#
# Convention : Reuss Voigt Hill
#
# Bulk Modulus (GPa) = 36.08897 54.71198 45.40048
# Shear Modulus (GPa) = 19.04887 24.53250 21.79068
#
# Velocity S-wave (km/s) = 3.19783 3.62904 3.42024
# Velocity P-wave (km/s) = 5.74532 6.85065 6.32219
#
# Compressibility (1/GPa) = 0.02770930
#
# Stress axis : x y z
#
# Youngs Moduli (GPa) = 51.31434 30.50427 36.55298
#
# Poissons Ratio (x) = 0.48608 0.20368
# Poissons Ratio (y) = 0.81768 0.16274
# Poissons Ratio (z) = 0.28593 0.13581
#
# Static dielectric constant tensor:
#      x y z
#    x 3.530590 -0.000010 0.139610 
#    y -0.000010 3.353340 0.000050 
#    z 0.139610 0.000050 3.419750 
# 
# 
# High freq. dielectric constant tensor:
#      x y z
#    x 1.722690 0.000000 0.014650 
#    y 0.000000 1.715400 0.000000 
#    z 0.014650 0.000000 1.716840 
# 
# From -- ./inp_files/279092.got.cif
#   From: 2010.06.25/outbox.cif.g09.slc.cpg/sg12_140_cif.got.tgz:279092.got - 2010.06.28 00:19:55.
