data_PCOD8106683
_publ_section_title
;
Structure prediction by ZEFSAII (Michael W. Deem and Ramdas Pophale) SiO2 
 PCOD8106683
Probable space group: C 2/M
;
_chemical_formula_sum "Si O2"
_cell_formula_units_Z 64
_cell_length_a 20.146026
_cell_length_b 9.411400
_cell_length_c 23.751314
_cell_angle_alpha 90.000000
_cell_angle_beta 57.058121
_cell_angle_gamma 90.000000
_cell_volume 3779.274562
_symmetry_space_group_name_H-M "C 2/M"
_symmetry_group_IT_number 12
_symmetry_cell_setting 'monoclinic'
loop_
_space_group_symop_operation_xyz
x,y,z
-x,y,-z
-x,-y,-z
x,-y,z
1/2+x,1/2+y,z
1/2-x,1/2+y,-z
1/2-x,1/2-y,-z
1/2+x,1/2-y,z
loop_
_atom_site_type_symbol
_atom_site_label
_atom_site_fract_x
_atom_site_fract_y
_atom_site_fract_z
Si Si1 0.590436 0.162990 0.472183
Si Si2 0.121176 0.161505 0.679628
Si Si3 0.223061 0.337444 0.324961
Si Si4 0.831432 0.166181 0.466172
Si Si5 0.534496 0.659492 0.072164
Si Si6 0.874098 0.159541 0.076165
Si Si7 0.298009 0.160051 0.199192
Si Si8 0.041007 0.340067 0.804883
O O1 0.500000 0.191262 0.500000
O O2 0.639862 0.195620 0.392914
O O3 0.614837 0.270682 0.509590
O O4 0.605786 0.000000 0.484424
O O5 0.208895 0.198401 0.661176
O O6 0.119479 0.187232 0.613849
O O7 0.055718 0.261172 0.738924
O O8 0.099446 0.000000 0.705222
O O9 0.229162 0.500000 0.302042
O O10 0.230772 0.240073 0.266105
O O11 0.750000 0.250000 0.500000
O O12 0.813739 0.000000 0.485352
O O13 0.552419 0.500000 0.085188
O O14 0.452165 0.660504 0.077625
O O15 0.529565 0.763673 0.128061
O O16 0.603688 0.710659 0.997416
O O17 0.809293 0.263952 0.133483
O O18 0.839302 0.000000 0.090574
O O19 0.379314 0.164357 0.195841
O O20 0.269631 0.000000 0.201174
O O21 0.013953 0.500000 0.804589
#
# Coordination Sequence:
#
# PCOD8106683 Si02
#       8
#     8   8   8   8   8   8   8   8
#     4  10  21  37  54  73  98 127 160 198 245 296
#     4   9  17  29  44  62  85 115 150 188 229 276
#     4   9  16  29  45  61  84 116 150 185 229 280
#     4  11  21  34  53  75  98 124 160 201 244 290
#     4   8  13  21  32  45  67 102 141 176 214 264
#     4   8  13  21  32  46  66 100 142 178 214 262
#     4   9  16  23  33  53  77 103 139 184 227 264
#     4   9  16  23  33  53  78 105 139 181 226 267
#
# _framework density 16.934466
#
# number of rings (size 3 to 8) (size 9 to 14) (size 15 to 20)
#    0.000    2.875    1.250    1.875    0.000    5.250 
#    0.000    2.500    0.000    0.000    0.000    0.000 
#    0.000    0.000    0.000    1.125    0.000   14.000 
#
# Total GULP energy -396699.725123 kJ/mol
# GULP energy per Si atom -12396.866410 kJ/mol
# Density = 1.689592 g / cm^3
# Si number density = 16.934466 Si / 1000 Ang^3
#
#
#
# Elastic Constant Matrix: (Units=GPa)
#
#
# Indices 1 2 3 4 5 6 
#
# 1 30.0380 30.4510 31.9887 -0.0001 -0.9787 -0.0004
# 2 30.4510 134.7203 95.6902 -0.0001 5.7136 -0.0004
# 3 31.9887 95.6902 156.3422 0.0000 2.9926 -0.0001
# 4 -0.0001 -0.0001 0.0000 31.2021 0.0000 4.8093
# 5 -0.9787 5.7136 2.9926 0.0000 8.7286 -0.0001
# 6 -0.0004 -0.0004 -0.0001 4.8093 -0.0001 12.6236
#
#
#
# Elastic Compliance Matrix: (Units=1/GPa)
#
#
# Indices 1 2 3 4 5 6 
#
# 1 0.046734 -0.007275 -0.005336 0.000000 0.011832 0.000001
# 2 -0.007275 0.014571 -0.007279 0.000000 -0.007858 0.000000
# 3 -0.005336 -0.007279 0.011942 0.000000 0.000072 0.000000
# 4 0.000000 0.000000 0.000000 0.034048 0.000000 -0.012972
# 5 0.011832 -0.007858 0.000072 0.000000 0.121012 0.000002
# 6 0.000001 0.000000 0.000000 -0.012972 0.000002 0.084159
#
#
# Mechanical properties :
#
#
# Convention : Reuss Voigt Hill
#
# Bulk Modulus (GPa) = 29.88066 70.81781 50.34923
# Shear Modulus (GPa) = 13.75889 21.37556 17.56722
#
# Velocity S-wave (km/s) = 2.85349 3.55667 3.22431
# Velocity P-wave (km/s) = 5.34226 7.66656 6.60741
#
# Compressibility (1/GPa) = 0.03346646
#
# Stress axis : x y z
#
# Youngs Moduli (GPa) = 21.39761 68.63059 83.73936
#
# Poissons Ratio (x) = 0.49931 0.44681
# Poissons Ratio (y) = 0.15567 0.60955
# Poissons Ratio (z) = 0.11417 0.49957
#
# Static dielectric constant tensor:
#      x y z
#    x 2.524340 0.000000 0.099070 
#    y 0.000000 3.348760 0.000000 
#    z 0.099070 0.000000 3.459250 
# 
# 
# High freq. dielectric constant tensor:
#      x y z
#    x 1.567080 0.000000 0.007050 
#    y 0.000000 1.659920 0.000000 
#    z 0.007050 0.000000 1.671550 
# 
# From -- ./inp_files/367044.got.cif
#   From: 2010.06.25/outbox.cif.g09.slc.cpg/sg12_184_cif.got.tgz:367044.got - 2010.06.28 00:19:55.
