data_PCOD8106512
_publ_section_title
;
Structure prediction by ZEFSAII (Michael W. Deem and Ramdas Pophale) SiO2 
 PCOD8106512
Probable space group: C 2/M
;
_chemical_formula_sum "Si O2"
_cell_formula_units_Z 48
_cell_length_a 27.520246
_cell_length_b 8.666504
_cell_length_c 10.964614
_cell_angle_alpha 90.000000
_cell_angle_beta 121.876097
_cell_angle_gamma 90.000000
_cell_volume 2220.728832
_symmetry_space_group_name_H-M "C 2/M"
_symmetry_group_IT_number 12
_symmetry_cell_setting 'monoclinic'
loop_
_space_group_symop_operation_xyz
x,y,z
-x,y,-z
-x,-y,-z
x,-y,z
1/2+x,1/2+y,z
1/2-x,1/2+y,-z
1/2-x,1/2-y,-z
1/2+x,1/2-y,z
loop_
_atom_site_type_symbol
_atom_site_label
_atom_site_fract_x
_atom_site_fract_y
_atom_site_fract_z
Si Si1 0.311339 0.823076 0.576484
Si Si2 0.125929 0.676983 0.594274
Si Si3 0.585969 0.818656 0.909127
Si Si4 0.412913 0.320591 0.836242
Si Si5 0.023479 0.181570 0.326993
Si Si6 0.813145 0.818025 0.094879
O O1 0.250000 0.750000 0.500000
O O2 0.335416 0.806460 0.473341
O O3 0.348115 0.725983 0.721329
O O4 0.310118 0.000000 0.617718
O O5 0.119871 0.500000 0.628340
O O6 0.062858 0.744870 0.484381
O O7 0.157535 0.773446 0.739387
O O8 0.539955 0.753619 0.750284
O O9 0.647974 0.746084 0.963750
O O10 0.589511 0.000000 0.899879
O O11 0.565730 0.772279 0.017692
O O12 0.417341 0.500000 0.873265
O O13 0.451854 0.275265 0.773171
O O14 0.020750 0.000000 0.345436
O O15 0.808692 0.000000 0.077472
O O16 0.750000 0.750000 0.000000
#
# Coordination Sequence:
#
# PCOD8106512 Si02
#       6
#     8   8   8   8   8   8
#     4  10  21  36  59  89 124 164 208 255 310 372
#     4  10  22  42  65  92 126 164 208 261 314 369
#     4  12  25  41  64  94 128 169 213 259 315 376
#     4  10  21  38  61  92 130 166 207 258 314 373
#     4  10  21  40  66  97 130 166 209 259 316 374
#     4  12  27  47  68  91 124 166 213 262 314 374
#
# _framework density 21.614526000000001
#
# number of rings (size 3 to 8) (size 9 to 14) (size 15 to 20)
#    0.000    1.333    0.000    5.500    2.333    6.667 
#    0.000    3.333    0.000    0.000    0.000    0.000 
#    0.000    0.000    0.000    0.000    0.000    0.000 
#
# Total GULP energy -297732.855194 kJ/mol
# GULP energy per Si atom -12405.535633 kJ/mol
# Density = 2.156533 g / cm^3
# Si number density = 21.614526 Si / 1000 Ang^3
#
#
#
# Elastic Constant Matrix: (Units=GPa)
#
#
# Indices 1 2 3 4 5 6 
#
# 1 60.9554 38.9721 31.0154 0.0000 27.7713 0.0000
# 2 38.9721 130.1449 32.8271 0.0000 5.6813 0.0000
# 3 31.0154 32.8271 106.5757 0.0000 15.4957 0.0000
# 4 0.0000 0.0000 0.0000 44.0266 0.0000 5.3757
# 5 27.7713 5.6813 15.4957 0.0000 38.6990 0.0000
# 6 0.0000 0.0000 0.0000 5.3757 0.0000 32.9561
#
#
#
# Elastic Compliance Matrix: (Units=1/GPa)
#
#
# Indices 1 2 3 4 5 6 
#
# 1 0.033165 -0.007970 -0.004148 0.000000 -0.020969 0.000000
# 2 -0.007970 0.010248 -0.001540 0.000000 0.004831 0.000000
# 3 -0.004148 -0.001540 0.011254 0.000000 -0.001304 0.000000
# 4 0.000000 0.000000 0.000000 0.023175 0.000000 -0.003780
# 5 -0.020969 0.004831 -0.001304 0.000000 0.040701 0.000000
# 6 0.000000 0.000000 0.000000 -0.003780 0.000000 0.030960
#
#
# Mechanical properties :
#
#
# Convention : Reuss Voigt Hill
#
# Bulk Modulus (GPa) = 36.56024 55.92278 46.24151
# Shear Modulus (GPa) = 26.89116 36.12709 31.50912
#
# Velocity S-wave (km/s) = 3.53104 4.09274 3.82222
# Velocity P-wave (km/s) = 5.79446 6.94716 6.39682
#
# Compressibility (1/GPa) = 0.02735212
#
# Stress axis : x y z
#
# Youngs Moduli (GPa) = 30.15226 97.58277 88.85821
#
# Poissons Ratio (x) = 0.77770 0.36858
# Poissons Ratio (y) = 0.24030 0.13681
# Poissons Ratio (z) = 0.12507 0.15024
#
# Static dielectric constant tensor:
#      x y z
#    x 3.978640 0.000000 0.115270 
#    y 0.000000 3.986300 0.000000 
#    z 0.115270 0.000000 4.051560 
# 
# 
# High freq. dielectric constant tensor:
#      x y z
#    x 1.852880 0.000000 0.008210 
#    y 0.000000 1.861080 0.000000 
#    z 0.008210 0.000000 1.859490 
# 
# From -- ./inp_files/180268.got.cif
#   From: 2010.06.25/outbox.cif.g09.slc.cpg/sg12_91_cif.got.tgz:180268.got - 2010.06.28 00:19:55.
