data_PCOD8106850
_publ_section_title
;
Structure prediction by ZEFSAII (Michael W. Deem and Ramdas Pophale) SiO2 
 PCOD8106850
Probable space group: C 2/M
;
_chemical_formula_sum "Si O2"
_cell_formula_units_Z 64
_cell_length_a 29.705691
_cell_length_b 9.105514
_cell_length_c 25.364436
_cell_angle_alpha 90.000000
_cell_angle_beta 29.537048
_cell_angle_gamma 90.000000
_cell_volume 3382.237737
_symmetry_space_group_name_H-M "C 2/M"
_symmetry_group_IT_number 12
_symmetry_cell_setting 'monoclinic'
loop_
_space_group_symop_operation_xyz
x,y,z
-x,y,-z
-x,-y,-z
x,-y,z
1/2+x,1/2+y,z
1/2-x,1/2+y,-z
1/2-x,1/2-y,-z
1/2+x,1/2-y,z
loop_
_atom_site_type_symbol
_atom_site_label
_atom_site_fract_x
_atom_site_fract_y
_atom_site_fract_z
Si Si1 0.558653 0.673378 0.390322
Si Si2 0.934585 0.330327 0.438241
Si Si3 0.737825 0.173351 0.790588
Si Si4 0.419000 0.328627 0.236631
Si Si5 0.615513 0.334210 0.996435
Si Si6 0.240678 0.172690 0.679277
Si Si7 0.020586 0.670768 0.725361
Si Si8 0.836607 0.831647 0.933858
O O1 0.500000 0.729033 0.500000
O O2 0.552489 0.500000 0.390832
O O3 0.518858 0.743082 0.377678
O O4 0.662619 0.727049 0.291486
O O5 0.950136 0.500000 0.435594
O O6 0.839777 0.273326 0.559297
O O7 0.929337 0.303954 0.381149
O O8 0.661265 0.221784 0.909789
O O9 0.713095 0.243917 0.760085
O O10 0.735491 0.000000 0.786665
O O11 0.420442 0.500000 0.250471
O O12 0.331477 0.283987 0.292043
O O13 0.415062 0.236497 0.294611
O O14 0.509680 0.289651 0.110964
O O15 0.623966 0.500000 0.965716
O O16 0.666580 0.320938 0.999969
O O17 0.238377 0.000000 0.692619
O O18 0.002573 0.500000 0.755037
O O19 0.925103 0.754280 0.820171
O O20 0.836638 0.000000 0.914925
O O21 0.750000 0.750000 0.000000
#
# Coordination Sequence:
#
# PCOD8106850 Si02
#       8
#     8   8   8   8   8   8   8   8
#     4  10  21  38  56  78 113 150 184 231 283 336
#     4  10  22  37  57  86 115 148 190 232 278 338
#     4  11  23  37  56  85 115 146 188 233 284 340
#     4   9  20  40  62  83 110 149 193 235 282 337
#     4   9  20  38  57  79 110 147 186 229 279 334
#     4  10  21  39  61  83 111 149 193 236 281 337
#     4  10  21  37  56  84 118 148 185 233 284 336
#     4  10  21  37  57  82 112 149 192 234 280 335
#
# _framework density 18.922384000000001
#
# number of rings (size 3 to 8) (size 9 to 14) (size 15 to 20)
#    0.000    2.125    1.250    1.875    1.750    6.250 
#    0.000    2.500    0.000    0.000    0.000    0.000 
#    0.000    0.000    0.000    0.000    0.000    0.000 
#
# Total GULP energy -396937.391872 kJ/mol
# GULP energy per Si atom -12404.293496 kJ/mol
# Density = 1.887932 g / cm^3
# Si number density = 18.922384 Si / 1000 Ang^3
#
#
#
# Elastic Constant Matrix: (Units=GPa)
#
#
# Indices 1 2 3 4 5 6 
#
# 1 108.3198 48.0482 31.6365 -0.0026 -5.8839 -0.0004
# 2 48.0482 72.5797 28.2048 0.0173 3.4810 -0.0033
# 3 31.6365 28.2048 58.6265 0.0090 12.0529 0.0008
# 4 -0.0026 0.0173 0.0090 28.0425 0.0021 3.2937
# 5 -5.8839 3.4810 12.0529 0.0021 27.4071 -0.0029
# 6 -0.0004 -0.0033 0.0008 3.2937 -0.0029 36.6606
#
#
#
# Elastic Compliance Matrix: (Units=1/GPa)
#
#
# Indices 1 2 3 4 5 6 
#
# 1 0.014700 -0.007920 -0.005473 0.000008 0.006569 -0.000001
# 2 -0.007920 0.021275 -0.005559 -0.000012 -0.001958 0.000003
# 3 -0.005473 -0.005559 0.025046 -0.000004 -0.011483 -0.000002
# 4 0.000008 -0.000012 -0.000004 0.036040 0.000002 -0.003238
# 5 0.006569 -0.001958 -0.011483 0.000002 0.043196 0.000003
# 6 -0.000001 0.000003 -0.000002 -0.003238 0.000003 0.027568
#
#
# Mechanical properties :
#
#
# Convention : Reuss Voigt Hill
#
# Bulk Modulus (GPa) = 43.25740 50.58946 46.92343
# Shear Modulus (GPa) = 23.42631 27.19781 25.31206
#
# Velocity S-wave (km/s) = 3.52237 3.79533 3.66140
# Velocity P-wave (km/s) = 6.28115 6.78228 6.53652
#
# Compressibility (1/GPa) = 0.02311743
#
# Stress axis : x y z
#
# Youngs Moduli (GPa) = 68.02587 47.00314 39.92695
#
# Poissons Ratio (x) = 0.37226 0.21852
# Poissons Ratio (y) = 0.53876 0.22196
# Poissons Ratio (z) = 0.37230 0.26129
#
# Static dielectric constant tensor:
#      x y z
#    x 3.845560 0.000050 -0.279880 
#    y 0.000050 3.440400 0.000000 
#    z -0.279880 0.000000 3.594220 
# 
# 
# High freq. dielectric constant tensor:
#      x y z
#    x 1.740220 0.000000 -0.000640 
#    y 0.000000 1.735050 0.000000 
#    z -0.000640 0.000000 1.735350 
# 
# From -- ./inp_files/249113.got.cif
#   From: 2010.06.25/outbox.cif.g09.slc.cpg/sg12_125_cif.got.tgz:249113.got - 2010.06.28 00:19:55.
