data_PCOD8106548
_publ_section_title
;
Structure prediction by ZEFSAII (Michael W. Deem and Ramdas Pophale) SiO2 
 PCOD8106548
Probable space group: C 2/M
;
_chemical_formula_sum "Si O2"
_cell_formula_units_Z 56
_cell_length_a 12.882126
_cell_length_b 29.361898
_cell_length_c 9.595409
_cell_angle_alpha 90.000000
_cell_angle_beta 48.231489
_cell_angle_gamma 90.000000
_cell_volume 2706.961720
_symmetry_space_group_name_H-M "C 2/M"
_symmetry_group_IT_number 12
_symmetry_cell_setting 'monoclinic'
loop_
_space_group_symop_operation_xyz
x,y,z
-x,y,-z
-x,-y,-z
x,-y,z
1/2+x,1/2+y,z
1/2-x,1/2+y,-z
1/2-x,1/2-y,-z
1/2+x,1/2-y,z
loop_
_atom_site_type_symbol
_atom_site_label
_atom_site_fract_x
_atom_site_fract_y
_atom_site_fract_z
Si Si1 0.341921 0.870951 0.668094
Si Si2 0.769519 0.415248 0.465589
Si Si3 0.425381 0.052229 0.799658
Si Si4 0.867009 0.274418 0.718545
Si Si5 0.272702 0.106307 0.142845
Si Si6 0.479930 0.451311 0.680032
Si Si7 0.364573 0.793624 0.028672
O O1 0.500000 0.858673 0.500000
O O2 0.263383 0.877542 0.591868
O O3 0.336900 0.915439 0.772910
O O4 0.286054 0.823084 0.777873
O O5 0.769278 0.392339 0.313475
O O6 0.630329 0.444076 0.614771
O O7 0.908185 0.444960 0.369283
O O8 0.380236 0.000000 0.816697
O O9 0.389047 0.069841 0.987803
O O10 0.754281 0.235275 0.786310
O O11 0.000000 0.266574 0.500000
O O12 0.910855 0.270668 0.841645
O O13 0.306770 0.155666 0.053157
O O14 0.127842 0.089933 0.200069
O O15 0.500000 0.456651 0.500000
O O16 0.421543 0.500000 0.790027
O O17 0.500000 0.797085 0.000000
#
# Coordination Sequence:
#
# PCOD8106548 Si02
#       7
#     8   8   8   8   8   8   8
#     4   9  20  39  59  88 122 161 200 252 309 366
#     4  10  21  36  60  87 120 163 208 254 302 366
#     4  11  21  35  59  89 123 160 204 254 306 363
#     4  10  23  45  67  93 131 168 202 261 322 374
#     4  11  22  38  59  88 122 159 202 259 309 363
#     4   9  19  36  55  82 122 161 203 254 306 361
#     4  11  24  43  68  98 126 163 211 263 311 381
#
# _framework density 20.687398999999999
#
# number of rings (size 3 to 8) (size 9 to 14) (size 15 to 20)
#    0.000    1.857    1.429    2.143    4.000    7.714 
#    5.143    0.714    0.000    1.714    0.000    0.000 
#    0.000    0.000    0.000    0.000    0.000    0.000 
#
# Total GULP energy -346966.538048 kJ/mol
# GULP energy per Si atom -12391.662073 kJ/mol
# Density = 2.064031 g / cm^3
# Si number density = 20.687399 Si / 1000 Ang^3
#
#
#
# Elastic Constant Matrix: (Units=GPa)
#
#
# Indices 1 2 3 4 5 6 
#
# 1 104.4762 45.3979 45.9416 0.0000 -13.1022 0.0000
# 2 45.3979 141.1035 43.2545 0.0000 -20.1063 0.0000
# 3 45.9416 43.2545 89.3626 0.0000 -3.3548 0.0000
# 4 0.0000 0.0000 0.0000 14.6050 0.0000 6.6342
# 5 -13.1022 -20.1063 -3.3548 0.0000 28.2199 0.0000
# 6 0.0000 0.0000 0.0000 6.6342 0.0000 -14.0966
#
#
#
# Elastic Compliance Matrix: (Units=1/GPa)
#
#
# Indices 1 2 3 4 5 6 
#
# 1 0.013518 -0.001962 -0.005843 0.000000 0.004184 0.000000
# 2 -0.001962 0.009543 -0.003405 0.000000 0.005484 0.000000
# 3 -0.005843 -0.003405 0.015720 0.000000 -0.003270 0.000000
# 4 0.000000 0.000000 0.000000 0.056410 0.000000 0.026548
# 5 0.004184 0.005484 -0.003270 0.000000 0.040897 0.000000
# 6 0.000000 0.000000 0.000000 0.026548 0.000000 -0.058445
#
#
# Mechanical properties :
#
#
# Convention : Reuss Voigt Hill
#
# Bulk Modulus (GPa) = 61.11885 67.12556 64.12221
# Shear Modulus (GPa) = 47.38588 19.10222 33.24405
#
# Velocity S-wave (km/s) = 4.79118 3.04200 4.01305
# Velocity P-wave (km/s) = 7.75985 6.69749 7.24816
#
# Compressibility (1/GPa) = 0.01636156
#
# Stress axis : x y z
#
# Youngs Moduli (GPa) = 73.97480 104.78505 63.61516
#
# Poissons Ratio (x) = 0.20558 0.37170
# Poissons Ratio (y) = 0.14513 0.21660
# Poissons Ratio (z) = 0.43223 0.35677
#
# Static dielectric constant tensor:
#      x y z
#    x -2.543120 0.000000 0.502730 
#    y 0.000000 3.979500 0.000000 
#    z 0.502730 0.000000 3.786370 
# 
# 
# High freq. dielectric constant tensor:
#      x y z
#    x 1.794410 0.000000 0.004000 
#    y 0.000000 1.810130 0.000000 
#    z 0.004000 0.000000 1.806050 
# 
# From -- ./inp_files/54573.got.cif
#   From: 2010.06.25/outbox.cif.g09.slc.cpg/sg12_28_cif.got.tgz:54573.got - 2010.06.28 00:19:55.
