data_PCOD8106374
_publ_section_title
;
Structure prediction by ZEFSAII (Michael W. Deem and Ramdas Pophale) SiO2 
 PCOD8106374
Probable space group: C 2/M
;
_chemical_formula_sum "Si O2"
_cell_formula_units_Z 48
_cell_length_a 11.094897
_cell_length_b 23.312769
_cell_length_c 10.080966
_cell_angle_alpha 90.000000
_cell_angle_beta 105.601271
_cell_angle_gamma 90.000000
_cell_volume 2511.401739
_symmetry_space_group_name_H-M "C 2/M"
_symmetry_group_IT_number 12
_symmetry_cell_setting 'monoclinic'
loop_
_space_group_symop_operation_xyz
x,y,z
-x,y,-z
-x,-y,-z
x,-y,z
1/2+x,1/2+y,z
1/2-x,1/2+y,-z
1/2-x,1/2-y,-z
1/2+x,1/2-y,z
loop_
_atom_site_type_symbol
_atom_site_label
_atom_site_fract_x
_atom_site_fract_y
_atom_site_fract_z
Si Si1 0.959986 0.601153 0.338367
Si Si2 0.387094 0.318571 0.548322
Si Si3 0.923717 0.500000 0.119759
Si Si4 0.681990 0.621840 0.221928
Si Si5 0.640042 0.500000 0.098779
Si Si6 0.355368 0.733050 0.926483
Si Si7 0.357800 0.200844 0.659759
O O1 0.963452 0.553048 0.224623
O O2 0.822601 0.625955 0.314988
O O3 0.000000 0.580863 0.500000
O O4 0.036656 0.653172 0.297950
O O5 0.500000 0.343744 0.500000
O O6 0.403498 0.352861 0.688644
O O7 0.401633 0.250198 0.571822
O O8 0.261280 0.332721 0.432271
O O9 0.770454 0.500000 0.047670
O O10 0.000000 0.500000 0.000000
O O11 0.643483 0.556714 0.187256
O O12 0.659719 0.663996 0.090615
O O13 0.500000 0.500000 0.000000
O O14 0.320416 0.769133 0.786145
O O15 0.500000 0.748380 0.000000
O O16 0.250000 0.750000 0.000000
#
# Coordination Sequence:
#
# PCOD8106374 Si02
#       7
#     8   8   4   8   4   8   8
#     4  11  20  40  65  92 118 159 205 258 309 364
#     4  10  21  36  57  89 123 151 200 245 305 359
#     4  10  25  43  64  93 122 159 209 260 310 366
#     4  10  22  39  64  87 116 159 205 247 304 364
#     4  10  22  45  65  85 121 167 204 245 303 374
#     4  11  24  38  56  90 126 161 200 247 299 372
#     4  10  22  35  61  86 120 162 193 249 308 362
#
# _framework density 19.112831
#
# number of rings (size 3 to 8) (size 9 to 14) (size 15 to 20)
#    0.000    1.667    1.667    2.250    9.333    3.333 
#    3.000    0.417    0.000    0.000    0.000    0.000 
#    0.000    0.000    0.000    0.000    0.000    0.000 
#
# Total GULP energy -297339.819637 kJ/mol
# GULP energy per Si atom -12389.159152 kJ/mol
# Density = 1.906933 g / cm^3
# Si number density = 19.112831 Si / 1000 Ang^3
#
#
#
# Elastic Constant Matrix: (Units=GPa)
#
#
# Indices 1 2 3 4 5 6 
#
# 1 138.5728 51.6385 49.0029 0.0000 -3.1458 0.0000
# 2 51.6385 120.6291 36.1913 0.0000 -2.0560 0.0000
# 3 49.0029 36.1913 89.1732 0.0000 -7.0921 0.0000
# 4 0.0000 0.0000 0.0000 25.0396 0.0000 6.1005
# 5 -3.1458 -2.0560 -7.0921 0.0000 34.0083 0.0000
# 6 0.0000 0.0000 0.0000 6.1005 0.0000 19.2073
#
#
#
# Elastic Compliance Matrix: (Units=1/GPa)
#
#
# Indices 1 2 3 4 5 6 
#
# 1 0.009792 -0.002934 -0.004202 0.000000 -0.000148 0.000000
# 2 -0.002934 0.010320 -0.002591 0.000000 -0.000188 0.000000
# 3 -0.004202 -0.002591 0.014777 0.000000 0.002536 0.000000
# 4 0.000000 0.000000 0.000000 0.043286 0.000000 -0.013748
# 5 -0.000148 -0.000188 0.002536 0.000000 0.029908 0.000000
# 6 0.000000 0.000000 0.000000 -0.013748 0.000000 0.056430
#
#
# Mechanical properties :
#
#
# Convention : Reuss Voigt Hill
#
# Bulk Modulus (GPa) = 64.78881 69.11563 66.95222
# Shear Modulus (GPa) = 26.43920 29.75386 28.09653
#
# Velocity S-wave (km/s) = 3.72334 3.94984 3.83826
# Velocity P-wave (km/s) = 7.24265 7.55262 7.39926
#
# Compressibility (1/GPa) = 0.01543476
#
# Stress axis : x y z
#
# Youngs Moduli (GPa) = 102.12118 96.90014 67.67387
#
# Poissons Ratio (x) = 0.28427 0.28438
# Poissons Ratio (y) = 0.29958 0.17536
# Poissons Ratio (z) = 0.42914 0.25109
#
# Static dielectric constant tensor:
#      x y z
#    x 3.999390 0.000000 0.010300 
#    y 0.000000 3.590730 0.000000 
#    z 0.010300 0.000000 3.573260 
# 
# 
# High freq. dielectric constant tensor:
#      x y z
#    x 1.753460 0.000000 0.006760 
#    y 0.000000 1.741560 0.000000 
#    z 0.006760 0.000000 1.741330 
# 
# From -- ./inp_files/51486.got.cif
#   From: 2010.06.25/outbox.cif.g09.slc.cpg/sg12_26_cif.got.tgz:51486.got - 2010.06.28 00:19:55.
