data_PCOD8106255
_publ_section_title
;
Structure prediction by ZEFSAII (Michael W. Deem and Ramdas Pophale) SiO2 
 PCOD8106255
Probable space group: C 2/M
;
_chemical_formula_sum "Si O2"
_cell_formula_units_Z 64
_cell_length_a 29.977394
_cell_length_b 9.112861
_cell_length_c 16.066527
_cell_angle_alpha 90.000000
_cell_angle_beta 46.865799
_cell_angle_gamma 90.000000
_cell_volume 3202.928803
_symmetry_space_group_name_H-M "C 2/M"
_symmetry_group_IT_number 12
_symmetry_cell_setting 'monoclinic'
loop_
_space_group_symop_operation_xyz
x,y,z
-x,y,-z
-x,-y,-z
x,-y,z
1/2+x,1/2+y,z
1/2-x,1/2+y,-z
1/2-x,1/2-y,-z
1/2+x,1/2-y,z
loop_
_atom_site_type_symbol
_atom_site_label
_atom_site_fract_x
_atom_site_fract_y
_atom_site_fract_z
Si Si1 0.497590 0.670462 0.754877
Si Si2 0.342142 0.170366 0.717256
Si Si3 0.272429 0.334240 0.551080
Si Si4 0.202196 0.825829 0.910348
Si Si5 0.887575 0.828194 0.501769
Si Si6 0.375747 0.171891 0.860403
Si Si7 0.657756 0.167352 0.811222
Si Si8 0.550220 0.669721 0.867131
O O1 0.478084 0.500000 0.777785
O O2 0.546567 0.706470 0.620792
O O3 0.439605 0.771519 0.814149
O O4 0.525080 0.712397 0.809041
O O5 0.271853 0.223364 0.806020
O O6 0.382571 0.253906 0.597845
O O7 0.372425 0.205822 0.767004
O O8 0.345112 0.000000 0.691940
O O9 0.283259 0.500000 0.508010
O O10 0.250000 0.250000 0.500000
O O11 0.335591 0.266329 0.505427
O O12 0.224156 0.323082 0.686470
O O13 0.158138 0.763312 0.894523
O O14 0.195123 0.000000 0.923540
O O15 0.180287 0.756501 0.024967
O O16 0.876734 0.000000 0.528139
O O17 0.368954 0.000000 0.887550
O O18 0.609444 0.232289 0.807952
O O19 0.640328 0.000000 0.855241
O O20 0.569716 0.500000 0.845635
O O21 0.500000 0.707385 0.000000
#
# Coordination Sequence:
#
# PCOD8106255 Si02
#       8
#     8   8   8   8   8   8   8   8
#     4  10  22  40  61  88 122 162 208 250 296 358
#     4  10  23  41  62  90 120 156 200 249 307 363
#     4  10  21  36  56  85 117 152 193 239 292 347
#     4  11  22  39  63  90 121 157 200 246 300 368
#     4  10  21  39  61  85 121 162 201 249 297 353
#     4  11  24  41  62  89 121 155 197 254 311 359
#     4  11  22  36  58  89 121 152 193 244 300 354
#     4  10  21  38  60  85 118 161 205 247 294 354
#
# _framework density 19.981711000000001
#
# number of rings (size 3 to 8) (size 9 to 14) (size 15 to 20)
#    0.000    1.625    1.250    3.000    0.000    6.750 
#    0.000    2.500    0.000    0.000    0.000    0.000 
#    0.000    0.000    0.000    0.000    0.000    0.000 
#
# Total GULP energy -396979.778678 kJ/mol
# GULP energy per Si atom -12405.618084 kJ/mol
# Density = 1.993623 g / cm^3
# Si number density = 19.981711 Si / 1000 Ang^3
#
#
#
# Elastic Constant Matrix: (Units=GPa)
#
#
# Indices 1 2 3 4 5 6 
#
# 1 82.1235 37.0999 26.3022 0.0000 5.8780 0.0002
# 2 37.0999 78.9413 41.2032 0.0009 6.6483 -0.0001
# 3 26.3022 41.2032 106.2193 0.0002 12.2497 0.0000
# 4 0.0000 0.0009 0.0002 33.9760 0.0000 3.3941
# 5 5.8780 6.6483 12.2497 0.0000 30.0407 0.0000
# 6 0.0002 -0.0001 0.0000 3.3941 0.0000 34.2084
#
#
#
# Elastic Compliance Matrix: (Units=1/GPa)
#
#
# Indices 1 2 3 4 5 6 
#
# 1 0.015631 -0.006644 -0.001165 0.000000 -0.001113 0.000000
# 2 -0.006644 0.018740 -0.005557 -0.000001 -0.000581 0.000000
# 3 -0.001165 -0.005557 0.012267 0.000000 -0.003545 0.000000
# 4 0.000000 -0.000001 0.000000 0.029727 0.000000 -0.002950
# 5 -0.001113 -0.000581 -0.003545 0.000000 0.035080 0.000000
# 6 0.000000 0.000000 0.000000 -0.002950 0.000000 0.029525
#
#
# Mechanical properties :
#
#
# Convention : Reuss Voigt Hill
#
# Bulk Modulus (GPa) = 50.23669 52.94383 51.59026
# Shear Modulus (GPa) = 28.67991 30.49027 29.58509
#
# Velocity S-wave (km/s) = 3.79266 3.91053 3.85204
# Velocity P-wave (km/s) = 6.66145 6.85152 6.75715
#
# Compressibility (1/GPa) = 0.01990577
#
# Stress axis : x y z
#
# Youngs Moduli (GPa) = 63.97464 53.36278 81.51780
#
# Poissons Ratio (x) = 0.35457 0.09496
# Poissons Ratio (y) = 0.42507 0.45299
# Poissons Ratio (z) = 0.07452 0.29653
#
# Static dielectric constant tensor:
#      x y z
#    x 3.612760 0.000000 0.007950 
#    y 0.000000 3.582870 0.000000 
#    z 0.007950 0.000000 3.719570 
# 
# 
# High freq. dielectric constant tensor:
#      x y z
#    x 1.785750 0.000000 0.003150 
#    y 0.000000 1.775200 0.000000 
#    z 0.003150 0.000000 1.789730 
# 
# From -- ./inp_files/249857.got.cif
#   From: 2010.06.25/outbox.cif.g09.slc.cpg/sg12_125_cif.got.tgz:249857.got - 2010.06.28 00:19:55.
