data_PCOD8106676
_publ_section_title
;
Structure prediction by ZEFSAII (Michael W. Deem and Ramdas Pophale) SiO2 
 PCOD8106676
Probable space group: C 2/M
;
_chemical_formula_sum "Si O2"
_cell_formula_units_Z 64
_cell_length_a 19.885640
_cell_length_b 9.562609
_cell_length_c 26.527239
_cell_angle_alpha 90.000000
_cell_angle_beta 131.435626
_cell_angle_gamma 90.000000
_cell_volume 3781.772281
_symmetry_space_group_name_H-M "C 2/M"
_symmetry_group_IT_number 12
_symmetry_cell_setting 'monoclinic'
loop_
_space_group_symop_operation_xyz
x,y,z
-x,y,-z
-x,-y,-z
x,-y,z
1/2+x,1/2+y,z
1/2-x,1/2+y,-z
1/2-x,1/2-y,-z
1/2+x,1/2-y,z
loop_
_atom_site_type_symbol
_atom_site_label
_atom_site_fract_x
_atom_site_fract_y
_atom_site_fract_z
Si Si1 0.502483 0.666644 0.444721
Si Si2 0.423932 0.159050 0.179875
Si Si3 0.233621 0.660308 0.823619
Si Si4 0.840580 0.165428 0.550062
Si Si5 0.969537 0.845772 0.700473
Si Si6 0.868567 0.844309 0.297332
Si Si7 0.099034 0.840257 0.028811
Si Si8 0.839482 0.335289 0.033208
O O1 0.500000 0.728536 0.500000
O O2 0.501633 0.500000 0.444236
O O3 0.592427 0.717070 0.460985
O O4 0.412536 0.717017 0.370600
O O5 0.332987 0.201697 0.163878
O O6 0.509706 0.246232 0.241852
O O7 0.408567 0.186093 0.113360
O O8 0.448380 0.000000 0.203269
O O9 0.222024 0.500000 0.802511
O O10 0.212649 0.748339 0.762742
O O11 0.333651 0.693980 0.891928
O O12 0.750000 0.250000 0.500000
O O13 0.882965 0.203324 0.625663
O O14 0.822584 0.000000 0.536914
O O15 0.053249 0.847688 0.704751
O O16 0.952843 0.000000 0.714346
O O17 0.829968 0.000000 0.286844
O O18 0.116112 0.000000 0.018161
O O19 0.112783 0.728757 0.991642
O O20 0.000000 0.820957 0.000000
O O21 0.817521 0.500000 0.014557
O O22 0.750000 0.250000 0.000000
#
# Coordination Sequence:
#
# PCOD8106676 Si02
#       8
#     8   8   8   8   8   8   8   8
#     4   8  14  27  48  71  94 121 157 198 236 277
#     4   9  17  29  47  72  98 121 154 204 249 285
#     4   9  16  29  47  69  96 124 157 198 242 288
#     4   9  17  29  47  71  97 126 160 196 233 284
#     4   8  15  27  43  67  95 122 157 197 236 282
#     4   8  14  25  44  70  92 115 155 200 237 279
#     4  10  21  37  54  72  99 136 173 204 246 304
#     4  11  21  34  53  78 105 129 164 210 253 298
#
# _framework density 16.923282
#
# number of rings (size 3 to 8) (size 9 to 14) (size 15 to 20)
#    0.000    3.000    1.250    1.875    0.000    2.250 
#    0.000    1.875    2.750    1.500    0.000    0.000 
#    0.000    0.000    0.000    0.000    0.000    0.000 
#
# Total GULP energy -396640.698822 kJ/mol
# GULP energy per Si atom -12395.021838 kJ/mol
# Density = 1.688476 g / cm^3
# Si number density = 16.923282 Si / 1000 Ang^3
#
#
#
# Elastic Constant Matrix: (Units=GPa)
#
#
# Indices 1 2 3 4 5 6 
#
# 1 55.4406 38.5777 54.8841 0.0000 3.4234 0.0000
# 2 38.5777 83.7221 76.5672 0.0000 1.4574 0.0000
# 3 54.8841 76.5672 161.2878 0.0000 5.0610 0.0000
# 4 0.0000 0.0000 0.0000 33.8275 0.0000 2.8950
# 5 3.4234 1.4574 5.0610 0.0000 25.0297 0.0000
# 6 0.0000 0.0000 0.0000 2.8950 0.0000 16.6781
#
#
#
# Elastic Compliance Matrix: (Units=1/GPa)
#
#
# Indices 1 2 3 4 5 6 
#
# 1 0.030029 -0.007985 -0.006354 0.000000 -0.002358 0.000000
# 2 -0.007985 0.023248 -0.008364 0.000000 0.001430 0.000000
# 3 -0.006354 -0.008364 0.012369 0.000000 -0.001145 0.000000
# 4 0.000000 0.000000 0.000000 0.030008 0.000000 -0.005209
# 5 -0.002358 0.001430 -0.001145 0.000000 0.040423 0.000000
# 6 0.000000 0.000000 0.000000 -0.005209 0.000000 0.060863
#
#
# Mechanical properties :
#
#
# Convention : Reuss Voigt Hill
#
# Bulk Modulus (GPa) = 49.40684 71.16763 60.28724
# Shear Modulus (GPa) = 20.07283 23.80181 21.93732
#
# Velocity S-wave (km/s) = 3.44773 3.75434 3.60430
# Velocity P-wave (km/s) = 6.71618 7.80627 7.28165
#
# Compressibility (1/GPa) = 0.02024011
#
# Stress axis : x y z
#
# Youngs Moduli (GPa) = 33.30073 43.01437 80.84854
#
# Poissons Ratio (x) = 0.34347 0.51371
# Poissons Ratio (y) = 0.26591 0.67622
# Poissons Ratio (z) = 0.21159 0.35977
#
# Static dielectric constant tensor:
#      x y z
#    x -2.965300 0.000000 3.774930 
#    y 0.000000 3.219210 0.000000 
#    z 3.774930 0.000000 0.928190 
# 
# 
# High freq. dielectric constant tensor:
#      x y z
#    x 1.606570 0.000000 0.000870 
#    y 0.000000 1.641980 0.000000 
#    z 0.000870 0.000000 1.667690 
# 
# From -- ./inp_files/365239.got.cif
#   From: 2010.06.25/outbox.cif.g09.slc.cpg/sg12_183_cif.got.tgz:365239.got - 2010.06.28 00:19:55.
