data_PCOD8106423
_publ_section_title
;
Structure prediction by ZEFSAII (Michael W. Deem and Ramdas Pophale) SiO2 
 PCOD8106423
Probable space group: C 2/M
;
_chemical_formula_sum "Si O2"
_cell_formula_units_Z 56
_cell_length_a 13.568479
_cell_length_b 24.135737
_cell_length_c 14.275949
_cell_angle_alpha 90.000000
_cell_angle_beta 32.603486
_cell_angle_gamma 90.000000
_cell_volume 2519.080649
_symmetry_space_group_name_H-M "C 2/M"
_symmetry_group_IT_number 12
_symmetry_cell_setting 'monoclinic'
loop_
_space_group_symop_operation_xyz
x,y,z
-x,y,-z
-x,-y,-z
x,-y,z
1/2+x,1/2+y,z
1/2-x,1/2+y,-z
1/2-x,1/2-y,-z
1/2+x,1/2-y,z
loop_
_atom_site_type_symbol
_atom_site_label
_atom_site_fract_x
_atom_site_fract_y
_atom_site_fract_z
Si Si1 0.683437 0.088295 0.610752
Si Si2 0.574246 0.561937 0.227146
Si Si3 0.778104 0.562353 0.875864
Si Si4 0.086671 0.290526 0.651679
Si Si5 0.616303 0.755525 0.822401
Si Si6 0.305729 0.369992 0.697027
Si Si7 0.150169 0.339413 0.311921
O O1 0.489898 0.061125 0.739527
O O2 0.688636 0.151691 0.578302
O O3 0.709131 0.086041 0.703281
O O4 0.853777 0.061645 0.417832
O O5 0.644609 0.500000 0.190460
O O6 0.679276 0.602549 0.213424
O O7 0.638075 0.578900 0.071319
O O8 0.732809 0.500000 0.875272
O O9 0.746671 0.608697 0.819990
O O10 0.250000 0.250000 0.500000
O O11 0.004125 0.270090 0.817754
O O12 0.925903 0.295992 0.705211
O O13 0.706871 0.811655 0.788198
O O14 0.742464 0.701364 0.703108
O O15 0.500000 0.731445 0.000000
O O16 0.500000 0.354419 0.500000
O O17 0.000000 0.367367 0.500000
#
# Coordination Sequence:
#
# PCOD8106423 Si02
#       7
#     8   8   8   8   8   8   8
#     4   9  20  36  59  86 120 161 201 252 306 371
#     4  10  21  36  58  87 121 162 207 254 306 366
#     4  10  23  41  61  87 118 158 211 262 307 358
#     4  10  21  38  62  89 121 163 201 247 308 369
#     4  11  24  38  61  95 129 159 201 254 308 376
#     4   9  20  35  55  85 125 164 198 246 307 372
#     4  11  23  42  65  89 122 163 207 254 311 373
#
# _framework density 22.230333000000002
#
# number of rings (size 3 to 8) (size 9 to 14) (size 15 to 20)
#    0.000    2.000    1.429    0.857   10.000    5.143 
#    0.000    1.429    0.000    0.429    0.000    0.000 
#    0.000    0.000    0.000    0.000    0.000    0.000 
#
# Total GULP energy -346921.174633 kJ/mol
# GULP energy per Si atom -12390.041951 kJ/mol
# Density = 2.217974 g / cm^3
# Si number density = 22.230333 Si / 1000 Ang^3
#
#
#
# Elastic Constant Matrix: (Units=GPa)
#
#
# Indices 1 2 3 4 5 6 
#
# 1 54.3223 17.2240 4.1823 -0.0821 11.1985 0.0426
# 2 17.2240 105.3922 26.7171 -0.0307 18.9211 0.0242
# 3 4.1823 26.7171 93.4154 -0.1327 23.8392 0.0326
# 4 -0.0821 -0.0307 -0.1327 30.1793 0.0534 11.6672
# 5 11.1985 18.9211 23.8392 0.0534 31.2752 -0.0255
# 6 0.0426 0.0242 0.0326 11.6672 -0.0255 11.4413
#
#
#
# Elastic Compliance Matrix: (Units=1/GPa)
#
#
# Indices 1 2 3 4 5 6 
#
# 1 0.020532 -0.002492 0.001596 0.000179 -0.007061 -0.000274
# 2 -0.002492 0.011180 -0.001971 0.000018 -0.004369 -0.000037
# 3 0.001596 -0.001971 0.013705 0.000172 -0.009826 -0.000238
# 4 0.000179 0.000018 0.000172 0.054704 -0.000345 -0.055786
# 5 -0.007061 -0.004369 -0.009826 -0.000345 0.044636 0.000515
# 6 -0.000274 -0.000037 -0.000238 -0.055786 0.000515 0.144293
#
#
# Mechanical properties :
#
#
# Convention : Reuss Voigt Hill
#
# Bulk Modulus (GPa) = 25.20026 38.81964 32.00995
# Shear Modulus (GPa) = 16.23314 28.24627 22.23970
#
# Velocity S-wave (km/s) = 2.70520 3.56844 3.16638
# Velocity P-wave (km/s) = 4.59544 5.87186 5.27242
#
# Compressibility (1/GPa) = 0.03968212
#
# Stress axis : x y z
#
# Youngs Moduli (GPa) = 48.70423 89.44816 72.96612
#
# Poissons Ratio (x) = 0.22293 -0.11644
# Poissons Ratio (y) = 0.12138 0.14381
# Poissons Ratio (z) = -0.07772 0.17629
#
# Static dielectric constant tensor:
#      x y z
#    x 4.266660 -0.003540 0.110290 
#    y -0.003540 0.717070 0.001440 
#    z 0.110290 0.001440 4.021750 
# 
# 
# High freq. dielectric constant tensor:
#      x y z
#    x 1.860540 0.000000 0.015850 
#    y 0.000000 1.880270 0.000010 
#    z 0.015850 0.000010 1.873890 
# 
# From -- ./inp_files/218694.got.cif
#   From: 2010.06.25/outbox.cif.g09.slc.cpg/sg12_110_cif.got.tgz:218694.got - 2010.06.28 00:19:55.
