data_PCOD8106502
_publ_section_title
;
Structure prediction by ZEFSAII (Michael W. Deem and Ramdas Pophale) SiO2 
 PCOD8106502
Probable space group: C 2/M
;
_chemical_formula_sum "Si O2"
_cell_formula_units_Z 56
_cell_length_a 31.491002
_cell_length_b 8.473590
_cell_length_c 12.006626
_cell_angle_alpha 90.000000
_cell_angle_beta 119.916035
_cell_angle_gamma 90.000000
_cell_volume 2776.977558
_symmetry_space_group_name_H-M "C 2/M"
_symmetry_group_IT_number 12
_symmetry_cell_setting 'monoclinic'
loop_
_space_group_symop_operation_xyz
x,y,z
-x,y,-z
-x,-y,-z
x,-y,z
1/2+x,1/2+y,z
1/2-x,1/2+y,-z
1/2-x,1/2-y,-z
1/2+x,1/2-y,z
loop_
_atom_site_type_symbol
_atom_site_label
_atom_site_fract_x
_atom_site_fract_y
_atom_site_fract_z
Si Si1 0.539169 0.311698 0.462699
Si Si2 0.010465 0.812051 0.187172
Si Si3 0.803893 0.315319 0.082504
Si Si4 0.650067 0.314096 0.634499
Si Si5 0.075035 0.813308 0.074424
Si Si6 0.264772 0.813892 0.398332
Si Si7 0.677473 0.313230 0.125118
O O1 0.500000 0.244985 0.500000
O O2 0.539295 0.500000 0.465268
O O3 0.520582 0.241278 0.321425
O O4 0.594374 0.249713 0.555738
O O5 0.957648 0.753485 0.072957
O O6 0.012312 0.000000 0.195583
O O7 0.052897 0.747203 0.160425
O O8 0.802978 0.500000 0.106613
O O9 0.830156 0.230294 0.218726
O O10 0.750000 0.250000 0.000000
O O11 0.830370 0.276652 0.001371
O O12 0.651713 0.500000 0.620951
O O13 0.682132 0.242822 0.574815
O O14 0.071186 0.000000 0.071399
O O15 0.131048 0.759821 0.137856
O O16 0.250000 0.750000 0.500000
O O17 0.225495 0.756267 0.254330
O O18 0.264179 0.000000 0.406119
O O19 0.678734 0.500000 0.103896
#
# Coordination Sequence:
#
# PCOD8106502 Si02
#       7
#     8   8   8   8   8   8   8
#     4   9  19  32  51  83 119 153 194 244 296 352
#     4   8  14  27  47  76 113 146 184 234 288 341
#     4  12  24  40  61  84 115 152 195 243 294 356
#     4  11  23  39  62  89 121 158 198 251 307 356
#     4   8  15  27  49  80 111 143 181 236 295 339
#     4  11  24  40  60  87 124 162 204 246 293 359
#     4  10  21  36  59  88 116 150 192 243 297 353
#
# _framework density 20.16581
#
# number of rings (size 3 to 8) (size 9 to 14) (size 15 to 20)
#    0.000    2.143    1.429    3.000    4.000    0.571 
#    0.000    0.000    0.000    1.714    0.000    2.000 
#    0.000    0.000    0.000    0.000    0.000    0.000 
#
# Total GULP energy -347100.487160 kJ/mol
# GULP energy per Si atom -12396.445970 kJ/mol
# Density = 2.011991 g / cm^3
# Si number density = 20.165810 Si / 1000 Ang^3
#
#
#
# Elastic Constant Matrix: (Units=GPa)
#
#
# Indices 1 2 3 4 5 6 
#
# 1 169.3729 18.8711 79.0616 0.0000 2.6606 0.0000
# 2 18.8711 32.9299 13.9954 0.0000 -0.2974 0.0000
# 3 79.0616 13.9954 144.5536 0.0000 -12.4953 0.0000
# 4 0.0000 0.0000 0.0000 21.1195 0.0000 -3.9049
# 5 2.6606 -0.2974 -12.4953 0.0000 37.9774 0.0000
# 6 0.0000 0.0000 0.0000 -3.9049 0.0000 22.0702
#
#
#
# Elastic Compliance Matrix: (Units=1/GPa)
#
#
# Indices 1 2 3 4 5 6 
#
# 1 0.008343 -0.002904 -0.004461 0.000000 -0.002075 0.000000
# 2 -0.002904 0.032704 -0.001584 0.000000 -0.000061 0.000000
# 3 -0.004461 -0.001584 0.009816 0.000000 0.003530 0.000000
# 4 0.000000 0.000000 0.000000 0.048951 0.000000 0.008661
# 5 -0.002075 -0.000061 0.003530 0.000000 0.027638 0.000000
# 6 0.000000 0.000000 0.000000 0.008661 0.000000 0.046842
#
#
# Mechanical properties :
#
#
# Convention : Reuss Voigt Hill
#
# Bulk Modulus (GPa) = 30.33407 63.41251 46.87329
# Shear Modulus (GPa) = 24.60879 31.89531 28.25205
#
# Velocity S-wave (km/s) = 3.49710 3.98131 3.74704
# Velocity P-wave (km/s) = 5.60190 7.25592 6.48188
#
# Compressibility (1/GPa) = 0.03296624
#
# Stress axis : x y z
#
# Youngs Moduli (GPa) = 119.86588 30.57730 101.87193
#
# Poissons Ratio (x) = 0.08879 0.45446
# Poissons Ratio (y) = 0.34805 0.16132
# Poissons Ratio (z) = 0.53474 0.04842
#
# Static dielectric constant tensor:
#      x y z
#    x -0.078710 0.000000 6.972930 
#    y 0.000000 3.335390 0.000000 
#    z 6.972930 0.000000 -7.920670 
# 
# 
# High freq. dielectric constant tensor:
#      x y z
#    x 1.802830 0.000000 -0.003010 
#    y 0.000000 1.741960 0.000000 
#    z -0.003010 0.000000 1.796350 
# 
# From -- ./inp_files/187735.got.cif
#   From: 2010.06.25/outbox.cif.g09.slc.cpg/sg12_94_cif.got.tgz:187735.got - 2010.06.28 00:19:55.
