data_PCOD8106933
_publ_section_title
;
Structure prediction by ZEFSAII (Michael W. Deem and Ramdas Pophale) SiO2 
 PCOD8106933
Probable space group: C 2/M
;
_chemical_formula_sum "Si O2"
_cell_formula_units_Z 40
_cell_length_a 12.062258
_cell_length_b 29.624139
_cell_length_c 13.460211
_cell_angle_alpha 90.000000
_cell_angle_beta 21.261465
_cell_angle_gamma 90.000000
_cell_volume 1744.148240
_symmetry_space_group_name_H-M "C 2/M"
_symmetry_group_IT_number 12
_symmetry_cell_setting 'monoclinic'
loop_
_space_group_symop_operation_xyz
x,y,z
-x,y,-z
-x,-y,-z
x,-y,z
1/2+x,1/2+y,z
1/2-x,1/2+y,-z
1/2-x,1/2-y,-z
1/2+x,1/2-y,z
loop_
_atom_site_type_symbol
_atom_site_label
_atom_site_fract_x
_atom_site_fract_y
_atom_site_fract_z
Si Si1 0.843210 0.395563 0.850960
Si Si2 0.163628 0.219204 0.470094
Si Si3 0.252279 0.448556 0.373587
Si Si4 0.160914 0.305133 0.265238
Si Si5 0.660284 0.836844 0.969595
O O1 0.778721 0.348271 0.851819
O O2 0.148755 0.419737 0.556220
O O3 0.866403 0.383777 0.948341
O O4 0.562360 0.429316 0.068186
O O5 0.078259 0.269024 0.590638
O O6 0.000000 0.227488 0.500000
O O7 0.509169 0.204755 0.158040
O O8 0.009786 0.177866 0.659009
O O9 0.305464 0.500000 0.362075
O O10 0.000000 0.444322 0.500000
O O11 0.000000 0.322333 0.500000
O O12 0.500000 0.282928 0.000000
O O13 0.500000 0.846539 0.000000
#
# Coordination Sequence:
#
# PCOD8106933 Si02
#       5
#     8   8   8   8   8
#     4  12  23  37  62  90 116 151 196 242 287 344
#     4   9  18  34  53  76 115 163 199 234 281 326
#     4  11  24  43  65  89 118 147 179 230 302 374
#     4  11  21  34  54  83 120 155 195 245 289 336
#     4  10  21  37  57  82 117 160 203 238 274 326
#
# _framework density 22.933831000000001
#
# number of rings (size 3 to 8) (size 9 to 14) (size 15 to 20)
#    0.000    1.400    0.000    8.400    0.000    3.200 
#    0.000    0.000    0.000    7.200    0.000    0.000 
#    0.000    0.000    0.000    0.000    0.000    0.000 
#
# Total GULP energy -248032.339793 kJ/mol
# GULP energy per Si atom -12401.616990 kJ/mol
# Density = 2.288163 g / cm^3
# Si number density = 22.933831 Si / 1000 Ang^3
#
#
#
# Elastic Constant Matrix: (Units=GPa)
#
#
# Indices 1 2 3 4 5 6 
#
# 1 48.6004 33.2972 18.5688 0.0007 13.6732 -0.0004
# 2 33.2972 122.8139 22.0959 -0.0011 6.8790 -0.0013
# 3 18.5688 22.0959 110.8928 -0.0053 5.1351 -0.0075
# 4 0.0007 -0.0011 -0.0053 77.0567 -0.0001 33.8543
# 5 13.6732 6.8790 5.1351 -0.0001 35.9805 0.0010
# 6 -0.0004 -0.0013 -0.0075 33.8543 0.0010 49.5761
#
#
#
# Elastic Compliance Matrix: (Units=1/GPa)
#
#
# Indices 1 2 3 4 5 6 
#
# 1 0.029019 -0.006794 -0.003075 -0.000001 -0.009290 0.000000
# 2 -0.006794 0.010105 -0.000912 0.000000 0.000780 0.000000
# 3 -0.003075 -0.000912 0.009716 0.000000 -0.000044 0.000001
# 4 -0.000001 0.000000 0.000000 0.018540 0.000001 -0.012660
# 5 -0.009290 0.000780 -0.000044 0.000001 0.031180 -0.000001
# 6 0.000000 0.000000 0.000001 -0.012660 -0.000001 0.028816
#
#
# Mechanical properties :
#
#
# Convention : Reuss Voigt Hill
#
# Bulk Modulus (GPa) = 36.65957 47.80344 42.23150
# Shear Modulus (GPa) = 31.63915 46.41233 39.02574
#
# Velocity S-wave (km/s) = 3.71830 4.50349 4.12960
# Velocity P-wave (km/s) = 5.86975 6.92324 6.41815
#
# Compressibility (1/GPa) = 0.02727801
#
# Stress axis : x y z
#
# Youngs Moduli (GPa) = 34.45975 98.96323 102.91882
#
# Poissons Ratio (x) = 0.67236 0.31651
# Poissons Ratio (y) = 0.23412 0.09385
# Poissons Ratio (z) = 0.10597 0.09024
#
# Static dielectric constant tensor:
#      x y z
#    x 4.591740 0.000000 0.273770 
#    y 0.000000 4.103450 0.000000 
#    z 0.273770 0.000000 4.482130 
# 
# 
# High freq. dielectric constant tensor:
#      x y z
#    x 1.904420 0.000000 0.014060 
#    y 0.000000 1.883210 0.000000 
#    z 0.014060 0.000000 1.933910 
# 
# From -- ./inp_files/219009.got.cif
#   From: 2010.06.25/outbox.cif.g09.slc.cpg/sg12_110_cif.got.tgz:219009.got - 2010.06.28 00:19:55.
