data_PCOD8106659
_publ_section_title
;
Structure prediction by ZEFSAII (Michael W. Deem and Ramdas Pophale) SiO2 
 PCOD8106659
Probable space group: C 2/M
;
_chemical_formula_sum "Si O2"
_cell_formula_units_Z 64
_cell_length_a 15.099594
_cell_length_b 18.208840
_cell_length_c 18.766277
_cell_angle_alpha 90.000000
_cell_angle_beta 141.748500
_cell_angle_gamma 90.000000
_cell_volume 3194.454112
_symmetry_space_group_name_H-M "C 2/M"
_symmetry_group_IT_number 12
_symmetry_cell_setting 'monoclinic'
loop_
_space_group_symop_operation_xyz
x,y,z
-x,y,-z
-x,-y,-z
x,-y,z
1/2+x,1/2+y,z
1/2-x,1/2+y,-z
1/2-x,1/2-y,-z
1/2+x,1/2-y,z
loop_
_atom_site_type_symbol
_atom_site_label
_atom_site_fract_x
_atom_site_fract_y
_atom_site_fract_z
Si Si1 0.411826 0.694854 0.511415
Si Si2 0.895171 0.686187 0.994418
Si Si3 0.408927 0.643758 0.009650
Si Si4 0.169299 0.415729 0.407004
Si Si5 0.574123 0.300352 0.754669
Si Si6 0.567352 0.584130 0.242425
Si Si7 0.086904 0.648343 0.834582
Si Si8 0.641392 0.857285 0.545823
O O1 0.500000 0.664555 0.500000
O O2 0.299518 0.633591 0.462357
O O3 0.527288 0.716194 0.644765
O O4 0.328706 0.770076 0.440501
O O5 0.739538 0.678565 0.862087
O O6 0.935127 0.769997 0.037927
O O7 0.904889 0.641246 0.074332
O O8 0.000000 0.653805 0.000000
O O9 0.464346 0.598982 0.111657
O O10 0.500000 0.615174 0.000000
O O11 0.239643 0.627905 0.895212
O O12 0.219010 0.500000 0.436615
O O13 0.125618 0.393187 0.458601
O O14 0.032031 0.407314 0.269027
O O15 0.480201 0.369270 0.719455
O O16 0.542709 0.230758 0.784950
O O17 0.557429 0.500000 0.258549
O O18 0.730104 0.606570 0.327916
O O19 0.500000 0.875050 0.500000
#
# Coordination Sequence:
#
# PCOD8106659 Si02
#       8
#     8   8   8   8   8   8   8   8
#     4  11  25  42  71  96 123 165 218 268 313 370
#     4  10  21  36  68  96 119 154 207 269 315 358
#     4  10  22  38  61  93 122 159 208 257 313 372
#     4  12  26  42  63  95 135 171 204 257 325 383
#     4  11  20  42  64  91 122 161 213 264 308 368
#     4  12  24  39  62  87 126 173 208 253 313 379
#     4  11  21  41  64  91 125 164 205 261 308 373
#     4  11  25  43  66  96 125 165 219 264 313 377
#
# _framework density 20.034721999999999
#
# number of rings (size 3 to 8) (size 9 to 14) (size 15 to 20)
#    0.000    1.000    5.000    2.250    3.500    4.000 
#    0.000    0.000    0.000    0.750    0.000    0.000 
#    0.000    0.000    0.000    0.000    0.000    0.000 
#
# Total GULP energy -396934.624351 kJ/mol
# GULP energy per Si atom -12404.207011 kJ/mol
# Density = 1.998912 g / cm^3
# Si number density = 20.034722 Si / 1000 Ang^3
#
#
#
# Elastic Constant Matrix: (Units=GPa)
#
#
# Indices 1 2 3 4 5 6 
#
# 1 121.6110 41.5569 43.2593 -0.0004 0.0093 -0.0002
# 2 41.5569 95.6391 27.1467 -0.0007 11.9432 -0.0004
# 3 43.2593 27.1467 105.5078 -0.0009 6.1151 -0.0007
# 4 -0.0004 -0.0007 -0.0009 18.4235 -0.0003 -2.6239
# 5 0.0093 11.9432 6.1151 -0.0003 30.8747 -0.0002
# 6 -0.0002 -0.0004 -0.0007 -2.6239 -0.0002 5.7240
#
#
#
# Elastic Compliance Matrix: (Units=1/GPa)
#
#
# Indices 1 2 3 4 5 6 
#
# 1 0.010848 -0.003985 -0.003552 0.000000 0.002242 0.000000
# 2 -0.003985 0.013211 -0.001486 0.000000 -0.004815 0.000001
# 3 -0.003552 -0.001486 0.011414 0.000001 -0.001685 0.000001
# 4 0.000000 0.000000 0.000001 0.058070 0.000001 0.026619
# 5 0.002242 -0.004815 -0.001685 0.000001 0.034585 0.000001
# 6 0.000000 0.000001 0.000001 0.026619 0.000001 0.186906
#
#
# Mechanical properties :
#
#
# Convention : Reuss Voigt Hill
#
# Bulk Modulus (GPa) = 57.38567 60.74264 59.06415
# Shear Modulus (GPa) = 14.75403 25.05743 19.90573
#
# Velocity S-wave (km/s) = 2.71666 3.54036 3.15550
# Velocity P-wave (km/s) = 6.20851 6.86270 6.54379
#
# Compressibility (1/GPa) = 0.01742595
#
# Stress axis : x y z
#
# Youngs Moduli (GPa) = 92.17998 75.69592 87.60797
#
# Poissons Ratio (x) = 0.30168 0.31122
# Poissons Ratio (y) = 0.36738 0.13018
# Poissons Ratio (z) = 0.32746 0.11248
#
# Static dielectric constant tensor:
#      x y z
#    x 3.807100 0.000000 0.018300 
#    y 0.000000 3.441070 0.000000 
#    z 0.018300 0.000000 3.796080 
# 
# 
# High freq. dielectric constant tensor:
#      x y z
#    x 1.785540 0.000000 0.003450 
#    y 0.000000 1.756870 0.000000 
#    z 0.003450 0.000000 1.798270 
# 
# From -- ./inp_files/271676.got.cif
#   From: 2010.06.25/outbox.cif.g09.slc.cpg/sg12_136_cif.got.tgz:271676.got - 2010.06.28 00:19:55.
