data_PCOD8106441
_publ_section_title
;
Structure prediction by ZEFSAII (Michael W. Deem and Ramdas Pophale) SiO2 
 PCOD8106441
Probable space group: C 2/M
;
_chemical_formula_sum "Si O2"
_cell_formula_units_Z 56
_cell_length_a 31.061048
_cell_length_b 8.867451
_cell_length_c 14.123929
_cell_angle_alpha 90.000000
_cell_angle_beta 133.074516
_cell_angle_gamma 90.000000
_cell_volume 2841.649438
_symmetry_space_group_name_H-M "C 2/M"
_symmetry_group_IT_number 12
_symmetry_cell_setting 'monoclinic'
loop_
_space_group_symop_operation_xyz
x,y,z
-x,y,-z
-x,-y,-z
x,-y,z
1/2+x,1/2+y,z
1/2-x,1/2+y,-z
1/2-x,1/2-y,-z
1/2+x,1/2-y,z
loop_
_atom_site_type_symbol
_atom_site_label
_atom_site_fract_x
_atom_site_fract_y
_atom_site_fract_z
Si Si1 0.558183 0.677785 0.539005
Si Si2 0.078651 0.178611 0.359255
Si Si3 0.314166 0.322017 0.607311
Si Si4 0.986101 0.325600 0.084110
Si Si5 0.826268 0.827289 0.178751
Si Si6 0.646641 0.173649 0.144189
Si Si7 0.214501 0.171823 0.086185
O O1 0.500000 0.749130 0.500000
O O2 0.550207 0.500000 0.516565
O O3 0.571378 0.745229 0.454417
O O4 0.610526 0.720347 0.688041
O O5 0.141742 0.231236 0.410817
O O6 0.023387 0.233278 0.215390
O O7 0.076658 0.000000 0.356829
O O8 0.305787 0.500000 0.593876
O O9 0.250000 0.250000 0.500000
O O10 0.345234 0.273572 0.750814
O O11 0.003991 0.500000 0.120337
O O12 0.916987 0.297980 0.998451
O O13 0.000000 0.266197 0.000000
O O14 0.780572 0.714186 0.157708
O O15 0.809972 0.000000 0.180709
O O16 0.827656 0.806128 0.067815
O O17 0.695016 0.218042 0.140045
O O18 0.655144 0.000000 0.186031
O O19 0.212840 0.000000 0.119827
#
# Coordination Sequence:
#
# PCOD8106441 Si02
#       7
#     8   8   8   8   8   8   8
#     4   9  19  36  59  86 115 153 196 236 288 352
#     4  10  22  38  61  89 117 153 198 246 292 348
#     4  11  24  40  59  90 124 158 200 245 296 355
#     4  10  21  39  60  83 114 152 193 237 294 351
#     4   9  19  37  60  84 116 155 194 239 294 356
#     4  11  23  39  61  86 116 157 198 243 297 356
#     4  10  21  36  58  89 117 149 195 247 298 350
#
# _framework density 19.706863999999999
#
# number of rings (size 3 to 8) (size 9 to 14) (size 15 to 20)
#    0.000    2.000    1.429    1.286    4.000    2.571 
#    0.000    0.714    0.000    0.857    0.000    0.000 
#    0.000    0.000    0.000    0.000    0.000    0.000 
#
# Total GULP energy -347242.881725 kJ/mol
# GULP energy per Si atom -12401.531490 kJ/mol
# Density = 1.966201 g / cm^3
# Si number density = 19.706864 Si / 1000 Ang^3
#
#
#
# Elastic Constant Matrix: (Units=GPa)
#
#
# Indices 1 2 3 4 5 6 
#
# 1 135.0052 34.2119 64.8249 0.0000 -6.6714 0.0000
# 2 34.2119 37.7494 26.7074 0.0000 4.2051 0.0000
# 3 64.8249 26.7074 121.8622 0.0000 7.2189 0.0000
# 4 0.0000 0.0000 0.0000 30.7976 0.0000 3.8454
# 5 -6.6714 4.2051 7.2189 0.0000 28.3985 0.0000
# 6 0.0000 0.0000 0.0000 3.8454 0.0000 20.8687
#
#
#
# Elastic Compliance Matrix: (Units=1/GPa)
#
#
# Indices 1 2 3 4 5 6 
#
# 1 0.012099 -0.008024 -0.004992 0.000000 0.005299 0.000000
# 2 -0.008024 0.036917 -0.003439 0.000000 -0.006477 0.000000
# 3 -0.004992 -0.003439 0.011832 0.000000 -0.003671 0.000000
# 4 0.000000 0.000000 0.000000 0.033235 0.000000 -0.006124
# 5 0.005299 -0.006477 -0.003671 0.000000 0.038350 0.000000
# 6 0.000000 0.000000 0.000000 -0.006124 0.000000 0.049047
#
#
# Mechanical properties :
#
#
# Convention : Reuss Voigt Hill
#
# Bulk Modulus (GPa) = 35.79100 60.67836 48.23468
# Shear Modulus (GPa) = 22.35108 27.27113 24.81110
#
# Velocity S-wave (km/s) = 3.37141 3.72403 3.55210
# Velocity P-wave (km/s) = 5.77549 7.02485 6.43059
#
# Compressibility (1/GPa) = 0.02793999
#
# Stress axis : x y z
#
# Youngs Moduli (GPa) = 82.65005 27.08772 84.51426
#
# Poissons Ratio (x) = 0.21736 0.42186
# Poissons Ratio (y) = 0.66321 0.29060
# Poissons Ratio (z) = 0.41255 0.09314
#
# Static dielectric constant tensor:
#      x y z
#    x 3.816360 0.000000 -0.062200 
#    y 0.000000 3.413160 0.000000 
#    z -0.062200 0.000000 3.615770 
# 
# 
# High freq. dielectric constant tensor:
#      x y z
#    x 1.777540 0.000000 0.001490 
#    y 0.000000 1.750230 0.000000 
#    z 0.001490 0.000000 1.773770 
# 
# From -- ./inp_files/249264.got.cif
#   From: 2010.06.25/outbox.cif.g09.slc.cpg/sg12_125_cif.got.tgz:249264.got - 2010.06.28 00:19:55.
