data_PCOD8106750
_publ_section_title
;
Structure prediction by ZEFSAII (Michael W. Deem and Ramdas Pophale) SiO2 
 PCOD8106750
Probable space group: C 2/M
;
_chemical_formula_sum "Si O2"
_cell_formula_units_Z 40
_cell_length_a 18.346277
_cell_length_b 22.252499
_cell_length_c 9.441194
_cell_angle_alpha 90.000000
_cell_angle_beta 147.937750
_cell_angle_gamma 90.000000
_cell_volume 2046.056240
_symmetry_space_group_name_H-M "C 2/M"
_symmetry_group_IT_number 12
_symmetry_cell_setting 'monoclinic'
loop_
_space_group_symop_operation_xyz
x,y,z
-x,y,-z
-x,-y,-z
x,-y,z
1/2+x,1/2+y,z
1/2-x,1/2+y,-z
1/2-x,1/2-y,-z
1/2+x,1/2-y,z
loop_
_atom_site_type_symbol
_atom_site_label
_atom_site_fract_x
_atom_site_fract_y
_atom_site_fract_z
Si Si1 0.244241 0.191884 0.769203
Si Si2 0.132560 0.066967 0.625195
Si Si3 0.876167 0.933002 0.712989
Si Si4 0.131737 0.349856 0.300533
Si Si5 0.991346 0.282038 0.639977
O O1 0.239941 0.122395 0.819877
O O2 0.291763 0.195198 0.682900
O O3 0.092178 0.220192 0.526761
O O4 0.354409 0.228751 0.046007
O O5 0.082066 0.068646 0.381299
O O6 0.000000 0.079007 0.500000
O O7 0.196518 0.000000 0.764032
O O8 0.730631 0.903578 0.505759
O O9 0.861196 0.000000 0.748115
O O10 0.000000 0.899601 0.000000
O O11 0.093292 0.319676 0.385184
O O12 0.000000 0.375976 0.000000
O O13 0.000000 0.314649 0.500000
#
# Coordination Sequence:
#
# PCOD8106750 Si02
#       5
#     8   8   8   8   8
#     4  10  21  37  55  79 108 140 176 213 262 316
#     4   9  18  34  56  80 106 137 175 218 262 310
#     4   9  18  32  52  78 104 135 177 220 261 307
#     4   9  20  36  52  73 105 141 175 212 259 317
#     4  11  22  35  53  79 109 139 174 217 261 310
#
# _framework density 19.549804999999999
#
# number of rings (size 3 to 8) (size 9 to 14) (size 15 to 20)
#    0.000    2.400    0.000    1.800    0.000    5.200 
#    0.000    4.000    0.000    1.200    0.000    1.400 
#    0.000    0.000    0.000    0.000    0.000    0.000 
#
# Total GULP energy -247807.902882 kJ/mol
# GULP energy per Si atom -12390.395144 kJ/mol
# Density = 1.950531 g / cm^3
# Si number density = 19.549805 Si / 1000 Ang^3
#
#
#
# Elastic Constant Matrix: (Units=GPa)
#
#
# Indices 1 2 3 4 5 6 
#
# 1 124.6117 42.8426 30.6234 0.0000 -2.3778 0.0000
# 2 42.8426 88.9013 69.1039 0.0000 8.5101 0.0000
# 3 30.6234 69.1039 128.7809 0.0000 11.5028 0.0000
# 4 0.0000 0.0000 0.0000 23.0045 0.0000 9.0869
# 5 -2.3778 8.5101 11.5028 0.0000 26.1512 0.0000
# 6 0.0000 0.0000 0.0000 9.0869 0.0000 19.4151
#
#
#
# Elastic Compliance Matrix: (Units=1/GPa)
#
#
# Indices 1 2 3 4 5 6 
#
# 1 0.009777 -0.005094 0.000188 0.000000 0.002464 0.000000
# 2 -0.005094 0.022033 -0.010336 0.000000 -0.003087 0.000000
# 3 0.000188 -0.010336 0.013495 0.000000 -0.002555 0.000000
# 4 0.000000 0.000000 0.000000 0.053329 0.000000 -0.024959
# 5 0.002464 -0.003087 -0.002555 0.000000 0.040592 0.000000
# 6 0.000000 0.000000 0.000000 -0.024959 0.000000 0.063188
#
#
# Mechanical properties :
#
#
# Convention : Reuss Voigt Hill
#
# Bulk Modulus (GPa) = 67.46762 69.71488 68.59125
# Shear Modulus (GPa) = 21.02285 27.02909 24.02597
#
# Velocity S-wave (km/s) = 3.28281 3.72233 3.50946
# Velocity P-wave (km/s) = 6.99676 7.36287 7.18215
#
# Compressibility (1/GPa) = 0.01482193
#
# Stress axis : x y z
#
# Youngs Moduli (GPa) = 102.28104 45.38662 74.10277
#
# Poissons Ratio (x) = 0.23120 -0.01396
# Poissons Ratio (y) = 0.52102 0.76592
# Poissons Ratio (z) = -0.01927 0.46911
#
# Static dielectric constant tensor:
#      x y z
#    x 3.766280 0.000000 -0.002990 
#    y 0.000000 3.557350 0.000000 
#    z -0.002990 0.000000 3.637010 
# 
# 
# High freq. dielectric constant tensor:
#      x y z
#    x 1.780250 0.000000 0.001000 
#    y 0.000000 1.738450 0.000000 
#    z 0.001000 0.000000 1.751590 
# 
# From -- ./inp_files/79240.got.cif
#   From: 2010.06.25/outbox.cif.g09.slc.cpg/sg12_40_cif.got.tgz:79240.got - 2010.06.28 00:19:55.
