data_PCOD8106054
_publ_section_title
;
Structure prediction by ZEFSAII (Michael W. Deem and Ramdas Pophale) SiO2 
 PCOD8106054
Probable space group: C 2/M
;
_chemical_formula_sum "Si O2"
_cell_formula_units_Z 64
_cell_length_a 23.048756
_cell_length_b 8.827223
_cell_length_c 20.956510
_cell_angle_alpha 90.000000
_cell_angle_beta 58.494933
_cell_angle_gamma 90.000000
_cell_volume 3635.237551
_symmetry_space_group_name_H-M "C 2/M"
_symmetry_group_IT_number 12
_symmetry_cell_setting 'monoclinic'
loop_
_space_group_symop_operation_xyz
x,y,z
-x,y,-z
-x,-y,-z
x,-y,z
1/2+x,1/2+y,z
1/2-x,1/2+y,-z
1/2-x,1/2-y,-z
1/2+x,1/2-y,z
loop_
_atom_site_type_symbol
_atom_site_label
_atom_site_fract_x
_atom_site_fract_y
_atom_site_fract_z
Si Si1 0.556808 0.177067 0.017915
Si Si2 0.066503 0.321212 0.719568
Si Si3 0.794353 0.325520 0.919681
Si Si4 0.721179 0.167115 0.423320
Si Si5 0.680706 0.321069 0.738056
Si Si6 0.561633 0.679471 0.149849
Si Si7 0.353939 0.667294 0.433055
Si Si8 0.182678 0.827115 0.883228
O O1 0.541818 0.269812 0.090198
O O2 0.553636 0.000000 0.035647
O O3 0.500000 0.225881 0.000000
O O4 0.630634 0.216793 0.948344
O O5 0.060032 0.500000 0.727822
O O6 0.115247 0.264351 0.748273
O O7 0.093996 0.275970 0.633963
O O8 0.992826 0.246371 0.769647
O O9 0.807572 0.500000 0.930597
O O10 0.865031 0.239750 0.871768
O O11 0.755814 0.311625 0.874442
O O12 0.750000 0.250000 0.000000
O O13 0.750750 0.230380 0.339110
O O14 0.661401 0.271184 0.486700
O O15 0.783831 0.159457 0.435637
O O16 0.690071 0.000000 0.431574
O O17 0.668978 0.500000 0.734309
O O18 0.690634 0.276104 0.805620
O O19 0.561443 0.500000 0.153444
O O20 0.386105 0.500000 0.420558
O O21 0.155906 0.000000 0.903493
#
# Coordination Sequence:
#
# PCOD8106054 Si02
#       8
#     8   8   8   8   8   8   8   8
#     4  11  23  36  52  76 104 133 167 208 254 307
#     4  11  21  33  50  75 106 137 170 212 258 306
#     4  11  22  38  58  79 100 129 172 219 262 304
#     4   8  14  25  43  68 100 136 171 205 242 291
#     4   9  18  33  51  75 107 140 172 207 251 308
#     4  12  24  38  55  74  99 135 173 213 260 307
#     4   9  16  27  44  68 100 137 173 206 245 299
#     4  10  21  36  55  76 100 134 171 209 256 306
#
# _framework density 17.605452
#
# number of rings (size 3 to 8) (size 9 to 14) (size 15 to 20)
#    0.000    1.875    1.250    4.875    0.000    7.000 
#    0.000    0.000    0.000    0.000    0.000    0.875 
#    0.000    7.000    0.000    0.000    0.000    0.000 
#
# Total GULP energy -396823.083909 kJ/mol
# GULP energy per Si atom -12400.721372 kJ/mol
# Density = 1.756538 g / cm^3
# Si number density = 17.605452 Si / 1000 Ang^3
#
#
#
# Elastic Constant Matrix: (Units=GPa)
#
#
# Indices 1 2 3 4 5 6 
#
# 1 63.4000 33.5015 27.8034 0.0000 -18.2659 0.0000
# 2 33.5015 116.2077 43.6671 -0.0003 -14.4399 0.0019
# 3 27.8034 43.6671 107.9429 0.0003 -19.4818 -0.0004
# 4 0.0000 -0.0003 0.0003 30.9919 -0.0002 -5.4509
# 5 -18.2659 -14.4399 -19.4818 -0.0002 14.0410 -0.0001
# 6 0.0000 0.0019 -0.0004 -5.4509 -0.0001 22.4256
#
#
#
# Elastic Compliance Matrix: (Units=1/GPa)
#
#
# Indices 1 2 3 4 5 6 
#
# 1 0.026675 -0.003953 0.000344 0.000000 0.031112 0.000001
# 2 -0.003953 0.011173 -0.003143 0.000000 0.001987 -0.000001
# 3 0.000344 -0.003143 0.013267 0.000000 0.015622 0.000001
# 4 0.000000 0.000000 0.000000 0.033708 0.000001 0.008193
# 5 0.031112 0.001987 0.015622 0.000001 0.135412 0.000001
# 6 0.000001 -0.000001 0.000001 0.008193 0.000001 0.046583
#
#
# Mechanical properties :
#
#
# Convention : Reuss Voigt Hill
#
# Bulk Modulus (GPa) = 26.58930 55.27718 40.93324
# Shear Modulus (GPa) = 17.07306 25.66361 21.36834
#
# Velocity S-wave (km/s) = 3.11748 3.82214 3.48765
# Velocity P-wave (km/s) = 5.30036 7.13752 6.28642
#
# Compressibility (1/GPa) = 0.03760912
#
# Stress axis : x y z
#
# Youngs Moduli (GPa) = 37.48869 89.50255 75.37716
#
# Poissons Ratio (x) = 0.35382 -0.02591
# Poissons Ratio (y) = 0.14820 0.23692
# Poissons Ratio (z) = -0.01289 0.28131
#
# Static dielectric constant tensor:
#      x y z
#    x 3.024670 0.000000 0.011550 
#    y 0.000000 3.424560 0.000000 
#    z 0.011550 0.000000 3.520520 
# 
# 
# High freq. dielectric constant tensor:
#      x y z
#    x 1.638710 0.000000 -0.005550 
#    y 0.000000 1.691520 0.000000 
#    z -0.005550 0.000000 1.689670 
# 
# From -- ./inp_files/319959.got.cif
#   From: 2010.06.25/outbox.cif.g09.slc.cpg/sg12_160_cif.got.tgz:319959.got - 2010.06.28 00:19:55.
