data_PCOD8106872
_publ_section_title
;
Structure prediction by ZEFSAII (Michael W. Deem and Ramdas Pophale) SiO2 
 PCOD8106872
Probable space group: C 2/M
;
_chemical_formula_sum "Si O2"
_cell_formula_units_Z 64
_cell_length_a 19.407021
_cell_length_b 9.022389
_cell_length_c 33.672866
_cell_angle_alpha 90.000000
_cell_angle_beta 35.541426
_cell_angle_gamma 90.000000
_cell_volume 3427.318164
_symmetry_space_group_name_H-M "C 2/M"
_symmetry_group_IT_number 12
_symmetry_cell_setting 'monoclinic'
loop_
_space_group_symop_operation_xyz
x,y,z
-x,y,-z
-x,-y,-z
x,-y,z
1/2+x,1/2+y,z
1/2-x,1/2+y,-z
1/2-x,1/2-y,-z
1/2+x,1/2-y,z
loop_
_atom_site_type_symbol
_atom_site_label
_atom_site_fract_x
_atom_site_fract_y
_atom_site_fract_z
Si Si1 0.447454 0.170418 0.981761
Si Si2 0.587065 0.672230 0.689415
Si Si3 0.865973 0.327826 0.173613
Si Si4 0.012101 0.174086 0.812946
Si Si5 0.430144 0.833461 0.423743
Si Si6 0.237284 0.833473 0.445110
Si Si7 0.596688 0.672165 0.290258
Si Si8 0.771183 0.324313 0.947965
O O1 0.544309 0.213583 0.903555
O O2 0.407009 0.000000 0.995699
O O3 0.500000 0.199878 0.000000
O O4 0.335061 0.277554 0.031073
O O5 0.611442 0.500000 0.671477
O O6 0.565415 0.711618 0.745133
O O7 0.705350 0.756866 0.620271
O O8 0.472586 0.722120 0.717141
O O9 0.877688 0.500000 0.180037
O O10 0.734618 0.290025 0.219686
O O11 0.893780 0.226620 0.198465
O O12 0.892541 0.266774 0.872735
O O13 0.985373 0.000000 0.830468
O O14 0.330942 0.828755 0.436601
O O15 0.382235 0.750289 0.485378
O O16 0.548415 0.756452 0.351699
O O17 0.462261 0.000000 0.421028
O O18 0.202280 0.000000 0.450145
O O19 0.576008 0.500000 0.308118
O O20 0.776724 0.500000 0.950386
O O21 0.750000 0.250000 0.000000
#
# Coordination Sequence:
#
# PCOD8106872 Si02
#       8
#     8   8   8   8   8   8   8   8
#     4  10  22  39  62  87 114 147 184 227 279 336
#     4   9  19  34  54  80 108 141 182 223 268 321
#     4  10  21  37  57  80 110 148 184 224 272 330
#     4  11  23  38  59  82 110 148 185 227 276 330
#     4   9  16  27  46  74 107 142 178 219 269 320
#     4   9  16  27  47  75 108 141 176 220 269 317
#     4   9  18  33  53  78 108 142 183 224 268 324
#     4  12  24  40  61  84 111 145 188 234 278 329
#
# _framework density 18.673494000000002
#
# number of rings (size 3 to 8) (size 9 to 14) (size 15 to 20)
#    0.000    2.125    1.250    2.250    1.750    4.750 
#    0.000    0.000    0.000    0.750    0.000    5.250 
#    0.000    0.000    0.000    0.000    0.000    0.000 
#
# Total GULP energy -396865.311631 kJ/mol
# GULP energy per Si atom -12402.040988 kJ/mol
# Density = 1.863099 g / cm^3
# Si number density = 18.673494 Si / 1000 Ang^3
#
#
#
# Elastic Constant Matrix: (Units=GPa)
#
#
# Indices 1 2 3 4 5 6 
#
# 1 74.5322 34.8145 38.9898 0.0048 13.9379 0.0764
# 2 34.8145 100.1039 47.7074 0.0190 15.2436 0.0104
# 3 38.9898 47.7074 90.2051 -0.0018 23.4544 -0.0029
# 4 0.0048 0.0190 -0.0018 35.0718 -0.0018 -0.2504
# 5 13.9379 15.2436 23.4544 -0.0018 23.7319 0.0051
# 6 0.0764 0.0104 -0.0029 -0.2504 0.0051 26.0252
#
#
#
# Elastic Compliance Matrix: (Units=1/GPa)
#
#
# Indices 1 2 3 4 5 6 
#
# 1 0.018389 -0.003356 -0.005283 -0.000002 -0.003422 -0.000053
# 2 -0.003356 0.014051 -0.005580 -0.000007 -0.001539 0.000004
# 3 -0.005283 -0.005580 0.019625 0.000004 -0.012708 0.000022
# 4 -0.000002 -0.000007 0.000004 0.028515 0.000004 0.000274
# 5 -0.003422 -0.001539 -0.012708 0.000004 0.057696 -0.000002
# 6 -0.000053 0.000004 0.000022 0.000274 -0.000002 0.038427
#
#
# Mechanical properties :
#
#
# Convention : Reuss Voigt Hill
#
# Bulk Modulus (GPa) = 42.32836 56.42941 49.37889
# Shear Modulus (GPa) = 23.47236 26.52109 24.99672
#
# Velocity S-wave (km/s) = 3.54925 3.77271 3.66269
# Velocity P-wave (km/s) = 6.28594 7.01872 6.66241
#
# Compressibility (1/GPa) = 0.02362482
#
# Stress axis : x y z
#
# Youngs Moduli (GPa) = 54.38143 71.17129 50.95518
#
# Poissons Ratio (x) = 0.23886 0.26921
# Poissons Ratio (y) = 0.18251 0.28434
# Poissons Ratio (z) = 0.28732 0.39715
#
# Static dielectric constant tensor:
#      x y z
#    x 3.242960 -0.000060 -0.127160 
#    y -0.000060 3.530480 0.000330 
#    z -0.127160 0.000330 5.259700 
# 
# 
# High freq. dielectric constant tensor:
#      x y z
#    x 1.696260 0.000000 0.001510 
#    y 0.000000 1.728140 0.000000 
#    z 0.001510 0.000000 1.735750 
# 
# From -- ./inp_files/378067.got.cif
#   From: 2010.06.25/outbox.cif.g09.slc.cpg/sg12_190_cif.got.tgz:378067.got - 2010.06.28 00:19:55.
