data_PCOD8106842
_publ_section_title
;
Structure prediction by ZEFSAII (Michael W. Deem and Ramdas Pophale) SiO2 
 PCOD8106842
Probable space group: C 2/M
;
_chemical_formula_sum "Si O2"
_cell_formula_units_Z 40
_cell_length_a 15.127567
_cell_length_b 11.779643
_cell_length_c 20.375188
_cell_angle_alpha 90.000000
_cell_angle_beta 139.389425
_cell_angle_gamma 90.000000
_cell_volume 2363.342584
_symmetry_space_group_name_H-M "C 2/M"
_symmetry_group_IT_number 12
_symmetry_cell_setting 'monoclinic'
loop_
_space_group_symop_operation_xyz
x,y,z
-x,y,-z
-x,-y,-z
x,-y,z
1/2+x,1/2+y,z
1/2-x,1/2+y,-z
1/2-x,1/2-y,-z
1/2+x,1/2-y,z
loop_
_atom_site_type_symbol
_atom_site_label
_atom_site_fract_x
_atom_site_fract_y
_atom_site_fract_z
Si Si1 0.819847 0.754359 0.221040
Si Si2 0.875696 0.127783 0.805410
Si Si3 0.222340 0.500000 0.147102
Si Si4 0.389219 0.776929 0.113564
Si Si5 0.051012 0.500000 0.925902
Si Si6 0.914023 0.371399 0.390861
O O1 0.671278 0.701482 0.156886
O O2 0.864903 0.706984 0.176621
O O3 0.932338 0.710803 0.337539
O O4 0.812515 0.890583 0.215349
O O5 0.747268 0.127356 0.682447
O O6 0.005746 0.176299 0.841840
O O7 0.909908 0.000000 0.847949
O O8 0.085766 0.500000 0.110725
O O9 0.182941 0.500000 0.047759
O O10 0.451614 0.892070 0.122041
O O11 0.250000 0.750000 0.000000
O O12 0.963272 0.500000 0.402071
O O13 0.000000 0.321448 0.500000
#
# Coordination Sequence:
#
# PCOD8106842 Si02
#       6
#     8   8   4   8   4   8
#     4  10  21  37  56  83 110 147 184 233 275 328
#     4   9  21  39  56  82 112 144 187 233 272 327
#     4  11  20  38  53  73 116 157 181 220 281 326
#     4  12  24  35  54  84 115 149 189 223 272 328
#     4  11  22  36  54  72 112 160 189 218 269 331
#     4   8  16  37  64  82 103 141 185 234 286 328
#
# _framework density 16.925180000000001
#
# number of rings (size 3 to 8) (size 9 to 14) (size 15 to 20)
#    1.200    0.800    4.000    0.000    5.600    0.800 
#    0.000    2.500    0.000    0.000    0.000    0.000 
#    0.000    0.000    0.000    0.000    0.000    0.000 
#
# Total GULP energy -247839.433402 kJ/mol
# GULP energy per Si atom -12391.971670 kJ/mol
# Density = 1.688666 g / cm^3
# Si number density = 16.925180 Si / 1000 Ang^3
#
#
#
# Elastic Constant Matrix: (Units=GPa)
#
#
# Indices 1 2 3 4 5 6 
#
# 1 85.2791 24.0509 48.3621 0.0000 -12.7179 0.0000
# 2 24.0509 110.3363 56.9215 0.0000 -9.1020 0.0000
# 3 48.3621 56.9215 100.1540 0.0001 -24.5755 0.0001
# 4 0.0000 0.0000 0.0001 27.3722 0.0001 1.3720
# 5 -12.7179 -9.1020 -24.5755 0.0001 25.3016 0.0000
# 6 0.0000 0.0000 0.0001 1.3720 0.0000 32.9791
#
#
#
# Elastic Compliance Matrix: (Units=1/GPa)
#
#
# Indices 1 2 3 4 5 6 
#
# 1 0.016193 0.000679 -0.008072 0.000000 0.000543 0.000000
# 2 0.000679 0.013057 -0.008550 0.000000 -0.003266 0.000000
# 3 -0.008072 -0.008550 0.022308 0.000000 0.014535 0.000000
# 4 0.000000 0.000000 0.000000 0.036610 0.000000 -0.001523
# 5 0.000543 -0.003266 0.014535 0.000000 0.052739 0.000000
# 6 0.000000 0.000000 0.000000 -0.001523 0.000000 0.030386
#
#
# Mechanical properties :
#
#
# Convention : Reuss Voigt Hill
#
# Bulk Modulus (GPa) = 50.83221 61.60429 56.21825
# Shear Modulus (GPa) = 23.83946 28.22624 26.03285
#
# Velocity S-wave (km/s) = 3.75710 4.08819 3.92613
# Velocity P-wave (km/s) = 6.99426 7.66560 7.33761
#
# Compressibility (1/GPa) = 0.01967257
#
# Stress axis : x y z
#
# Youngs Moduli (GPa) = 61.75340 76.58969 44.82611
#
# Poissons Ratio (x) = -0.05204 0.36185
# Poissons Ratio (y) = -0.04196 0.38327
# Poissons Ratio (z) = 0.49849 0.65485
#
# Static dielectric constant tensor:
#      x y z
#    x 3.077280 0.000000 -0.088690 
#    y 0.000000 3.281740 0.000000 
#    z -0.088690 0.000000 3.006080 
# 
# 
# High freq. dielectric constant tensor:
#      x y z
#    x 1.641780 0.000000 -0.005390 
#    y 0.000000 1.664810 0.000000 
#    z -0.005390 0.000000 1.627520 
# 
# From -- ./inp_files/211658.got.cif
#   From: 2010.06.25/outbox.cif.g09.slc.cpg/sg12_106_cif.got.tgz:211658.got - 2010.06.28 00:19:55.
