data_PCOD8106546
_publ_section_title
;
Structure prediction by ZEFSAII (Michael W. Deem and Ramdas Pophale) SiO2 
 PCOD8106546
Probable space group: C 2/M
;
_chemical_formula_sum "Si O2"
_cell_formula_units_Z 48
_cell_length_a 20.304320
_cell_length_b 16.567552
_cell_length_c 8.157572
_cell_angle_alpha 90.000000
_cell_angle_beta 65.646501
_cell_angle_gamma 90.000000
_cell_volume 2499.970982
_symmetry_space_group_name_H-M "C 2/M"
_symmetry_group_IT_number 12
_symmetry_cell_setting 'monoclinic'
loop_
_space_group_symop_operation_xyz
x,y,z
-x,y,-z
-x,-y,-z
x,-y,z
1/2+x,1/2+y,z
1/2-x,1/2+y,-z
1/2-x,1/2-y,-z
1/2+x,1/2-y,z
loop_
_atom_site_type_symbol
_atom_site_label
_atom_site_fract_x
_atom_site_fract_y
_atom_site_fract_z
Si Si1 0.440051 0.704969 0.682099
Si Si2 0.437694 0.000000 0.783704
Si Si3 0.926083 0.665412 0.977038
Si Si4 0.661796 0.678392 0.495350
Si Si5 0.679384 0.848441 0.625185
Si Si6 0.605317 0.000000 0.532605
Si Si7 0.532727 0.594228 0.791160
O O1 0.500000 0.746343 0.500000
O O2 0.418785 0.768879 0.841849
O O3 0.370597 0.673612 0.654288
O O4 0.474420 0.623584 0.719429
O O5 0.418905 0.922861 0.909959
O O6 0.521929 0.000000 0.661864
O O7 0.388367 0.000000 0.670861
O O8 0.859051 0.675362 0.166702
O O9 0.000000 0.678439 0.000000
O O10 0.675184 0.772580 0.510012
O O11 0.737096 0.629725 0.423567
O O12 0.608227 0.640994 0.686913
O O13 0.641962 0.921760 0.570960
O O14 0.546856 0.500000 0.755136
O O15 0.500000 0.616762 0.000000
#
# Coordination Sequence:
#
# PCOD8106546 Si02
#       7
#     8   4   8   8   8   4   8
#     4  10  21  36  60  87 116 149 196 245 290 342
#     4  11  24  35  60  89 120 149 206 237 289 334
#     4  12  21  36  60  89 120 156 194 246 281 348
#     4  10  23  40  60  87 116 158 191 240 293 354
#     4  11  23  40  60  85 121 157 196 232 298 345
#     4  11  23  40  61  86 118 161 190 247 285 352
#     4  10  21  39  63  88 113 149 196 244 294 344
#
# _framework density 19.200220999999999
#
# number of rings (size 3 to 8) (size 9 to 14) (size 15 to 20)
#    0.000    1.333    1.667    5.250    3.500    3.667 
#    0.000    1.667    0.000    0.000    0.000    0.000 
#    0.000    0.000    0.000    0.000    0.000    0.000 
#
# Total GULP energy -297664.498794 kJ/mol
# GULP energy per Si atom -12402.687450 kJ/mol
# Density = 1.915652 g / cm^3
# Si number density = 19.200221 Si / 1000 Ang^3
#
#
#
# Elastic Constant Matrix: (Units=GPa)
#
#
# Indices 1 2 3 4 5 6 
#
# 1 143.4316 37.8896 65.4580 0.0000 -0.3631 0.0000
# 2 37.8896 71.4992 25.9838 0.0000 1.4960 0.0000
# 3 65.4580 25.9838 106.4495 0.0000 2.7582 0.0000
# 4 0.0000 0.0000 0.0000 34.7236 0.0000 -3.2540
# 5 -0.3631 1.4960 2.7582 0.0000 27.3728 0.0000
# 6 0.0000 0.0000 0.0000 -3.2540 0.0000 21.7616
#
#
#
# Elastic Compliance Matrix: (Units=1/GPa)
#
#
# Indices 1 2 3 4 5 6 
#
# 1 0.010459 -0.003529 -0.005593 0.000000 0.000895 0.000000
# 2 -0.003529 0.016544 -0.001849 0.000000 -0.000765 0.000000
# 3 -0.005593 -0.001849 0.013319 0.000000 -0.001315 0.000000
# 4 0.000000 0.000000 0.000000 0.029208 0.000000 0.004367
# 5 0.000895 -0.000765 -0.001315 0.000000 0.036719 0.000000
# 6 0.000000 0.000000 0.000000 0.004367 0.000000 0.046606
#
#
# Mechanical properties :
#
#
# Convention : Reuss Voigt Hill
#
# Bulk Modulus (GPa) = 54.40508 64.44922 59.42715
# Shear Modulus (GPa) = 27.63615 29.57485 28.60550
#
# Velocity S-wave (km/s) = 3.79801 3.92897 3.86405
# Velocity P-wave (km/s) = 6.90148 7.36357 7.13627
#
# Compressibility (1/GPa) = 0.01838064
#
# Stress axis : x y z
#
# Youngs Moduli (GPa) = 95.61155 60.44520 75.08119
#
# Poissons Ratio (x) = 0.21329 0.41995
# Poissons Ratio (y) = 0.33737 0.13880
# Poissons Ratio (z) = 0.53479 0.11174
#
# Static dielectric constant tensor:
#      x y z
#    x 3.658640 0.000000 0.086930 
#    y 0.000000 3.602120 0.000000 
#    z 0.086930 0.000000 3.746140 
# 
# 
# High freq. dielectric constant tensor:
#      x y z
#    x 1.745280 0.000000 0.009030 
#    y 0.000000 1.752960 0.000000 
#    z 0.009030 0.000000 1.754340 
# 
# From -- ./inp_files/85733.got.cif
#   From: 2010.06.25/outbox.cif.g09.slc.cpg/sg12_43_cif.got.tgz:85733.got - 2010.06.28 00:19:55.
