data_PCOD8106658
_publ_section_title
;
Structure prediction by ZEFSAII (Michael W. Deem and Ramdas Pophale) SiO2 
 PCOD8106658
Probable space group: C 2/M
;
_chemical_formula_sum "Si O2"
_cell_formula_units_Z 44
_cell_length_a 26.350641
_cell_length_b 13.924047
_cell_length_c 17.303150
_cell_angle_alpha 90.000000
_cell_angle_beta 20.393623
_cell_angle_gamma 90.000000
_cell_volume 2212.301933
_symmetry_space_group_name_H-M "C 2/M"
_symmetry_group_IT_number 12
_symmetry_cell_setting 'monoclinic'
loop_
_space_group_symop_operation_xyz
x,y,z
-x,y,-z
-x,-y,-z
x,-y,z
1/2+x,1/2+y,z
1/2-x,1/2+y,-z
1/2-x,1/2-y,-z
1/2+x,1/2-y,z
loop_
_atom_site_type_symbol
_atom_site_label
_atom_site_fract_x
_atom_site_fract_y
_atom_site_fract_z
Si Si1 0.088511 0.291531 0.232709
Si Si2 0.574255 0.304584 0.669554
Si Si3 0.022305 0.500000 0.058543
Si Si4 0.049300 0.000000 0.208675
Si Si5 0.000000 0.165392 0.500000
Si Si6 0.349625 0.500000 0.643482
Si Si7 0.605404 0.000000 0.274222
Si Si8 0.094792 0.305383 0.790435
O O1 0.011048 0.232972 0.410723
O O2 0.074998 0.405030 0.267141
O O3 0.007710 0.272168 0.267431
O O4 0.250000 0.250000 0.000000
O O5 0.504010 0.407959 0.761038
O O6 0.743346 0.307795 0.406463
O O7 0.563133 0.279109 0.775601
O O8 0.944479 0.403775 0.200139
O O9 0.193769 0.500000 0.827565
O O10 0.000000 0.500000 0.000000
O O11 0.982570 0.000000 0.390881
O O12 0.223273 0.000000 0.952988
O O13 0.137074 0.094628 0.321300
O O14 0.500000 0.000000 0.500000
O O15 0.000000 0.285332 0.000000
#
# Coordination Sequence:
#
# PCOD8106658 Si02
#       8
#     8   8   4   4   4   4   4   8
#     4  12  25  43  67  95 132 177 219 273 327 395
#     4  11  24  41  67  92 127 173 216 270 328 395
#     4  10  21  36  67  94 127 156 214 279 330 381
#     4  12  21  42  64  91 130 169 222 266 325 386
#     4  11  24  39  64  96 136 171 222 265 338 386
#     4  11  22  38  65 102 128 173 222 281 329 394
#     4  12  26  42  63  99 137 180 223 258 332 406
#     4  10  23  42  64  96 126 164 214 271 333 391
#
# _framework density 19.888786
#
# number of rings (size 3 to 8) (size 9 to 14) (size 15 to 20)
#    0.000    0.909    4.545    2.727    2.545    2.909 
#    0.000    1.364    0.000    0.000    0.000    0.000 
#    0.000    0.000    0.000    0.000    0.000    0.000 
#
# Total GULP energy -272730.531614 kJ/mol
# GULP energy per Si atom -12396.842346 kJ/mol
# Density = 1.984352 g / cm^3
# Si number density = 19.888786 Si / 1000 Ang^3
#
#
#
# Elastic Constant Matrix: (Units=GPa)
#
#
# Indices 1 2 3 4 5 6 
#
# 1 85.4037 46.9305 63.2875 0.0000 -33.1816 0.0000
# 2 46.9305 163.5505 44.4699 -0.0001 -13.9064 0.0002
# 3 63.2875 44.4699 121.0185 -0.0002 -21.1421 0.0003
# 4 0.0000 -0.0001 -0.0002 20.8777 0.0001 -1.6310
# 5 -33.1816 -13.9064 -21.1421 0.0001 35.4520 -0.0002
# 6 0.0000 0.0002 0.0003 -1.6310 -0.0002 50.1989
#
#
#
# Elastic Compliance Matrix: (Units=1/GPa)
#
#
# Indices 1 2 3 4 5 6 
#
# 1 0.029141 -0.003871 -0.010401 0.000000 0.019553 0.000000
# 2 -0.003871 0.007363 -0.000904 0.000000 -0.001274 0.000000
# 3 -0.010401 -0.000904 0.013699 0.000000 -0.001920 0.000000
# 4 0.000000 0.000000 0.000000 0.048020 0.000000 0.001560
# 5 0.019553 -0.001274 -0.001920 0.000000 0.044864 0.000000
# 6 0.000000 0.000000 0.000000 0.001560 0.000000 0.019971
#
#
# Mechanical properties :
#
#
# Convention : Reuss Voigt Hill
#
# Bulk Modulus (GPa) = 50.37511 75.48318 62.92914
# Shear Modulus (GPa) = 24.99673 35.65803 30.32738
#
# Velocity S-wave (km/s) = 3.54902 4.23882 3.90917
# Velocity P-wave (km/s) = 6.49442 7.87349 7.21697
#
# Compressibility (1/GPa) = 0.01985107
#
# Stress axis : x y z
#
# Youngs Moduli (GPa) = 34.31594 135.82317 72.99761
#
# Poissons Ratio (x) = 0.52581 0.75924
# Poissons Ratio (y) = 0.13285 0.06596
# Poissons Ratio (z) = 0.35692 0.12272
#
# Static dielectric constant tensor:
#      x y z
#    x 26.797190 0.001390 -13.134170 
#    y 0.001390 1.346890 -0.000780 
#    z -13.134170 -0.000780 10.902960 
# 
# 
# High freq. dielectric constant tensor:
#      x y z
#    x 1.780370 0.000000 -0.012230 
#    y 0.000000 1.792890 0.000000 
#    z -0.012230 0.000000 1.773730 
# 
# From -- ./inp_files/293605.got.cif
#   From: 2010.06.25/outbox.cif.g09.slc.cpg/sg12_147_cif.got.tgz:293605.got - 2010.06.28 00:19:55.
