data_PCOD8106562
_publ_section_title
;
Structure prediction by ZEFSAII (Michael W. Deem and Ramdas Pophale) SiO2 
 PCOD8106562
Probable space group: C 2/M
;
_chemical_formula_sum "Si O2"
_cell_formula_units_Z 56
_cell_length_a 14.657574
_cell_length_b 9.257962
_cell_length_c 22.454715
_cell_angle_alpha 90.000000
_cell_angle_beta 111.583899
_cell_angle_gamma 90.000000
_cell_volume 2833.426137
_symmetry_space_group_name_H-M "C 2/M"
_symmetry_group_IT_number 12
_symmetry_cell_setting 'monoclinic'
loop_
_space_group_symop_operation_xyz
x,y,z
-x,y,-z
-x,-y,-z
x,-y,z
1/2+x,1/2+y,z
1/2-x,1/2+y,-z
1/2-x,1/2-y,-z
1/2+x,1/2-y,z
loop_
_atom_site_type_symbol
_atom_site_label
_atom_site_fract_x
_atom_site_fract_y
_atom_site_fract_z
Si Si1 0.584004 0.663379 0.438042
Si Si2 0.725221 0.332113 0.299198
Si Si3 0.067858 0.333050 0.318742
Si Si4 0.796557 0.831433 0.094750
Si Si5 0.109963 0.168353 0.008370
Si Si6 0.359912 0.663784 0.419907
Si Si7 0.856756 0.665055 0.221737
O O1 0.606379 0.500000 0.422574
O O2 0.609889 0.771816 0.390953
O O3 0.470758 0.679934 0.426210
O O4 0.647959 0.702419 0.511749
O O5 0.708600 0.500000 0.306266
O O6 0.622235 0.248211 0.277678
O O7 0.795926 0.275652 0.367905
O O8 0.766021 0.302499 0.243141
O O9 0.094300 0.500000 0.322508
O O10 0.952943 0.303525 0.283938
O O11 0.867433 0.800488 0.055541
O O12 0.854189 0.770993 0.165232
O O13 0.776702 0.000000 0.097748
O O14 0.690643 0.754772 0.065596
O O15 0.122175 0.000000 0.026729
O O16 0.000000 0.220278 0.000000
O O17 0.323103 0.500000 0.399678
O O18 0.855897 0.500000 0.198546
#
# Coordination Sequence:
#
# PCOD8106562 Si02
#       7
#     8   8   8   8   8   8   8
#     4   9  18  34  57  83 110 143 184 235 295 351
#     4  11  23  39  58  82 110 148 194 238 291 349
#     4  11  23  39  58  83 112 148 193 240 291 345
#     4  10  21  36  60  91 118 152 194 232 277 327
#     4   9  19  38  62  89 123 157 189 228 274 326
#     4   9  18  34  57  83 110 142 184 237 294 348
#     4  10  23  42  59  79 116 156 191 234 283 338
#
# _framework density 19.764059
#
# number of rings (size 3 to 8) (size 9 to 14) (size 15 to 20)
#    0.000    2.143    1.429    2.143    0.000    5.429 
#    0.000    5.714    0.000    0.000    0.000    0.000 
#    0.000    0.000    0.000    0.000    0.000    0.000 
#
# Total GULP energy -347223.704328 kJ/mol
# GULP energy per Si atom -12400.846583 kJ/mol
# Density = 1.971908 g / cm^3
# Si number density = 19.764059 Si / 1000 Ang^3
#
#
#
# Elastic Constant Matrix: (Units=GPa)
#
#
# Indices 1 2 3 4 5 6 
#
# 1 83.5805 39.9631 19.8996 0.0000 -10.8026 0.0000
# 2 39.9631 104.9566 48.1473 0.0000 -10.3174 0.0000
# 3 19.8996 48.1473 86.0710 0.0000 -10.7194 0.0000
# 4 0.0000 0.0000 0.0000 38.9753 0.0000 1.3154
# 5 -10.8026 -10.3174 -10.7194 0.0000 18.7207 0.0000
# 6 0.0000 0.0000 0.0000 1.3154 0.0000 31.6554
#
#
#
# Elastic Compliance Matrix: (Units=1/GPa)
#
#
# Indices 1 2 3 4 5 6 
#
# 1 0.015224 -0.005295 0.000186 0.000000 0.005973 0.000000
# 2 -0.005295 0.014837 -0.006932 0.000000 0.001153 0.000000
# 3 0.000186 -0.006932 0.016142 0.000000 0.005530 0.000000
# 4 0.000000 0.000000 0.000000 0.025693 0.000000 -0.001068
# 5 0.005973 0.001153 0.005530 0.000000 0.060665 0.000000
# 6 0.000000 0.000000 0.000000 -0.001068 0.000000 0.031635
#
#
# Mechanical properties :
#
#
# Convention : Reuss Voigt Hill
#
# Bulk Modulus (GPa) = 45.20586 54.51423 49.86004
# Shear Modulus (GPa) = 25.55578 28.97685 27.26631
#
# Velocity S-wave (km/s) = 3.59979 3.83317 3.71831
# Velocity P-wave (km/s) = 6.34038 6.87265 6.61187
#
# Compressibility (1/GPa) = 0.02212103
#
# Stress axis : x y z
#
# Youngs Moduli (GPa) = 65.68625 67.39894 61.95151
#
# Poissons Ratio (x) = 0.35686 -0.01152
# Poissons Ratio (y) = 0.34779 0.42945
# Poissons Ratio (z) = -0.01222 0.46721
#
# Static dielectric constant tensor:
#      x y z
#    x 3.748550 0.000000 -0.080930 
#    y 0.000000 3.584440 0.000000 
#    z -0.080930 0.000000 3.495970 
# 
# 
# High freq. dielectric constant tensor:
#      x y z
#    x 1.776910 0.000000 -0.005220 
#    y 0.000000 1.771640 0.000000 
#    z -0.005220 0.000000 1.760670 
# 
# From -- ./inp_files/338188.got.cif
#   From: 2010.06.25/outbox.cif.g09.slc.cpg/sg12_170_cif.got.tgz:338188.got - 2010.06.28 00:19:55.
