data_PCOD8106195
_publ_section_title
;
Structure prediction by ZEFSAII (Michael W. Deem and Ramdas Pophale) SiO2 
 PCOD8106195
Probable space group: C 2/M
;
_chemical_formula_sum "Si O2"
_cell_formula_units_Z 64
_cell_length_a 30.488208
_cell_length_b 9.175333
_cell_length_c 17.179293
_cell_angle_alpha 90.000000
_cell_angle_beta 38.746359
_cell_angle_gamma 90.000000
_cell_volume 3007.778631
_symmetry_space_group_name_H-M "C 2/M"
_symmetry_group_IT_number 12
_symmetry_cell_setting 'monoclinic'
loop_
_space_group_symop_operation_xyz
x,y,z
-x,y,-z
-x,-y,-z
x,-y,z
1/2+x,1/2+y,z
1/2-x,1/2+y,-z
1/2-x,1/2-y,-z
1/2+x,1/2-y,z
loop_
_atom_site_type_symbol
_atom_site_label
_atom_site_fract_x
_atom_site_fract_y
_atom_site_fract_z
Si Si1 0.458786 0.333449 0.483509
Si Si2 0.779215 0.834042 0.174685
Si Si3 0.346775 0.835898 0.549459
Si Si4 0.086420 0.161065 0.205547
Si Si5 0.038118 0.330044 0.870592
Si Si6 0.324994 0.825894 0.406434
Si Si7 0.593458 0.831392 0.043642
Si Si8 0.216932 0.832729 0.117615
O O1 0.500000 0.262748 0.500000
O O2 0.439812 0.500000 0.530118
O O3 0.387609 0.254274 0.558600
O O4 0.506565 0.318951 0.340791
O O5 0.735664 0.827319 0.314978
O O6 0.735430 0.749321 0.170310
O O7 0.791136 0.000000 0.131066
O O8 0.853827 0.755989 0.086087
O O9 0.354568 0.779443 0.450387
O O10 0.375311 0.000000 0.515698
O O11 0.107319 0.280297 0.112582
O O12 0.133179 0.175680 0.219123
O O13 0.098075 0.000000 0.152750
O O14 0.047192 0.500000 0.874734
O O15 0.115945 0.271274 0.738548
O O16 0.986431 0.299847 0.869709
O O17 0.000000 0.259272 0.000000
O O18 0.250000 0.750000 0.500000
O O19 0.314514 0.000000 0.416497
O O20 0.612118 0.000000 0.010708
O O21 0.243123 0.000000 0.085835
O O22 0.250000 0.750000 0.000000
#
# Coordination Sequence:
#
# PCOD8106195 Si02
#       8
#     8   8   8   8   8   8   8   8
#     4  10  21  38  60  87 117 155 203 255 305 361
#     4  11  23  38  56  82 122 163 202 253 308 359
#     4  10  23  41  60  86 123 165 206 255 311 370
#     4  10  21  36  56  81 117 154 188 244 308 356
#     4   9  20  39  63  92 123 154 195 252 308 366
#     4  10  22  42  67  94 127 163 206 256 315 377
#     4  11  22  36  60  88 114 153 204 248 300 363
#     4  11  21  35  55  82 117 158 203 248 302 360
#
# _framework density 21.278161999999998
#
# number of rings (size 3 to 8) (size 9 to 14) (size 15 to 20)
#    0.000    1.750    1.250    2.625    1.750    4.750 
#    0.000    1.250    0.000    1.875    0.000    0.000 
#    0.000    0.000    0.000    0.000    0.000    0.000 
#
# Total GULP energy -396661.010437 kJ/mol
# GULP energy per Si atom -12395.656576 kJ/mol
# Density = 2.122973 g / cm^3
# Si number density = 21.278162 Si / 1000 Ang^3
#
#
#
# Elastic Constant Matrix: (Units=GPa)
#
#
# Indices 1 2 3 4 5 6 
#
# 1 87.4245 36.4517 42.8415 0.0027 -6.6053 0.0003
# 2 36.4517 96.8490 38.6414 0.0046 -6.7444 -0.0052
# 3 42.8415 38.6414 129.4491 0.0042 -9.5016 -0.0011
# 4 0.0027 0.0046 0.0042 25.6156 -0.0030 -6.8069
# 5 -6.6053 -6.7444 -9.5016 -0.0030 35.1304 0.0000
# 6 0.0003 -0.0052 -0.0011 -6.8069 0.0000 25.6370
#
#
#
# Elastic Compliance Matrix: (Units=1/GPa)
#
#
# Indices 1 2 3 4 5 6 
#
# 1 0.015034 -0.004122 -0.003668 0.000000 0.001043 -0.000001
# 2 -0.004122 0.012913 -0.002413 -0.000001 0.001051 0.000002
# 3 -0.003668 -0.002413 0.009769 -0.000001 0.001489 0.000000
# 4 0.000000 -0.000001 -0.000001 0.042002 0.000003 0.011152
# 5 0.001043 0.001051 0.001489 0.000003 0.029266 0.000001
# 6 -0.000001 0.000002 0.000000 0.011152 0.000001 0.041967
#
#
# Mechanical properties :
#
#
# Convention : Reuss Voigt Hill
#
# Bulk Modulus (GPa) = 57.77689 61.06577 59.42133
# Shear Modulus (GPa) = 28.22835 30.32915 29.27875
#
# Velocity S-wave (km/s) = 3.64625 3.77950 3.71347
# Velocity P-wave (km/s) = 6.70365 6.91428 6.80978
#
# Compressibility (1/GPa) = 0.01730796
#
# Stress axis : x y z
#
# Youngs Moduli (GPa) = 66.51776 77.44240 102.36714
#
# Poissons Ratio (x) = 0.31922 0.37552
# Poissons Ratio (y) = 0.27419 0.24703
# Poissons Ratio (z) = 0.24401 0.18688
#
# Static dielectric constant tensor:
#      x y z
#    x 2.444270 -0.000010 -0.149650 
#    y -0.000010 3.695040 0.000000 
#    z -0.149650 0.000000 4.092810 
# 
# 
# High freq. dielectric constant tensor:
#      x y z
#    x 1.826150 0.000000 -0.005730 
#    y 0.000000 1.812250 0.000000 
#    z -0.005730 0.000000 1.852170 
# 
# From -- ./inp_files/295555.got.cif
#   From: 2010.06.25/outbox.cif.g09.slc.cpg/sg12_148_cif.got.tgz:295555.got - 2010.06.28 00:19:55.
