data_PCOD8106864
_publ_section_title
;
Structure prediction by ZEFSAII (Michael W. Deem and Ramdas Pophale) SiO2 
 PCOD8106864
Probable space group: C 2/M
;
_chemical_formula_sum "Si O2"
_cell_formula_units_Z 64
_cell_length_a 34.590986
_cell_length_b 9.034934
_cell_length_c 18.702208
_cell_angle_alpha 90.000000
_cell_angle_beta 144.181763
_cell_angle_gamma 90.000000
_cell_volume 3420.557176
_symmetry_space_group_name_H-M "C 2/M"
_symmetry_group_IT_number 12
_symmetry_cell_setting 'monoclinic'
loop_
_space_group_symop_operation_xyz
x,y,z
-x,y,-z
-x,-y,-z
x,-y,z
1/2+x,1/2+y,z
1/2-x,1/2+y,-z
1/2-x,1/2-y,-z
1/2+x,1/2-y,z
loop_
_atom_site_type_symbol
_atom_site_label
_atom_site_fract_x
_atom_site_fract_y
_atom_site_fract_z
Si Si1 0.222784 0.173565 0.354741
Si Si2 0.387100 0.171614 0.220710
Si Si3 0.475800 0.171561 0.738422
Si Si4 0.108598 0.170803 0.919483
Si Si5 0.040224 0.667478 0.448855
Si Si6 0.848634 0.174439 0.301336
Si Si7 0.268911 0.670892 0.795476
Si Si8 0.151245 0.674024 0.367037
O O1 0.219789 0.224931 0.268426
O O2 0.163046 0.250282 0.308178
O O3 0.292772 0.224774 0.492698
O O4 0.212461 0.000000 0.346300
O O5 0.369356 0.241024 0.117798
O O6 0.464063 0.194025 0.354363
O O7 0.343845 0.251413 0.216156
O O8 0.367789 0.000000 0.189103
O O9 0.540347 0.268753 0.849562
O O10 0.447870 0.196525 0.616943
O O11 0.419778 0.224073 0.709573
O O12 0.495028 0.000000 0.777218
O O13 0.099662 0.000000 0.885401
O O14 0.163156 0.194826 0.061388
O O15 0.061325 0.500000 0.500823
O O16 0.083367 0.781656 0.558227
O O17 0.787339 0.227966 0.255738
O O18 0.846017 0.000000 0.288096
O O19 0.245647 0.500000 0.762836
O O20 0.153399 0.500000 0.359444
#
# Coordination Sequence:
#
# PCOD8106864 Si02
#       8
#     8   8   8   8   8   8   8   8
#     4   9  18  34  55  78 106 139 173 211 257 311
#     4  10  21  38  58  77 104 143 177 210 262 322
#     4   9  18  34  56  79 107 145 179 209 259 323
#     4  10  21  37  57  79 102 133 179 230 266 299
#     4   9  18  34  55  78 107 143 176 207 256 321
#     4  12  24  34  52  82 109 135 173 223 268 308
#     4  10  22  40  57  73 102 144 181 215 264 321
#     4   9  17  31  54  83 110 136 170 211 257 311
#
# _framework density 18.710401000000001
#
# number of rings (size 3 to 8) (size 9 to 14) (size 15 to 20)
#    0.000    2.250    0.000    3.750    0.000    8.500 
#    0.000    3.125    0.000    3.750    0.000    0.000 
#    0.000    0.000    0.000    0.000    0.000    0.000 
#
# Total GULP energy -396921.871382 kJ/mol
# GULP energy per Si atom -12403.808481 kJ/mol
# Density = 1.866782 g / cm^3
# Si number density = 18.710401 Si / 1000 Ang^3
#
#
#
# Elastic Constant Matrix: (Units=GPa)
#
#
# Indices 1 2 3 4 5 6 
#
# 1 152.8837 63.7866 48.9723 0.0000 -16.6794 0.0000
# 2 63.7866 100.9011 43.5817 0.0000 -9.4583 0.0000
# 3 48.9723 43.5817 72.5032 0.0000 -15.4546 0.0000
# 4 0.0000 0.0000 0.0000 27.3618 0.0000 1.5712
# 5 -16.6794 -9.4583 -15.4546 0.0000 11.7027 0.0000
# 6 0.0000 0.0000 0.0000 1.5712 0.0000 35.8374
#
#
#
# Elastic Compliance Matrix: (Units=1/GPa)
#
#
# Indices 1 2 3 4 5 6 
#
# 1 0.010051 -0.004605 -0.002450 0.000000 0.007367 0.000000
# 2 -0.004605 0.015496 -0.006867 0.000000 -0.003107 0.000000
# 3 -0.002450 -0.006867 0.024562 0.000000 0.023394 0.000000
# 4 0.000000 0.000000 0.000000 0.036640 0.000000 -0.001606
# 5 0.007367 -0.003107 0.023394 0.000000 0.124334 0.000000
# 6 0.000000 0.000000 0.000000 -0.001606 0.000000 0.027974
#
#
# Mechanical properties :
#
#
# Convention : Reuss Voigt Hill
#
# Bulk Modulus (GPa) = 44.91376 70.99659 57.95517
# Shear Modulus (GPa) = 18.22667 26.31020 22.26844
#
# Velocity S-wave (km/s) = 3.12452 3.75398 3.45362
# Velocity P-wave (km/s) = 6.08881 7.53771 6.85167
#
# Compressibility (1/GPa) = 0.02226489
#
# Stress axis : x y z
#
# Youngs Moduli (GPa) = 99.49369 64.53082 40.71325
#
# Poissons Ratio (x) = 0.29715 0.09977
# Poissons Ratio (y) = 0.45815 0.27957
# Poissons Ratio (z) = 0.24381 0.44313
#
# Static dielectric constant tensor:
#      x y z
#    x 3.610290 0.000000 -0.003130 
#    y 0.000000 3.393800 0.000000 
#    z -0.003130 0.000000 3.280800 
# 
# 
# High freq. dielectric constant tensor:
#      x y z
#    x 1.736290 0.000000 -0.000610 
#    y 0.000000 1.723530 0.000000 
#    z -0.000610 0.000000 1.711660 
# 
# From -- ./inp_files/295685.got.cif
#   From: 2010.06.25/outbox.cif.g09.slc.cpg/sg12_148_cif.got.tgz:295685.got - 2010.06.28 00:19:55.
