data_PCOD8106589
_publ_section_title
;
Structure prediction by ZEFSAII (Michael W. Deem and Ramdas Pophale) SiO2 
 PCOD8106589
Probable space group: C 2/M
;
_chemical_formula_sum "Si O2"
_cell_formula_units_Z 56
_cell_length_a 24.011190
_cell_length_b 16.319799
_cell_length_c 9.330717
_cell_angle_alpha 90.000000
_cell_angle_beta 50.889923
_cell_angle_gamma 90.000000
_cell_volume 2837.063880
_symmetry_space_group_name_H-M "C 2/M"
_symmetry_group_IT_number 12
_symmetry_cell_setting 'monoclinic'
loop_
_space_group_symop_operation_xyz
x,y,z
-x,y,-z
-x,-y,-z
x,-y,z
1/2+x,1/2+y,z
1/2-x,1/2+y,-z
1/2-x,1/2-y,-z
1/2+x,1/2-y,z
loop_
_atom_site_type_symbol
_atom_site_label
_atom_site_fract_x
_atom_site_fract_y
_atom_site_fract_z
Si Si1 0.085167 0.190961 0.385675
Si Si2 0.157155 0.671182 0.106071
Si Si3 0.696127 0.597039 0.022700
Si Si4 0.811944 0.781919 0.202344
Si Si5 0.405580 0.904422 0.295877
Si Si6 0.157428 0.756685 0.533328
Si Si7 0.438214 0.090991 0.932359
O O1 0.118442 0.280427 0.296024
O O2 0.124717 0.120045 0.229235
O O3 0.104178 0.186386 0.524114
O O4 0.000000 0.184539 0.500000
O O5 0.108768 0.594031 0.137011
O O6 0.237744 0.645809 0.011360
O O7 0.146773 0.728348 0.982710
O O8 0.708137 0.500000 0.006993
O O9 0.693203 0.627467 0.862405
O O10 0.853286 0.789850 0.286482
O O11 0.738243 0.732606 0.347724
O O12 0.353134 0.842286 0.462930
O O13 0.484130 0.866892 0.209664
O O14 0.389813 0.000000 0.363598
O O15 0.393004 0.885168 0.147405
O O16 0.464526 0.000000 0.919659
#
# Coordination Sequence:
#
# PCOD8106589 Si02
#       7
#     8   8   8   8   8   8   8
#     4  11  23  39  62  90 119 153 198 244 296 355
#     4  11  18  39  58  84 114 154 200 234 285 352
#     4  11  23  42  62  84 117 156 200 246 297 355
#     4  10  21  36  61  82 112 149 199 245 281 347
#     4   9  18  30  48  79 118 151 183 228 284 340
#     4  11  19  37  58  84 118 150 193 247 286 341
#     4   9  17  30  49  79 113 151 188 220 276 346
#
# _framework density 19.738717000000001
#
# number of rings (size 3 to 8) (size 9 to 14) (size 15 to 20)
#    0.000    1.714    4.286    3.000    0.000    0.857 
#    0.000    0.714    0.000    3.857    0.000    0.000 
#    0.000    0.000    0.000    0.000    0.000    0.000 
#
# Total GULP energy -346868.115812 kJ/mol
# GULP energy per Si atom -12388.146993 kJ/mol
# Density = 1.969379 g / cm^3
# Si number density = 19.738717 Si / 1000 Ang^3
#
#
#
# Elastic Constant Matrix: (Units=GPa)
#
#
# Indices 1 2 3 4 5 6 
#
# 1 123.3790 20.1411 44.2987 0.0000 8.6917 0.0000
# 2 20.1411 63.7190 22.8419 0.0000 7.5059 0.0000
# 3 44.2987 22.8419 67.3384 0.0000 8.5180 0.0000
# 4 0.0000 0.0000 0.0000 20.8167 0.0000 -0.1607
# 5 8.6917 7.5059 8.5180 0.0000 34.9224 0.0000
# 6 0.0000 0.0000 0.0000 -0.1607 0.0000 22.9717
#
#
#
# Elastic Compliance Matrix: (Units=1/GPa)
#
#
# Indices 1 2 3 4 5 6 
#
# 1 0.010689 -0.000906 -0.006616 0.000000 -0.000852 0.000000
# 2 -0.000906 0.018147 -0.005257 0.000000 -0.002393 0.000000
# 3 -0.006616 -0.005257 0.021292 0.000000 -0.002417 0.000000
# 4 0.000000 0.000000 0.000000 0.048041 0.000000 0.000336
# 5 -0.000852 -0.002393 -0.002417 0.000000 0.029951 0.000000
# 6 0.000000 0.000000 0.000000 0.000336 0.000000 0.043534
#
#
# Mechanical properties :
#
#
# Convention : Reuss Voigt Hill
#
# Bulk Modulus (GPa) = 40.70290 47.66665 44.18478
# Shear Modulus (GPa) = 24.34265 26.88582 25.61423
#
# Velocity S-wave (km/s) = 3.51557 3.69465 3.60622
# Velocity P-wave (km/s) = 6.09463 6.51167 6.30660
#
# Compressibility (1/GPa) = 0.02456827
#
# Stress axis : x y z
#
# Youngs Moduli (GPa) = 93.55723 55.10663 46.96655
#
# Poissons Ratio (x) = 0.04995 0.31075
# Poissons Ratio (y) = 0.08481 0.24688
# Poissons Ratio (z) = 0.61901 0.28967
#
# Static dielectric constant tensor:
#      x y z
#    x 3.663690 0.000000 0.188960 
#    y 0.000000 3.378790 0.000000 
#    z 0.188960 0.000000 3.588890 
# 
# 
# High freq. dielectric constant tensor:
#      x y z
#    x 1.775910 0.000000 0.009330 
#    y 0.000000 1.740050 0.000000 
#    z 0.009330 0.000000 1.764850 
# 
# From -- ./inp_files/98041.got.cif
#   From: 2010.06.25/outbox.cif.g09.slc.cpg/sg12_50_cif.got.tgz:98041.got - 2010.06.28 00:19:55.
