data_PCOD8106271
_publ_section_title
;
Structure prediction by ZEFSAII (Michael W. Deem and Ramdas Pophale) SiO2 
 PCOD8106271
Probable space group: C 2/M
;
_chemical_formula_sum "Si O2"
_cell_formula_units_Z 48
_cell_length_a 9.456385
_cell_length_b 16.152177
_cell_length_c 16.944643
_cell_angle_alpha 90.000000
_cell_angle_beta 87.122215
_cell_angle_gamma 90.000000
_cell_volume 2584.881264
_symmetry_space_group_name_H-M "C 2/M"
_symmetry_group_IT_number 12
_symmetry_cell_setting 'monoclinic'
loop_
_space_group_symop_operation_xyz
x,y,z
-x,y,-z
-x,-y,-z
x,-y,z
1/2+x,1/2+y,z
1/2-x,1/2+y,-z
1/2-x,1/2-y,-z
1/2+x,1/2-y,z
loop_
_atom_site_type_symbol
_atom_site_label
_atom_site_fract_x
_atom_site_fract_y
_atom_site_fract_z
Si Si1 0.545875 0.592944 0.910835
Si Si2 0.675127 0.909192 0.653914
Si Si3 0.738586 0.591714 0.177405
Si Si4 0.458095 0.775758 0.704720
Si Si5 0.186470 0.771009 0.811803
Si Si6 0.145099 0.804707 0.451345
O O1 0.612212 0.500000 0.906911
O O2 0.413812 0.597312 0.856532
O O3 0.658779 0.661815 0.880941
O O4 0.500000 0.616171 0.000000
O O5 0.778317 0.902980 0.727364
O O6 0.532169 0.858565 0.671981
O O7 0.764962 0.885679 0.573586
O O8 0.617547 0.000000 0.640635
O O9 0.807247 0.500000 0.153320
O O10 0.825003 0.676041 0.151818
O O11 0.341223 0.792744 0.774742
O O12 0.576260 0.717772 0.742636
O O13 0.385787 0.737040 0.630948
O O14 0.250000 0.750000 0.500000
O O15 0.000000 0.827012 0.500000
#
# Coordination Sequence:
#
# PCOD8106271 Si02
#       6
#     8   8   8   8   8   8
#     4  10  21  36  56  86 121 151 186 236 288 337
#     4  10  21  37  58  82 113 145 190 243 287 331
#     4   9  18  35  58  80 110 152 187 229 283 336
#     4  11  20  37  58  85 109 147 196 231 281 339
#     4  11  19  36  62  84 110 152 195 236 272 349
#     4  12  21  35  58  82 112 151 185 233 288 346
#
# _framework density 18.569517000000001
#
# number of rings (size 3 to 8) (size 9 to 14) (size 15 to 20)
#    0.000    1.500    6.667    0.000    0.000    1.667 
#    0.000    1.667    0.000    4.500    0.000    0.000 
#    0.000    0.000    0.000    0.000    0.000    0.000 
#
# Total GULP energy -297333.759051 kJ/mol
# GULP energy per Si atom -12388.906627 kJ/mol
# Density = 1.852725 g / cm^3
# Si number density = 18.569517 Si / 1000 Ang^3
#
#
#
# Elastic Constant Matrix: (Units=GPa)
#
#
# Indices 1 2 3 4 5 6 
#
# 1 80.8775 34.1094 23.8361 0.0000 -15.1147 0.0000
# 2 34.1094 138.4144 49.2963 0.0000 -26.6517 0.0000
# 3 23.8361 49.2963 52.8170 0.0000 -20.7314 0.0000
# 4 0.0000 0.0000 0.0000 29.7676 0.0000 -11.4917
# 5 -15.1147 -26.6517 -20.7314 0.0000 25.9044 0.0000
# 6 0.0000 0.0000 0.0000 -11.4917 0.0000 22.5195
#
#
#
# Elastic Compliance Matrix: (Units=1/GPa)
#
#
# Indices 1 2 3 4 5 6 
#
# 1 0.014871 -0.001579 -0.003600 0.000000 0.004171 0.000000
# 2 -0.001579 0.011353 -0.008253 0.000000 0.004154 0.000000
# 3 -0.003600 -0.008253 0.035143 0.000000 0.017533 0.000000
# 4 0.000000 0.000000 0.000000 0.041835 0.000000 0.021348
# 5 0.004171 0.004154 0.017533 0.000000 0.059343 0.000000
# 6 0.000000 0.000000 0.000000 0.021348 0.000000 0.055300
#
#
# Mechanical properties :
#
#
# Convention : Reuss Voigt Hill
#
# Bulk Modulus (GPa) = 28.98360 54.06584 41.52472
# Shear Modulus (GPa) = 19.51521 26.62945 23.07233
#
# Velocity S-wave (km/s) = 3.24532 3.79098 3.52871
# Velocity P-wave (km/s) = 5.44838 6.95274 6.24602
#
# Compressibility (1/GPa) = 0.03450227
#
# Stress axis : x y z
#
# Youngs Moduli (GPa) = 67.24540 88.08189 28.45531
#
# Poissons Ratio (x) = 0.13912 0.10244
# Poissons Ratio (y) = 0.10621 0.23484
# Poissons Ratio (z) = 0.24208 0.72693
#
# Static dielectric constant tensor:
#      x y z
#    x 3.407030 0.000000 0.049260 
#    y 0.000000 3.925510 0.000000 
#    z 0.049260 0.000000 3.475320 
# 
# 
# High freq. dielectric constant tensor:
#      x y z
#    x 1.708030 0.000000 0.013620 
#    y 0.000000 1.724770 0.000000 
#    z 0.013620 0.000000 1.715520 
# 
# From -- ./inp_files/255761.got.cif
#   From: 2010.06.25/outbox.cif.g09.slc.cpg/sg12_128_cif.got.tgz:255761.got - 2010.06.28 00:19:55.
