data_PCOD8106901
_publ_section_title
;
Structure prediction by ZEFSAII (Michael W. Deem and Ramdas Pophale) SiO2 
 PCOD8106901
Probable space group: C 2/M
;
_chemical_formula_sum "Si O2"
_cell_formula_units_Z 56
_cell_length_a 8.870140
_cell_length_b 15.864796
_cell_length_c 29.320070
_cell_angle_alpha 90.000000
_cell_angle_beta 40.859133
_cell_angle_gamma 90.000000
_cell_volume 2699.240124
_symmetry_space_group_name_H-M "C 2/M"
_symmetry_group_IT_number 12
_symmetry_cell_setting 'monoclinic'
loop_
_space_group_symop_operation_xyz
x,y,z
-x,y,-z
-x,-y,-z
x,-y,z
1/2+x,1/2+y,z
1/2-x,1/2+y,-z
1/2-x,1/2-y,-z
1/2+x,1/2-y,z
loop_
_atom_site_type_symbol
_atom_site_label
_atom_site_fract_x
_atom_site_fract_y
_atom_site_fract_z
Si Si1 0.759862 0.500000 0.424691
Si Si2 0.328552 0.335690 0.339949
Si Si3 0.479651 0.840084 0.078462
Si Si4 0.383315 0.000000 0.575310
Si Si5 0.628045 0.659917 0.078463
Si Si6 0.192798 0.404704 0.791490
Si Si7 0.028303 0.335689 0.660049
Si Si8 0.849752 0.595296 0.791489
O O1 0.500000 0.500000 0.500000
O O2 0.921707 0.500000 0.431318
O O3 0.804200 0.415841 0.384911
O O4 0.271257 0.415842 0.384907
O O5 0.583516 0.345779 0.260910
O O6 0.149521 0.327398 0.340191
O O7 0.320865 0.250000 0.371654
O O8 0.527026 0.750001 0.089192
O O9 0.262072 0.833312 0.095173
O O10 0.423944 0.903455 0.132084
O O11 0.703467 0.873785 0.999999
O O12 0.500000 0.000000 0.500000
O O13 0.415642 0.596547 0.132085
O O14 0.269033 0.500000 0.763906
O O15 0.012096 0.372117 0.795161
O O16 0.888074 0.345779 0.739088
O O17 0.911433 0.500000 0.763906
#
# Coordination Sequence:
#
# PCOD8106901 Si02
#       8
#     4   8   8   4   8   8   8   8
#     4  10  24  44  68  96 131 168 205 252 306 365
#     4  11  23  42  66  95 128 167 211 256 308 367
#     4  10  21  37  57  81 113 155 202 254 311 370
#     4  10  24  44  68  96 131 168 205 252 306 365
#     4  10  21  37  57  81 113 155 202 254 311 370
#     4  11  23  38  59  87 119 159 205 257 312 366
#     4  11  23  42  66  95 128 167 211 256 308 367
#     4  11  23  38  59  87 119 159 205 257 312 366
#
# _framework density 20.746580000000002
#
# number of rings (size 3 to 8) (size 9 to 14) (size 15 to 20)
#    0.000    1.429    1.429    3.429    0.000    6.857 
#    0.000    5.714    0.000    0.000    0.000    0.000 
#    0.000    0.000    0.000    0.000    0.000    0.000 
#
# Total GULP energy -347308.049679 kJ/mol
# GULP energy per Si atom -12403.858917 kJ/mol
# Density = 2.069936 g / cm^3
# Si number density = 20.746580 Si / 1000 Ang^3
#
#
#
# Elastic Constant Matrix: (Units=GPa)
#
#
# Indices 1 2 3 4 5 6 
#
# 1 111.3193 52.1807 51.5450 -0.0010 -0.8886 0.0025
# 2 52.1807 132.6924 56.3236 -0.0020 -0.2046 0.0013
# 3 51.5450 56.3236 121.5964 -0.0006 0.3742 -0.0015
# 4 -0.0010 -0.0020 -0.0006 28.5503 -0.0018 0.3148
# 5 -0.8886 -0.2046 0.3742 -0.0018 38.7773 -0.0004
# 6 0.0025 0.0013 -0.0015 0.3148 -0.0004 34.9454
#
#
#
# Elastic Compliance Matrix: (Units=1/GPa)
#
#
# Indices 1 2 3 4 5 6 
#
# 1 0.012205 -0.003240 -0.003674 0.000000 0.000298 -0.000001
# 2 -0.003240 0.010241 -0.003370 0.000001 0.000012 0.000000
# 3 -0.003674 -0.003370 0.011343 0.000000 -0.000211 0.000001
# 4 0.000000 0.000001 0.000000 0.035029 0.000002 -0.000316
# 5 0.000298 0.000012 -0.000211 0.000002 0.025797 0.000000
# 6 -0.000001 0.000000 0.000001 -0.000316 0.000000 0.028619
#
#
# Mechanical properties :
#
#
# Convention : Reuss Voigt Hill
#
# Bulk Modulus (GPa) = 75.63666 76.18962 75.91314
# Shear Modulus (GPa) = 33.73581 34.15850 33.94716
#
# Velocity S-wave (km/s) = 4.03686 4.06207 4.04948
# Velocity P-wave (km/s) = 7.63314 7.66839 7.65078
#
# Compressibility (1/GPa) = 0.01322110
#
# Stress axis : x y z
#
# Youngs Moduli (GPa) = 81.93064 97.64840 88.15851
#
# Poissons Ratio (x) = 0.31635 0.32391
# Poissons Ratio (y) = 0.26543 0.29712
# Poissons Ratio (z) = 0.30103 0.32910
#
# Static dielectric constant tensor:
#      x y z
#    x 3.797680 0.000000 0.004360 
#    y 0.000000 3.782770 0.000010 
#    z 0.004360 0.000010 3.709630 
# 
# 
# High freq. dielectric constant tensor:
#      x y z
#    x 1.821080 0.000000 0.000650 
#    y 0.000000 1.815380 0.000000 
#    z 0.000650 0.000000 1.807940 
# 
# From -- ./inp_files/356703.got.cif
#   From: 2010.06.25/outbox.cif.g09.slc.cpg/sg12_179_cif.got.tgz:356703.got - 2010.06.28 00:19:55.
