data_PCOD8106766
_publ_section_title
;
Structure prediction by ZEFSAII (Michael W. Deem and Ramdas Pophale) SiO2 
 PCOD8106766
Probable space group: C 2/M
;
_chemical_formula_sum "Si O2"
_cell_formula_units_Z 56
_cell_length_a 30.209491
_cell_length_b 9.047620
_cell_length_c 11.546363
_cell_angle_alpha 90.000000
_cell_angle_beta 63.950041
_cell_angle_gamma 90.000000
_cell_volume 2835.295009
_symmetry_space_group_name_H-M "C 2/M"
_symmetry_group_IT_number 12
_symmetry_cell_setting 'monoclinic'
loop_
_space_group_symop_operation_xyz
x,y,z
-x,y,-z
-x,-y,-z
x,-y,z
1/2+x,1/2+y,z
1/2-x,1/2+y,-z
1/2-x,1/2-y,-z
1/2+x,1/2-y,z
loop_
_atom_site_type_symbol
_atom_site_label
_atom_site_fract_x
_atom_site_fract_y
_atom_site_fract_z
Si Si1 0.198237 0.828538 0.542004
Si Si2 0.977841 0.327227 0.208773
Si Si3 0.953494 0.825986 0.474345
Si Si4 0.761869 0.673221 0.867157
Si Si5 0.146723 0.675413 0.388258
Si Si6 0.573922 0.170985 0.965863
Si Si7 0.169858 0.832221 0.830276
O O1 0.250000 0.750000 0.500000
O O2 0.165733 0.746283 0.484861
O O3 0.167722 0.813449 0.695174
O O4 0.206632 0.000000 0.499213
O O5 0.968788 0.500000 0.246843
O O6 0.962792 0.228231 0.333889
O O7 0.946195 0.273423 0.134964
O O8 0.035040 0.298036 0.112803
O O9 0.906316 0.742817 0.582565
O O10 0.000000 0.784861 0.500000
O O11 0.943133 0.000000 0.484519
O O12 0.758706 0.500000 0.890699
O O13 0.815872 0.717029 0.758276
O O14 0.721930 0.728092 0.818527
O O15 0.750000 0.750000 0.000000
O O16 0.143007 0.500000 0.410005
O O17 0.624730 0.248081 0.941582
O O18 0.584854 0.000000 0.942476
O O19 0.163873 0.000000 0.875519
#
# Coordination Sequence:
#
# PCOD8106766 Si02
#       7
#     8   8   8   8   8   8   8
#     4  11  21  36  60  90 124 158 196 243 297 354
#     4   9  19  38  60  84 117 152 191 242 294 348
#     4  11  25  42  60  86 119 155 201 250 299 355
#     4  10  23  42  59  81 115 154 195 239 288 348
#     4  11  23  42  64  88 120 156 199 249 302 357
#     4   9  19  35  58  88 117 148 190 238 291 351
#     4  10  21  37  55  83 121 153 188 237 291 347
#
# _framework density 19.75103
#
# number of rings (size 3 to 8) (size 9 to 14) (size 15 to 20)
#    0.000    1.857    1.429    3.000    0.000    8.571 
#    0.000    7.143    0.000    0.000    0.000    0.000 
#    0.000    0.000    0.000    0.000    0.000    0.000 
#
# Total GULP energy -347248.153143 kJ/mol
# GULP energy per Si atom -12401.719755 kJ/mol
# Density = 1.970608 g / cm^3
# Si number density = 19.751030 Si / 1000 Ang^3
#
#
#
# Elastic Constant Matrix: (Units=GPa)
#
#
# Indices 1 2 3 4 5 6 
#
# 1 122.4832 58.5319 59.4206 0.0000 -23.3085 0.0000
# 2 58.5319 82.1826 52.2450 0.0000 -11.6432 0.0000
# 3 59.4206 52.2450 118.8136 0.0000 -10.6623 0.0000
# 4 0.0000 0.0000 0.0000 35.7444 0.0000 -3.0263
# 5 -23.3085 -11.6432 -10.6623 0.0000 36.3054 0.0000
# 6 0.0000 0.0000 0.0000 -3.0263 0.0000 38.4908
#
#
#
# Elastic Compliance Matrix: (Units=1/GPa)
#
#
# Indices 1 2 3 4 5 6 
#
# 1 0.014447 -0.007210 -0.003523 0.000000 0.005928 0.000000
# 2 -0.007210 0.020887 -0.005539 0.000000 0.000443 0.000000
# 3 -0.003523 -0.005539 0.012583 0.000000 -0.000343 0.000000
# 4 0.000000 0.000000 0.000000 0.028164 0.000000 0.002214
# 5 0.005928 0.000443 -0.000343 0.000000 0.031392 0.000000
# 6 0.000000 0.000000 0.000000 0.002214 0.000000 0.026154
#
#
# Mechanical properties :
#
#
# Convention : Reuss Voigt Hill
#
# Bulk Modulus (GPa) = 65.04551 73.76381 69.40466
# Shear Modulus (GPa) = 29.18933 32.32691 30.75812
#
# Velocity S-wave (km/s) = 3.84847 4.05003 3.95053
# Velocity P-wave (km/s) = 7.26305 7.70053 7.48499
#
# Compressibility (1/GPa) = 0.01537385
#
# Stress axis : x y z
#
# Youngs Moduli (GPa) = 69.21797 47.87639 79.47113
#
# Poissons Ratio (x) = 0.34519 0.27996
# Poissons Ratio (y) = 0.49907 0.44018
# Poissons Ratio (z) = 0.24384 0.26518
#
# Static dielectric constant tensor:
#      x y z
#    x 4.087340 0.000000 -0.134210 
#    y 0.000000 3.554050 0.000000 
#    z -0.134210 0.000000 3.569900 
# 
# 
# High freq. dielectric constant tensor:
#      x y z
#    x 1.774150 0.000000 -0.013000 
#    y 0.000000 1.768420 0.000000 
#    z -0.013000 0.000000 1.772540 
# 
# From -- ./inp_files/181032.got.cif
#   From: 2010.06.25/outbox.cif.g09.slc.cpg/sg12_91_cif.got.tgz:181032.got - 2010.06.28 00:19:55.
