data_PCOD8106917
_publ_section_title
;
Structure prediction by ZEFSAII (Michael W. Deem and Ramdas Pophale) SiO2 
 PCOD8106917
Probable space group: C 2/M
;
_chemical_formula_sum "Si O2"
_cell_formula_units_Z 32
_cell_length_a 9.998792
_cell_length_b 9.202724
_cell_length_c 18.233079
_cell_angle_alpha 90.000000
_cell_angle_beta 105.646199
_cell_angle_gamma 90.000000
_cell_volume 1615.569388
_symmetry_space_group_name_H-M "C 2/M"
_symmetry_group_IT_number 12
_symmetry_cell_setting 'monoclinic'
loop_
_space_group_symop_operation_xyz
x,y,z
-x,y,-z
-x,-y,-z
x,-y,z
1/2+x,1/2+y,z
1/2-x,1/2+y,-z
1/2-x,1/2-y,-z
1/2+x,1/2-y,z
loop_
_atom_site_type_symbol
_atom_site_label
_atom_site_fract_x
_atom_site_fract_y
_atom_site_fract_z
Si Si1 0.594491 0.167284 0.661038
Si Si2 0.374457 0.169077 0.166403
Si Si3 0.565776 0.670694 0.085180
Si Si4 0.323454 0.668812 0.576842
O O1 0.625432 0.213541 0.748645
O O2 0.476359 0.267709 0.609574
O O3 0.736565 0.193217 0.638114
O O4 0.546148 0.000000 0.648039
O O5 0.494590 0.256136 0.144074
O O6 0.227342 0.212428 0.109220
O O7 0.404754 0.000000 0.160578
O O8 0.542816 0.500000 0.090142
O O9 0.500000 0.730018 0.000000
O O10 0.336099 0.500000 0.558634
O O11 0.250000 0.750000 0.500000
#
# Coordination Sequence:
#
# PCOD8106917 Si02
#       4
#     8   8   8   8
#     4  10  22  39  57  81 114 148 185 232 281 330
#     4  10  21  37  57  82 112 147 188 232 279 332
#     4  10  21  37  57  83 115 149 187 232 280 331
#     4  11  23  39  60  85 114 148 186 229 278 332
#
# _framework density 19.807258999999998
#
# number of rings (size 3 to 8) (size 9 to 14) (size 15 to 20)
#    0.000    1.750    0.000    3.750    0.000    9.500 
#    0.000    0.000    0.000    0.000    0.000    0.000 
#    0.000    0.000    0.000    0.000    0.000    0.000 
#
# Total GULP energy -198503.407293 kJ/mol
# GULP energy per Si atom -12406.462956 kJ/mol
# Density = 1.976218 g / cm^3
# Si number density = 19.807259 Si / 1000 Ang^3
#
#
#
# Elastic Constant Matrix: (Units=GPa)
#
#
# Indices 1 2 3 4 5 6 
#
# 1 52.0520 22.5941 -5.1488 0.0000 1.2292 0.0000
# 2 22.5941 58.3705 22.1414 0.0000 1.3819 0.0000
# 3 -5.1488 22.1414 82.0201 0.0000 2.3244 0.0000
# 4 0.0000 0.0000 0.0000 31.1161 0.0000 -3.1138
# 5 1.2292 1.3819 2.3244 0.0000 43.2905 0.0000
# 6 0.0000 0.0000 0.0000 -3.1138 0.0000 38.9391
#
#
#
# Elastic Compliance Matrix: (Units=1/GPa)
#
#
# Indices 1 2 3 4 5 6 
#
# 1 0.024555 -0.011232 0.004590 0.000000 -0.000585 0.000000
# 2 -0.011232 0.024229 -0.007244 0.000000 -0.000066 0.000000
# 3 0.004590 -0.007244 0.014455 0.000000 -0.000675 0.000000
# 4 0.000000 0.000000 0.000000 0.032397 0.000000 0.002591
# 5 -0.000585 -0.000066 -0.000675 0.000000 0.023155 0.000000
# 6 0.000000 0.000000 0.000000 0.002591 0.000000 0.025888
#
#
# Mechanical properties :
#
#
# Convention : Reuss Voigt Hill
#
# Bulk Modulus (GPa) = 28.19506 30.17956 29.18731
# Shear Modulus (GPa) = 27.13368 32.85952 29.99660
#
# Velocity S-wave (km/s) = 3.70521 4.07746 3.89578
# Velocity P-wave (km/s) = 5.70705 6.11860 5.91640
#
# Compressibility (1/GPa) = 0.03546720
#
# Stress axis : x y z
#
# Youngs Moduli (GPa) = 40.72506 41.27284 69.18067
#
# Poissons Ratio (x) = 0.46358 -0.31755
# Poissons Ratio (y) = 0.45743 0.50114
# Poissons Ratio (z) = -0.18693 0.29898
#
# Static dielectric constant tensor:
#      x y z
#    x 3.683020 0.000000 0.117910 
#    y 0.000000 3.556510 0.000000 
#    z 0.117910 0.000000 3.936220 
# 
# 
# High freq. dielectric constant tensor:
#      x y z
#    x 1.781320 0.000000 -0.000010 
#    y 0.000000 1.767830 0.000000 
#    z -0.000010 0.000000 1.788480 
# 
# From -- ./inp_files/193400.got.cif
#   From: 2010.06.25/outbox.cif.g09.slc.cpg/sg12_97_cif.got.tgz:193400.got - 2010.06.28 00:19:55.
