data_PCOD8106388
_publ_section_title
;
Structure prediction by ZEFSAII (Michael W. Deem and Ramdas Pophale) SiO2 
 PCOD8106388
Probable space group: C 2/M
;
_chemical_formula_sum "Si O2"
_cell_formula_units_Z 36
_cell_length_a 8.873930
_cell_length_b 23.031371
_cell_length_c 15.515814
_cell_angle_alpha 90.000000
_cell_angle_beta 35.201131
_cell_angle_gamma 90.000000
_cell_volume 1827.977422
_symmetry_space_group_name_H-M "C 2/M"
_symmetry_group_IT_number 12
_symmetry_cell_setting 'monoclinic'
loop_
_space_group_symop_operation_xyz
x,y,z
-x,y,-z
-x,-y,-z
x,-y,z
1/2+x,1/2+y,z
1/2-x,1/2+y,-z
1/2-x,1/2-y,-z
1/2+x,1/2-y,z
loop_
_atom_site_type_symbol
_atom_site_label
_atom_site_fract_x
_atom_site_fract_y
_atom_site_fract_z
Si Si1 0.500000 0.408160 0.000000
Si Si2 0.208252 0.218503 0.327472
Si Si3 0.596666 0.171612 0.272821
Si Si4 0.078509 0.889144 0.561287
Si Si5 0.279403 0.000000 0.982555
Si Si6 0.619655 0.500000 0.252363
O O1 0.333420 0.370327 0.142887
O O2 0.302462 0.444214 0.033401
O O3 0.487541 0.201933 0.237249
O O4 0.226426 0.277815 0.268114
O O5 0.000000 0.227479 0.500000
O O6 0.106829 0.163573 0.318118
O O7 0.376621 0.134005 0.425521
O O8 0.000000 0.906507 0.500000
O O9 0.041772 0.943786 0.640987
O O10 0.591481 0.000000 0.842957
O O11 0.135229 0.000000 0.141943
#
# Coordination Sequence:
#
# PCOD8106388 Si02
#       6
#     4   8   8   8   4   4
#     4  11  24  42  54  78 120 159 184 228 292 333
#     4   9  18  35  56  84 114 143 181 236 284 324
#     4  10  21  36  58  82 114 151 187 227 279 336
#     4   9  18  34  60  88 114 145 185 233 283 333
#     4  10  24  41  57  80 119 149 181 239 289 322
#     4  11  21  39  65  87 105 146 198 233 271 340
#
# _framework density 19.693895999999999
#
# number of rings (size 3 to 8) (size 9 to 14) (size 15 to 20)
#    0.000    2.667    0.000    5.667    0.000    6.222 
#    0.000    3.333    0.000    0.000    0.000    0.000 
#    0.000    0.000    0.000    0.000    0.000    0.000 
#
# Total GULP energy -223150.013919 kJ/mol
# GULP energy per Si atom -12397.222995 kJ/mol
# Density = 1.964907 g / cm^3
# Si number density = 19.693896 Si / 1000 Ang^3
#
#
#
# Elastic Constant Matrix: (Units=GPa)
#
#
# Indices 1 2 3 4 5 6 
#
# 1 49.2882 39.9703 18.8752 -0.0007 -4.1916 0.0005
# 2 39.9703 161.5899 57.4419 -0.0003 7.5615 0.0002
# 3 18.8752 57.4419 57.9523 0.0006 -1.5903 -0.0004
# 4 -0.0007 -0.0003 0.0006 40.2021 0.0000 8.3804
# 5 -4.1916 7.5615 -1.5903 0.0000 24.9228 0.0000
# 6 0.0005 0.0002 -0.0004 8.3804 0.0000 22.5555
#
#
#
# Elastic Compliance Matrix: (Units=1/GPa)
#
#
# Indices 1 2 3 4 5 6 
#
# 1 0.026630 -0.005944 -0.002614 0.000001 0.006115 -0.000001
# 2 -0.005944 0.011199 -0.009301 0.000000 -0.004991 0.000000
# 3 -0.002614 -0.009301 0.027439 -0.000001 0.004133 0.000001
# 4 0.000001 0.000000 -0.000001 0.026963 0.000000 -0.010018
# 5 0.006115 -0.004991 0.004133 0.000000 0.042930 0.000000
# 6 -0.000001 0.000000 0.000001 -0.010018 0.000000 0.048057
#
#
# Mechanical properties :
#
#
# Convention : Reuss Voigt Hill
#
# Bulk Modulus (GPa) = 33.84064 55.71169 44.77617
# Shear Modulus (GPa) = 21.85441 27.70560 24.78000
#
# Velocity S-wave (km/s) = 3.33484 3.75482 3.55104
# Velocity P-wave (km/s) = 5.66117 6.86647 6.29274
#
# Compressibility (1/GPa) = 0.02955026
#
# Stress axis : x y z
#
# Youngs Moduli (GPa) = 37.55120 89.29637 36.44392
#
# Poissons Ratio (x) = 0.53079 0.09526
# Poissons Ratio (y) = 0.22321 0.33896
# Poissons Ratio (z) = 0.09816 0.83054
#
# Static dielectric constant tensor:
#      x y z
#    x 3.527260 0.000000 -0.068990 
#    y 0.000000 3.849980 0.000000 
#    z -0.068990 0.000000 3.319570 
# 
# 
# High freq. dielectric constant tensor:
#      x y z
#    x 1.757870 0.000000 -0.010390 
#    y 0.000000 1.784300 0.000000 
#    z -0.010390 0.000000 1.744830 
# 
# From -- ./inp_files/40614.got.cif
#   From: 2010.06.25/outbox.cif.g09.slc.cpg/sg12_21_cif.got.tgz:40614.got - 2010.06.28 00:19:55.
