data_PCOD8106980
_publ_section_title
;
Structure prediction by ZEFSAII (Michael W. Deem and Ramdas Pophale) SiO2 
 PCOD8106980
Probable space group: C 2/M
;
_chemical_formula_sum "Si O2"
_cell_formula_units_Z 48
_cell_length_a 30.952201
_cell_length_b 8.799181
_cell_length_c 17.830324
_cell_angle_alpha 90.000000
_cell_angle_beta 149.930704
_cell_angle_gamma 90.000000
_cell_volume 2433.164808
_symmetry_space_group_name_H-M "C 2/M"
_symmetry_group_IT_number 12
_symmetry_cell_setting 'monoclinic'
loop_
_space_group_symop_operation_xyz
x,y,z
-x,y,-z
-x,-y,-z
x,-y,z
1/2+x,1/2+y,z
1/2-x,1/2+y,-z
1/2-x,1/2-y,-z
1/2+x,1/2-y,z
loop_
_atom_site_type_symbol
_atom_site_label
_atom_site_fract_x
_atom_site_fract_y
_atom_site_fract_z
Si Si1 0.662785 0.821710 0.583094
Si Si2 0.666867 0.824085 0.911141
Si Si3 0.000549 0.680489 0.916431
Si Si4 0.330441 0.820564 0.579114
Si Si5 0.001498 0.820811 0.588009
Si Si6 0.174598 0.323313 0.098685
O O1 0.671070 0.770907 0.509488
O O2 0.586136 0.728330 0.504586
O O3 0.750126 0.781013 0.756617
O O4 0.643370 0.000000 0.561307
O O5 0.581163 0.753497 0.749240
O O6 0.667887 0.000000 0.892552
O O7 0.750000 0.750000 0.000000
O O8 0.667300 0.795454 0.999909
O O9 0.997197 0.500000 0.912177
O O10 0.917763 0.744241 0.747717
O O11 0.000000 0.745963 0.000000
O O12 0.086610 0.735398 0.004135
O O13 0.250000 0.750000 0.500000
O O14 0.325176 0.000000 0.579983
O O15 0.000000 0.765237 0.500000
O O16 0.011872 0.000000 0.608557
O O17 0.192885 0.500000 0.144810
#
# Coordination Sequence:
#
# PCOD8106980 Si02
#       6
#     8   8   8   8   8   8
#     4  11  23  38  58  86 119 153 192 241 293 344
#     4  11  23  39  60  86 117 152 192 240 291 344
#     4   9  17  32  56  81 106 142 186 228 275 334
#     4  10  21  37  57  84 116 150 191 238 289 346
#     4  11  24  41  61  86 116 153 197 240 287 348
#     4  10  21  38  59  83 113 150 191 235 286 346
#
# _framework density 19.727394
#
# number of rings (size 3 to 8) (size 9 to 14) (size 15 to 20)
#    0.000    1.667    0.000    4.500    0.000   12.000 
#    0.000    0.833    0.000    3.000    0.000    0.000 
#    0.000    0.000    0.000    0.000    0.000    0.000 
#
# Total GULP energy -297714.522117 kJ/mol
# GULP energy per Si atom -12404.771755 kJ/mol
# Density = 1.968249 g / cm^3
# Si number density = 19.727394 Si / 1000 Ang^3
#
#
#
# Elastic Constant Matrix: (Units=GPa)
#
#
# Indices 1 2 3 4 5 6 
#
# 1 155.2560 44.3769 62.9899 0.0000 12.3631 0.0000
# 2 44.3769 48.0142 38.2868 0.0000 -8.1713 0.0000
# 3 62.9899 38.2868 158.7171 0.0000 7.9647 0.0000
# 4 0.0000 0.0000 0.0000 31.2735 0.0000 6.2128
# 5 12.3631 -8.1713 7.9647 0.0000 39.9302 0.0000
# 6 0.0000 0.0000 0.0000 6.2128 0.0000 30.0018
#
#
#
# Elastic Compliance Matrix: (Units=1/GPa)
#
#
# Indices 1 2 3 4 5 6 
#
# 1 0.009935 -0.008654 -0.001629 0.000000 -0.004522 0.000000
# 2 -0.008654 0.035160 -0.005599 0.000000 0.010991 0.000000
# 3 -0.001629 -0.005599 0.008414 0.000000 -0.002320 0.000000
# 4 0.000000 0.000000 0.000000 0.033348 0.000000 -0.006906
# 5 -0.004522 0.010991 -0.002320 0.000000 0.029156 0.000000
# 6 0.000000 0.000000 0.000000 -0.006906 0.000000 0.034761
#
#
# Mechanical properties :
#
#
# Convention : Reuss Voigt Hill
#
# Bulk Modulus (GPa) = 45.98242 72.58827 59.28534
# Shear Modulus (GPa) = 26.34548 34.66334 30.50441
#
# Velocity S-wave (km/s) = 3.65838 4.19635 3.93656
# Velocity P-wave (km/s) = 6.41908 7.76882 7.12598
#
# Compressibility (1/GPa) = 0.02174744
#
# Stress axis : x y z
#
# Youngs Moduli (GPa) = 100.65112 28.44108 118.85157
#
# Poissons Ratio (x) = 0.24612 0.19356
# Poissons Ratio (y) = 0.87100 0.66543
# Poissons Ratio (z) = 0.16392 0.15924
#
# Static dielectric constant tensor:
#      x y z
#    x 3.828650 0.000000 -0.093780 
#    y 0.000000 3.450650 0.000000 
#    z -0.093780 0.000000 3.678920 
# 
# 
# High freq. dielectric constant tensor:
#      x y z
#    x 1.790750 0.000000 0.000040 
#    y 0.000000 1.753140 0.000000 
#    z 0.000040 0.000000 1.789920 
# 
# From -- ./inp_files/295337.got.cif
#   From: 2010.06.25/outbox.cif.g09.slc.cpg/sg12_148_cif.got.tgz:295337.got - 2010.06.28 00:19:55.
