data_PCOD8106505
_publ_section_title
;
Structure prediction by ZEFSAII (Michael W. Deem and Ramdas Pophale) SiO2 
 PCOD8106505
Probable space group: C 2/M
;
_chemical_formula_sum "Si O2"
_cell_formula_units_Z 48
_cell_length_a 13.286920
_cell_length_b 19.418252
_cell_length_c 10.829354
_cell_angle_alpha 90.000000
_cell_angle_beta 56.925473
_cell_angle_gamma 90.000000
_cell_volume 2341.321373
_symmetry_space_group_name_H-M "C 2/M"
_symmetry_group_IT_number 12
_symmetry_cell_setting 'monoclinic'
loop_
_space_group_symop_operation_xyz
x,y,z
-x,y,-z
-x,-y,-z
x,-y,z
1/2+x,1/2+y,z
1/2-x,1/2+y,-z
1/2-x,1/2-y,-z
1/2+x,1/2-y,z
loop_
_atom_site_type_symbol
_atom_site_label
_atom_site_fract_x
_atom_site_fract_y
_atom_site_fract_z
Si Si1 0.165280 0.826233 0.148535
Si Si2 0.404968 0.292858 0.336204
Si Si3 0.860970 0.422514 0.618993
Si Si4 0.865424 0.580745 0.119582
Si Si5 0.684680 0.850628 0.594893
Si Si6 0.226008 0.191246 0.832542
O O1 0.259152 0.888086 0.106372
O O2 0.206283 0.763629 0.207886
O O3 0.026502 0.836095 0.280397
O O4 0.155991 0.812976 0.008516
O O5 0.418417 0.209066 0.338464
O O6 0.314313 0.312975 0.508148
O O7 0.362235 0.309412 0.225181
O O8 0.821770 0.500000 0.680593
O O9 0.801715 0.399158 0.532119
O O10 0.819993 0.372242 0.757335
O O11 0.000000 0.417100 0.500000
O O12 0.862383 0.500000 0.098374
O O13 0.835509 0.598098 0.279695
O O14 0.000000 0.609391 0.000000
#
# Coordination Sequence:
#
# PCOD8106505 Si02
#       6
#     8   8   8   8   8   8
#     4  11  23  38  65  92 125 168 211 256 314 380
#     4  10  21  39  63  95 126 160 210 262 311 365
#     4  10  21  36  59  88 121 164 209 255 310 372
#     4  11  26  44  64  92 128 167 211 266 324 380
#     4  10  21  40  62  91 127 163 205 262 313 367
#     4  10  22  37  59  93 125 162 205 260 309 368
#
# _framework density 20.501242999999999
#
# number of rings (size 3 to 8) (size 9 to 14) (size 15 to 20)
#    0.000    1.667    1.667    2.000    7.000    1.333 
#    0.000    5.000    0.000    5.000    0.000    0.000 
#    0.000    0.000    0.000    0.000    0.000    0.000 
#
# Total GULP energy -297394.889924 kJ/mol
# GULP energy per Si atom -12391.453747 kJ/mol
# Density = 2.045458 g / cm^3
# Si number density = 20.501243 Si / 1000 Ang^3
#
#
#
# Elastic Constant Matrix: (Units=GPa)
#
#
# Indices 1 2 3 4 5 6 
#
# 1 90.0996 33.0230 45.0558 0.0000 -19.4779 0.0000
# 2 33.0230 105.2597 25.0011 0.0000 -14.7937 0.0000
# 3 45.0558 25.0011 83.8414 0.0000 -8.2115 0.0000
# 4 0.0000 0.0000 0.0000 30.7844 0.0000 -4.4824
# 5 -19.4779 -14.7937 -8.2115 0.0000 29.9767 0.0000
# 6 0.0000 0.0000 0.0000 -4.4824 0.0000 19.8204
#
#
#
# Elastic Compliance Matrix: (Units=1/GPa)
#
#
# Indices 1 2 3 4 5 6 
#
# 1 0.017787 -0.002538 -0.008007 0.000000 0.008111 0.000000
# 2 -0.002538 0.011164 -0.001631 0.000000 0.003413 0.000000
# 3 -0.008007 -0.001631 0.016573 0.000000 -0.001468 0.000000
# 4 0.000000 0.000000 0.000000 0.033590 0.000000 0.007597
# 5 0.008111 0.003413 -0.001468 0.000000 0.039912 0.000000
# 6 0.000000 0.000000 0.000000 0.007597 0.000000 0.052171
#
#
# Mechanical properties :
#
#
# Convention : Reuss Voigt Hill
#
# Bulk Modulus (GPa) = 47.23428 53.92895 50.58161
# Shear Modulus (GPa) = 24.67849 27.85769 26.26809
#
# Velocity S-wave (km/s) = 3.47328 3.69023 3.58340
# Velocity P-wave (km/s) = 6.25897 6.67228 6.46893
#
# Compressibility (1/GPa) = 0.02117106
#
# Stress axis : x y z
#
# Youngs Moduli (GPa) = 56.22152 89.57617 60.34008
#
# Poissons Ratio (x) = 0.22738 0.48315
# Poissons Ratio (y) = 0.14271 0.09839
# Poissons Ratio (z) = 0.45017 0.14606
#
# Static dielectric constant tensor:
#      x y z
#    x 1.764550 0.000000 0.435060 
#    y 0.000000 3.783360 0.000000 
#    z 0.435060 0.000000 3.664600 
# 
# 
# High freq. dielectric constant tensor:
#      x y z
#    x 1.791170 0.000000 0.003780 
#    y 0.000000 1.791150 0.000000 
#    z 0.003780 0.000000 1.812770 
# 
# From -- ./inp_files/146935.got.cif
#   From: 2010.06.25/outbox.cif.g09.slc.cpg/sg12_74_cif.got.tgz:146935.got - 2010.06.28 00:19:55.
