data_PCOD8106833
_publ_section_title
;
Structure prediction by ZEFSAII (Michael W. Deem and Ramdas Pophale) SiO2 
 PCOD8106833
Probable space group: C 2/M
;
_chemical_formula_sum "Si O2"
_cell_formula_units_Z 64
_cell_length_a 30.020961
_cell_length_b 13.131262
_cell_length_c 9.954217
_cell_angle_alpha 90.000000
_cell_angle_beta 120.220389
_cell_angle_gamma 90.000000
_cell_volume 3390.783238
_symmetry_space_group_name_H-M "C 2/M"
_symmetry_group_IT_number 12
_symmetry_cell_setting 'monoclinic'
loop_
_space_group_symop_operation_xyz
x,y,z
-x,y,-z
-x,-y,-z
x,-y,z
1/2+x,1/2+y,z
1/2-x,1/2+y,-z
1/2-x,1/2-y,-z
1/2+x,1/2-y,z
loop_
_atom_site_type_symbol
_atom_site_label
_atom_site_fract_x
_atom_site_fract_y
_atom_site_fract_z
Si Si1 0.818180 0.752624 0.230869
Si Si2 0.864441 0.117018 0.829535
Si Si3 0.025479 0.883862 0.407683
Si Si4 0.717628 0.618970 0.070521
Si Si5 0.417020 0.885249 0.390028
Si Si6 0.636745 0.379857 0.480230
Si Si7 0.531376 0.696576 0.920602
Si Si8 0.996512 0.613131 0.274503
O O1 0.772100 0.672941 0.172596
O O2 0.870105 0.689534 0.295642
O O3 0.819847 0.822080 0.367131
O O4 0.813560 0.827409 0.096711
O O5 0.812612 0.132156 0.835627
O O6 0.854882 0.151398 0.661958
O O7 0.883410 0.000000 0.862277
O O8 0.908028 0.187958 0.960993
O O9 0.080901 0.839966 0.447092
O O10 0.000000 0.828127 0.500000
O O11 0.983716 0.874158 0.227021
O O12 0.034855 0.000000 0.459748
O O13 0.725454 0.500000 0.047285
O O14 0.452802 0.847876 0.568610
O O15 0.448455 0.886496 0.300646
O O16 0.397564 0.000000 0.391541
O O17 0.643664 0.500000 0.509883
O O18 0.515253 0.813045 0.867439
O O19 0.500000 0.655273 0.000000
O O20 0.005588 0.500000 0.230625
#
# Coordination Sequence:
#
# PCOD8106833 Si02
#       8
#     8   8   8   8   8   8   8   8
#     4  11  21  36  61  86 108 137 186 234 277 330
#     4  10  22  39  56  79 115 150 182 221 276 338
#     4  10  22  35  52  85 120 150 186 227 270 329
#     4  10  23  40  58  83 111 143 180 228 283 332
#     4   9  18  34  57  81 108 143 183 231 275 322
#     4  10  21  37  56  82 115 148 183 226 275 326
#     4  12  22  33  56  82 114 153 185 221 273 336
#     4   9  20  35  52  79 112 147 187 226 271 319
#
# _framework density 18.874694999999999
#
# number of rings (size 3 to 8) (size 9 to 14) (size 15 to 20)
#    0.000    1.875    1.250    3.375    5.250    1.250 
#    0.000    0.000    0.000    0.750    0.000    0.000 
#    0.000    0.000    0.000    0.000    0.000    0.000 
#
# Total GULP energy -396793.630007 kJ/mol
# GULP energy per Si atom -12399.800938 kJ/mol
# Density = 1.883174 g / cm^3
# Si number density = 18.874695 Si / 1000 Ang^3
#
#
#
# Elastic Constant Matrix: (Units=GPa)
#
#
# Indices 1 2 3 4 5 6 
#
# 1 97.8545 46.8996 58.5477 0.0000 -3.4247 0.0000
# 2 46.8996 91.1161 54.6810 0.0000 7.7086 0.0000
# 3 58.5477 54.6810 134.1337 0.0000 -3.1299 0.0000
# 4 0.0000 0.0000 0.0000 28.7350 0.0000 8.2220
# 5 -3.4247 7.7086 -3.1299 0.0000 34.6878 0.0000
# 6 0.0000 0.0000 0.0000 8.2220 0.0000 20.8016
#
#
#
# Elastic Compliance Matrix: (Units=1/GPa)
#
#
# Indices 1 2 3 4 5 6 
#
# 1 0.015668 -0.005553 -0.004520 0.000000 0.002373 0.000000
# 2 -0.005553 0.017007 -0.004620 0.000000 -0.004745 0.000000
# 3 -0.004520 -0.004620 0.011349 0.000000 0.001604 0.000000
# 4 0.000000 0.000000 0.000000 0.039238 0.000000 -0.015509
# 5 0.002373 -0.004745 0.001604 0.000000 0.030262 0.000000
# 6 0.000000 0.000000 0.000000 -0.015509 0.000000 0.054203
#
#
# Mechanical properties :
#
#
# Convention : Reuss Voigt Hill
#
# Bulk Modulus (GPa) = 68.31312 71.48455 69.89884
# Shear Modulus (GPa) = 24.75329 27.70994 26.23162
#
# Velocity S-wave (km/s) = 3.62533 3.83574 3.73202
# Velocity P-wave (km/s) = 7.33455 7.58766 7.46218
#
# Compressibility (1/GPa) = 0.01463848
#
# Stress axis : x y z
#
# Youngs Moduli (GPa) = 63.82438 58.79823 88.11394
#
# Poissons Ratio (x) = 0.32651 0.39825
# Poissons Ratio (y) = 0.35442 0.40709
# Poissons Ratio (z) = 0.28847 0.27165
#
# Static dielectric constant tensor:
#      x y z
#    x 3.340810 0.000000 -0.055680 
#    y 0.000000 3.669110 0.000000 
#    z -0.055680 0.000000 3.466090 
# 
# 
# High freq. dielectric constant tensor:
#      x y z
#    x 1.720300 0.000000 -0.003530 
#    y 0.000000 1.743830 0.000000 
#    z -0.003530 0.000000 1.732680 
# 
# From -- ./inp_files/111644.got.cif
#   From: 2010.06.25/outbox.cif.g09.slc.cpg/sg12_56_cif.got.tgz:111644.got - 2010.06.28 00:19:55.
