data_PCOD8106716
_publ_section_title
;
Structure prediction by ZEFSAII (Michael W. Deem and Ramdas Pophale) SiO2 
 PCOD8106716
Probable space group: C 2/M
;
_chemical_formula_sum "Si O2"
_cell_formula_units_Z 56
_cell_length_a 14.963940
_cell_length_b 9.348866
_cell_length_c 21.041938
_cell_angle_alpha 90.000000
_cell_angle_beta 91.807190
_cell_angle_gamma 90.000000
_cell_volume 2942.216066
_symmetry_space_group_name_H-M "C 2/M"
_symmetry_group_IT_number 12
_symmetry_cell_setting 'monoclinic'
loop_
_space_group_symop_operation_xyz
x,y,z
-x,y,-z
-x,-y,-z
x,-y,z
1/2+x,1/2+y,z
1/2-x,1/2+y,-z
1/2-x,1/2-y,-z
1/2+x,1/2-y,z
loop_
_atom_site_type_symbol
_atom_site_label
_atom_site_fract_x
_atom_site_fract_y
_atom_site_fract_z
Si Si1 0.511913 0.333697 0.156911
Si Si2 0.849367 0.834313 0.064556
Si Si3 0.162179 0.837509 0.359526
Si Si4 0.131826 0.334097 0.615966
Si Si5 0.983243 0.667878 0.715815
Si Si6 0.320387 0.666332 0.921019
Si Si7 0.158938 0.835221 0.500637
O O1 0.506323 0.500000 0.176028
O O2 0.441316 0.295346 0.100741
O O3 0.491218 0.237000 0.216855
O O4 0.608503 0.293754 0.131277
O O5 0.769814 0.750058 0.097385
O O6 0.826377 0.000000 0.070412
O O7 0.858169 0.788591 0.991062
O O8 0.266817 0.793242 0.361810
O O9 0.109346 0.733368 0.311611
O O10 0.117678 0.824770 0.428939
O O11 0.152666 0.000000 0.334353
O O12 0.127019 0.500000 0.596322
O O13 0.099792 0.240663 0.554036
O O14 0.065568 0.296620 0.671463
O O15 0.969012 0.500000 0.723813
O O16 0.297855 0.500000 0.919411
O O17 0.250000 0.750000 0.500000
O O18 0.175366 0.000000 0.519722
#
# Coordination Sequence:
#
# PCOD8106716 Si02
#       7
#     8   8   8   8   8   8   8
#     4  10  21  37  55  75 106 146 180 212 257 315
#     4   9  18  34  57  84 109 135 173 217 260 310
#     4   9  19  37  57  77 105 139 174 214 265 322
#     4   9  20  38  56  76 106 141 175 217 268 318
#     4  11  24  38  53  77 107 141 183 224 261 306
#     4   9  18  34  57  83 109 138 172 213 263 314
#     4   9  17  31  55  83 107 134 171 217 268 319
#
# _framework density 19.033272
#
# number of rings (size 3 to 8) (size 9 to 14) (size 15 to 20)
#    0.000    2.571    0.000    2.143    0.000    8.571 
#    0.000    7.143    0.000    4.286    0.000    0.000 
#    0.000    0.000    0.000    0.000    0.000    0.000 
#
# Total GULP energy -347174.343913 kJ/mol
# GULP energy per Si atom -12399.083711 kJ/mol
# Density = 1.898995 g / cm^3
# Si number density = 19.033272 Si / 1000 Ang^3
#
#
#
# Elastic Constant Matrix: (Units=GPa)
#
#
# Indices 1 2 3 4 5 6 
#
# 1 64.8612 25.7386 16.5071 0.0000 -9.2774 0.0000
# 2 25.7386 66.8047 33.8867 0.0000 -5.5429 0.0000
# 3 16.5071 33.8867 65.2549 0.0000 -12.4193 0.0000
# 4 0.0000 0.0000 0.0000 35.5183 0.0000 -1.1499
# 5 -9.2774 -5.5429 -12.4193 0.0000 23.7482 0.0000
# 6 0.0000 0.0000 0.0000 -1.1499 0.0000 27.8558
#
#
#
# Elastic Compliance Matrix: (Units=1/GPa)
#
#
# Indices 1 2 3 4 5 6 
#
# 1 0.018958 -0.006719 -0.000217 0.000000 0.005724 0.000000
# 2 -0.006719 0.022719 -0.010649 0.000000 -0.002891 0.000000
# 3 -0.000217 -0.010649 0.022677 0.000000 0.009289 0.000000
# 4 0.000000 0.000000 0.000000 0.028192 0.000000 0.001164
# 5 0.005724 -0.002891 0.009289 0.000000 0.048528 0.000000
# 6 0.000000 0.000000 0.000000 0.001164 0.000000 0.035947
#
#
# Mechanical properties :
#
#
# Convention : Reuss Voigt Hill
#
# Bulk Modulus (GPa) = 34.26425 38.79839 36.53132
# Shear Modulus (GPa) = 22.53070 25.47701 24.00385
#
# Velocity S-wave (km/s) = 3.44430 3.66259 3.55512
# Velocity P-wave (km/s) = 5.81885 6.18990 6.00724
#
# Compressibility (1/GPa) = 0.02918493
#
# Stress axis : x y z
#
# Youngs Moduli (GPa) = 52.74863 44.01520 44.09731
#
# Poissons Ratio (x) = 0.29574 0.00957
# Poissons Ratio (y) = 0.35442 0.46958
# Poissons Ratio (z) = 0.01144 0.46870
#
# Static dielectric constant tensor:
#      x y z
#    x 3.421040 0.000000 -0.141540 
#    y 0.000000 3.552950 0.000000 
#    z -0.141540 0.000000 3.677050 
# 
# 
# High freq. dielectric constant tensor:
#      x y z
#    x 1.733190 0.000000 -0.005210 
#    y 0.000000 1.738940 0.000000 
#    z -0.005210 0.000000 1.737990 
# 
# From -- ./inp_files/309035.got.cif
#   From: 2010.06.25/outbox.cif.g09.slc.cpg/sg12_155_cif.got.tgz:309035.got - 2010.06.28 00:19:55.
