data_PCOD8106116
_publ_section_title
;
Structure prediction by ZEFSAII (Michael W. Deem and Ramdas Pophale) SiO2 
 PCOD8106116
Probable space group: C 2/M
;
_chemical_formula_sum "Si O2"
_cell_formula_units_Z 40
_cell_length_a 32.648808
_cell_length_b 13.098366
_cell_length_c 5.027160
_cell_angle_alpha 90.000000
_cell_angle_beta 114.579626
_cell_angle_gamma 90.000000
_cell_volume 1955.034859
_symmetry_space_group_name_H-M "C 2/M"
_symmetry_group_IT_number 12
_symmetry_cell_setting 'monoclinic'
loop_
_space_group_symop_operation_xyz
x,y,z
-x,y,-z
-x,-y,-z
x,-y,z
1/2+x,1/2+y,z
1/2-x,1/2+y,-z
1/2-x,1/2-y,-z
1/2+x,1/2-y,z
loop_
_atom_site_type_symbol
_atom_site_label
_atom_site_fract_x
_atom_site_fract_y
_atom_site_fract_z
Si Si1 0.807767 0.232948 0.886442
Si Si2 0.591279 0.787834 0.851383
Si Si3 0.450045 0.116486 0.776173
Si Si4 0.725717 0.621664 0.696701
Si Si5 0.029622 0.113514 0.839965
O O1 0.775289 0.331211 0.790055
O O2 0.807626 0.171400 0.609724
O O3 0.856530 0.278925 0.078174
O O4 0.793318 0.151025 0.067784
O O5 0.564105 0.815789 0.512848
O O6 0.573963 0.680212 0.917929
O O7 0.583480 0.870353 0.063845
O O8 0.448626 0.000000 0.677429
O O9 0.500000 0.149271 0.000000
O O10 0.728410 0.500000 0.674198
O O11 0.000000 0.111850 0.500000
O O12 0.046356 0.000000 0.960965
O O13 0.000000 0.159630 0.000000
#
# Coordination Sequence:
#
# PCOD8106116 Si02
#       5
#     8   8   8   8   8
#     4  10  23  39  60  94 117 149 206 240 289 369
#     4  12  22  39  62  87 121 153 195 252 293 336
#     4  11  24  40  60  87 120 160 200 238 291 351
#     4  10  21  41  63  84 122 159 187 242 305 354
#     4  10  21  36  55  81 113 153 195 232 282 340
#
# _framework density 20.459992
#
# number of rings (size 3 to 8) (size 9 to 14) (size 15 to 20)
#    0.000    1.400    0.000    6.000    0.000    4.800 
#    0.000    2.000    0.000    0.000    0.000    0.000 
#    0.000    0.000    0.000    0.000    0.000    0.000 
#
# Total GULP energy -248088.517700 kJ/mol
# GULP energy per Si atom -12404.425885 kJ/mol
# Density = 2.041342 g / cm^3
# Si number density = 20.459992 Si / 1000 Ang^3
#
#
#
# Elastic Constant Matrix: (Units=GPa)
#
#
# Indices 1 2 3 4 5 6 
#
# 1 98.0020 40.7582 35.5387 0.0000 12.2962 0.0000
# 2 40.7582 116.9317 38.7615 0.0000 11.8624 0.0000
# 3 35.5387 38.7615 111.3898 0.0000 -5.3589 0.0000
# 4 0.0000 0.0000 0.0000 19.8626 0.0000 -7.8497
# 5 12.2962 11.8624 -5.3589 0.0000 32.7460 0.0000
# 6 0.0000 0.0000 0.0000 -7.8497 0.0000 19.6549
#
#
#
# Elastic Compliance Matrix: (Units=1/GPa)
#
#
# Indices 1 2 3 4 5 6 
#
# 1 0.013253 -0.003050 -0.003380 0.000000 -0.004425 0.000000
# 2 -0.003050 0.010943 -0.002994 0.000000 -0.003309 0.000000
# 3 -0.003380 -0.002994 0.011300 0.000000 0.004203 0.000000
# 4 0.000000 0.000000 0.000000 0.059781 0.000000 0.023875
# 5 -0.004425 -0.003309 0.004203 0.000000 0.034086 0.000000
# 6 0.000000 0.000000 0.000000 0.023875 0.000000 0.060413
#
#
# Mechanical properties :
#
#
# Convention : Reuss Voigt Hill
#
# Bulk Modulus (GPa) = 60.06707 61.82669 60.94688
# Shear Modulus (GPa) = 23.34541 28.53704 25.94123
#
# Velocity S-wave (km/s) = 3.38157 3.73872 3.56462
# Velocity P-wave (km/s) = 6.68347 6.99437 6.84069
#
# Compressibility (1/GPa) = 0.01664806
#
# Stress axis : x y z
#
# Youngs Moduli (GPa) = 75.45283 91.37901 88.49635
#
# Poissons Ratio (x) = 0.27874 0.29910
# Poissons Ratio (y) = 0.23016 0.26496
# Poissons Ratio (z) = 0.25502 0.27360
#
# Static dielectric constant tensor:
#      x y z
#    x 3.614650 0.000000 -0.175820 
#    y 0.000000 3.836280 0.000000 
#    z -0.175820 0.000000 3.761090 
# 
# 
# High freq. dielectric constant tensor:
#      x y z
#    x 1.791760 0.000000 -0.015610 
#    y 0.000000 1.809850 0.000000 
#    z -0.015610 0.000000 1.811730 
# 
# From -- ./inp_files/30932.got.cif
#   From: 2010.06.25/outbox.cif.g09.slc.cpg/sg12_16_cif.got.tgz:30932.got - 2010.06.28 00:19:55.
