data_PCOD8106545
_publ_section_title
;
Structure prediction by ZEFSAII (Michael W. Deem and Ramdas Pophale) SiO2 
 PCOD8106545
Probable space group: C 2/M
;
_chemical_formula_sum "Si O2"
_cell_formula_units_Z 44
_cell_length_a 10.367987
_cell_length_b 27.650805
_cell_length_c 10.544738
_cell_angle_alpha 90.000000
_cell_angle_beta 134.374929
_cell_angle_gamma 90.000000
_cell_volume 2160.775556
_symmetry_space_group_name_H-M "C 2/M"
_symmetry_group_IT_number 12
_symmetry_cell_setting 'monoclinic'
loop_
_space_group_symop_operation_xyz
x,y,z
-x,y,-z
-x,-y,-z
x,-y,z
1/2+x,1/2+y,z
1/2-x,1/2+y,-z
1/2-x,1/2-y,-z
1/2+x,1/2-y,z
loop_
_atom_site_type_symbol
_atom_site_label
_atom_site_fract_x
_atom_site_fract_y
_atom_site_fract_z
Si Si1 0.586993 0.555104 0.697441
Si Si2 0.703602 0.850630 0.171970
Si Si3 0.000000 0.604910 0.500000
Si Si4 0.357987 0.820341 0.596446
Si Si5 0.370187 0.444262 0.801027
Si Si6 0.995808 0.223605 0.345252
O O1 0.500000 0.563945 0.500000
O O2 0.663194 0.500000 0.759212
O O3 0.745236 0.594170 0.828115
O O4 0.442379 0.564819 0.708503
O O5 0.722381 0.843845 0.333348
O O6 0.830566 0.810920 0.188547
O O7 0.500000 0.839289 0.000000
O O8 0.060078 0.636574 0.424562
O O9 0.166096 0.574285 0.668284
O O10 0.511855 0.778325 0.717029
O O11 0.178782 0.798076 0.408371
O O12 0.357051 0.500000 0.824559
O O13 0.500000 0.420590 0.000000
O O14 0.000000 0.228332 0.500000
#
# Coordination Sequence:
#
# PCOD8106545 Si02
#       6
#     8   8   4   8   8   8
#     4  10  21  42  65  86 117 161 206 251 307 367
#     4  11  23  36  58  88 121 153 196 250 303 358
#     4  12  21  36  64  92 118 158 207 248 308 376
#     4  10  21  36  60  86 111 157 204 242 296 359
#     4  10  23  41  62  90 126 162 201 257 312 368
#     4   9  18  39  59  78 116 156 199 243 290 361
#
# _framework density 20.363059
#
# number of rings (size 3 to 8) (size 9 to 14) (size 15 to 20)
#    0.000    1.818    0.909    4.091    2.545    1.091 
#    0.000    1.818    0.000    0.000    0.000    0.000 
#    0.000    0.000    0.000    0.000    0.000    0.000 
#
# Total GULP energy -272633.208609 kJ/mol
# GULP energy per Si atom -12392.418573 kJ/mol
# Density = 2.031671 g / cm^3
# Si number density = 20.363059 Si / 1000 Ang^3
#
#
#
# Elastic Constant Matrix: (Units=GPa)
#
#
# Indices 1 2 3 4 5 6 
#
# 1 108.0744 51.4186 39.4224 0.0000 12.9178 0.0000
# 2 51.4186 104.1075 37.0516 0.0000 21.8861 0.0000
# 3 39.4224 37.0516 96.4303 0.0000 22.8192 0.0000
# 4 0.0000 0.0000 0.0000 11.8563 0.0000 13.1497
# 5 12.9178 21.8861 22.8192 0.0000 36.7011 0.0000
# 6 0.0000 0.0000 0.0000 13.1497 0.0000 32.7201
#
#
#
# Elastic Compliance Matrix: (Units=1/GPa)
#
#
# Indices 1 2 3 4 5 6 
#
# 1 0.012950 -0.005336 -0.003422 0.000000 0.000752 0.000000
# 2 -0.005336 0.014051 -0.001969 0.000000 -0.005277 0.000000
# 3 -0.003422 -0.001969 0.014026 0.000000 -0.006343 0.000000
# 4 0.000000 0.000000 0.000000 0.152169 0.000000 -0.061154
# 5 0.000752 -0.005277 -0.006343 0.000000 0.034073 0.000000
# 6 0.000000 0.000000 0.000000 -0.061154 0.000000 0.055139
#
#
# Mechanical properties :
#
#
# Convention : Reuss Voigt Hill
#
# Bulk Modulus (GPa) = 51.08728 62.71081 56.89904
# Shear Modulus (GPa) = 16.10896 28.30348 22.20622
#
# Velocity S-wave (km/s) = 2.81568 3.73224 3.30588
# Velocity P-wave (km/s) = 5.97607 7.03108 6.52493
#
# Compressibility (1/GPa) = 0.01957434
#
# Stress axis : x y z
#
# Youngs Moduli (GPa) = 77.22007 71.16949 71.29438
#
# Poissons Ratio (x) = 0.37978 0.24395
# Poissons Ratio (y) = 0.41206 0.14035
# Poissons Ratio (z) = 0.26422 0.14010
#
# Static dielectric constant tensor:
#      x y z
#    x -13.854500 0.000000 -1.978540 
#    y 0.000000 3.916520 0.000000 
#    z -1.978540 0.000000 3.464790 
# 
# 
# High freq. dielectric constant tensor:
#      x y z
#    x 1.807980 0.000000 0.007140 
#    y 0.000000 1.810050 0.000000 
#    z 0.007140 0.000000 1.758900 
# 
# From -- ./inp_files/137065.got.cif
#   From: 2010.06.25/outbox.cif.g09.slc.cpg/sg12_69_cif.got.tgz:137065.got - 2010.06.28 00:19:55.
