data_PCOD8106421
_publ_section_title
;
Structure prediction by ZEFSAII (Michael W. Deem and Ramdas Pophale) SiO2 
 PCOD8106421
Probable space group: C 2/M
;
_chemical_formula_sum "Si O2"
_cell_formula_units_Z 64
_cell_length_a 18.875615
_cell_length_b 31.261659
_cell_length_c 9.595234
_cell_angle_alpha 90.000000
_cell_angle_beta 144.423468
_cell_angle_gamma 90.000000
_cell_volume 3294.085484
_symmetry_space_group_name_H-M "C 2/M"
_symmetry_group_IT_number 12
_symmetry_cell_setting 'monoclinic'
loop_
_space_group_symop_operation_xyz
x,y,z
-x,y,-z
-x,-y,-z
x,-y,z
1/2+x,1/2+y,z
1/2-x,1/2+y,-z
1/2-x,1/2-y,-z
1/2+x,1/2-y,z
loop_
_atom_site_type_symbol
_atom_site_label
_atom_site_fract_x
_atom_site_fract_y
_atom_site_fract_z
Si Si1 0.283631 0.950904 0.832096
Si Si2 0.541916 0.874056 0.915970
Si Si3 0.022890 0.913372 0.379085
Si Si4 0.726206 0.546651 0.057760
Si Si5 0.415201 0.277721 0.244374
Si Si6 0.825199 0.628048 0.352242
Si Si7 0.562071 0.339092 0.953538
Si Si8 0.651865 0.184792 0.873519
O O1 0.154623 0.934338 0.565450
O O2 0.305536 0.000000 0.816905
O O3 0.393583 0.920229 0.958141
O O4 0.282531 0.948254 0.995824
O O5 0.422732 0.875189 0.629584
O O6 0.636038 0.841179 0.993089
O O7 0.500000 0.856972 0.000000
O O8 0.000000 0.896407 0.500000
O O9 0.006493 0.874959 0.245439
O O10 0.919668 0.948410 0.181244
O O11 0.754436 0.500000 0.164458
O O12 0.793584 0.579673 0.263828
O O13 0.500000 0.296381 0.500000
O O14 0.451908 0.294800 0.151495
O O15 0.433144 0.226539 0.265730
O O16 0.286122 0.296605 0.081376
O O17 0.878357 0.653593 0.304363
O O18 0.703116 0.650937 0.209147
O O19 0.500000 0.332507 0.000000
#
# Coordination Sequence:
#
# PCOD8106421 Si02
#       8
#     8   8   8   8   8   8   8   8
#     4  10  21  36  58  87 118 154 197 246 292 343
#     4  12  26  38  58  81 118 164 199 239 291 351
#     4   9  18  34  60  87 118 149 189 243 296 354
#     4   9  17  33  61  91 109 141 197 251 296 338
#     4  10  21  37  66  92 116 151 194 248 286 349
#     4  10  21  40  59  82 114 157 196 239 285 351
#     4  10  22  35  60  91 121 148 189 239 299 349
#     4  10  22  42  61  88 118 155 200 236 296 346
#
# _framework density 19.42876
#
# number of rings (size 3 to 8) (size 9 to 14) (size 15 to 20)
#    0.000    2.000    1.250    1.875    5.250    2.750 
#    0.000    1.250    0.000    7.875    0.000    0.000 
#    0.000    0.000    0.000    0.000    0.000    0.000 
#
# Total GULP energy -396722.069473 kJ/mol
# GULP energy per Si atom -12397.564671 kJ/mol
# Density = 1.938454 g / cm^3
# Si number density = 19.428760 Si / 1000 Ang^3
#
#
#
# Elastic Constant Matrix: (Units=GPa)
#
#
# Indices 1 2 3 4 5 6 
#
# 1 124.2091 62.8165 36.2669 0.0000 -18.1918 0.0000
# 2 62.8165 116.7622 49.6812 0.0000 -5.0208 0.0000
# 3 36.2669 49.6812 93.1104 0.0000 -9.1615 0.0000
# 4 0.0000 0.0000 0.0000 19.5619 0.0000 2.7157
# 5 -18.1918 -5.0208 -9.1615 0.0000 18.8910 0.0000
# 6 0.0000 0.0000 0.0000 2.7157 0.0000 15.9312
#
#
#
# Elastic Compliance Matrix: (Units=1/GPa)
#
#
# Indices 1 2 3 4 5 6 
#
# 1 0.012925 -0.006209 -0.000692 0.000000 0.010461 0.000000
# 2 -0.006209 0.014063 -0.005572 0.000000 -0.004944 0.000000
# 3 -0.000692 -0.005572 0.014461 0.000000 0.004866 0.000000
# 4 0.000000 0.000000 0.000000 0.052359 0.000000 -0.008925
# 5 0.010461 -0.004944 0.004866 0.000000 0.064055 0.000000
# 6 0.000000 0.000000 0.000000 -0.008925 0.000000 0.064291
#
#
# Mechanical properties :
#
#
# Convention : Reuss Voigt Hill
#
# Bulk Modulus (GPa) = 60.59280 70.17899 65.38590
# Shear Modulus (GPa) = 19.79400 23.23130 21.51265
#
# Velocity S-wave (km/s) = 3.19533 3.46167 3.33116
# Velocity P-wave (km/s) = 6.69838 7.22337 6.96583
#
# Compressibility (1/GPa) = 0.01650361
#
# Stress axis : x y z
#
# Youngs Moduli (GPa) = 77.36678 71.10835 69.15117
#
# Poissons Ratio (x) = 0.44154 0.04785
# Poissons Ratio (y) = 0.48040 0.38528
# Poissons Ratio (z) = 0.05354 0.39618
#
# Static dielectric constant tensor:
#      x y z
#    x 3.439220 0.000000 0.080290 
#    y 0.000000 3.807900 0.000000 
#    z 0.080290 0.000000 3.562070 
# 
# 
# High freq. dielectric constant tensor:
#      x y z
#    x 1.737360 0.000000 0.012330 
#    y 0.000000 1.763060 0.000000 
#    z 0.012330 0.000000 1.759860 
# 
# From -- ./inp_files/80756.got.cif
#   From: 2010.06.25/outbox.cif.g09.slc.cpg/sg12_41_cif.got.tgz:80756.got - 2010.06.28 00:19:55.
