data_PCOD8106160
_publ_section_title
;
Structure prediction by ZEFSAII (Michael W. Deem and Ramdas Pophale) SiO2 
 PCOD8106160
Probable space group: C 2/M
;
_chemical_formula_sum "Si O2"
_cell_formula_units_Z 56
_cell_length_a 25.414043
_cell_length_b 9.101699
_cell_length_c 18.523903
_cell_angle_alpha 90.000000
_cell_angle_beta 140.104855
_cell_angle_gamma 90.000000
_cell_volume 2748.193266
_symmetry_space_group_name_H-M "C 2/M"
_symmetry_group_IT_number 12
_symmetry_cell_setting 'monoclinic'
loop_
_space_group_symop_operation_xyz
x,y,z
-x,y,-z
-x,-y,-z
x,-y,z
1/2+x,1/2+y,z
1/2-x,1/2+y,-z
1/2-x,1/2-y,-z
1/2+x,1/2-y,z
loop_
_atom_site_type_symbol
_atom_site_label
_atom_site_fract_x
_atom_site_fract_y
_atom_site_fract_z
Si Si1 0.197109 0.668567 0.272509
Si Si2 0.160161 0.672809 0.994436
Si Si3 0.083008 0.825764 0.045053
Si Si4 0.166402 0.668211 0.396460
Si Si5 0.172743 0.330275 0.842867
Si Si6 0.373964 0.330726 0.517230
Si Si7 0.990565 0.340675 0.406961
O O1 0.195485 0.500000 0.243180
O O2 0.161390 0.774885 0.174237
O O3 0.141210 0.684996 0.286083
O O4 0.289590 0.718559 0.389441
O O5 0.156645 0.500000 0.006995
O O6 0.140737 0.708749 0.890058
O O7 0.093258 0.751463 0.976643
O O8 0.251899 0.731592 0.105109
O O9 0.084513 0.000000 0.036914
O O10 0.000000 0.775665 0.000000
O O11 0.178187 0.500000 0.429648
O O12 0.250000 0.750000 0.500000
O O13 0.103107 0.743438 0.384723
O O14 0.200675 0.500000 0.869319
O O15 0.100635 0.293235 0.711308
O O16 0.368629 0.500000 0.531139
O O17 0.449066 0.293333 0.545460
O O18 0.011136 0.500000 0.391037
O O19 0.000000 0.367388 0.500000
#
# Coordination Sequence:
#
# PCOD8106160 Si02
#       7
#     8   8   8   8   8   8   8
#     4   9  20  37  57  83 114 151 192 236 288 348
#     4  10  21  39  65  90 117 157 202 250 301 351
#     4  11  25  41  58  85 118 152 195 246 301 358
#     4   9  17  32  54  80 110 144 188 232 274 335
#     4   9  20  40  63  90 121 157 203 248 296 356
#     4  10  21  36  55  83 117 154 195 236 286 349
#     4  10  22  38  57  86 121 156 195 239 294 350
#
# _framework density 20.377023000000001
#
# number of rings (size 3 to 8) (size 9 to 14) (size 15 to 20)
#    0.000    2.286    0.000    2.571    2.000    7.143 
#    0.000    4.286    0.000    0.000    0.000    0.000 
#    0.000    0.000    0.000    0.000    0.000    0.000 
#
# Total GULP energy -347020.266965 kJ/mol
# GULP energy per Si atom -12393.580963 kJ/mol
# Density = 2.033064 g / cm^3
# Si number density = 20.377023 Si / 1000 Ang^3
#
#
#
# Elastic Constant Matrix: (Units=GPa)
#
#
# Indices 1 2 3 4 5 6 
#
# 1 104.5578 41.2419 25.7231 0.0000 0.5221 0.0000
# 2 41.2419 85.4626 24.6942 0.0000 0.1318 0.0000
# 3 25.7231 24.6942 88.5431 0.0000 0.4413 0.0000
# 4 0.0000 0.0000 0.0000 18.5690 0.0000 -0.5223
# 5 0.5221 0.1318 0.4413 0.0000 22.3904 0.0000
# 6 0.0000 0.0000 0.0000 -0.5223 0.0000 39.9542
#
#
#
# Elastic Compliance Matrix: (Units=1/GPa)
#
#
# Indices 1 2 3 4 5 6 
#
# 1 0.012150 -0.005268 -0.002059 0.000000 -0.000212 0.000000
# 2 -0.005268 0.015010 -0.002656 0.000000 0.000087 0.000000
# 3 -0.002059 -0.002656 0.012634 0.000000 -0.000185 0.000000
# 4 0.000000 0.000000 0.000000 0.053873 0.000000 0.000704
# 5 -0.000212 0.000087 -0.000185 0.000000 0.044670 0.000000
# 6 0.000000 0.000000 0.000000 0.000704 0.000000 0.025038
#
#
# Mechanical properties :
#
#
# Convention : Reuss Voigt Hill
#
# Bulk Modulus (GPa) = 50.43631 51.32021 50.87826
# Shear Modulus (GPa) = 26.32257 28.64302 27.48280
#
# Velocity S-wave (km/s) = 3.59803 3.75327 3.67647
# Velocity P-wave (km/s) = 6.48586 6.63496 6.56084
#
# Compressibility (1/GPa) = 0.01982699
#
# Stress axis : x y z
#
# Youngs Moduli (GPa) = 82.30733 66.62007 79.15135
#
# Poissons Ratio (x) = 0.35093 0.16301
# Poissons Ratio (y) = 0.43357 0.21026
# Poissons Ratio (z) = 0.16951 0.17697
#
# Static dielectric constant tensor:
#      x y z
#    x 3.955760 0.000000 -0.286300 
#    y 0.000000 3.770880 0.000000 
#    z -0.286300 0.000000 3.573400 
# 
# 
# High freq. dielectric constant tensor:
#      x y z
#    x 1.796370 0.000000 -0.013560 
#    y 0.000000 1.799890 0.000000 
#    z -0.013560 0.000000 1.781980 
# 
# From -- ./inp_files/292585.got.cif
#   From: 2010.06.25/outbox.cif.g09.slc.cpg/sg12_147_cif.got.tgz:292585.got - 2010.06.28 00:19:55.
