data_PCOD8106799
_publ_section_title
;
Structure prediction by ZEFSAII (Michael W. Deem and Ramdas Pophale) SiO2 
 PCOD8106799
Probable space group: C 2/M
;
_chemical_formula_sum "Si O2"
_cell_formula_units_Z 48
_cell_length_a 14.483216
_cell_length_b 8.847020
_cell_length_c 19.293075
_cell_angle_alpha 90.000000
_cell_angle_beta 89.113128
_cell_angle_gamma 90.000000
_cell_volume 2471.789255
_symmetry_space_group_name_H-M "C 2/M"
_symmetry_group_IT_number 12
_symmetry_cell_setting 'monoclinic'
loop_
_space_group_symop_operation_xyz
x,y,z
-x,y,-z
-x,-y,-z
x,-y,z
1/2+x,1/2+y,z
1/2-x,1/2+y,-z
1/2-x,1/2-y,-z
1/2+x,1/2-y,z
loop_
_atom_site_type_symbol
_atom_site_label
_atom_site_fract_x
_atom_site_fract_y
_atom_site_fract_z
Si Si1 0.604457 0.321822 0.008013
Si Si2 0.075830 0.821575 0.345407
Si Si3 0.391040 0.334898 0.510113
Si Si4 0.755832 0.677462 0.895558
Si Si5 0.237866 0.823136 0.250443
Si Si6 0.368798 0.681152 0.360443
O O1 0.602646 0.500000 0.018986
O O2 0.650594 0.251079 0.075864
O O3 0.500000 0.259710 0.000000
O O4 0.665913 0.274345 0.941033
O O5 0.122911 0.748837 0.415437
O O6 0.134084 0.780987 0.276253
O O7 0.971399 0.768077 0.335607
O O8 0.076140 0.000000 0.359245
O O9 0.500000 0.352505 0.500000
O O10 0.344706 0.500000 0.514081
O O11 0.350374 0.259272 0.440083
O O12 0.769665 0.500000 0.896652
O O13 0.737576 0.731923 0.818388
O O14 0.303356 0.773085 0.311355
O O15 0.249179 0.000000 0.235349
O O16 0.355516 0.500000 0.353997
#
# Coordination Sequence:
#
# PCOD8106799 Si02
#       6
#     8   8   8   8   8   8
#     4   9  19  38  63  85 104 131 165 201 247 299
#     4   8  16  31  50  71  97 134 175 212 256 309
#     4   7  11  24  48  72  91 120 170 223 259 295
#     4  10  21  37  56  80 109 135 166 207 244 290
#     4  11  22  34  49  73 108 142 169 203 252 306
#     4   9  17  32  53  73  95 129 176 222 259 300
#
# _framework density 19.419131
#
# number of rings (size 3 to 8) (size 9 to 14) (size 15 to 20)
#    0.000    3.000    0.000    3.000    0.000    3.000 
#    0.000    8.333    0.000    5.500    0.000    0.000 
#    0.000    0.000    0.000    0.000    0.000    0.000 
#
# Total GULP energy -297342.241741 kJ/mol
# GULP energy per Si atom -12389.260073 kJ/mol
# Density = 1.937493 g / cm^3
# Si number density = 19.419131 Si / 1000 Ang^3
#
#
#
# Elastic Constant Matrix: (Units=GPa)
#
#
# Indices 1 2 3 4 5 6 
#
# 1 63.7690 15.7831 3.0088 0.0000 3.5799 0.0000
# 2 15.7831 13.8342 9.4868 0.0000 -2.6346 0.0000
# 3 3.0088 9.4868 72.1626 0.0000 -2.1531 0.0000
# 4 0.0000 0.0000 0.0000 22.1969 0.0000 9.6024
# 5 3.5799 -2.6346 -2.1531 0.0000 24.8906 0.0000
# 6 0.0000 0.0000 0.0000 9.6024 0.0000 20.2680
#
#
#
# Elastic Compliance Matrix: (Units=1/GPa)
#
#
# Indices 1 2 3 4 5 6 
#
# 1 0.023215 -0.029543 0.002730 0.000000 -0.006230 0.000000
# 2 -0.029543 0.118475 -0.013878 0.000000 0.015589 0.000000
# 3 0.002730 -0.013878 0.015553 0.000000 -0.000516 0.000000
# 4 0.000000 0.000000 0.000000 0.056665 0.000000 -0.026846
# 5 -0.006230 0.015589 -0.000516 0.000000 0.042677 0.000000
# 6 0.000000 0.000000 0.000000 -0.026846 0.000000 0.062058
#
#
# Mechanical properties :
#
#
# Convention : Reuss Voigt Hill
#
# Bulk Modulus (GPa) = 13.18224 22.92479 18.05352
# Shear Modulus (GPa) = 11.75607 21.57027 16.66317
#
# Velocity S-wave (km/s) = 2.46313 3.33644 2.93248
# Velocity P-wave (km/s) = 3.85906 5.16463 4.55882
#
# Compressibility (1/GPa) = 0.07585963
#
# Stress axis : x y z
#
# Youngs Moduli (GPa) = 43.07635 8.44057 64.29686
#
# Poissons Ratio (x) = 0.24936 -0.17554
# Poissons Ratio (y) = 1.27262 0.89233
# Poissons Ratio (z) = -0.11760 0.11714
#
# Static dielectric constant tensor:
#      x y z
#    x 3.619280 0.000000 -0.159700 
#    y 0.000000 3.144670 0.000000 
#    z -0.159700 0.000000 3.786330 
# 
# 
# High freq. dielectric constant tensor:
#      x y z
#    x 1.752510 0.000000 -0.000740 
#    y 0.000000 1.717960 0.000000 
#    z -0.000740 0.000000 1.765580 
# 
# From -- ./inp_files/267685.got.cif
#   From: 2010.06.25/outbox.cif.g09.slc.cpg/sg12_134_cif.got.tgz:267685.got - 2010.06.28 00:19:55.
