data_PCOD8106057
_publ_section_title
;
Structure prediction by ZEFSAII (Michael W. Deem and Ramdas Pophale) SiO2 
 PCOD8106057
Probable space group: C 2/M
;
_chemical_formula_sum "Si O2"
_cell_formula_units_Z 64
_cell_length_a 19.547234
_cell_length_b 9.052317
_cell_length_c 21.526916
_cell_angle_alpha 90.000000
_cell_angle_beta 120.085130
_cell_angle_gamma 90.000000
_cell_volume 3295.978158
_symmetry_space_group_name_H-M "C 2/M"
_symmetry_group_IT_number 12
_symmetry_cell_setting 'monoclinic'
loop_
_space_group_symop_operation_xyz
x,y,z
-x,y,-z
-x,-y,-z
x,-y,z
1/2+x,1/2+y,z
1/2-x,1/2+y,-z
1/2-x,1/2-y,-z
1/2+x,1/2-y,z
loop_
_atom_site_type_symbol
_atom_site_label
_atom_site_fract_x
_atom_site_fract_y
_atom_site_fract_z
Si Si1 0.388802 0.167838 0.300707
Si Si2 0.714129 0.824186 0.923671
Si Si3 0.145559 0.668449 0.468240
Si Si4 0.496543 0.339094 0.426464
Si Si5 0.046961 0.325992 0.801868
Si Si6 0.215376 0.168786 0.173737
Si Si7 0.284070 0.330309 0.614648
Si Si8 0.374860 0.175735 0.764526
O O1 0.411029 0.280503 0.365669
O O2 0.440450 0.216217 0.264201
O O3 0.296150 0.184356 0.248298
O O4 0.408420 0.000000 0.328194
O O5 0.623490 0.766622 0.874827
O O6 0.768107 0.776936 0.889136
O O7 0.715213 0.000000 0.930321
O O8 0.750000 0.750000 0.000000
O O9 0.154420 0.500000 0.448499
O O10 0.054761 0.707301 0.434824
O O11 0.190950 0.689549 0.555180
O O12 0.174148 0.782086 0.429526
O O13 0.500000 0.363378 0.500000
O O14 0.514830 0.500000 0.404067
O O15 0.046073 0.500000 0.808600
O O16 0.963156 0.262726 0.788673
O O17 0.148909 0.267496 0.177559
O O18 0.185828 0.000000 0.160442
O O19 0.304265 0.500000 0.639287
O O20 0.311456 0.233433 0.685400
O O21 0.373203 0.000000 0.763049
#
# Coordination Sequence:
#
# PCOD8106057 Si02
#       8
#     8   8   8   8   8   8   8   8
#     4   9  18  36  59  75  97 140 191 231 272 334
#     4   9  18  37  63  86 113 146 182 222 263 318
#     4  10  21  37  54  73  98 137 186 227 277 343
#     4  11  24  36  48  72 106 138 176 234 290 327
#     4   8  17  35  57  82 108 140 180 221 265 317
#     4   9  20  37  56  82 115 148 181 225 280 330
#     4  10  21  36  55  77 104 138 177 229 283 330
#     4  11  21  33  55  83 112 145 184 226 272 328
#
# _framework density 19.417604000000001
#
# number of rings (size 3 to 8) (size 9 to 14) (size 15 to 20)
#    0.000    2.375    0.000    3.750    1.750    4.500 
#    0.000    4.375    0.000    3.750    0.000    0.000 
#    0.000    0.000    0.000    0.000    0.000    0.000 
#
# Total GULP energy -396597.348668 kJ/mol
# GULP energy per Si atom -12393.667146 kJ/mol
# Density = 1.937341 g / cm^3
# Si number density = 19.417604 Si / 1000 Ang^3
#
#
#
# Elastic Constant Matrix: (Units=GPa)
#
#
# Indices 1 2 3 4 5 6 
#
# 1 82.2219 31.3097 23.8769 0.0000 -8.4110 0.0000
# 2 31.3097 72.6840 38.7296 0.0000 -0.9039 0.0000
# 3 23.8769 38.7296 101.8521 0.0000 -4.3724 0.0000
# 4 0.0000 0.0000 0.0000 114.6529 0.0000 12.6397
# 5 -8.4110 -0.9039 -4.3724 0.0000 17.1090 0.0000
# 6 0.0000 0.0000 0.0000 12.6397 0.0000 30.2841
#
#
#
# Elastic Compliance Matrix: (Units=1/GPa)
#
#
# Indices 1 2 3 4 5 6 
#
# 1 0.015477 -0.006028 -0.001034 0.000000 0.007026 0.000000
# 2 -0.006028 0.019612 -0.006195 0.000000 -0.003511 0.000000
# 3 -0.001034 -0.006195 0.012518 0.000000 0.002363 0.000000
# 4 0.000000 0.000000 0.000000 0.009143 0.000000 -0.003816
# 5 0.007026 -0.003511 0.002363 0.000000 0.062321 0.000000
# 6 0.000000 0.000000 0.000000 -0.003816 0.000000 0.034613
#
#
# Mechanical properties :
#
#
# Convention : Reuss Voigt Hill
#
# Bulk Modulus (GPa) = 47.41269 49.39896 48.40583
# Shear Modulus (GPa) = 26.70506 43.26532 34.98519
#
# Velocity S-wave (km/s) = 3.71253 4.72545 4.24928
# Velocity P-wave (km/s) = 6.54580 7.43429 7.00415
#
# Compressibility (1/GPa) = 0.02109140
#
# Stress axis : x y z
#
# Youngs Moduli (GPa) = 64.61257 50.98799 79.88610
#
# Poissons Ratio (x) = 0.30738 0.08262
# Poissons Ratio (y) = 0.38951 0.49491
# Poissons Ratio (z) = 0.06683 0.31588
#
# Static dielectric constant tensor:
#      x y z
#    x 3.773400 0.000000 0.165130 
#    y 0.000000 3.423600 0.000000 
#    z 0.165130 0.000000 3.590980 
# 
# 
# High freq. dielectric constant tensor:
#      x y z
#    x 1.752460 0.000000 0.002420 
#    y 0.000000 1.746710 0.000000 
#    z 0.002420 0.000000 1.743580 
# 
# From -- ./inp_files/320059.got.cif
#   From: 2010.06.25/outbox.cif.g09.slc.cpg/sg12_161_cif.got.tgz:320059.got - 2010.06.28 00:19:55.
