data_PCOD8106942
_publ_section_title
;
Structure prediction by ZEFSAII (Michael W. Deem and Ramdas Pophale) SiO2 
 PCOD8106942
Probable space group: C 2/M
;
_chemical_formula_sum "Si O2"
_cell_formula_units_Z 64
_cell_length_a 18.009151
_cell_length_b 8.981937
_cell_length_c 30.118538
_cell_angle_alpha 90.000000
_cell_angle_beta 138.056424
_cell_angle_gamma 90.000000
_cell_volume 3256.361124
_symmetry_space_group_name_H-M "C 2/M"
_symmetry_group_IT_number 12
_symmetry_cell_setting 'monoclinic'
loop_
_space_group_symop_operation_xyz
x,y,z
-x,y,-z
-x,-y,-z
x,-y,z
1/2+x,1/2+y,z
1/2-x,1/2+y,-z
1/2-x,1/2-y,-z
1/2+x,1/2-y,z
loop_
_atom_site_type_symbol
_atom_site_label
_atom_site_fract_x
_atom_site_fract_y
_atom_site_fract_z
Si Si1 0.579575 0.325825 0.423653
Si Si2 0.271221 0.174899 0.181210
Si Si3 0.367641 0.673177 0.057249
Si Si4 0.313656 0.327909 0.684168
Si Si5 0.267664 0.174205 0.575644
Si Si6 0.855180 0.671778 0.315118
Si Si7 0.566296 0.327868 0.813078
Si Si8 0.536358 0.172838 0.066321
O O1 0.577819 0.500000 0.414131
O O2 0.625931 0.249673 0.399829
O O3 0.655557 0.283305 0.499560
O O4 0.456445 0.268851 0.378742
O O5 0.328289 0.217554 0.252965
O O6 0.352399 0.221854 0.177881
O O7 0.158686 0.265294 0.127273
O O8 0.245422 0.000000 0.166737
O O9 0.353121 0.500000 0.040608
O O10 0.415653 0.701554 0.127233
O O11 0.452267 0.740076 0.059915
O O12 0.250000 0.750000 0.000000
O O13 0.302641 0.500000 0.666329
O O14 0.255004 0.232265 0.619869
O O15 0.252531 0.293348 0.703173
O O16 0.441204 0.280917 0.746004
O O17 0.289221 0.000000 0.585416
O O18 0.889764 0.500000 0.333774
O O19 0.589892 0.500000 0.811447
O O20 0.534061 0.000000 0.078159
O O21 0.500000 0.199347 0.000000
#
# Coordination Sequence:
#
# PCOD8106942 Si02
#       8
#     8   8   8   8   8   8   8   8
#     4  10  21  37  58  83 112 149 190 232 283 340
#     4  11  23  39  61  88 116 149 191 237 285 337
#     4  11  23  40  62  88 120 155 193 238 285 337
#     4  10  21  38  59  82 112 151 190 229 282 342
#     4  10  21  37  57  83 114 146 187 238 284 333
#     4  10  22  39  58  84 117 150 188 235 284 337
#     4  10  22  40  60  84 116 151 188 234 285 337
#     4  11  24  41  61  87 119 154 193 237 285 337
#
# _framework density 19.653841
#
# number of rings (size 3 to 8) (size 9 to 14) (size 15 to 20)
#    0.000    1.625    0.000    4.125    0.000   13.000 
#    0.000    3.750    0.000    0.000    0.000    0.000 
#    0.000    0.000    0.000    0.000    0.000    0.000 
#
# Total GULP energy -397009.228662 kJ/mol
# GULP energy per Si atom -12406.538396 kJ/mol
# Density = 1.960911 g / cm^3
# Si number density = 19.653841 Si / 1000 Ang^3
#
#
#
# Elastic Constant Matrix: (Units=GPa)
#
#
# Indices 1 2 3 4 5 6 
#
# 1 126.6866 60.7085 53.2243 0.0000 5.3239 0.0000
# 2 60.7085 92.3126 61.7852 0.0000 -4.9827 0.0000
# 3 53.2243 61.7852 110.1837 0.0000 5.9119 0.0000
# 4 0.0000 0.0000 0.0000 60.9561 0.0000 10.4893
# 5 5.3239 -4.9827 5.9119 0.0000 35.5576 0.0000
# 6 0.0000 0.0000 0.0000 10.4893 0.0000 43.3112
#
#
#
# Elastic Compliance Matrix: (Units=1/GPa)
#
#
# Indices 1 2 3 4 5 6 
#
# 1 0.012040 -0.006795 -0.001874 0.000000 -0.002443 0.000000
# 2 -0.006795 0.021784 -0.009234 0.000000 0.005605 0.000000
# 3 -0.001874 -0.009234 0.015350 0.000000 -0.003566 0.000000
# 4 0.000000 0.000000 0.000000 0.017119 0.000000 -0.004146
# 5 -0.002443 0.005605 -0.003566 0.000000 0.029868 0.000000
# 6 0.000000 0.000000 0.000000 -0.004146 0.000000 0.024093
#
#
# Mechanical properties :
#
#
# Convention : Reuss Voigt Hill
#
# Bulk Modulus (GPa) = 74.80729 75.62433 75.21581
# Shear Modulus (GPa) = 31.14940 38.19596 34.67268
#
# Velocity S-wave (km/s) = 3.98540 4.41322 4.20476
# Velocity P-wave (km/s) = 7.70214 8.03308 7.86935
#
# Compressibility (1/GPa) = 0.01336768
#
# Stress axis : x y z
#
# Youngs Moduli (GPa) = 83.05661 45.90428 65.14520
#
# Poissons Ratio (x) = 0.31194 0.12210
# Poissons Ratio (y) = 0.56440 0.60154
# Poissons Ratio (z) = 0.15568 0.42387
#
# Static dielectric constant tensor:
#      x y z
#    x 3.491330 0.000000 -0.134680 
#    y 0.000000 3.668550 0.000000 
#    z -0.134680 0.000000 3.127880 
# 
# 
# High freq. dielectric constant tensor:
#      x y z
#    x 1.774340 0.000000 0.000390 
#    y 0.000000 1.772040 0.000000 
#    z 0.000390 0.000000 1.779150 
# 
# From -- ./inp_files/378320.got.cif
#   From: 2010.06.25/outbox.cif.g09.slc.cpg/sg12_190_cif.got.tgz:378320.got - 2010.06.28 00:19:55.
