data_PCOD8106151
_publ_section_title
;
Structure prediction by ZEFSAII (Michael W. Deem and Ramdas Pophale) SiO2 
 PCOD8106151
Probable space group: C 2/M
;
_chemical_formula_sum "Si O2"
_cell_formula_units_Z 48
_cell_length_a 17.585346
_cell_length_b 8.848995
_cell_length_c 15.082872
_cell_angle_alpha 90.000000
_cell_angle_beta 89.668531
_cell_angle_gamma 90.000000
_cell_volume 2347.046236
_symmetry_space_group_name_H-M "C 2/M"
_symmetry_group_IT_number 12
_symmetry_cell_setting 'monoclinic'
loop_
_space_group_symop_operation_xyz
x,y,z
-x,y,-z
-x,-y,-z
x,-y,z
1/2+x,1/2+y,z
1/2-x,1/2+y,-z
1/2-x,1/2-y,-z
1/2+x,1/2-y,z
loop_
_atom_site_type_symbol
_atom_site_label
_atom_site_fract_x
_atom_site_fract_y
_atom_site_fract_z
Si Si1 0.913088 0.324511 0.322932
Si Si2 0.414055 0.822480 0.641282
Si Si3 0.665836 0.174630 0.856941
Si Si4 0.083750 0.178355 0.016735
Si Si5 0.831395 0.178446 0.481891
Si Si6 0.164583 0.177782 0.194181
O O1 0.898780 0.500000 0.346093
O O2 0.892779 0.289280 0.221491
O O3 0.858921 0.223400 0.384093
O O4 0.000113 0.277460 0.335767
O O5 0.393095 0.739151 0.550886
O O6 0.358636 0.769427 0.719177
O O7 0.404420 0.000000 0.626910
O O8 0.749612 0.225073 0.827717
O O9 0.664811 0.000000 0.882891
O O10 0.643067 0.266026 0.943706
O O11 0.111103 0.229604 0.113526
O O12 0.081705 0.000000 0.010327
O O13 0.000000 0.247642 0.000000
O O14 0.750000 0.250000 0.500000
O O15 0.824353 0.000000 0.490060
O O16 0.157489 0.000000 0.213878
#
# Coordination Sequence:
#
# PCOD8106151 Si02
#       6
#     8   8   8   8   8   8
#     4  10  22  40  60  86 120 154 194 245 295 347
#     4  11  23  39  61  88 118 154 195 241 294 350
#     4  10  21  37  58  83 112 150 193 239 292 348
#     4  10  21  36  55  82 116 152 192 242 295 346
#     4  12  25  41  63  89 118 154 195 239 290 348
#     4  10  21  37  57  83 116 154 197 244 294 350
#
# _framework density 20.451236999999999
#
# number of rings (size 3 to 8) (size 9 to 14) (size 15 to 20)
#    0.000    1.500    0.000    5.000    0.000    7.000 
#    0.000    0.000    0.000    0.000    0.000    0.000 
#    0.000    0.000    0.000    0.000    0.000    0.000 
#
# Total GULP energy -297767.759499 kJ/mol
# GULP energy per Si atom -12406.989979 kJ/mol
# Density = 2.040469 g / cm^3
# Si number density = 20.451237 Si / 1000 Ang^3
#
#
#
# Elastic Constant Matrix: (Units=GPa)
#
#
# Indices 1 2 3 4 5 6 
#
# 1 82.9402 16.8873 -3.7146 0.0000 3.6209 0.0000
# 2 16.8873 60.3284 17.3741 0.0000 -0.2325 0.0000
# 3 -3.7146 17.3741 57.2485 0.0000 -9.1969 0.0000
# 4 0.0000 0.0000 0.0000 37.2948 0.0000 -5.1580
# 5 3.6209 -0.2325 -9.1969 0.0000 37.5722 0.0000
# 6 0.0000 0.0000 0.0000 -5.1580 0.0000 26.9746
#
#
#
# Elastic Compliance Matrix: (Units=1/GPa)
#
#
# Indices 1 2 3 4 5 6 
#
# 1 0.013043 -0.004231 0.002003 0.000000 -0.000793 0.000000
# 2 -0.004231 0.019596 -0.006388 0.000000 -0.001035 0.000000
# 3 0.002003 -0.006388 0.020297 0.000000 0.004736 0.000000
# 4 0.000000 0.000000 0.000000 0.027542 0.000000 0.005266
# 5 -0.000793 -0.001035 0.004736 0.000000 0.027845 0.000000
# 6 0.000000 0.000000 0.000000 0.005266 0.000000 0.038079
#
#
# Mechanical properties :
#
#
# Convention : Reuss Voigt Hill
#
# Bulk Modulus (GPa) = 28.00795 29.06787 28.53791
# Shear Modulus (GPa) = 28.48456 31.69968 30.09212
#
# Velocity S-wave (km/s) = 3.73608 3.94129 3.84006
# Velocity P-wave (km/s) = 5.68645 5.91234 5.80050
#
# Compressibility (1/GPa) = 0.03570414
#
# Stress axis : x y z
#
# Youngs Moduli (GPa) = 76.67171 51.03111 49.26821
#
# Poissons Ratio (x) = 0.21590 -0.09868
# Poissons Ratio (y) = 0.32438 0.31472
# Poissons Ratio (z) = -0.15357 0.32598
#
# Static dielectric constant tensor:
#      x y z
#    x 3.991990 0.000000 0.180330 
#    y 0.000000 3.593330 0.000000 
#    z 0.180330 0.000000 3.810480 
# 
# 
# High freq. dielectric constant tensor:
#      x y z
#    x 1.817140 0.000000 0.004920 
#    y 0.000000 1.790080 0.000000 
#    z 0.004920 0.000000 1.812640 
# 
# From -- ./inp_files/221535.got.cif
#   From: 2010.06.25/outbox.cif.g09.slc.cpg/sg12_111_cif.got.tgz:221535.got - 2010.06.28 00:19:55.
