data_PCOD8106869
_publ_section_title
;
Structure prediction by ZEFSAII (Michael W. Deem and Ramdas Pophale) SiO2 
 PCOD8106869
Probable space group: C 2/M
;
_chemical_formula_sum "Si O2"
_cell_formula_units_Z 48
_cell_length_a 29.969623
_cell_length_b 8.997453
_cell_length_c 9.365002
_cell_angle_alpha 90.000000
_cell_angle_beta 90.940668
_cell_angle_gamma 90.000000
_cell_volume 2524.935032
_symmetry_space_group_name_H-M "C 2/M"
_symmetry_group_IT_number 12
_symmetry_cell_setting 'monoclinic'
loop_
_space_group_symop_operation_xyz
x,y,z
-x,y,-z
-x,-y,-z
x,-y,z
1/2+x,1/2+y,z
1/2-x,1/2+y,-z
1/2-x,1/2-y,-z
1/2+x,1/2-y,z
loop_
_atom_site_type_symbol
_atom_site_label
_atom_site_fract_x
_atom_site_fract_y
_atom_site_fract_z
Si Si1 0.324845 0.827007 0.851191
Si Si2 0.829432 0.329826 0.177098
Si Si3 0.570238 0.172305 0.871735
Si Si4 0.490168 0.826421 0.661474
Si Si5 0.082967 0.175742 0.165012
Si Si6 0.256975 0.325269 0.349716
O O1 0.367332 0.733788 0.802830
O O2 0.282808 0.774861 0.756715
O O3 0.336247 0.000000 0.830244
O O4 0.313672 0.794001 0.015517
O O5 0.819042 0.500000 0.216518
O O6 0.881823 0.294444 0.196110
O O7 0.803763 0.224800 0.285278
O O8 0.533065 0.219065 0.756680
O O9 0.566935 0.000000 0.915614
O O10 0.563090 0.265498 0.014874
O O11 0.500000 0.782738 0.500000
O O12 0.447743 0.732363 0.708151
O O13 0.479131 0.000000 0.677003
O O14 0.083528 0.000000 0.162022
O O15 0.257768 0.500000 0.371302
O O16 0.250000 0.250000 0.500000
#
# Coordination Sequence:
#
# PCOD8106869 Si02
#       6
#     8   8   8   8   8   8
#     4   9  20  39  60  80 106 144 186 223 265 324
#     4   9  18  35  58  82 107 138 182 231 272 314
#     4   9  19  37  59  81 108 145 185 222 265 324
#     4  10  21  37  57  80 109 148 188 222 264 324
#     4  11  22  35  56  85 112 139 178 230 279 319
#     4  11  23  37  55  81 113 148 182 219 268 325
#
# _framework density 19.010390000000001
#
# number of rings (size 3 to 8) (size 9 to 14) (size 15 to 20)
#    0.000    2.167    0.000    4.000    0.000    8.333 
#    0.000    3.333    0.000    0.000    0.000    0.000 
#    0.000    0.000    0.000    0.000    0.000    0.000 
#
# Total GULP energy -297711.857262 kJ/mol
# GULP energy per Si atom -12404.660719 kJ/mol
# Density = 1.896712 g / cm^3
# Si number density = 19.010390 Si / 1000 Ang^3
#
#
#
# Elastic Constant Matrix: (Units=GPa)
#
#
# Indices 1 2 3 4 5 6 
#
# 1 87.9832 44.7796 48.6264 0.0000 -23.5078 0.0000
# 2 44.7796 83.0083 43.2582 0.0000 -19.7769 0.0000
# 3 48.6264 43.2582 88.7615 0.0000 -26.3374 0.0000
# 4 0.0000 0.0000 0.0000 27.2572 0.0000 -8.2562
# 5 -23.5078 -19.7769 -26.3374 0.0000 24.7330 0.0000
# 6 0.0000 0.0000 0.0000 -8.2562 0.0000 29.1833
#
#
#
# Elastic Compliance Matrix: (Units=1/GPa)
#
#
# Indices 1 2 3 4 5 6 
#
# 1 0.019466 -0.005719 -0.005473 0.000000 0.008100 0.000000
# 2 -0.005719 0.018607 -0.004581 0.000000 0.004565 0.000000
# 3 -0.005473 -0.004581 0.020272 0.000000 0.012722 0.000000
# 4 0.000000 0.000000 0.000000 0.040126 0.000000 0.011352
# 5 0.008100 0.004565 0.012722 0.000000 0.065328 0.000000
# 6 0.000000 0.000000 0.000000 0.011352 0.000000 0.037478
#
#
# Mechanical properties :
#
#
# Convention : Reuss Voigt Hill
#
# Bulk Modulus (GPa) = 37.31496 59.23126 48.27311
# Shear Modulus (GPa) = 20.68211 24.44062 22.56137
#
# Velocity S-wave (km/s) = 3.30197 3.58948 3.44872
# Velocity P-wave (km/s) = 5.84882 6.95731 6.42700
#
# Compressibility (1/GPa) = 0.02679890
#
# Stress axis : x y z
#
# Youngs Moduli (GPa) = 51.37264 53.74400 49.32940
#
# Poissons Ratio (x) = 0.30734 0.27000
# Poissons Ratio (y) = 0.29378 0.22596
# Poissons Ratio (z) = 0.28118 0.24618
#
# Static dielectric constant tensor:
#      x y z
#    x 3.593760 0.000000 0.081750 
#    y 0.000000 3.352280 0.000000 
#    z 0.081750 0.000000 3.468550 
# 
# 
# High freq. dielectric constant tensor:
#      x y z
#    x 1.749770 0.000000 -0.001860 
#    y 0.000000 1.730700 0.000000 
#    z -0.001860 0.000000 1.736160 
# 
# From -- ./inp_files/108633.got.cif
#   From: 2010.06.25/outbox.cif.g09.slc.cpg/sg12_55_cif.got.tgz:108633.got - 2010.06.28 00:19:55.
