data_PCOD8106601
_publ_section_title
;
Structure prediction by ZEFSAII (Michael W. Deem and Ramdas Pophale) SiO2 
 PCOD8106601
Probable space group: C 2/M
;
_chemical_formula_sum "Si O2"
_cell_formula_units_Z 64
_cell_length_a 7.898819
_cell_length_b 26.503415
_cell_length_c 14.129169
_cell_angle_alpha 90.000000
_cell_angle_beta 76.582003
_cell_angle_gamma 90.000000
_cell_volume 2877.139309
_symmetry_space_group_name_H-M "C 2/M"
_symmetry_group_IT_number 12
_symmetry_cell_setting 'monoclinic'
loop_
_space_group_symop_operation_xyz
x,y,z
-x,y,-z
-x,-y,-z
x,-y,z
1/2+x,1/2+y,z
1/2-x,1/2+y,-z
1/2-x,1/2-y,-z
1/2+x,1/2-y,z
loop_
_atom_site_type_symbol
_atom_site_label
_atom_site_fract_x
_atom_site_fract_y
_atom_site_fract_z
Si Si1 0.288156 0.870111 0.129093
Si Si2 0.221173 0.588666 0.289979
Si Si3 0.116813 0.556620 0.741950
Si Si4 0.707795 0.305392 0.971429
Si Si5 0.096374 0.801781 0.283371
Si Si6 0.511179 0.441259 0.888454
Si Si7 0.972927 0.098087 0.612207
Si Si8 0.763760 0.302042 0.752128
O O1 0.431175 0.906562 0.161074
O O2 0.259525 0.822892 0.202919
O O3 0.119977 0.906737 0.153891
O O4 0.314637 0.847173 0.020742
O O5 0.300762 0.573929 0.176802
O O6 0.360058 0.574599 0.353791
O O7 0.172482 0.647633 0.307883
O O8 0.036684 0.559818 0.317465
O O9 0.130271 0.500000 0.778702
O O10 0.296857 0.572026 0.669492
O O11 0.800705 0.308428 0.858347
O O12 0.500000 0.316781 0.000000
O O13 0.750000 0.250000 0.000000
O O14 0.144500 0.745527 0.312175
O O15 0.042903 0.840814 0.373159
O O16 0.942558 0.795909 0.228273
O O17 0.468903 0.500000 0.877391
O O18 0.500000 0.427270 0.000000
O O19 0.000000 0.085249 0.500000
#
# Coordination Sequence:
#
# PCOD8106601 Si02
#       8
#     8   8   8   8   8   8   8   8
#     4  11  20  37  57  87 134 175 219 274 319 395
#     4  11  23  43  69  98 136 175 222 285 336 396
#     4  11  25  43  71 102 131 174 230 282 347 411
#     4  12  21  33  55  91 133 177 229 275 322 386
#     4  10  21  36  61  88 127 168 214 264 332 404
#     4  11  21  38  65  90 126 182 228 271 327 385
#     4  10  24  48  73  99 136 171 218 281 354 427
#     4  11  20  36  58  89 128 180 219 266 333 387
#
# _framework density 22.244318
#
# number of rings (size 3 to 8) (size 9 to 14) (size 15 to 20)
#    0.000    1.125    6.250    1.875    3.500    2.250 
#    0.000    5.000    0.000    4.500    0.000    0.000 
#    0.000    0.000    0.000    0.000    0.000    0.000 
#
# Total GULP energy -396537.670317 kJ/mol
# GULP energy per Si atom -12391.802197 kJ/mol
# Density = 2.219369 g / cm^3
# Si number density = 22.244318 Si / 1000 Ang^3
#
#
#
# Elastic Constant Matrix: (Units=GPa)
#
#
# Indices 1 2 3 4 5 6 
#
# 1 101.8026 32.6108 42.0638 0.0000 18.0310 0.0000
# 2 32.6108 123.8742 26.4093 0.0000 6.6369 0.0000
# 3 42.0638 26.4093 77.3164 0.0000 18.6285 0.0000
# 4 0.0000 0.0000 0.0000 18.4317 0.0000 -0.2138
# 5 18.0310 6.6369 18.6285 0.0000 16.3640 0.0000
# 6 0.0000 0.0000 0.0000 -0.2138 0.0000 24.5311
#
#
#
# Elastic Compliance Matrix: (Units=1/GPa)
#
#
# Indices 1 2 3 4 5 6 
#
# 1 0.014119 -0.002220 -0.004673 0.000000 -0.009337 0.000000
# 2 -0.002220 0.009056 -0.002191 0.000000 0.001267 0.000000
# 3 -0.004673 -0.002191 0.020352 0.000000 -0.017131 0.000000
# 4 0.000000 0.000000 0.000000 0.054260 0.000000 0.000473
# 5 -0.009337 0.001267 -0.017131 0.000000 0.090385 0.000000
# 6 0.000000 0.000000 0.000000 0.000473 0.000000 0.040769
#
#
# Mechanical properties :
#
#
# Convention : Reuss Voigt Hill
#
# Bulk Modulus (GPa) = 39.43483 56.12900 47.78192
# Shear Modulus (GPa) = 19.56466 25.32596 22.44531
#
# Velocity S-wave (km/s) = 2.96891 3.37788 3.17998
# Velocity P-wave (km/s) = 5.43315 6.36405 5.91694
#
# Compressibility (1/GPa) = 0.02535829
#
# Stress axis : x y z
#
# Youngs Moduli (GPa) = 70.82740 110.41927 49.13478
#
# Poissons Ratio (x) = 0.24517 0.22963
# Poissons Ratio (y) = 0.15726 0.10765
# Poissons Ratio (z) = 0.33100 0.24191
#
# Static dielectric constant tensor:
#      x y z
#    x 4.103890 0.000000 0.313540 
#    y 0.000000 4.359180 0.000000 
#    z 0.313540 0.000000 3.662120 
# 
# 
# High freq. dielectric constant tensor:
#      x y z
#    x 1.875540 0.000000 0.019340 
#    y 0.000000 1.892390 0.000000 
#    z 0.019340 0.000000 1.827320 
# 
# From -- ./inp_files/199838.got.cif
#   From: 2010.06.25/outbox.cif.g09.slc.cpg/sg12_100_cif.got.tgz:199838.got - 2010.06.28 00:19:55.
