data_PCOD8106803
_publ_section_title
;
Structure prediction by ZEFSAII (Michael W. Deem and Ramdas Pophale) SiO2 
 PCOD8106803
Probable space group: C 2/M
;
_chemical_formula_sum "Si O2"
_cell_formula_units_Z 56
_cell_length_a 15.051989
_cell_length_b 8.926074
_cell_length_c 24.431882
_cell_angle_alpha 90.000000
_cell_angle_beta 61.681034
_cell_angle_gamma 90.000000
_cell_volume 2889.695290
_symmetry_space_group_name_H-M "C 2/M"
_symmetry_group_IT_number 12
_symmetry_cell_setting 'monoclinic'
loop_
_space_group_symop_operation_xyz
x,y,z
-x,y,-z
-x,-y,-z
x,-y,z
1/2+x,1/2+y,z
1/2-x,1/2+y,-z
1/2-x,1/2-y,-z
1/2+x,1/2-y,z
loop_
_atom_site_type_symbol
_atom_site_label
_atom_site_fract_x
_atom_site_fract_y
_atom_site_fract_z
Si Si1 0.471272 0.830150 0.068531
Si Si2 0.682049 0.323198 0.810519
Si Si3 0.920480 0.822216 0.269708
Si Si4 0.324500 0.323301 0.409552
Si Si5 0.681603 0.170069 0.064201
Si Si6 0.099139 0.676563 0.505423
Si Si7 0.855331 0.822609 0.813248
O O1 0.387793 0.721489 0.117906
O O2 0.566479 0.824269 0.079961
O O3 0.428508 0.000000 0.076756
O O4 0.500000 0.770093 0.000000
O O5 0.698087 0.500000 0.806443
O O6 0.637635 0.263935 0.766524
O O7 0.788126 0.238059 0.783251
O O8 0.867306 0.760212 0.339832
O O9 0.033610 0.760260 0.231730
O O10 0.920746 0.000000 0.270786
O O11 0.338117 0.500000 0.411361
O O12 0.205303 0.280675 0.445041
O O13 0.393323 0.250428 0.436894
O O14 0.692032 0.257056 0.117687
O O15 0.719007 0.000000 0.060896
O O16 0.750000 0.250000 0.000000
O O17 0.088878 0.500000 0.516509
O O18 0.000000 0.734395 0.500000
O O19 0.853435 0.000000 0.817795
#
# Coordination Sequence:
#
# PCOD8106803 Si02
#       7
#     8   8   8   8   8   8   8
#     4  10  21  37  56  80 110 143 181 231 288 344
#     4  11  22  38  59  84 110 144 190 236 287 347
#     4   9  20  38  58  80 113 154 191 233 288 345
#     4   9  18  35  57  81 113 154 195 232 278 338
#     4  11  22  36  57  84 113 145 185 232 289 347
#     4   9  18  33  55  85 119 152 188 235 285 329
#     4  11  22  39  58  79 111 149 189 236 289 342
#
# _framework density 19.379206
#
# number of rings (size 3 to 8) (size 9 to 14) (size 15 to 20)
#    0.000    2.000    1.429    2.143    0.000    3.429 
#    0.000    4.286    0.000    0.000    0.000    0.000 
#    0.000    0.000    0.000    0.000    0.000    0.000 
#
# Total GULP energy -347194.649371 kJ/mol
# GULP energy per Si atom -12399.808906 kJ/mol
# Density = 1.933510 g / cm^3
# Si number density = 19.379206 Si / 1000 Ang^3
#
#
#
# Elastic Constant Matrix: (Units=GPa)
#
#
# Indices 1 2 3 4 5 6 
#
# 1 155.3201 40.0104 71.2770 0.0000 9.7726 0.0000
# 2 40.0104 65.8715 35.7689 0.0000 -0.0623 0.0000
# 3 71.2770 35.7689 152.7110 0.0000 4.5561 0.0000
# 4 0.0000 0.0000 0.0000 24.6119 0.0000 3.2767
# 5 9.7726 -0.0623 4.5561 0.0000 24.8987 0.0000
# 6 0.0000 0.0000 0.0000 3.2767 0.0000 29.5237
#
#
#
# Elastic Compliance Matrix: (Units=1/GPa)
#
#
# Indices 1 2 3 4 5 6 
#
# 1 0.009096 -0.003747 -0.003279 0.000000 -0.002979 0.000000
# 2 -0.003747 0.018953 -0.002751 0.000000 0.002021 0.000000
# 3 -0.003279 -0.002751 0.008732 0.000000 -0.000318 0.000000
# 4 0.000000 0.000000 0.000000 0.041240 0.000000 -0.004577
# 5 -0.002979 0.002021 -0.000318 0.000000 0.041395 0.000000
# 6 0.000000 0.000000 0.000000 -0.004577 0.000000 0.034379
#
#
# Mechanical properties :
#
#
# Convention : Reuss Voigt Hill
#
# Bulk Modulus (GPa) = 58.04597 74.22391 66.13494
# Shear Modulus (GPa) = 27.91879 30.92993 29.42436
#
# Velocity S-wave (km/s) = 3.79972 3.99938 3.90082
# Velocity P-wave (km/s) = 7.01913 7.72727 7.38169
#
# Compressibility (1/GPa) = 0.01722772
#
# Stress axis : x y z
#
# Youngs Moduli (GPa) = 109.94216 52.76328 114.51591
#
# Poissons Ratio (x) = 0.19771 0.37547
# Poissons Ratio (y) = 0.41197 0.31498
# Poissons Ratio (z) = 0.36048 0.14513
#
# Static dielectric constant tensor:
#      x y z
#    x 3.928870 0.000000 0.032850 
#    y 0.000000 3.399320 0.000000 
#    z 0.032850 0.000000 3.601820 
# 
# 
# High freq. dielectric constant tensor:
#      x y z
#    x 1.768890 0.000000 0.003210 
#    y 0.000000 1.740030 0.000000 
#    z 0.003210 0.000000 1.750880 
# 
# From -- ./inp_files/337886.got.cif
#   From: 2010.06.25/outbox.cif.g09.slc.cpg/sg12_169_cif.got.tgz:337886.got - 2010.06.28 00:19:55.
