data_PCOD8106264
_publ_section_title
;
Structure prediction by ZEFSAII (Michael W. Deem and Ramdas Pophale) SiO2 
 PCOD8106264
Probable space group: C 2/M
;
_chemical_formula_sum "Si O2"
_cell_formula_units_Z 48
_cell_length_a 34.278163
_cell_length_b 10.685926
_cell_length_c 24.513694
_cell_angle_alpha 90.000000
_cell_angle_beta 165.278508
_cell_angle_gamma 90.000000
_cell_volume 2281.805377
_symmetry_space_group_name_H-M "C 2/M"
_symmetry_group_IT_number 12
_symmetry_cell_setting 'monoclinic'
loop_
_space_group_symop_operation_xyz
x,y,z
-x,y,-z
-x,-y,-z
x,-y,z
1/2+x,1/2+y,z
1/2-x,1/2+y,-z
1/2-x,1/2-y,-z
1/2+x,1/2-y,z
loop_
_atom_site_type_symbol
_atom_site_label
_atom_site_fract_x
_atom_site_fract_y
_atom_site_fract_z
Si Si1 0.573893 0.740772 0.372682
Si Si2 0.406731 0.855075 0.823461
Si Si3 0.986151 0.357099 0.145753
Si Si4 0.851987 0.857507 0.336570
Si Si5 0.435749 0.860895 0.525139
Si Si6 0.266626 0.364391 0.982988
O O1 0.725775 0.660395 0.587643
O O2 0.585880 0.808984 0.331060
O O3 0.555369 0.838148 0.397608
O O4 0.425143 0.650829 0.164615
O O5 0.462946 0.791786 0.842546
O O6 0.450522 0.000000 0.881455
O O7 0.500000 0.791659 0.000000
O O8 0.031965 0.500000 0.202422
O O9 0.802962 0.340039 0.908279
O O10 0.844307 0.753721 0.374034
O O11 0.000000 0.833875 0.500000
O O12 0.856822 0.000000 0.367643
O O13 0.609623 0.862310 0.735023
O O14 0.362153 0.000000 0.415422
O O15 0.274309 0.500000 0.023722
O O16 0.250000 0.250000 0.000000
#
# Coordination Sequence:
#
# PCOD8106264 Si02
#       6
#     8   8   8   8   8   8
#     4  11  20  35  59  82 113 151 193 236 284 344
#     4  10  21  37  58  83 111 147 194 243 288 337
#     4  10  21  37  57  84 116 149 189 238 287 337
#     4  10  21  38  61  87 115 153 197 236 278 336
#     4  10  21  36  56  85 120 155 188 232 290 342
#     4   9  19  33  52  82 116 149 188 231 278 332
#
# _framework density 21.035975000000001
#
# number of rings (size 3 to 8) (size 9 to 14) (size 15 to 20)
#    0.000    2.000    0.000    3.500    0.000    5.667 
#    0.000    5.000    0.000   11.000    0.000    0.000 
#    0.000    0.000    0.000    0.000    0.000    0.000 
#
# Total GULP energy -297323.730639 kJ/mol
# GULP energy per Si atom -12388.488777 kJ/mol
# Density = 2.098810 g / cm^3
# Si number density = 21.035975 Si / 1000 Ang^3
#
#
#
# Elastic Constant Matrix: (Units=GPa)
#
#
# Indices 1 2 3 4 5 6 
#
# 1 95.4695 25.7436 36.4673 -0.0008 -11.9541 -0.0007
# 2 25.7436 113.4775 15.1031 -0.0002 -19.3662 -0.0001
# 3 36.4673 15.1031 86.1114 -0.0006 -4.2960 -0.0008
# 4 -0.0008 -0.0002 -0.0006 24.9783 -0.0006 -2.0319
# 5 -11.9541 -19.3662 -4.2960 -0.0006 40.3264 -0.0006
# 6 -0.0007 -0.0001 -0.0008 -2.0319 -0.0006 23.2100
#
#
#
# Elastic Compliance Matrix: (Units=1/GPa)
#
#
# Indices 1 2 3 4 5 6 
#
# 1 0.013268 -0.001901 -0.005162 0.000000 0.002470 0.000000
# 2 -0.001901 0.010058 -0.000750 0.000000 0.004187 0.000000
# 3 -0.005162 -0.000750 0.013910 0.000000 -0.000409 0.000000
# 4 0.000000 0.000000 0.000000 0.040322 0.000001 0.003530
# 5 0.002470 0.004187 -0.000409 0.000001 0.027497 0.000001
# 6 0.000000 0.000000 0.000000 0.003530 0.000001 0.043394
#
#
# Mechanical properties :
#
#
# Convention : Reuss Voigt Hill
#
# Bulk Modulus (GPa) = 46.27665 49.96516 48.12091
# Shear Modulus (GPa) = 29.19197 32.21923 30.70560
#
# Velocity S-wave (km/s) = 3.72925 3.91784 3.82471
# Velocity P-wave (km/s) = 6.37100 6.65356 6.51381
#
# Compressibility (1/GPa) = 0.02160917
#
# Stress axis : x y z
#
# Youngs Moduli (GPa) = 75.36658 99.42327 71.88964
#
# Poissons Ratio (x) = 0.18905 0.37112
# Poissons Ratio (y) = 0.14331 0.05391
# Poissons Ratio (z) = 0.38907 0.07456
#
# Static dielectric constant tensor:
#      x y z
#    x 3.786340 0.000000 0.169230 
#    y 0.000000 3.764050 0.000000 
#    z 0.169230 0.000000 3.933240 
# 
# 
# High freq. dielectric constant tensor:
#      x y z
#    x 1.807840 0.000000 0.010500 
#    y 0.000000 1.809500 0.000000 
#    z 0.010500 0.000000 1.826590 
# 
# From -- ./inp_files/330069.got.cif
#   From: 2010.06.25/outbox.cif.g09.slc.cpg/sg12_166_cif.got.tgz:330069.got - 2010.06.28 00:19:55.
