data_PCOD8106286
_publ_section_title
;
Structure prediction by ZEFSAII (Michael W. Deem and Ramdas Pophale) SiO2 
 PCOD8106286
Probable space group: C 2/M
;
_chemical_formula_sum "Si O2"
_cell_formula_units_Z 64
_cell_length_a 9.297465
_cell_length_b 28.001997
_cell_length_c 15.314220
_cell_angle_alpha 90.000000
_cell_angle_beta 62.144622
_cell_angle_gamma 90.000000
_cell_volume 3525.043338
_symmetry_space_group_name_H-M "C 2/M"
_symmetry_group_IT_number 12
_symmetry_cell_setting 'monoclinic'
loop_
_space_group_symop_operation_xyz
x,y,z
-x,y,-z
-x,-y,-z
x,-y,z
1/2+x,1/2+y,z
1/2-x,1/2+y,-z
1/2-x,1/2-y,-z
1/2+x,1/2-y,z
loop_
_atom_site_type_symbol
_atom_site_label
_atom_site_fract_x
_atom_site_fract_y
_atom_site_fract_z
Si Si1 0.559812 0.344069 0.230247
Si Si2 0.179872 0.052285 0.184212
Si Si3 0.504346 0.905265 0.100695
Si Si4 0.168914 0.052735 0.981529
Si Si5 0.244433 0.801510 0.604019
Si Si6 0.386621 0.811307 0.208413
Si Si7 0.567068 0.204148 0.613626
Si Si8 0.076825 0.225572 0.070293
O O1 0.571569 0.401394 0.234938
O O2 0.378600 0.338539 0.318121
O O3 0.692047 0.315679 0.251386
O O4 0.589306 0.323316 0.123535
O O5 0.356440 0.062086 0.178706
O O6 0.116580 0.000000 0.237299
O O7 0.188149 0.048902 0.078568
O O8 0.674534 0.918631 0.098749
O O9 0.476055 0.849470 0.122736
O O10 0.500000 0.914680 0.000000
O O11 0.172039 0.000000 0.937778
O O12 0.000000 0.078194 0.000000
O O13 0.327168 0.822276 0.491921
O O14 0.382052 0.788882 0.635663
O O15 0.142468 0.755276 0.610075
O O16 0.427643 0.824451 0.297170
O O17 0.456315 0.759937 0.159801
O O18 0.250000 0.250000 0.000000
O O19 0.000000 0.211262 0.000000
#
# Coordination Sequence:
#
# PCOD8106286 Si02
#       8
#     8   8   8   8   8   8   8   8
#     4  11  23  37  56  82 108 147 192 222 276 326
#     4   9  19  35  53  74 102 138 186 236 272 315
#     4   9  18  32  52  72 102 141 183 218 266 320
#     4   9  17  29  46  70  99 131 175 228 273 310
#     4  10  21  37  55  82 106 144 180 223 273 326
#     4  11  22  36  52  78 108 147 185 224 260 325
#     4  10  21  36  57  78 112 141 178 224 271 320
#     4  12  25  37  50  74 116 158 184 216 260 320
#
# _framework density 18.155804
#
# number of rings (size 3 to 8) (size 9 to 14) (size 15 to 20)
#    0.000    1.875    2.500    1.500    5.250    4.500 
#    0.000    0.000    0.000    0.000    0.000    9.625 
#    0.000    0.000    0.000    0.000    0.000    0.000 
#
# Total GULP energy -396489.159796 kJ/mol
# GULP energy per Si atom -12390.286244 kJ/mol
# Density = 1.811448 g / cm^3
# Si number density = 18.155804 Si / 1000 Ang^3
#
#
#
# Elastic Constant Matrix: (Units=GPa)
#
#
# Indices 1 2 3 4 5 6 
#
# 1 152.1956 41.8888 45.7896 0.0000 -6.1053 0.0000
# 2 41.8888 85.4645 24.5231 0.0000 -12.2335 0.0000
# 3 45.7896 24.5231 74.2145 0.0000 -2.0364 0.0000
# 4 0.0000 0.0000 0.0000 10.3993 0.0000 -1.3851
# 5 -6.1053 -12.2335 -2.0364 0.0000 32.6969 0.0000
# 6 0.0000 0.0000 0.0000 -1.3851 0.0000 22.1680
#
#
#
# Elastic Compliance Matrix: (Units=1/GPa)
#
#
# Indices 1 2 3 4 5 6 
#
# 1 0.008721 -0.002981 -0.004389 0.000000 0.000240 0.000000
# 2 -0.002981 0.014667 -0.002877 0.000000 0.004752 0.000000
# 3 -0.004389 -0.002877 0.017111 0.000000 -0.000830 0.000000
# 4 0.000000 0.000000 0.000000 0.096968 0.000000 0.006059
# 5 0.000240 0.004752 -0.000830 0.000000 0.032355 0.000000
# 6 0.000000 0.000000 0.000000 0.006059 0.000000 0.045489
#
#
# Mechanical properties :
#
#
# Convention : Reuss Voigt Hill
#
# Bulk Modulus (GPa) = 49.98818 59.58639 54.78728
# Shear Modulus (GPa) = 20.62087 26.36439 23.49263
#
# Velocity S-wave (km/s) = 3.37378 3.81480 3.60105
# Velocity P-wave (km/s) = 6.53981 7.23148 6.89433
#
# Compressibility (1/GPa) = 0.02000473
#
# Stress axis : x y z
#
# Youngs Moduli (GPa) = 114.66512 68.17802 58.44347
#
# Poissons Ratio (x) = 0.20322 0.25653
# Poissons Ratio (y) = 0.34178 0.16815
# Poissons Ratio (z) = 0.50330 0.19616
#
# Static dielectric constant tensor:
#      x y z
#    x 3.797220 0.000000 -0.007730 
#    y 0.000000 3.326230 0.000000 
#    z -0.007730 0.000000 3.425410 
# 
# 
# High freq. dielectric constant tensor:
#      x y z
#    x 1.724460 0.000000 -0.003580 
#    y 0.000000 1.681090 0.000000 
#    z -0.003580 0.000000 1.672690 
# 
# From -- ./inp_files/199764.got.cif
#   From: 2010.06.25/outbox.cif.g09.slc.cpg/sg12_100_cif.got.tgz:199764.got - 2010.06.28 00:19:55.
