data_PCOD8106377
_publ_section_title
;
Structure prediction by ZEFSAII (Michael W. Deem and Ramdas Pophale) SiO2 
 PCOD8106377
Probable space group: C 2/M
;
_chemical_formula_sum "Si O2"
_cell_formula_units_Z 56
_cell_length_a 23.788324
_cell_length_b 13.468437
_cell_length_c 8.815872
_cell_angle_alpha 90.000000
_cell_angle_beta 69.198553
_cell_angle_gamma 90.000000
_cell_volume 2640.418616
_symmetry_space_group_name_H-M "C 2/M"
_symmetry_group_IT_number 12
_symmetry_cell_setting 'monoclinic'
loop_
_space_group_symop_operation_xyz
x,y,z
-x,y,-z
-x,-y,-z
x,-y,z
1/2+x,1/2+y,z
1/2-x,1/2+y,-z
1/2-x,1/2-y,-z
1/2+x,1/2-y,z
loop_
_atom_site_type_symbol
_atom_site_label
_atom_site_fract_x
_atom_site_fract_y
_atom_site_fract_z
Si Si1 0.359688 0.888612 0.508426
Si Si2 0.883127 0.794300 0.313815
Si Si3 0.733052 0.609668 0.472907
Si Si4 0.657667 0.808211 0.143541
Si Si5 0.772366 0.114005 0.869067
Si Si6 0.991605 0.113489 0.340146
Si Si7 0.556546 0.249237 0.039191
O O1 0.399010 0.816090 0.363168
O O2 0.291808 0.886682 0.516960
O O3 0.361977 0.849474 0.676446
O O4 0.386483 0.000000 0.472836
O O5 0.812788 0.812771 0.408350
O O6 0.921262 0.875806 0.368888
O O7 0.899046 0.802877 0.122177
O O8 0.704344 0.500000 0.507620
O O9 0.746882 0.637301 0.285333
O O10 0.674656 0.690536 0.134925
O O11 0.599340 0.826013 0.091051
O O12 0.713767 0.870903 0.028626
O O13 0.794895 0.000000 0.868113
O O14 0.031352 0.170552 0.179915
O O15 0.000000 0.158361 0.500000
O O16 0.012121 0.000000 0.316052
O O17 0.500000 0.200105 0.000000
#
# Coordination Sequence:
#
# PCOD8106377 Si02
#       7
#     8   8   8   8   8   8   8
#     4  11  23  38  61  91 124 161 206 255 307 369
#     4  11  21  38  61  85 123 163 204 247 309 368
#     4  10  21  36  57  89 124 162 200 242 305 375
#     4  11  22  39  62  89 125 167 204 258 316 363
#     4  10  22  37  59  92 128 165 205 249 306 376
#     4  10  22  40  63  92 122 156 202 254 310 366
#     4  10  24  41  63  88 121 164 206 254 308 370
#
# _framework density 21.208758
#
# number of rings (size 3 to 8) (size 9 to 14) (size 15 to 20)
#    0.000    1.571    1.429    3.000    4.000    3.714 
#    0.000    0.714    0.000   19.714    0.000    0.000 
#    0.000    0.000    0.000    0.000    0.000    0.000 
#
# Total GULP energy -347144.293142 kJ/mol
# GULP energy per Si atom -12398.010469 kJ/mol
# Density = 2.116049 g / cm^3
# Si number density = 21.208758 Si / 1000 Ang^3
#
#
#
# Elastic Constant Matrix: (Units=GPa)
#
#
# Indices 1 2 3 4 5 6 
#
# 1 72.6861 6.8405 27.6750 0.0000 22.6682 0.0000
# 2 6.8405 92.6390 32.8823 0.0000 2.7899 0.0000
# 3 27.6750 32.8823 134.4405 0.0000 12.2730 0.0000
# 4 0.0000 0.0000 0.0000 24.0426 0.0000 1.8731
# 5 22.6682 2.7899 12.2730 0.0000 33.3720 0.0000
# 6 0.0000 0.0000 0.0000 1.8731 0.0000 25.0691
#
#
#
# Elastic Compliance Matrix: (Units=1/GPa)
#
#
# Indices 1 2 3 4 5 6 
#
# 1 0.018379 -0.000044 -0.002725 0.000000 -0.011478 0.000000
# 2 -0.000044 0.011821 -0.002892 0.000000 0.000105 0.000000
# 3 -0.002725 -0.002892 0.008811 0.000000 -0.001148 0.000000
# 4 0.000000 0.000000 0.000000 0.041836 0.000000 -0.003126
# 5 -0.011478 0.000105 -0.001148 0.000000 0.038175 0.000000
# 6 0.000000 0.000000 0.000000 -0.003126 0.000000 0.040123
#
#
# Mechanical properties :
#
#
# Convention : Reuss Voigt Hill
#
# Bulk Modulus (GPa) = 36.11431 48.28458 42.19945
# Shear Modulus (GPa) = 27.82445 31.98793 29.90619
#
# Velocity S-wave (km/s) = 3.62599 3.88782 3.75919
# Velocity P-wave (km/s) = 5.88178 6.55510 6.22755
#
# Compressibility (1/GPa) = 0.02768985
#
# Stress axis : x y z
#
# Youngs Moduli (GPa) = 54.40961 84.59434 113.49187
#
# Poissons Ratio (x) = 0.00375 0.30923
# Poissons Ratio (y) = 0.00241 0.32819
# Poissons Ratio (z) = 0.14825 0.24463
#
# Static dielectric constant tensor:
#      x y z
#    x 3.836780 0.000000 0.170460 
#    y 0.000000 3.984310 0.000000 
#    z 0.170460 0.000000 3.931820 
# 
# 
# High freq. dielectric constant tensor:
#      x y z
#    x 1.823200 0.000000 0.011000 
#    y 0.000000 1.817440 0.000000 
#    z 0.011000 0.000000 1.847740 
# 
# From -- ./inp_files/96278.got.cif
#   From: 2010.06.25/outbox.cif.g09.slc.cpg/sg12_49_cif.got.tgz:96278.got - 2010.06.28 00:19:55.
