data_PCOD8106984
_publ_section_title
;
Structure prediction by ZEFSAII (Michael W. Deem and Ramdas Pophale) SiO2 
 PCOD8106984
Probable space group: C 2/M
;
_chemical_formula_sum "Si O2"
_cell_formula_units_Z 56
_cell_length_a 21.251301
_cell_length_b 8.846390
_cell_length_c 15.096494
_cell_angle_alpha 90.000000
_cell_angle_beta 87.145294
_cell_angle_gamma 90.000000
_cell_volume 2834.578093
_symmetry_space_group_name_H-M "C 2/M"
_symmetry_group_IT_number 12
_symmetry_cell_setting 'monoclinic'
loop_
_space_group_symop_operation_xyz
x,y,z
-x,y,-z
-x,-y,-z
x,-y,z
1/2+x,1/2+y,z
1/2-x,1/2+y,-z
1/2-x,1/2-y,-z
1/2+x,1/2-y,z
loop_
_atom_site_type_symbol
_atom_site_label
_atom_site_fract_x
_atom_site_fract_y
_atom_site_fract_z
Si Si1 0.706860 0.173477 0.128804
Si Si2 0.040902 0.824115 0.912532
Si Si3 0.056745 0.321125 0.557754
Si Si4 0.312537 0.178481 0.535101
Si Si5 0.354993 0.676500 0.705143
Si Si6 0.670323 0.826266 0.932449
Si Si7 0.002679 0.825149 0.278190
O O1 0.670093 0.282928 0.196709
O O2 0.779634 0.221693 0.121335
O O3 0.702345 0.000000 0.160033
O O4 0.674364 0.199729 0.036831
O O5 0.102366 0.722010 0.903879
O O6 0.003059 0.787705 0.825418
O O7 0.059512 0.000000 0.918546
O O8 0.000000 0.774340 0.000000
O O9 0.055886 0.500000 0.555316
O O10 0.124667 0.261216 0.519447
O O11 0.000000 0.256555 0.500000
O O12 0.047372 0.266704 0.659327
O O13 0.250000 0.250000 0.500000
O O14 0.316493 0.226952 0.636800
O O15 0.306894 0.000000 0.528185
O O16 0.344879 0.500000 0.687987
O O17 0.428012 0.722320 0.695112
O O18 0.683258 0.000000 0.906639
O O19 0.989459 0.000000 0.296311
#
# Coordination Sequence:
#
# PCOD8106984 Si02
#       7
#     8   8   8   8   8   8   8
#     4  10  21  37  59  84 114 155 198 242 297 360
#     4  10  21  38  58  83 121 161 198 245 300 357
#     4  10  21  40  64  88 118 157 199 249 305 361
#     4  11  24  42  63  89 123 160 199 248 309 367
#     4  11  22  38  61  89 118 151 197 247 299 359
#     4  10  21  37  57  84 116 153 198 248 300 354
#     4  10  22  37  60  91 118 155 202 248 300 359
#
# _framework density 19.756025999999999
#
# number of rings (size 3 to 8) (size 9 to 14) (size 15 to 20)
#    0.000    1.714    1.429    2.571    0.000    6.857 
#    0.000    2.857    0.000    0.000    0.000    0.000 
#    0.000    0.000    0.000    0.000    0.000    0.000 
#
# Total GULP energy -347331.622843 kJ/mol
# GULP energy per Si atom -12404.700816 kJ/mol
# Density = 1.971106 g / cm^3
# Si number density = 19.756026 Si / 1000 Ang^3
#
#
#
# Elastic Constant Matrix: (Units=GPa)
#
#
# Indices 1 2 3 4 5 6 
#
# 1 119.0989 42.3418 36.5466 0.0000 3.9718 0.0000
# 2 42.3418 46.7773 33.9261 0.0000 4.3580 0.0000
# 3 36.5466 33.9261 84.5940 0.0000 -8.8003 0.0000
# 4 0.0000 0.0000 0.0000 36.2028 0.0000 -1.7915
# 5 3.9718 4.3580 -8.8003 0.0000 31.6130 0.0000
# 6 0.0000 0.0000 0.0000 -1.7915 0.0000 32.7705
#
#
#
# Elastic Compliance Matrix: (Units=1/GPa)
#
#
# Indices 1 2 3 4 5 6 
#
# 1 0.012476 -0.010290 -0.001317 0.000000 -0.000515 0.000000
# 2 -0.010290 0.040595 -0.012649 0.000000 -0.007825 0.000000
# 3 -0.001317 -0.012649 0.018188 0.000000 0.006972 0.000000
# 4 0.000000 0.000000 0.000000 0.027697 0.000000 0.001514
# 5 -0.000515 -0.007825 0.006972 0.000000 0.034717 0.000000
# 6 0.000000 0.000000 0.000000 0.001514 0.000000 0.030598
#
#
# Mechanical properties :
#
#
# Convention : Reuss Voigt Hill
#
# Bulk Modulus (GPa) = 43.96034 52.89990 48.43012
# Shear Modulus (GPa) = 22.68966 29.29431 25.99198
#
# Velocity S-wave (km/s) = 3.39262 3.85490 3.63112
# Velocity P-wave (km/s) = 6.13567 6.82996 6.49210
#
# Compressibility (1/GPa) = 0.02274777
#
# Stress axis : x y z
#
# Youngs Moduli (GPa) = 80.15481 24.63366 54.98065
#
# Poissons Ratio (x) = 0.25348 0.07240
# Poissons Ratio (y) = 0.82478 0.69545
# Poissons Ratio (z) = 0.10555 0.31159
#
# Static dielectric constant tensor:
#      x y z
#    x 3.659950 0.000000 -0.054830 
#    y 0.000000 3.502590 0.000000 
#    z -0.054830 0.000000 3.572130 
# 
# 
# High freq. dielectric constant tensor:
#      x y z
#    x 1.773420 0.000000 -0.004190 
#    y 0.000000 1.769720 0.000000 
#    z -0.004190 0.000000 1.773460 
# 
# From -- ./inp_files/230863.got.cif
#   From: 2010.06.25/outbox.cif.g09.slc.cpg/sg12_116_cif.got.tgz:230863.got - 2010.06.28 00:19:55.
