data_PCOD8106939
_publ_section_title
;
Structure prediction by ZEFSAII (Michael W. Deem and Ramdas Pophale) SiO2 
 PCOD8106939
Probable space group: C 2/M
;
_chemical_formula_sum "Si O2"
_cell_formula_units_Z 56
_cell_length_a 18.531738
_cell_length_b 8.740161
_cell_length_c 22.774381
_cell_angle_alpha 90.000000
_cell_angle_beta 52.292417
_cell_angle_gamma 90.000000
_cell_volume 2918.347014
_symmetry_space_group_name_H-M "C 2/M"
_symmetry_group_IT_number 12
_symmetry_cell_setting 'monoclinic'
loop_
_space_group_symop_operation_xyz
x,y,z
-x,y,-z
-x,-y,-z
x,-y,z
1/2+x,1/2+y,z
1/2-x,1/2+y,-z
1/2-x,1/2-y,-z
1/2+x,1/2-y,z
loop_
_atom_site_type_symbol
_atom_site_label
_atom_site_fract_x
_atom_site_fract_y
_atom_site_fract_z
Si Si1 0.018018 0.320918 0.362762
Si Si2 0.843624 0.822450 0.935636
Si Si3 0.626830 0.681386 0.769281
Si Si4 0.332525 0.680463 0.495680
Si Si5 0.820886 0.318852 0.629515
Si Si6 0.962211 0.821112 0.768901
Si Si7 0.506715 0.682605 0.931710
O O1 0.996341 0.500000 0.378774
O O2 0.927048 0.225044 0.418428
O O3 0.094929 0.272089 0.371202
O O4 0.054190 0.280705 0.280236
O O5 0.873960 0.789776 0.853637
O O6 0.919417 0.753541 0.941019
O O7 0.835132 0.000000 0.951284
O O8 0.750000 0.750000 0.000000
O O9 0.627305 0.500000 0.768749
O O10 0.727374 0.744844 0.704971
O O11 0.554346 0.735043 0.756007
O O12 0.595662 0.737395 0.850045
O O13 0.321339 0.500000 0.500927
O O14 0.250000 0.750000 0.500000
O O15 0.333720 0.740440 0.560980
O O16 0.816344 0.500000 0.622427
O O17 0.969679 0.000000 0.748800
O O18 0.506396 0.500000 0.934902
O O19 0.500000 0.754593 0.000000
#
# Coordination Sequence:
#
# PCOD8106939 Si02
#       7
#     8   8   8   8   8   8   8
#     4  11  23  37  56  85 116 143 178 225 273 325
#     4   9  18  31  49  75 105 139 180 227 278 330
#     4   8  15  30  51  73  99 136 177 218 267 318
#     4  12  25  41  62  84 109 144 184 223 268 324
#     4  10  21  37  57  83 114 143 177 225 275 325
#     4   9  18  34  54  75 104 144 187 226 270 331
#     4   8  14  26  47  74 101 131 174 222 264 315
#
# _framework density 19.188946000000001
#
# number of rings (size 3 to 8) (size 9 to 14) (size 15 to 20)
#    0.000    2.429    0.000    4.714    0.000    5.714 
#    0.000    2.857    0.000    1.286    0.000    0.000 
#    0.000    0.000    0.000    0.000    0.000    0.000 
#
# Total GULP energy -347110.715277 kJ/mol
# GULP energy per Si atom -12396.811260 kJ/mol
# Density = 1.914527 g / cm^3
# Si number density = 19.188946 Si / 1000 Ang^3
#
#
#
# Elastic Constant Matrix: (Units=GPa)
#
#
# Indices 1 2 3 4 5 6 
#
# 1 119.7327 35.7002 68.0398 0.0000 6.0664 0.0000
# 2 35.7002 38.4822 29.3795 0.0001 2.2170 -0.0002
# 3 68.0398 29.3795 137.1111 0.0000 3.2779 0.0000
# 4 0.0000 0.0001 0.0000 29.1609 0.0000 -1.7474
# 5 6.0664 2.2170 3.2779 0.0000 43.4331 0.0000
# 6 0.0000 -0.0002 0.0000 -1.7474 0.0000 22.4065
#
#
#
# Elastic Compliance Matrix: (Units=1/GPa)
#
#
# Indices 1 2 3 4 5 6 
#
# 1 0.013921 -0.009083 -0.004935 0.000000 -0.001108 0.000000
# 2 -0.009083 0.037046 -0.003422 0.000000 -0.000364 0.000000
# 3 -0.004935 -0.003422 0.010474 0.000000 0.000074 0.000000
# 4 0.000000 0.000000 0.000000 0.034454 0.000000 0.002687
# 5 -0.001108 -0.000364 0.000074 0.000000 0.023192 0.000000
# 6 0.000000 0.000000 0.000000 0.002687 0.000000 0.044840
#
#
# Mechanical properties :
#
#
# Convention : Reuss Voigt Hill
#
# Bulk Modulus (GPa) = 37.65023 62.39610 50.02316
# Shear Modulus (GPa) = 24.07794 29.81386 26.94590
#
# Velocity S-wave (km/s) = 3.54613 3.94598 3.75139
# Velocity P-wave (km/s) = 6.03574 7.30399 6.69994
#
# Compressibility (1/GPa) = 0.02656026
#
# Stress axis : x y z
#
# Youngs Moduli (GPa) = 71.83494 26.99367 95.47462
#
# Poissons Ratio (x) = 0.24517 0.47120
# Poissons Ratio (y) = 0.65245 0.32673
# Poissons Ratio (z) = 0.35453 0.09238
#
# Static dielectric constant tensor:
#      x y z
#    x 3.528070 0.000000 0.053850 
#    y 0.000000 3.154850 0.000000 
#    z 0.053850 0.000000 3.905040 
# 
# 
# High freq. dielectric constant tensor:
#      x y z
#    x 1.746630 0.000000 0.001960 
#    y 0.000000 1.712140 0.000000 
#    z 0.001960 0.000000 1.767140 
# 
# From -- ./inp_files/342324.got.cif
#   From: 2010.06.25/outbox.cif.g09.slc.cpg/sg12_172_cif.got.tgz:342324.got - 2010.06.28 00:19:55.
