data_PCOD8106467
_publ_section_title
;
Structure prediction by ZEFSAII (Michael W. Deem and Ramdas Pophale) SiO2 
 PCOD8106467
Probable space group: C 2/M
;
_chemical_formula_sum "Si O2"
_cell_formula_units_Z 64
_cell_length_a 13.839576
_cell_length_b 23.958826
_cell_length_c 16.802342
_cell_angle_alpha 90.000000
_cell_angle_beta 145.101002
_cell_angle_gamma 90.000000
_cell_volume 3187.528094
_symmetry_space_group_name_H-M "C 2/M"
_symmetry_group_IT_number 12
_symmetry_cell_setting 'monoclinic'
loop_
_space_group_symop_operation_xyz
x,y,z
-x,y,-z
-x,-y,-z
x,-y,z
1/2+x,1/2+y,z
1/2-x,1/2+y,-z
1/2-x,1/2-y,-z
1/2+x,1/2-y,z
loop_
_atom_site_type_symbol
_atom_site_label
_atom_site_fract_x
_atom_site_fract_y
_atom_site_fract_z
Si Si1 0.134021 0.936405 0.261903
Si Si2 0.819082 0.434018 0.225307
Si Si3 0.818569 0.280327 0.411695
Si Si4 0.304305 0.620319 0.012141
Si Si5 0.180977 0.151192 0.588711
Si Si6 0.823490 0.381422 0.524973
Si Si7 0.499283 0.149779 0.090889
Si Si8 0.993289 0.778779 0.086693
O O1 0.221848 0.916324 0.239659
O O2 0.261355 0.927670 0.420809
O O3 0.966617 0.901801 0.169265
O O4 0.082617 0.000000 0.220051
O O5 0.862197 0.500000 0.254119
O O6 0.982511 0.395096 0.327398
O O7 0.705029 0.417996 0.072848
O O8 0.815191 0.215868 0.434818
O O9 0.793673 0.318930 0.471923
O O10 0.672352 0.293218 0.248807
O O11 0.000000 0.296959 0.500000
O O12 0.339020 0.685661 0.018803
O O13 0.137753 0.613698 0.953343
O O14 0.222470 0.114153 0.539618
O O15 0.315668 0.139025 0.748936
O O16 0.000000 0.133148 0.500000
O O17 0.446684 0.214169 0.063737
O O18 0.500000 0.130277 0.000000
O O19 0.000000 0.796672 0.000000
#
# Coordination Sequence:
#
# PCOD8106467 Si02
#       8
#     8   8   8   8   8   8   8   8
#     4  11  24  40  62  93 123 153 196 248 304 361
#     4  11  24  42  64  89 121 155 198 252 304 357
#     4  10  21  36  58  91 126 160 197 241 293 356
#     4  12  22  39  63  90 121 163 200 241 299 358
#     4  10  23  41  61  89 123 160 202 247 292 347
#     4  12  22  39  63  90 121 163 200 241 299 358
#     4  10  23  41  61  89 123 160 202 247 292 347
#     4  10  21  36  58  91 126 160 197 241 293 356
#
# _framework density 20.078254999999999
#
# number of rings (size 3 to 8) (size 9 to 14) (size 15 to 20)
#    0.000    1.250    2.500    3.750    3.500    2.000 
#    0.000    0.000    0.000    4.500    0.000    0.000 
#    0.000    0.000    0.000    0.000    0.000    0.000 
#
# Total GULP energy -396903.744270 kJ/mol
# GULP energy per Si atom -12403.242008 kJ/mol
# Density = 2.003256 g / cm^3
# Si number density = 20.078255 Si / 1000 Ang^3
#
#
#
# Elastic Constant Matrix: (Units=GPa)
#
#
# Indices 1 2 3 4 5 6 
#
# 1 133.8703 35.0188 53.1379 0.0002 2.9906 -0.0001
# 2 35.0188 45.3185 12.4362 -0.0001 0.2566 0.0000
# 3 53.1379 12.4362 85.0000 0.0000 0.5207 -0.0001
# 4 0.0002 -0.0001 0.0000 17.7629 0.0002 2.2161
# 5 2.9906 0.2566 0.5207 0.0002 36.8412 -0.0001
# 6 -0.0001 0.0000 -0.0001 2.2161 -0.0001 21.0881
#
#
#
# Elastic Compliance Matrix: (Units=1/GPa)
#
#
# Indices 1 2 3 4 5 6 
#
# 1 0.011989 -0.007505 -0.006392 0.000000 -0.000831 0.000000
# 2 -0.007505 0.027688 0.000639 0.000000 0.000407 0.000000
# 3 -0.006392 0.000639 0.015665 0.000000 0.000293 0.000000
# 4 0.000000 0.000000 0.000000 0.057045 0.000000 -0.005995
# 5 -0.000831 0.000407 0.000293 0.000000 0.027204 0.000000
# 6 0.000000 0.000000 0.000000 -0.005995 0.000000 0.048050
#
#
# Mechanical properties :
#
#
# Convention : Reuss Voigt Hill
#
# Bulk Modulus (GPa) = 34.69192 51.70829 43.20010
# Shear Modulus (GPa) = 22.34469 26.04485 24.19477
#
# Velocity S-wave (km/s) = 3.33960 3.60553 3.47511
# Velocity P-wave (km/s) = 5.67331 6.56829 6.13714
#
# Compressibility (1/GPa) = 0.02882516
#
# Stress axis : x y z
#
# Youngs Moduli (GPa) = 83.41053 36.11651 63.83553
#
# Poissons Ratio (x) = 0.27107 0.40802
# Poissons Ratio (y) = 0.62603 -0.04076
# Poissons Ratio (z) = 0.53313 -0.02306
#
# Static dielectric constant tensor:
#      x y z
#    x 3.461430 0.000000 -0.036480 
#    y 0.000000 3.418150 0.000000 
#    z -0.036480 0.000000 3.723550 
# 
# 
# High freq. dielectric constant tensor:
#      x y z
#    x 1.774720 0.000000 0.001630 
#    y 0.000000 1.767500 0.000000 
#    z 0.001630 0.000000 1.799640 
# 
# From -- ./inp_files/209407.got.cif
#   From: 2010.06.25/outbox.cif.g09.slc.cpg/sg12_105_cif.got.tgz:209407.got - 2010.06.28 00:19:55.
