data_PCOD8106881
_publ_section_title
;
Structure prediction by ZEFSAII (Michael W. Deem and Ramdas Pophale) SiO2 
 PCOD8106881
Probable space group: C 2/M
;
_chemical_formula_sum "Si O2"
_cell_formula_units_Z 48
_cell_length_a 14.512253
_cell_length_b 29.952894
_cell_length_c 9.414708
_cell_angle_alpha 90.000000
_cell_angle_beta 36.851931
_cell_angle_gamma 90.000000
_cell_volume 2454.426870
_symmetry_space_group_name_H-M "C 2/M"
_symmetry_group_IT_number 12
_symmetry_cell_setting 'monoclinic'
loop_
_space_group_symop_operation_xyz
x,y,z
-x,y,-z
-x,-y,-z
x,-y,z
1/2+x,1/2+y,z
1/2-x,1/2+y,-z
1/2-x,1/2-y,-z
1/2+x,1/2-y,z
loop_
_atom_site_type_symbol
_atom_site_label
_atom_site_fract_x
_atom_site_fract_y
_atom_site_fract_z
Si Si1 0.318206 0.863282 0.732119
Si Si2 0.643000 0.448524 0.418202
Si Si3 0.673222 0.815507 0.792055
Si Si4 0.362832 0.898520 0.968954
Si Si5 0.780210 0.611952 0.476076
Si Si6 0.180536 0.736090 0.239346
O O1 0.500000 0.858221 0.500000
O O2 0.289483 0.895318 0.902299
O O3 0.240213 0.886793 0.692064
O O4 0.249402 0.813461 0.828136
O O5 0.500000 0.431415 0.500000
O O6 0.624996 0.500000 0.482023
O O7 0.661033 0.420582 0.542362
O O8 0.792817 0.441084 0.135784
O O9 0.729267 0.837656 0.574766
O O10 0.766593 0.771074 0.707485
O O11 0.500000 0.799104 0.000000
O O12 0.692318 0.852977 0.888981
O O13 0.545072 0.905334 0.755830
O O14 0.000000 0.734840 0.500000
O O15 0.250000 0.750000 0.000000
#
# Coordination Sequence:
#
# PCOD8106881 Si02
#       6
#     8   8   8   8   8   8
#     4   9  18  35  56  79 113 147 189 233 291 328
#     4  10  21  37  57  81 110 141 178 229 291 351
#     4   9  18  33  53  79 111 148 195 236 284 329
#     4   9  17  35  58  79 107 143 184 228 280 341
#     4   9  19  35  58  82 106 148 184 237 279 344
#     4  11  22  37  57  81 117 161 202 246 291 344
#
# _framework density 19.556501000000001
#
# number of rings (size 3 to 8) (size 9 to 14) (size 15 to 20)
#    0.000    2.500    1.667    1.500    2.333    4.667 
#    0.000    1.667    0.000    5.000    0.000    0.000 
#    0.000    0.000    0.000    0.000    0.000    0.000 
#
# Total GULP energy -297331.391028 kJ/mol
# GULP energy per Si atom -12388.807960 kJ/mol
# Density = 1.951199 g / cm^3
# Si number density = 19.556501 Si / 1000 Ang^3
#
#
#
# Elastic Constant Matrix: (Units=GPa)
#
#
# Indices 1 2 3 4 5 6 
#
# 1 136.7506 48.4022 25.6648 0.0000 20.8862 0.0000
# 2 48.4022 64.7558 4.1795 0.0000 -2.7075 0.0000
# 3 25.6648 4.1795 54.7563 0.0000 13.2805 0.0000
# 4 0.0000 0.0000 0.0000 20.1052 0.0000 -0.7833
# 5 20.8862 -2.7075 13.2805 0.0000 32.1308 0.0000
# 6 0.0000 0.0000 0.0000 -0.7833 0.0000 33.3342
#
#
#
# Elastic Compliance Matrix: (Units=1/GPa)
#
#
# Indices 1 2 3 4 5 6 
#
# 1 0.012382 -0.009356 -0.003274 0.000000 -0.007484 0.000000
# 2 -0.009356 0.022706 0.000793 0.000000 0.007668 0.000000
# 3 -0.003274 0.000793 0.021344 0.000000 -0.006627 0.000000
# 4 0.000000 0.000000 0.000000 0.049784 0.000000 0.001170
# 5 -0.007484 0.007668 -0.006627 0.000000 0.039373 0.000000
# 6 0.000000 0.000000 0.000000 0.001170 0.000000 0.030027
#
#
# Mechanical properties :
#
#
# Convention : Reuss Voigt Hill
#
# Bulk Modulus (GPa) = 30.52916 45.86175 38.19546
# Shear Modulus (GPa) = 23.78583 28.98179 26.38381
#
# Velocity S-wave (km/s) = 3.49128 3.85379 3.67700
# Velocity P-wave (km/s) = 5.64771 6.58058 6.13191
#
# Compressibility (1/GPa) = 0.03275557
#
# Stress axis : x y z
#
# Youngs Moduli (GPa) = 80.76429 44.04210 46.85119
#
# Poissons Ratio (x) = 0.41207 0.15340
# Poissons Ratio (y) = 0.75566 -0.03714
# Poissons Ratio (z) = 0.26444 -0.03491
#
# Static dielectric constant tensor:
#      x y z
#    x 3.453540 0.000000 0.422850 
#    y 0.000000 3.369130 0.000000 
#    z 0.422850 0.000000 3.440360 
# 
# 
# High freq. dielectric constant tensor:
#      x y z
#    x 1.766580 0.000000 0.013800 
#    y 0.000000 1.741810 0.000000 
#    z 0.013800 0.000000 1.742940 
# 
# From -- ./inp_files/68045.got.cif
#   From: 2010.06.25/outbox.cif.g09.slc.cpg/sg12_35_cif.got.tgz:68045.got - 2010.06.28 00:19:55.
