data_PCOD8106756
_publ_section_title
;
Structure prediction by ZEFSAII (Michael W. Deem and Ramdas Pophale) SiO2 
 PCOD8106756
Probable space group: C 2/M
;
_chemical_formula_sum "Si O2"
_cell_formula_units_Z 56
_cell_length_a 29.814753
_cell_length_b 8.589154
_cell_length_c 12.487523
_cell_angle_alpha 90.000000
_cell_angle_beta 105.586459
_cell_angle_gamma 90.000000
_cell_volume 3080.251276
_symmetry_space_group_name_H-M "C 2/M"
_symmetry_group_IT_number 12
_symmetry_cell_setting 'monoclinic'
loop_
_space_group_symop_operation_xyz
x,y,z
-x,y,-z
-x,-y,-z
x,-y,z
1/2+x,1/2+y,z
1/2-x,1/2+y,-z
1/2-x,1/2-y,-z
1/2+x,1/2-y,z
loop_
_atom_site_type_symbol
_atom_site_label
_atom_site_fract_x
_atom_site_fract_y
_atom_site_fract_z
Si Si1 0.789850 0.679795 0.238319
Si Si2 0.635233 0.318577 0.299631
Si Si3 0.860586 0.681018 0.102894
Si Si4 0.192253 0.680228 0.145843
Si Si5 0.701741 0.180990 0.509154
Si Si6 0.454380 0.818264 0.848130
Si Si7 0.948857 0.181022 0.073790
O O1 0.775876 0.500000 0.210458
O O2 0.833573 0.727331 0.193296
O O3 0.747016 0.787475 0.176956
O O4 0.804426 0.710574 0.369305
O O5 0.624404 0.500000 0.295478
O O6 0.669532 0.283858 0.223427
O O7 0.659025 0.267086 0.425089
O O8 0.586645 0.227484 0.258791
O O9 0.873277 0.500000 0.109076
O O10 0.908537 0.777840 0.132286
O O11 0.828941 0.727838 0.981576
O O12 0.182977 0.500000 0.166622
O O13 0.750000 0.250000 0.500000
O O14 0.700714 0.000000 0.478565
O O15 0.501293 0.727809 0.845067
O O16 0.464430 0.000000 0.847324
O O17 0.438853 0.775675 0.958533
O O18 0.948701 0.000000 0.045649
#
# Coordination Sequence:
#
# PCOD8106756 Si02
#       7
#     8   8   8   8   8   8   8
#     4  10  22  38  56  78 111 151 193 232 275 328
#     4  12  23  36  56  82 114 147 185 232 280 331
#     4  10  21  37  55  80 114 153 188 226 275 333
#     4  11  21  33  54  81 113 149 186 225 277 335
#     4  11  22  37  57  81 110 148 190 236 280 325
#     4  11  21  36  57  82 112 146 183 228 280 332
#     4  11  21  34  55  84 115 147 182 224 275 333
#
# _framework density 18.180333999999998
#
# number of rings (size 3 to 8) (size 9 to 14) (size 15 to 20)
#    0.000    1.143    2.857    6.000    0.000    1.714 
#    0.000    0.000    0.000    0.857    0.000    6.000 
#    0.000    0.000    0.000    0.000    0.000    0.000 
#
# Total GULP energy -347378.653946 kJ/mol
# GULP energy per Si atom -12406.380498 kJ/mol
# Density = 1.813895 g / cm^3
# Si number density = 18.180334 Si / 1000 Ang^3
#
#
#
# Elastic Constant Matrix: (Units=GPa)
#
#
# Indices 1 2 3 4 5 6 
#
# 1 114.0493 27.8177 54.7961 0.0000 7.3414 0.0000
# 2 27.8177 77.8814 21.1482 0.0000 -0.8588 0.0000
# 3 54.7961 21.1482 86.4911 0.0000 1.1927 0.0000
# 4 0.0000 0.0000 0.0000 22.4480 0.0000 6.1687
# 5 7.3414 -0.8588 1.1927 0.0000 31.8794 0.0000
# 6 0.0000 0.0000 0.0000 6.1687 0.0000 32.3070
#
#
#
# Elastic Compliance Matrix: (Units=1/GPa)
#
#
# Indices 1 2 3 4 5 6 
#
# 1 0.013330 -0.002689 -0.007749 0.000000 -0.002852 0.000000
# 2 -0.002689 0.014303 -0.001809 0.000000 0.001072 0.000000
# 3 -0.007749 -0.001809 0.016898 0.000000 0.001104 0.000000
# 4 0.000000 0.000000 0.000000 0.047014 0.000000 -0.008977
# 5 -0.002852 0.001072 0.001104 0.000000 0.032013 0.000000
# 6 0.000000 0.000000 0.000000 -0.008977 0.000000 0.032667
#
#
# Mechanical properties :
#
#
# Convention : Reuss Voigt Hill
#
# Bulk Modulus (GPa) = 49.90112 53.99398 51.94755
# Shear Modulus (GPa) = 26.68118 28.97088 27.82603
#
# Velocity S-wave (km/s) = 3.83506 3.99623 3.91648
# Velocity P-wave (km/s) = 6.86423 7.14540 7.00623
#
# Compressibility (1/GPa) = 0.02003963
#
# Stress axis : x y z
#
# Youngs Moduli (GPa) = 75.01598 69.91366 59.17834
#
# Poissons Ratio (x) = 0.18798 0.45856
# Poissons Ratio (y) = 0.20170 0.10704
# Poissons Ratio (z) = 0.58128 0.12645
#
# Static dielectric constant tensor:
#      x y z
#    x 3.363160 0.000000 0.107340 
#    y 0.000000 3.418690 0.000000 
#    z 0.107340 0.000000 3.341800 
# 
# 
# High freq. dielectric constant tensor:
#      x y z
#    x 1.704130 0.000000 0.012500 
#    y 0.000000 1.716390 0.000000 
#    z 0.012500 0.000000 1.686340 
# 
# From -- ./inp_files/181151.got.cif
#   From: 2010.06.25/outbox.cif.g09.slc.cpg/sg12_91_cif.got.tgz:181151.got - 2010.06.28 00:19:55.
