data_PCOD8106095
_publ_section_title
;
Structure prediction by ZEFSAII (Michael W. Deem and Ramdas Pophale) SiO2 
 PCOD8106095
Probable space group: C 2/M
;
_chemical_formula_sum "Si O2"
_cell_formula_units_Z 48
_cell_length_a 23.836693
_cell_length_b 9.229603
_cell_length_c 16.683726
_cell_angle_alpha 90.000000
_cell_angle_beta 45.159625
_cell_angle_gamma 90.000000
_cell_volume 2602.637282
_symmetry_space_group_name_H-M "C 2/M"
_symmetry_group_IT_number 12
_symmetry_cell_setting 'monoclinic'
loop_
_space_group_symop_operation_xyz
x,y,z
-x,y,-z
-x,-y,-z
x,-y,z
1/2+x,1/2+y,z
1/2-x,1/2+y,-z
1/2-x,1/2-y,-z
1/2+x,1/2-y,z
loop_
_atom_site_type_symbol
_atom_site_label
_atom_site_fract_x
_atom_site_fract_y
_atom_site_fract_z
Si Si1 0.814553 0.668659 0.042104
Si Si2 0.591738 0.668816 0.919739
Si Si3 0.160187 0.331796 0.167877
Si Si4 0.178278 0.831328 0.671049
Si Si5 0.854932 0.669662 0.452240
Si Si6 0.499895 0.827737 0.410515
O O1 0.806700 0.500000 0.069762
O O2 0.879301 0.739317 0.034162
O O3 0.729640 0.742776 0.140795
O O4 0.843647 0.696843 0.922725
O O5 0.606039 0.500000 0.923280
O O6 0.640522 0.719268 0.792584
O O7 0.500000 0.703615 0.000000
O O8 0.174716 0.500000 0.172958
O O9 0.078268 0.274035 0.286501
O O10 0.135610 0.746364 0.642686
O O11 0.271426 0.794179 0.578365
O O12 0.162928 0.000000 0.671634
O O13 0.864855 0.500000 0.426767
O O14 0.922985 0.731366 0.441648
O O15 0.500000 0.763444 0.500000
O O16 0.496892 0.000000 0.416024
#
# Coordination Sequence:
#
# PCOD8106095 Si02
#       6
#     8   8   8   8   8   8
#     4  10  21  36  55  81 108 139 179 220 266 313
#     4  10  22  37  55  80 108 142 181 217 262 318
#     4   9  19  36  57  79 107 142 177 216 266 320
#     4   9  19  35  54  77 105 140 176 213 262 315
#     4   9  18  33  55  80 104 135 176 218 260 308
#     4   9  18  31  54  83 105 134 177 218 257 310
#
# _framework density 18.442831000000002
#
# number of rings (size 3 to 8) (size 9 to 14) (size 15 to 20)
#    0.000    2.667    0.000    0.500    4.667    1.667 
#    0.000    0.833    0.000    1.000    0.000    0.000 
#    0.000    0.000    0.000    0.000    0.000    0.000 
#
# Total GULP energy -297668.498345 kJ/mol
# GULP energy per Si atom -12402.854098 kJ/mol
# Density = 1.840085 g / cm^3
# Si number density = 18.442831 Si / 1000 Ang^3
#
#
#
# Elastic Constant Matrix: (Units=GPa)
#
#
# Indices 1 2 3 4 5 6 
#
# 1 158.6026 56.8771 66.1112 0.0002 -9.7684 -0.0003
# 2 56.8771 54.1085 36.6050 0.0052 -0.7458 -0.0045
# 3 66.1112 36.6050 121.3214 -0.0001 -8.2359 -0.0007
# 4 0.0002 0.0052 -0.0001 18.2418 -0.0009 1.8935
# 5 -9.7684 -0.7458 -8.2359 -0.0009 23.0901 0.0009
# 6 -0.0003 -0.0045 -0.0007 1.8935 0.0009 33.9221
#
#
#
# Elastic Compliance Matrix: (Units=1/GPa)
#
#
# Indices 1 2 3 4 5 6 
#
# 1 0.011253 -0.009787 -0.002949 0.000003 0.003393 -0.000002
# 2 -0.009787 0.031806 -0.004586 -0.000010 -0.004749 0.000005
# 3 -0.002949 -0.004586 0.011415 0.000002 0.002676 -0.000001
# 4 0.000003 -0.000010 0.000002 0.055138 0.000004 -0.003078
# 5 0.003393 -0.004749 0.002676 0.000004 0.045545 -0.000002
# 6 -0.000002 0.000005 -0.000001 -0.003078 -0.000002 0.029651
#
#
# Mechanical properties :
#
#
# Convention : Reuss Voigt Hill
#
# Bulk Modulus (GPa) = 50.42694 72.57991 61.50343
# Shear Modulus (GPa) = 22.11787 26.68008 24.39898
#
# Velocity S-wave (km/s) = 3.46680 3.80759 3.64119
# Velocity P-wave (km/s) = 6.58989 7.66615 7.14830
#
# Compressibility (1/GPa) = 0.01983067
#
# Stress axis : x y z
#
# Youngs Moduli (GPa) = 88.86539 31.44056 87.60680
#
# Poissons Ratio (x) = 0.30771 0.25833
# Poissons Ratio (y) = 0.86974 0.40173
# Poissons Ratio (z) = 0.26204 0.14417
#
# Static dielectric constant tensor:
#      x y z
#    x 3.471380 0.000000 -0.031580 
#    y 0.000000 3.184000 0.000000 
#    z -0.031580 0.000000 3.512450 
# 
# 
# High freq. dielectric constant tensor:
#      x y z
#    x 1.722920 0.000000 -0.002580 
#    y 0.000000 1.691720 0.000000 
#    z -0.002580 0.000000 1.722770 
# 
# From -- ./inp_files/280780.got.cif
#   From: 2010.06.25/outbox.cif.g09.slc.cpg/sg12_141_cif.got.tgz:280780.got - 2010.06.28 00:19:55.
