data_PCOD8106327
_publ_section_title
;
Structure prediction by ZEFSAII (Michael W. Deem and Ramdas Pophale) SiO2 
 PCOD8106327
Probable space group: C 2/M
;
_chemical_formula_sum "Si O2"
_cell_formula_units_Z 56
_cell_length_a 13.785099
_cell_length_b 13.025487
_cell_length_c 23.489853
_cell_angle_alpha 90.000000
_cell_angle_beta 135.172142
_cell_angle_gamma 90.000000
_cell_volume 2973.448483
_symmetry_space_group_name_H-M "C 2/M"
_symmetry_group_IT_number 12
_symmetry_cell_setting 'monoclinic'
loop_
_space_group_symop_operation_xyz
x,y,z
-x,y,-z
-x,-y,-z
x,-y,z
1/2+x,1/2+y,z
1/2-x,1/2+y,-z
1/2-x,1/2-y,-z
1/2+x,1/2-y,z
loop_
_atom_site_type_symbol
_atom_site_label
_atom_site_fract_x
_atom_site_fract_y
_atom_site_fract_z
Si Si1 0.303546 0.118512 0.797622
Si Si2 0.649683 0.381579 0.916018
Si Si3 0.315382 0.616057 0.579050
Si Si4 0.557925 0.213391 0.963484
Si Si5 0.952969 0.191713 0.244909
Si Si6 0.126636 0.616247 0.300578
Si Si7 0.860630 0.194263 0.476394
O O1 0.452188 0.143671 0.884683
O O2 0.188429 0.189323 0.778714
O O3 0.303579 0.142651 0.730676
O O4 0.267858 0.000000 0.795340
O O5 0.633543 0.500000 0.925277
O O6 0.591158 0.317641 0.944310
O O7 0.563015 0.356720 0.823770
O O8 0.808348 0.355808 0.970875
O O9 0.261430 0.500000 0.554691
O O10 0.429361 0.626558 0.675206
O O11 0.183412 0.686792 0.537017
O O12 0.386387 0.647163 0.549191
O O13 0.500000 0.247684 0.000000
O O14 0.996349 0.310858 0.258061
O O15 0.070508 0.500000 0.277929
O O16 0.240999 0.629481 0.396533
O O17 0.000000 0.185106 0.500000
#
# Coordination Sequence:
#
# PCOD8106327 Si02
#       7
#     8   8   8   8   8   8   8
#     4  11  21  36  60  86 113 150 190 236 281 331
#     4  11  23  39  60  84 115 153 188 235 289 336
#     4  10  21  36  57  85 116 151 188 232 284 334
#     4  11  23  39  58  85 115 146 191 240 278 343
#     4  11  21  37  60  86 116 146 194 237 280 337
#     4  10  22  39  59  83 117 152 188 233 287 338
#     4  10  21  37  58  85 116 149 191 236 276 337
#
# _framework density 18.833351
#
# number of rings (size 3 to 8) (size 9 to 14) (size 15 to 20)
#    0.000    1.429    2.857    3.000    0.000    3.429 
#    0.000    0.714    0.000    3.429    0.000    0.000 
#    0.000    0.000    0.000    0.000    0.000    0.000 
#
# Total GULP energy -347363.218463 kJ/mol
# GULP energy per Si atom -12405.829231 kJ/mol
# Density = 1.879049 g / cm^3
# Si number density = 18.833351 Si / 1000 Ang^3
#
#
#
# Elastic Constant Matrix: (Units=GPa)
#
#
# Indices 1 2 3 4 5 6 
#
# 1 87.3209 46.8626 20.5828 0.0000 1.9425 0.0000
# 2 46.8626 130.0249 39.8052 0.0000 2.2890 0.0000
# 3 20.5828 39.8052 81.0320 0.0000 -10.0817 0.0000
# 4 0.0000 0.0000 0.0000 15.6776 0.0000 -2.6250
# 5 1.9425 2.2890 -10.0817 0.0000 28.9422 0.0000
# 6 0.0000 0.0000 0.0000 -2.6250 0.0000 22.6830
#
#
#
# Elastic Compliance Matrix: (Units=1/GPa)
#
#
# Indices 1 2 3 4 5 6 
#
# 1 0.014346 -0.004700 -0.001472 0.000000 -0.001104 0.000000
# 2 -0.004700 0.010750 -0.004341 0.000000 -0.002047 0.000000
# 3 -0.001472 -0.004341 0.015578 0.000000 0.005868 0.000000
# 4 0.000000 0.000000 0.000000 0.065046 0.000000 0.007527
# 5 -0.001104 -0.002047 0.005868 0.000000 0.036832 0.000000
# 6 0.000000 0.000000 0.000000 0.007527 0.000000 0.044957
#
#
# Mechanical properties :
#
#
# Convention : Reuss Voigt Hill
#
# Bulk Modulus (GPa) = 50.90287 56.98654 53.94470
# Shear Modulus (GPa) = 23.24662 26.20239 24.72450
#
# Velocity S-wave (km/s) = 3.51712 3.73403 3.62719
# Velocity P-wave (km/s) = 6.60153 6.99390 6.80055
#
# Compressibility (1/GPa) = 0.01964526
#
# Stress axis : x y z
#
# Youngs Moduli (GPa) = 69.70490 93.02323 64.19476
#
# Poissons Ratio (x) = 0.43724 0.09452
# Poissons Ratio (y) = 0.32764 0.27870
# Poissons Ratio (z) = 0.10264 0.40386
#
# Static dielectric constant tensor:
#      x y z
#    x 3.435840 0.000000 -0.153180 
#    y 0.000000 3.434860 0.000000 
#    z -0.153180 0.000000 3.629520 
# 
# 
# High freq. dielectric constant tensor:
#      x y z
#    x 1.729160 0.000000 -0.013930 
#    y 0.000000 1.731120 0.000000 
#    z -0.013930 0.000000 1.748190 
# 
# From -- ./inp_files/360821.got.cif
#   From: 2010.06.25/outbox.cif.g09.slc.cpg/sg12_181_cif.got.tgz:360821.got - 2010.06.28 00:19:55.
