data_PCOD8106367
_publ_section_title
;
Structure prediction by ZEFSAII (Michael W. Deem and Ramdas Pophale) SiO2 
 PCOD8106367
Probable space group: C 2/M
;
_chemical_formula_sum "Si O2"
_cell_formula_units_Z 64
_cell_length_a 14.593860
_cell_length_b 8.627452
_cell_length_c 25.636770
_cell_angle_alpha 90.000000
_cell_angle_beta 89.771696
_cell_angle_gamma 90.000000
_cell_volume 3227.844368
_symmetry_space_group_name_H-M "C 2/M"
_symmetry_group_IT_number 12
_symmetry_cell_setting 'monoclinic'
loop_
_space_group_symop_operation_xyz
x,y,z
-x,y,-z
-x,-y,-z
x,-y,z
1/2+x,1/2+y,z
1/2-x,1/2+y,-z
1/2-x,1/2-y,-z
1/2+x,1/2-y,z
loop_
_atom_site_type_symbol
_atom_site_label
_atom_site_fract_x
_atom_site_fract_y
_atom_site_fract_z
Si Si1 0.028547 0.180184 0.942239
Si Si2 0.372839 0.320349 0.226437
Si Si3 0.227157 0.320706 0.312484
Si Si4 0.603309 0.683298 0.504257
Si Si5 0.814431 0.320215 0.120157
Si Si6 0.745575 0.818979 0.576839
Si Si7 0.441262 0.823310 0.757445
Si Si8 0.622179 0.177963 0.127717
O O1 0.946017 0.210993 0.902854
O O2 0.116374 0.281615 0.926719
O O3 0.054681 0.000000 0.939523
O O4 0.000000 0.231519 0.000000
O O5 0.358239 0.500000 0.212155
O O6 0.300051 0.265573 0.269365
O O7 0.363155 0.218948 0.174593
O O8 0.473773 0.292288 0.249230
O O9 0.242723 0.500000 0.326809
O O10 0.239849 0.216953 0.362987
O O11 0.125896 0.291163 0.290580
O O12 0.500000 0.752676 0.500000
O O13 0.597236 0.500000 0.505425
O O14 0.651916 0.739252 0.557299
O O15 0.665623 0.741894 0.455565
O O16 0.788219 0.500000 0.118811
O O17 0.724955 0.217732 0.111128
O O18 0.733688 0.000000 0.568381
O O19 0.386342 0.790345 0.810755
O O20 0.476839 0.000000 0.756595
O O21 0.600427 0.000000 0.113714
#
# Coordination Sequence:
#
# PCOD8106367 Si02
#       8
#     8   8   8   8   8   8   8   8
#     4  11  25  44  65  91 122 156 199 251 305 363
#     4  11  22  38  60  86 117 157 202 245 295 357
#     4  10  22  40  58  81 122 163 195 238 297 354
#     4   9  19  38  62  84 114 156 198 239 294 357
#     4  12  24  39  63  91 121 158 199 245 299 359
#     4  10  21  36  57  88 119 150 196 248 293 344
#     4  10  21  38  59  87 118 155 198 243 297 355
#     4  11  22  40  65  91 121 156 199 247 299 360
#
# _framework density 19.827473999999999
#
# number of rings (size 3 to 8) (size 9 to 14) (size 15 to 20)
#    0.000    1.500    2.500    2.625    0.000    5.250 
#    0.000    3.750    0.000    0.000    0.000    0.000 
#    0.000    0.000    0.000    0.000    0.000    0.000 
#
# Total GULP energy -396983.263230 kJ/mol
# GULP energy per Si atom -12405.726976 kJ/mol
# Density = 1.978235 g / cm^3
# Si number density = 19.827474 Si / 1000 Ang^3
#
#
#
# Elastic Constant Matrix: (Units=GPa)
#
#
# Indices 1 2 3 4 5 6 
#
# 1 96.1202 13.3070 -0.3494 0.0000 1.2051 0.0000
# 2 13.3070 44.2256 17.7118 0.0000 -4.4835 0.0000
# 3 -0.3494 17.7118 59.3186 0.0000 -3.4444 0.0000
# 4 0.0000 0.0000 0.0000 30.2468 0.0000 2.4306
# 5 1.2051 -4.4835 -3.4444 0.0000 25.6660 0.0000
# 6 0.0000 0.0000 0.0000 2.4306 0.0000 32.5880
#
#
#
# Elastic Compliance Matrix: (Units=1/GPa)
#
#
# Indices 1 2 3 4 5 6 
#
# 1 0.010956 -0.003865 0.001159 0.000000 -0.001034 0.000000
# 2 -0.003865 0.027359 -0.007966 0.000000 0.003892 0.000000
# 3 0.001159 -0.007966 0.019310 0.000000 0.001146 0.000000
# 4 0.000000 0.000000 0.000000 0.033261 0.000000 -0.002481
# 5 -0.001034 0.003892 0.001146 0.000000 0.039844 0.000000
# 6 0.000000 0.000000 0.000000 -0.002481 0.000000 0.030871
#
#
# Mechanical properties :
#
#
# Convention : Reuss Voigt Hill
#
# Bulk Modulus (GPa) = 27.56355 29.00035 28.28195
# Shear Modulus (GPa) = 25.63581 28.96650 27.30116
#
# Velocity S-wave (km/s) = 3.59965 3.82635 3.71473
# Velocity P-wave (km/s) = 5.58646 5.84632 5.71787
#
# Compressibility (1/GPa) = 0.03627980
#
# Stress axis : x y z
#
# Youngs Moduli (GPa) = 91.27460 36.55081 51.78672
#
# Poissons Ratio (x) = 0.14128 -0.06000
# Poissons Ratio (y) = 0.35281 0.41253
# Poissons Ratio (z) = -0.10576 0.29116
#
# Static dielectric constant tensor:
#      x y z
#    x 3.756590 0.000000 -0.049710 
#    y 0.000000 3.485160 0.000000 
#    z -0.049710 0.000000 3.522570 
# 
# 
# High freq. dielectric constant tensor:
#      x y z
#    x 1.784090 0.000000 0.001650 
#    y 0.000000 1.770940 0.000000 
#    z 0.001650 0.000000 1.766530 
# 
# From -- ./inp_files/359887.got.cif
#   From: 2010.06.25/outbox.cif.g09.slc.cpg/sg12_180_cif.got.tgz:359887.got - 2010.06.28 00:19:55.
