data_PCOD8106435
_publ_section_title
;
Structure prediction by ZEFSAII (Michael W. Deem and Ramdas Pophale) SiO2 
 PCOD8106435
Probable space group: C 2/M
;
_chemical_formula_sum "Si O2"
_cell_formula_units_Z 44
_cell_length_a 5.079966
_cell_length_b 31.499088
_cell_length_c 13.777284
_cell_angle_alpha 90.000000
_cell_angle_beta 69.894734
_cell_angle_gamma 90.000000
_cell_volume 2070.222238
_symmetry_space_group_name_H-M "C 2/M"
_symmetry_group_IT_number 12
_symmetry_cell_setting 'monoclinic'
loop_
_space_group_symop_operation_xyz
x,y,z
-x,y,-z
-x,-y,-z
x,-y,z
1/2+x,1/2+y,z
1/2-x,1/2+y,-z
1/2-x,1/2-y,-z
1/2+x,1/2-y,z
loop_
_atom_site_type_symbol
_atom_site_label
_atom_site_fract_x
_atom_site_fract_y
_atom_site_fract_z
Si Si1 0.554838 0.844236 0.095929
Si Si2 0.239514 0.598580 0.729454
Si Si3 0.500000 0.414712 0.000000
Si Si4 0.806942 0.661369 0.433954
Si Si5 0.062386 0.721694 0.247827
Si Si6 0.828939 0.049085 0.213438
O O1 0.285419 0.863549 0.186954
O O2 0.735798 0.884765 0.045494
O O3 0.696318 0.810360 0.150899
O O4 0.500000 0.820848 0.000000
O O5 0.252478 0.619414 0.621893
O O6 0.527019 0.573777 0.714970
O O7 0.981731 0.566095 0.765785
O O8 0.520657 0.444336 0.092805
O O9 0.500000 0.680069 0.500000
O O10 0.985626 0.696988 0.355448
O O11 0.000000 0.648125 0.500000
O O12 0.779889 0.741231 0.239881
O O13 0.812899 0.000000 0.242446
#
# Coordination Sequence:
#
# PCOD8106435 Si02
#       6
#     8   8   4   8   8   8
#     4  10  21  38  60  81 122 166 203 240 290 346
#     4  10  22  39  60  90 122 156 203 246 291 366
#     4  10  21  36  58  88 120 166 216 242 270 356
#     4  11  23  42  70  90 112 156 204 251 305 358
#     4  11  26  41  59  91 125 153 197 251 304 359
#     4  11  21  36  60  90 127 160 194 248 302 340
#
# _framework density 21.253757
#
# number of rings (size 3 to 8) (size 9 to 14) (size 15 to 20)
#    0.000    1.455    1.818    3.000    2.545    5.818 
#    0.000    2.727    0.000   10.909    0.000    0.000 
#    0.000    0.000    0.000    0.000    0.000    0.000 
#
# Total GULP energy -272776.789067 kJ/mol
# GULP energy per Si atom -12398.944958 kJ/mol
# Density = 2.120538 g / cm^3
# Si number density = 21.253757 Si / 1000 Ang^3
#
#
#
# Elastic Constant Matrix: (Units=GPa)
#
#
# Indices 1 2 3 4 5 6 
#
# 1 75.3403 6.5198 22.5796 0.0000 15.9282 0.0000
# 2 6.5198 81.7320 27.6817 0.0000 13.5227 0.0000
# 3 22.5796 27.6817 107.3182 0.0000 23.2121 0.0000
# 4 0.0000 0.0000 0.0000 16.6753 0.0000 -6.4332
# 5 15.9282 13.5227 23.2121 0.0000 31.0338 0.0000
# 6 0.0000 0.0000 0.0000 -6.4332 0.0000 -16.6265
#
#
#
# Elastic Compliance Matrix: (Units=1/GPa)
#
#
# Indices 1 2 3 4 5 6 
#
# 1 0.015194 0.000525 -0.001904 0.000000 -0.006603 0.000000
# 2 0.000525 0.013829 -0.002763 0.000000 -0.004229 0.000000
# 3 -0.001904 -0.002763 0.011882 0.000000 -0.006706 0.000000
# 4 0.000000 0.000000 0.000000 0.052180 0.000000 -0.020190
# 5 -0.006603 -0.004229 -0.006706 0.000000 0.042471 0.000000
# 6 0.000000 0.000000 0.000000 -0.020190 0.000000 -0.052333
#
#
# Mechanical properties :
#
#
# Convention : Reuss Voigt Hill
#
# Bulk Modulus (GPa) = 30.65458 41.99476 36.32467
# Shear Modulus (GPa) = 48.83798 20.05714 34.44756
#
# Velocity S-wave (km/s) = 4.79879 3.07530 4.03025
# Velocity P-wave (km/s) = 6.72004 5.69312 6.22778
#
# Compressibility (1/GPa) = 0.03262155
#
# Stress axis : x y z
#
# Youngs Moduli (GPa) = 65.81394 72.31382 84.16228
#
# Poissons Ratio (x) = -0.03799 0.16026
# Poissons Ratio (y) = -0.03458 0.23253
# Poissons Ratio (z) = 0.12532 0.19979
#
# Static dielectric constant tensor:
#      x y z
#    x 3.682280 0.000000 -0.003150 
#    y 0.000000 3.711140 0.000000 
#    z -0.003150 0.000000 4.238040 
# 
# 
# High freq. dielectric constant tensor:
#      x y z
#    x 1.828180 0.000000 0.008950 
#    y 0.000000 1.824810 0.000000 
#    z 0.008950 0.000000 1.837160 
# 
# From -- ./inp_files/116086.got.cif
#   From: 2010.06.25/outbox.cif.g09.slc.cpg/sg12_59_cif.got.tgz:116086.got - 2010.06.28 00:19:55.
