data_PCOD8106643
_publ_section_title
;
Structure prediction by ZEFSAII (Michael W. Deem and Ramdas Pophale) SiO2 
 PCOD8106643
Probable space group: C 2/M
;
_chemical_formula_sum "Si O2"
_cell_formula_units_Z 64
_cell_length_a 25.368405
_cell_length_b 14.835791
_cell_length_c 22.000245
_cell_angle_alpha 90.000000
_cell_angle_beta 21.035631
_cell_angle_gamma 90.000000
_cell_volume 2972.100378
_symmetry_space_group_name_H-M "C 2/M"
_symmetry_group_IT_number 12
_symmetry_cell_setting 'monoclinic'
loop_
_space_group_symop_operation_xyz
x,y,z
-x,y,-z
-x,-y,-z
x,-y,z
1/2+x,1/2+y,z
1/2-x,1/2+y,-z
1/2-x,1/2-y,-z
1/2+x,1/2-y,z
loop_
_atom_site_type_symbol
_atom_site_label
_atom_site_fract_x
_atom_site_fract_y
_atom_site_fract_z
Si Si1 0.220023 0.844992 0.451884
Si Si2 0.826490 0.896224 0.047849
Si Si3 0.081209 0.897214 0.277813
Si Si4 0.346986 0.782581 0.193746
Si Si5 0.359098 0.147959 0.423310
Si Si6 0.138309 0.248044 0.317564
Si Si7 0.811555 0.396155 0.929827
Si Si8 0.645485 0.401584 0.751335
O O1 0.320261 0.840605 0.283370
O O2 0.309776 0.892485 0.410420
O O3 0.196150 0.746899 0.503615
O O4 0.068237 0.895125 0.600738
O O5 0.734059 0.829523 0.189195
O O6 0.789423 0.871482 0.018667
O O7 0.785457 0.000000 0.107216
O O8 0.999125 0.877654 0.870474
O O9 0.076688 0.824147 0.335807
O O10 0.100141 0.000000 0.281453
O O11 0.219898 0.868406 0.087634
O O12 0.228579 0.808420 0.270301
O O13 0.334032 0.674807 0.219823
O O14 0.500000 0.810484 0.000000
O O15 0.534531 0.155019 0.239011
O O16 0.284635 0.088803 0.556420
O O17 0.000000 0.293453 0.500000
O O18 0.852844 0.500000 0.886441
O O19 0.628661 0.500000 0.801359
#
# Coordination Sequence:
#
# PCOD8106643 Si02
#       8
#     8   8   8   8   8   8   8   8
#     4  10  22  40  61  90 120 160 209 253 312 375
#     4  10  22  40  64  96 131 167 202 246 310 385
#     4  11  25  44  66  88 120 168 219 266 315 371
#     4  11  23  41  62  90 122 163 205 257 305 367
#     4  10  21  36  63  94 126 159 198 254 318 371
#     4  12  25  43  65  90 125 167 212 263 311 365
#     4  10  22  38  60  93 126 155 199 258 312 364
#     4  10  21  38  62  93 129 166 199 239 305 385
#
# _framework density 21.533593
#
# number of rings (size 3 to 8) (size 9 to 14) (size 15 to 20)
#    0.000    1.500    2.500    1.875    3.500    6.250 
#    0.000    0.000    0.000    0.750    0.000    0.000 
#    0.000    0.000    0.000    0.000    0.000    0.000 
#
# Total GULP energy -396735.215265 kJ/mol
# GULP energy per Si atom -12397.975477 kJ/mol
# Density = 2.148458 g / cm^3
# Si number density = 21.533593 Si / 1000 Ang^3
#
#
#
# Elastic Constant Matrix: (Units=GPa)
#
#
# Indices 1 2 3 4 5 6 
#
# 1 87.3291 8.0828 18.5897 -0.0065 -0.8137 0.0024
# 2 8.0828 37.4862 12.9103 0.0069 7.3826 0.0019
# 3 18.5897 12.9103 134.9489 0.0055 8.7224 0.0056
# 4 -0.0065 0.0069 0.0055 12.0016 -0.0010 -13.6594
# 5 -0.8137 7.3826 8.7224 -0.0010 36.8231 0.0022
# 6 0.0024 0.0019 0.0056 -13.6594 0.0022 9.0481
#
#
#
# Elastic Compliance Matrix: (Units=1/GPa)
#
#
# Indices 1 2 3 4 5 6 
#
# 1 0.011992 -0.002280 -0.001503 -0.000009 0.001078 -0.000015
# 2 -0.002280 0.028949 -0.002109 0.000028 -0.005355 0.000040
# 3 -0.001503 -0.002109 0.007915 0.000011 -0.001485 0.000012
# 4 -0.000009 0.000028 0.000011 -0.116020 -0.000001 -0.175150
# 5 0.001078 -0.005355 -0.001485 -0.000001 0.028606 -0.000007
# 6 -0.000015 0.000040 0.000012 -0.175150 -0.000007 -0.153893
#
#
# Mechanical properties :
#
#
# Convention : Reuss Voigt Hill
#
# Bulk Modulus (GPa) = 26.97585 37.65886 32.31736
# Shear Modulus (GPa) = -29.70746 26.25333 -1.72706
#
# Velocity S-wave (km/s) = -3.71831 3.49546 -0.89653
# Velocity P-wave (km/s) = 2.42485 5.81527 3.73748
#
# Compressibility (1/GPa) = 0.03707019
#
# Stress axis : x y z
#
# Youngs Moduli (GPa) = 83.38836 34.54329 126.34067
#
# Poissons Ratio (x) = 0.07877 0.18995
# Poissons Ratio (y) = 0.19015 0.26649
# Poissons Ratio (z) = 0.12537 0.07286
#
# Static dielectric constant tensor:
#      x y z
#    x 4.093280 0.000000 0.009960 
#    y 0.000000 3.691150 0.000010 
#    z 0.009960 0.000010 3.991410 
# 
# 
# High freq. dielectric constant tensor:
#      x y z
#    x 1.849850 0.000000 -0.001390 
#    y 0.000000 1.827340 0.000000 
#    z -0.001390 0.000000 1.856250 
# 
# From -- ./inp_files/326106.got.cif
#   From: 2010.06.25/outbox.cif.g09.slc.cpg/sg12_164_cif.got.tgz:326106.got - 2010.06.28 00:19:55.
