data_PCOD8106563
_publ_section_title
;
Structure prediction by ZEFSAII (Michael W. Deem and Ramdas Pophale) SiO2 
 PCOD8106563
Probable space group: C 2/M
;
_chemical_formula_sum "Si O2"
_cell_formula_units_Z 64
_cell_length_a 19.481961
_cell_length_b 8.780178
_cell_length_c 30.503964
_cell_angle_alpha 90.000000
_cell_angle_beta 141.643480
_cell_angle_gamma 90.000000
_cell_volume 3237.956916
_symmetry_space_group_name_H-M "C 2/M"
_symmetry_group_IT_number 12
_symmetry_cell_setting 'monoclinic'
loop_
_space_group_symop_operation_xyz
x,y,z
-x,y,-z
-x,-y,-z
x,-y,z
1/2+x,1/2+y,z
1/2-x,1/2+y,-z
1/2-x,1/2-y,-z
1/2+x,1/2-y,z
loop_
_atom_site_type_symbol
_atom_site_label
_atom_site_fract_x
_atom_site_fract_y
_atom_site_fract_z
Si Si1 0.988208 0.670336 0.300356
Si Si2 0.872170 0.819537 0.936558
Si Si3 0.201376 0.822986 0.281441
Si Si4 0.760151 0.318430 0.214497
Si Si5 0.229714 0.178667 0.942931
Si Si6 0.374227 0.176873 0.441589
Si Si7 0.019739 0.670220 0.804207
Si Si8 0.773594 0.681206 0.558689
O O1 0.002396 0.500000 0.325874
O O2 0.884988 0.750206 0.273420
O O3 0.949944 0.667994 0.231260
O O4 0.106628 0.750725 0.366907
O O5 0.817553 0.758818 0.863919
O O6 0.812155 0.747883 0.948330
O O7 0.860422 0.000000 0.934981
O O8 0.000000 0.768851 0.000000
O O9 0.213689 0.764606 0.237830
O O10 0.312885 0.792452 0.364730
O O11 0.105481 0.724185 0.254543
O O12 0.168825 0.000000 0.266518
O O13 0.766955 0.500000 0.215365
O O14 0.101995 0.213465 0.868710
O O15 0.248972 0.000000 0.954440
O O16 0.250000 0.250000 0.000000
O O17 0.500000 0.234295 0.500000
O O18 0.318139 0.268495 0.452673
O O19 0.370612 0.000000 0.452548
O O20 0.032946 0.500000 0.830514
O O21 0.773077 0.500000 0.556654
O O22 0.750000 0.750000 0.500000
#
# Coordination Sequence:
#
# PCOD8106563 Si02
#       8
#     8   8   8   8   8   8   8   8
#     4   9  18  35  62  86 113 154 202 246 297 360
#     4  10  21  39  63  91 125 163 201 243 299 366
#     4  10  21  36  60  91 121 158 204 251 298 360
#     4   9  18  35  59  87 117 155 198 239 291 357
#     4  12  26  43  64  92 124 162 209 258 307 361
#     4  10  22  39  59  86 123 164 208 255 302 360
#     4  11  21  40  65  89 120 159 201 253 312 368
#     4  11  23  39  61  89 120 160 206 255 310 368
#
# _framework density 19.765550999999999
#
# number of rings (size 3 to 8) (size 9 to 14) (size 15 to 20)
#    0.000    1.750    2.500    1.875    3.500    0.500 
#    0.000    0.625    0.000    0.000    0.000    0.000 
#    0.000    0.000    0.000    0.000    0.000    0.000 
#
# Total GULP energy -396772.020682 kJ/mol
# GULP energy per Si atom -12399.125646 kJ/mol
# Density = 1.972056 g / cm^3
# Si number density = 19.765551 Si / 1000 Ang^3
#
#
#
# Elastic Constant Matrix: (Units=GPa)
#
#
# Indices 1 2 3 4 5 6 
#
# 1 109.7310 34.2822 50.9307 0.0000 -2.0372 -0.0001
# 2 34.2822 56.5660 30.6850 0.0001 -1.2332 -0.0001
# 3 50.9307 30.6850 129.0020 0.0000 4.5779 0.0000
# 4 0.0000 0.0001 0.0000 22.3956 0.0000 -0.3901
# 5 -2.0372 -1.2332 4.5779 0.0000 42.7096 0.0000
# 6 -0.0001 -0.0001 0.0000 -0.3901 0.0000 30.8680
#
#
#
# Elastic Compliance Matrix: (Units=1/GPa)
#
#
# Indices 1 2 3 4 5 6 
#
# 1 0.012584 -0.005623 -0.003660 0.000000 0.000830 0.000000
# 2 -0.005623 0.022862 -0.003244 0.000000 0.000740 0.000000
# 3 -0.003660 -0.003244 0.010016 0.000000 -0.001342 0.000000
# 4 0.000000 0.000000 0.000000 0.044662 0.000000 0.000564
# 5 0.000830 0.000740 -0.001342 0.000000 0.023619 0.000000
# 6 0.000000 0.000000 0.000000 0.000564 0.000000 0.032403
#
#
# Mechanical properties :
#
#
# Convention : Reuss Voigt Hill
#
# Bulk Modulus (GPa) = 49.00168 58.56609 53.78389
# Shear Modulus (GPa) = 28.08920 31.15472 29.62196
#
# Velocity S-wave (km/s) = 3.77386 3.97446 3.87546
# Velocity P-wave (km/s) = 6.62078 7.12436 6.87718
#
# Compressibility (1/GPa) = 0.02040746
#
# Stress axis : x y z
#
# Youngs Moduli (GPa) = 79.46431 43.73984 99.83773
#
# Poissons Ratio (x) = 0.24595 0.36543
# Poissons Ratio (y) = 0.44684 0.32391
# Poissons Ratio (z) = 0.29086 0.14191
#
# Static dielectric constant tensor:
#      x y z
#    x 3.331350 0.000000 0.028570 
#    y 0.000000 3.363520 0.000000 
#    z 0.028570 0.000000 3.843250 
# 
# 
# High freq. dielectric constant tensor:
#      x y z
#    x 1.781930 0.000000 0.004640 
#    y 0.000000 1.740100 0.000000 
#    z 0.004640 0.000000 1.785980 
# 
# From -- ./inp_files/378290.got.cif
#   From: 2010.06.25/outbox.cif.g09.slc.cpg/sg12_190_cif.got.tgz:378290.got - 2010.06.28 00:19:55.
