data_PCOD8106696
_publ_section_title
;
Structure prediction by ZEFSAII (Michael W. Deem and Ramdas Pophale) SiO2 
 PCOD8106696
Probable space group: C 2/M
;
_chemical_formula_sum "Si O2"
_cell_formula_units_Z 64
_cell_length_a 14.584222
_cell_length_b 9.150035
_cell_length_c 29.294483
_cell_angle_alpha 90.000000
_cell_angle_beta 117.578237
_cell_angle_gamma 90.000000
_cell_volume 3465.066380
_symmetry_space_group_name_H-M "C 2/M"
_symmetry_group_IT_number 12
_symmetry_cell_setting 'monoclinic'
loop_
_space_group_symop_operation_xyz
x,y,z
-x,y,-z
-x,-y,-z
x,-y,z
1/2+x,1/2+y,z
1/2-x,1/2+y,-z
1/2-x,1/2-y,-z
1/2+x,1/2-y,z
loop_
_atom_site_type_symbol
_atom_site_label
_atom_site_fract_x
_atom_site_fract_y
_atom_site_fract_z
Si Si1 0.274963 0.172361 0.364683
Si Si2 0.503132 0.327673 0.905828
Si Si3 0.949887 0.174027 0.713236
Si Si4 0.656409 0.831769 0.001423
Si Si5 0.079832 0.828164 0.826924
Si Si6 0.812557 0.333752 0.884494
Si Si7 0.699007 0.329330 0.446153
Si Si8 0.971418 0.827983 0.365456
O O1 0.259968 0.216233 0.414195
O O2 0.374610 0.249699 0.366522
O O3 0.170015 0.224758 0.314635
O O4 0.290520 0.000000 0.362963
O O5 0.517205 0.500000 0.915860
O O6 0.551039 0.243952 0.960319
O O7 0.554871 0.267806 0.871422
O O8 0.383601 0.282438 0.874784
O O9 0.005785 0.240537 0.770968
O O10 0.013415 0.227010 0.683241
O O11 0.952141 0.000000 0.713291
O O12 0.655572 0.000000 0.986067
O O13 0.750000 0.750000 0.000000
O O14 0.669926 0.816199 0.057984
O O15 0.197680 0.789640 0.842870
O O16 0.061339 0.000000 0.824037
O O17 0.837500 0.500000 0.875384
O O18 0.710932 0.500000 0.456637
O O19 0.750000 0.250000 0.500000
O O20 0.577613 0.287703 0.416107
O O21 0.950295 0.000000 0.362348
#
# Coordination Sequence:
#
# PCOD8106696 Si02
#       8
#     8   8   8   8   8   8   8   8
#     4   9  18  33  53  77 103 135 175 215 258 306
#     4  11  22  36  54  80 106 135 173 211 254 309
#     4   8  16  33  55  74  99 138 173 208 257 311
#     4  11  21  36  57  78 104 137 172 210 256 310
#     4   9  18  35  55  75 104 137 170 208 259 314
#     4  10  21  37  54  76 104 136 170 208 256 310
#     4   9  19  34  50  73 107 141 175 211 254 307
#     4   9  18  33  53  77 102 134 176 215 254 304
#
# _framework density 18.470065000000002
#
# number of rings (size 3 to 8) (size 9 to 14) (size 15 to 20)
#    0.000    2.500    1.250    2.625    0.000    5.000 
#    0.000    4.375    0.000    3.000    0.000    0.000 
#    0.000    0.000    0.000    0.000    0.000    0.000 
#
# Total GULP energy -396685.753997 kJ/mol
# GULP energy per Si atom -12396.429812 kJ/mol
# Density = 1.842803 g / cm^3
# Si number density = 18.470065 Si / 1000 Ang^3
#
#
#
# Elastic Constant Matrix: (Units=GPa)
#
#
# Indices 1 2 3 4 5 6 
#
# 1 120.0598 39.1175 37.5542 0.0000 14.3912 0.0000
# 2 39.1175 52.8854 33.3909 0.0000 4.0773 0.0000
# 3 37.5542 33.3909 119.6359 0.0000 17.9532 0.0000
# 4 0.0000 0.0000 0.0000 20.4828 0.0000 3.4365
# 5 14.3912 4.0773 17.9532 0.0000 19.1627 0.0000
# 6 0.0000 0.0000 0.0000 3.4365 0.0000 37.8945
#
#
#
# Elastic Compliance Matrix: (Units=1/GPa)
#
#
# Indices 1 2 3 4 5 6 
#
# 1 0.011889 -0.007960 -0.000494 0.000000 -0.006772 0.000000
# 2 -0.007960 0.028311 -0.006279 0.000000 0.005837 0.000000
# 3 -0.000494 -0.006279 0.011648 0.000000 -0.009205 0.000000
# 4 0.000000 0.000000 0.000000 0.049576 0.000000 -0.004496
# 5 -0.006772 0.005837 -0.009205 0.000000 0.064653 0.000000
# 6 0.000000 0.000000 0.000000 -0.004496 0.000000 0.026797
#
#
# Mechanical properties :
#
#
# Convention : Reuss Voigt Hill
#
# Bulk Modulus (GPa) = 44.67920 56.96736 50.82328
# Shear Modulus (GPa) = 21.75812 27.67588 24.71700
#
# Velocity S-wave (km/s) = 3.43595 3.87514 3.66214
# Velocity P-wave (km/s) = 6.32326 7.13669 6.74225
#
# Compressibility (1/GPa) = 0.02238178
#
# Stress axis : x y z
#
# Youngs Moduli (GPa) = 84.11208 35.32221 85.85384
#
# Poissons Ratio (x) = 0.28116 0.04242
# Poissons Ratio (y) = 0.66951 0.53907
# Poissons Ratio (z) = 0.04156 0.22179
#
# Static dielectric constant tensor:
#      x y z
#    x 3.413230 0.000000 0.137420 
#    y 0.000000 3.231740 0.000000 
#    z 0.137420 0.000000 3.883660 
# 
# 
# High freq. dielectric constant tensor:
#      x y z
#    x 1.725700 0.000000 0.006850 
#    y 0.000000 1.688910 0.000000 
#    z 0.006850 0.000000 1.718480 
# 
# From -- ./inp_files/375081.got.cif
#   From: 2010.06.25/outbox.cif.g09.slc.cpg/sg12_188_cif.got.tgz:375081.got - 2010.06.28 00:19:55.
