data_PCOD8106606
_publ_section_title
;
Structure prediction by ZEFSAII (Michael W. Deem and Ramdas Pophale) SiO2 
 PCOD8106606
Probable space group: C 2/M
;
_chemical_formula_sum "Si O2"
_cell_formula_units_Z 52
_cell_length_a 17.538773
_cell_length_b 14.077280
_cell_length_c 14.591142
_cell_angle_alpha 90.000000
_cell_angle_beta 42.190847
_cell_angle_gamma 90.000000
_cell_volume 2419.465169
_symmetry_space_group_name_H-M "C 2/M"
_symmetry_group_IT_number 12
_symmetry_cell_setting 'monoclinic'
loop_
_space_group_symop_operation_xyz
x,y,z
-x,y,-z
-x,-y,-z
x,-y,z
1/2+x,1/2+y,z
1/2-x,1/2+y,-z
1/2-x,1/2-y,-z
1/2+x,1/2-y,z
loop_
_atom_site_type_symbol
_atom_site_label
_atom_site_fract_x
_atom_site_fract_y
_atom_site_fract_z
Si Si1 0.960651 0.108999 0.873486
Si Si2 0.276118 0.286997 0.150395
Si Si3 0.224421 0.892400 0.669818
Si Si4 0.752197 0.107299 0.721502
Si Si5 0.642324 0.111617 0.627239
Si Si6 0.500000 0.676637 0.500000
Si Si7 0.050389 0.258840 0.266146
O O1 0.944082 0.157839 0.790148
O O2 0.089645 0.116216 0.789061
O O3 0.920469 0.000000 0.901350
O O4 0.889152 0.162387 0.015411
O O5 0.228407 0.331327 0.287725
O O6 0.297516 0.175494 0.154344
O O7 0.178648 0.298780 0.160360
O O8 0.274711 0.855453 0.528869
O O9 0.263446 0.000000 0.651750
O O10 0.702446 0.140971 0.668089
O O11 0.888764 0.110868 0.597538
O O12 0.713974 0.000000 0.777859
O O13 0.522931 0.166133 0.726296
O O14 0.617750 0.000000 0.645126
O O15 0.498356 0.744205 0.412819
#
# Coordination Sequence:
#
# PCOD8106606 Si02
#       7
#     8   8   8   8   8   4   8
#     4  11  24  42  63  85 113 153 201 247 289 338
#     4  11  23  39  59  86 119 156 197 240 286 342
#     4  10  21  38  63  90 115 150 198 249 292 335
#     4  10  21  37  59  88 120 155 195 240 291 347
#     4  10  21  38  60  89 123 156 190 233 294 357
#     4  10  21  36  61  90 118 150 193 248 297 338
#     4  11  23  39  59  89 122 155 191 236 294 352
#
# _framework density 21.492353000000001
#
# number of rings (size 3 to 8) (size 9 to 14) (size 15 to 20)
#    0.000    1.538    0.000    5.308    0.000    8.615 
#    0.000    2.692    0.000    3.692    0.000    0.000 
#    0.000    0.000    0.000    0.000    0.000    0.000 
#
# Total GULP energy -322499.392996 kJ/mol
# GULP energy per Si atom -12403.822808 kJ/mol
# Density = 2.144344 g / cm^3
# Si number density = 21.492353 Si / 1000 Ang^3
#
#
#
# Elastic Constant Matrix: (Units=GPa)
#
#
# Indices 1 2 3 4 5 6 
#
# 1 127.2740 56.4708 27.9318 0.0000 -2.1110 0.0000
# 2 56.4708 100.7133 50.1361 0.0000 -5.1244 0.0000
# 3 27.9318 50.1361 82.4242 0.0000 4.2498 0.0000
# 4 0.0000 0.0000 0.0000 33.1893 0.0000 -0.9750
# 5 -2.1110 -5.1244 4.2498 0.0000 25.2483 0.0000
# 6 0.0000 0.0000 0.0000 -0.9750 0.0000 25.6604
#
#
#
# Elastic Compliance Matrix: (Units=1/GPa)
#
#
# Indices 1 2 3 4 5 6 
#
# 1 0.010462 -0.005920 0.000073 0.000000 -0.000339 0.000000
# 2 -0.005920 0.018090 -0.009241 0.000000 0.004732 0.000000
# 3 0.000073 -0.009241 0.017981 0.000000 -0.004896 0.000000
# 4 0.000000 0.000000 0.000000 0.030164 0.000000 0.001146
# 5 -0.000339 0.004732 -0.004896 0.000000 0.041363 0.000000
# 6 0.000000 0.000000 0.000000 0.001146 0.000000 0.039014
#
#
# Mechanical properties :
#
#
# Convention : Reuss Voigt Hill
#
# Bulk Modulus (GPa) = 61.13686 64.38765 62.76226
# Shear Modulus (GPa) = 25.94683 28.54445 27.24564
#
# Velocity S-wave (km/s) = 3.47833 3.64829 3.56433
# Velocity P-wave (km/s) = 6.68127 6.91160 6.79741
#
# Compressibility (1/GPa) = 0.01635674
#
# Stress axis : x y z
#
# Youngs Moduli (GPa) = 95.58440 55.28061 55.61341
#
# Poissons Ratio (x) = 0.32724 -0.00405
# Poissons Ratio (y) = 0.56582 0.51394
# Poissons Ratio (z) = -0.00697 0.51086
#
# Static dielectric constant tensor:
#      x y z
#    x 3.981460 0.000000 0.059740 
#    y 0.000000 3.903580 0.000000 
#    z 0.059740 0.000000 3.687540 
# 
# 
# High freq. dielectric constant tensor:
#      x y z
#    x 1.855300 0.000000 0.003570 
#    y 0.000000 1.847910 0.000000 
#    z 0.003570 0.000000 1.830310 
# 
# From -- ./inp_files/225623.got.cif
#   From: 2010.06.25/outbox.cif.g09.slc.cpg/sg12_113_cif.got.tgz:225623.got - 2010.06.28 00:19:55.
