data_PCOD8106232
_publ_section_title
;
Structure prediction by ZEFSAII (Michael W. Deem and Ramdas Pophale) SiO2 
 PCOD8106232
Probable space group: C 2/M
;
_chemical_formula_sum "Si O2"
_cell_formula_units_Z 44
_cell_length_a 8.783110
_cell_length_b 23.366805
_cell_length_c 14.578029
_cell_angle_alpha 90.000000
_cell_angle_beta 137.634904
_cell_angle_gamma 90.000000
_cell_volume 2016.096184
_symmetry_space_group_name_H-M "C 2/M"
_symmetry_group_IT_number 12
_symmetry_cell_setting 'monoclinic'
loop_
_space_group_symop_operation_xyz
x,y,z
-x,y,-z
-x,-y,-z
x,-y,z
1/2+x,1/2+y,z
1/2-x,1/2+y,-z
1/2-x,1/2-y,-z
1/2+x,1/2-y,z
loop_
_atom_site_type_symbol
_atom_site_label
_atom_site_fract_x
_atom_site_fract_y
_atom_site_fract_z
Si Si1 0.135359 0.063532 0.466188
Si Si2 0.631822 0.778685 0.647807
Si Si3 0.529812 0.120415 0.735454
Si Si4 0.500000 0.617314 0.000000
Si Si5 0.315465 0.343792 0.266572
Si Si6 0.631432 0.698207 0.897508
O O1 0.392339 0.081640 0.602406
O O2 0.000000 0.064420 0.500000
O O3 0.013059 0.108312 0.344095
O O4 0.134894 0.000000 0.421940
O O5 0.500000 0.801349 0.500000
O O6 0.573962 0.817357 0.710510
O O7 0.570180 0.712059 0.636170
O O8 0.898052 0.781455 0.748163
O O9 0.394873 0.131098 0.769923
O O10 0.769361 0.086235 0.861618
O O11 0.400186 0.651926 0.039469
O O12 0.225504 0.327183 0.124759
O O13 0.750000 0.750000 0.000000
#
# Coordination Sequence:
#
# PCOD8106232 Si02
#       6
#     8   8   8   4   8   8
#     4   9  19  37  61  87 112 143 191 249 295 331
#     4  11  21  33  52  83 121 153 184 229 289 353
#     4  10  21  36  56  83 116 153 191 233 285 344
#     4  10  22  36  51  76 114 154 185 222 280 344
#     4  11  21  34  58  86 112 148 194 238 287 343
#     4  11  22  35  53  82 119 155 188 226 279 347
#
# _framework density 21.824356000000002
#
# number of rings (size 3 to 8) (size 9 to 14) (size 15 to 20)
#    0.000    1.636    0.000    7.091    0.000    4.364 
#    0.000    1.364    0.000   14.727    0.000   10.182 
#    0.000    0.000    0.000    0.000    0.000    0.000 
#
# Total GULP energy -272633.914866 kJ/mol
# GULP energy per Si atom -12392.450676 kJ/mol
# Density = 2.177468 g / cm^3
# Si number density = 21.824356 Si / 1000 Ang^3
#
#
#
# Elastic Constant Matrix: (Units=GPa)
#
#
# Indices 1 2 3 4 5 6 
#
# 1 77.4994 8.6757 38.4513 0.0000 -6.4098 0.0000
# 2 8.6757 91.7525 28.0831 0.0000 13.0738 0.0000
# 3 38.4513 28.0831 144.2198 0.0000 24.0098 0.0000
# 4 0.0000 0.0000 0.0000 21.8803 0.0000 -1.0793
# 5 -6.4098 13.0738 24.0098 0.0000 46.5794 0.0000
# 6 0.0000 0.0000 0.0000 -1.0793 0.0000 12.9879
#
#
#
# Elastic Compliance Matrix: (Units=1/GPa)
#
#
# Indices 1 2 3 4 5 6 
#
# 1 0.015815 -0.000694 -0.004896 0.000000 0.004895 0.000000
# 2 -0.000694 0.011847 -0.001698 0.000000 -0.002545 0.000000
# 3 -0.004896 -0.001698 0.009410 0.000000 -0.005048 0.000000
# 4 0.000000 0.000000 0.000000 0.045891 0.000000 0.003813
# 5 0.004895 -0.002545 -0.005048 0.000000 0.025459 0.000000
# 6 0.000000 0.000000 0.000000 0.003813 0.000000 0.077312
#
#
# Mechanical properties :
#
#
# Convention : Reuss Voigt Hill
#
# Bulk Modulus (GPa) = 44.45383 51.54354 47.99868
# Shear Modulus (GPa) = 24.06046 32.17363 28.11704
#
# Velocity S-wave (km/s) = 3.32393 3.84371 3.59323
# Velocity P-wave (km/s) = 5.92828 6.58540 6.26546
#
# Compressibility (1/GPa) = 0.02249525
#
# Stress axis : x y z
#
# Youngs Moduli (GPa) = 63.23027 84.40988 106.26638
#
# Poissons Ratio (x) = 0.05860 0.52032
# Poissons Ratio (y) = 0.04390 0.18044
# Poissons Ratio (z) = 0.30960 0.14333
#
# Static dielectric constant tensor:
#      x y z
#    x 4.056310 0.000000 -0.208710 
#    y 0.000000 2.980010 0.000000 
#    z -0.208710 0.000000 6.904600 
# 
# 
# High freq. dielectric constant tensor:
#      x y z
#    x 1.859220 0.000000 0.009130 
#    y 0.000000 1.810110 0.000000 
#    z 0.009130 0.000000 1.871300 
# 
# From -- ./inp_files/200018.got.cif
#   From: 2010.06.25/outbox.cif.g09.slc.cpg/sg12_101_cif.got.tgz:200018.got - 2010.06.28 00:19:55.
