data_PCOD8106897
_publ_section_title
;
Structure prediction by ZEFSAII (Michael W. Deem and Ramdas Pophale) SiO2 
 PCOD8106897
Probable space group: C 2/M
;
_chemical_formula_sum "Si O2"
_cell_formula_units_Z 56
_cell_length_a 23.422061
_cell_length_b 9.222243
_cell_length_c 15.573717
_cell_angle_alpha 90.000000
_cell_angle_beta 57.013562
_cell_angle_gamma 90.000000
_cell_volume 2821.708137
_symmetry_space_group_name_H-M "C 2/M"
_symmetry_group_IT_number 12
_symmetry_cell_setting 'monoclinic'
loop_
_space_group_symop_operation_xyz
x,y,z
-x,y,-z
-x,-y,-z
x,-y,z
1/2+x,1/2+y,z
1/2-x,1/2+y,-z
1/2-x,1/2-y,-z
1/2+x,1/2-y,z
loop_
_atom_site_type_symbol
_atom_site_label
_atom_site_fract_x
_atom_site_fract_y
_atom_site_fract_z
Si Si1 0.289193 0.833547 0.893735
Si Si2 0.066639 0.668608 0.668865
Si Si3 0.930966 0.828725 0.510779
Si Si4 0.656966 0.164046 0.752169
Si Si5 0.576265 0.329714 0.959321
Si Si6 0.296087 0.334069 0.716910
Si Si7 0.927353 0.335098 0.867975
O O1 0.272582 0.762464 0.816118
O O2 0.370182 0.823048 0.841707
O O3 0.264473 0.000000 0.912970
O O4 0.250000 0.750000 0.000000
O O5 0.059739 0.500000 0.650952
O O6 0.077619 0.757310 0.574145
O O7 0.131144 0.700247 0.677516
O O8 0.998135 0.724342 0.771867
O O9 0.867562 0.778390 0.620834
O O10 0.000000 0.775114 0.500000
O O11 0.931181 0.000000 0.497074
O O12 0.624695 0.274388 0.845221
O O13 0.738702 0.180167 0.689705
O O14 0.634595 0.000000 0.794766
O O15 0.584861 0.500000 0.960543
O O16 0.500000 0.282199 0.000000
O O17 0.597640 0.260208 0.031873
O O18 0.302700 0.500000 0.742980
O O19 0.936344 0.500000 0.892578
#
# Coordination Sequence:
#
# PCOD8106897 Si02
#       7
#     8   8   8   8   8   8   8
#     4  11  23  38  58  85 115 150 192 235 282 336
#     4  10  21  37  59  85 110 143 191 238 279 333
#     4  10  22  40  61  85 115 149 185 233 292 341
#     4  10  21  38  59  82 114 154 193 231 280 342
#     4  11  22  34  53  85 119 150 188 233 282 337
#     4  10  22  40  60  84 115 153 193 233 282 341
#     4  10  21  37  57  81 112 152 193 233 282 340
#
# _framework density 19.846136000000001
#
# number of rings (size 3 to 8) (size 9 to 14) (size 15 to 20)
#    0.000    1.714    1.429    2.571    0.000    8.286 
#    0.000    0.000    0.000    0.000    0.000    0.000 
#    0.000    0.000    0.000    0.000    0.000    0.000 
#
# Total GULP energy -347333.518577 kJ/mol
# GULP energy per Si atom -12404.768521 kJ/mol
# Density = 1.980097 g / cm^3
# Si number density = 19.846136 Si / 1000 Ang^3
#
#
#
# Elastic Constant Matrix: (Units=GPa)
#
#
# Indices 1 2 3 4 5 6 
#
# 1 125.8841 36.3097 53.1110 0.0000 1.2481 0.0000
# 2 36.3097 69.7447 49.7964 0.0000 5.4296 -0.0001
# 3 53.1110 49.7964 122.7411 0.0000 6.7331 0.0000
# 4 0.0000 0.0000 0.0000 37.3754 0.0000 6.5243
# 5 1.2481 5.4296 6.7331 0.0000 35.8615 0.0000
# 6 0.0000 -0.0001 0.0000 6.5243 0.0000 24.3143
#
#
#
# Elastic Compliance Matrix: (Units=1/GPa)
#
#
# Indices 1 2 3 4 5 6 
#
# 1 0.010170 -0.003069 -0.003194 0.000000 0.000710 0.000000
# 2 -0.003069 0.021195 -0.007175 0.000000 -0.001755 0.000000
# 3 -0.003194 -0.007175 0.012503 0.000000 -0.001150 0.000000
# 4 0.000000 0.000000 0.000000 0.028070 0.000000 -0.007532
# 5 0.000710 -0.001755 -0.001150 0.000000 0.028342 0.000000
# 6 0.000000 0.000000 0.000000 -0.007532 0.000000 0.043149
#
#
# Mechanical properties :
#
#
# Convention : Reuss Voigt Hill
#
# Bulk Modulus (GPa) = 58.85125 66.31156 62.58140
# Shear Modulus (GPa) = 28.41403 31.45376 29.93390
#
# Velocity S-wave (km/s) = 3.78791 3.98538 3.88790
# Velocity P-wave (km/s) = 6.98921 7.39344 7.19417
#
# Compressibility (1/GPa) = 0.01699199
#
# Stress axis : x y z
#
# Youngs Moduli (GPa) = 98.33120 47.18111 79.97901
#
# Poissons Ratio (x) = 0.14480 0.25548
# Poissons Ratio (y) = 0.30178 0.57381
# Poissons Ratio (z) = 0.31411 0.33850
#
# Static dielectric constant tensor:
#      x y z
#    x 3.908340 0.000000 -0.093950 
#    y 0.000000 3.552680 0.000000 
#    z -0.093950 0.000000 3.421830 
# 
# 
# High freq. dielectric constant tensor:
#      x y z
#    x 1.793090 0.000000 -0.002260 
#    y 0.000000 1.769490 0.000000 
#    z -0.002260 0.000000 1.761970 
# 
# From -- ./inp_files/238294.got.cif
#   From: 2010.06.25/outbox.cif.g09.slc.cpg/sg12_120_cif.got.tgz:238294.got - 2010.06.28 00:19:55.
