data_PCOD8106630
_publ_section_title
;
Structure prediction by ZEFSAII (Michael W. Deem and Ramdas Pophale) SiO2 
 PCOD8106630
Probable space group: C 2/M
;
_chemical_formula_sum "Si O2"
_cell_formula_units_Z 44
_cell_length_a 19.878471
_cell_length_b 11.748140
_cell_length_c 9.832953
_cell_angle_alpha 90.000000
_cell_angle_beta 104.421656
_cell_angle_gamma 90.000000
_cell_volume 2223.979543
_symmetry_space_group_name_H-M "C 2/M"
_symmetry_group_IT_number 12
_symmetry_cell_setting 'monoclinic'
loop_
_space_group_symop_operation_xyz
x,y,z
-x,y,-z
-x,-y,-z
x,-y,z
1/2+x,1/2+y,z
1/2-x,1/2+y,-z
1/2-x,1/2-y,-z
1/2+x,1/2-y,z
loop_
_atom_site_type_symbol
_atom_site_label
_atom_site_fract_x
_atom_site_fract_y
_atom_site_fract_z
Si Si1 0.582654 0.742241 0.057153
Si Si2 0.817537 0.245591 0.121893
Si Si3 0.141906 0.210676 0.362781
Si Si4 0.703410 0.131595 0.614560
Si Si5 0.644134 0.500000 0.764957
Si Si6 0.927258 0.000000 0.544163
Si Si7 0.076366 0.000000 0.991740
O O1 0.611569 0.783292 0.217993
O O2 0.611721 0.611752 0.070278
O O3 0.500000 0.758052 0.000000
O O4 0.618676 0.792247 0.940193
O O5 0.816283 0.333925 0.243443
O O6 0.816795 0.116286 0.177797
O O7 0.750000 0.250000 0.000000
O O8 0.215614 0.153724 0.369788
O O9 0.152136 0.300448 0.488394
O O10 0.084388 0.114273 0.372959
O O11 0.687275 0.000000 0.583949
O O12 0.632420 0.500000 0.599530
O O13 0.574983 0.500000 0.825346
O O14 0.000000 0.000000 0.500000
O O15 0.000000 0.000000 0.000000
#
# Coordination Sequence:
#
# PCOD8106630 Si02
#       7
#     8   8   8   8   4   4   4
#     4  10  21  36  62  90 125 161 204 263 325 381
#     4  11  22  39  62  94 125 167 213 267 320 378
#     4  11  23  41  63  96 128 167 214 259 324 386
#     4  11  24  42  64  91 130 171 215 264 316 384
#     4  10  22  38  54  97 129 153 213 269 315 383
#     4  12  25  36  64  98 133 166 205 266 333 392
#     4   8  17  30  55  84 124 158 184 240 320 381
#
# _framework density 19.784355000000001
#
# number of rings (size 3 to 8) (size 9 to 14) (size 15 to 20)
#    0.000    1.455    4.545    0.545    8.909    0.000 
#    0.000    0.909    0.000    6.000    0.000    0.000 
#    0.000    0.000    0.000    0.000    0.000    0.000 
#
# Total GULP energy -272590.080407 kJ/mol
# GULP energy per Si atom -12390.458200 kJ/mol
# Density = 1.973932 g / cm^3
# Si number density = 19.784355 Si / 1000 Ang^3
#
#
#
# Elastic Constant Matrix: (Units=GPa)
#
#
# Indices 1 2 3 4 5 6 
#
# 1 97.3441 32.5031 35.5645 0.0000 -15.9506 0.0000
# 2 32.5031 85.0753 35.1914 0.0000 -5.3301 0.0000
# 3 35.5645 35.1914 138.5309 0.0000 -5.3709 0.0000
# 4 0.0000 0.0000 0.0000 16.0813 0.0000 -2.5129
# 5 -15.9506 -5.3301 -5.3709 0.0000 33.4129 0.0000
# 6 0.0000 0.0000 0.0000 -2.5129 0.0000 23.2644
#
#
#
# Elastic Compliance Matrix: (Units=1/GPa)
#
#
# Indices 1 2 3 4 5 6 
#
# 1 0.013231 -0.003800 -0.002224 0.000000 0.005353 0.000000
# 2 -0.003800 0.014308 -0.002658 0.000000 0.000041 0.000000
# 3 -0.002224 -0.002658 0.008460 0.000000 -0.000126 0.000000
# 4 0.000000 0.000000 0.000000 0.063252 0.000000 0.006832
# 5 0.005353 0.000041 -0.000126 0.000000 0.032470 0.000000
# 6 0.000000 0.000000 0.000000 0.006832 0.000000 0.043722
#
#
# Mechanical properties :
#
#
# Convention : Reuss Voigt Hill
#
# Bulk Modulus (GPa) = 53.65875 58.60759 56.13317
# Shear Modulus (GPa) = 25.12343 29.06448 27.09395
#
# Velocity S-wave (km/s) = 3.56738 3.83699 3.70464
# Velocity P-wave (km/s) = 6.64447 7.02265 6.83617
#
# Compressibility (1/GPa) = 0.01863629
#
# Stress axis : x y z
#
# Youngs Moduli (GPa) = 75.57922 69.89165 118.20596
#
# Poissons Ratio (x) = 0.26556 0.26289
# Poissons Ratio (y) = 0.28717 0.31414
# Poissons Ratio (z) = 0.16809 0.18574
#
# Static dielectric constant tensor:
#      x y z
#    x 3.458800 0.000000 -0.347800 
#    y 0.000000 4.246150 0.000000 
#    z -0.347800 0.000000 4.096750 
# 
# 
# High freq. dielectric constant tensor:
#      x y z
#    x 1.763440 0.000000 -0.015420 
#    y 0.000000 1.743680 0.000000 
#    z -0.015420 0.000000 1.796880 
# 
# From -- ./inp_files/84202.got.cif
#   From: 2010.06.25/outbox.cif.g09.slc.cpg/sg12_43_cif.got.tgz:84202.got - 2010.06.28 00:19:55.
