data_PCOD8106464
_publ_section_title
;
Structure prediction by ZEFSAII (Michael W. Deem and Ramdas Pophale) SiO2 
 PCOD8106464
Probable space group: C 2/M
;
_chemical_formula_sum "Si O2"
_cell_formula_units_Z 56
_cell_length_a 26.012509
_cell_length_b 15.261557
_cell_length_c 14.393822
_cell_angle_alpha 90.000000
_cell_angle_beta 152.706322
_cell_angle_gamma 90.000000
_cell_volume 2620.265716
_symmetry_space_group_name_H-M "C 2/M"
_symmetry_group_IT_number 12
_symmetry_cell_setting 'monoclinic'
loop_
_space_group_symop_operation_xyz
x,y,z
-x,y,-z
-x,-y,-z
x,-y,z
1/2+x,1/2+y,z
1/2-x,1/2+y,-z
1/2-x,1/2-y,-z
1/2+x,1/2-y,z
loop_
_atom_site_type_symbol
_atom_site_label
_atom_site_fract_x
_atom_site_fract_y
_atom_site_fract_z
Si Si1 0.290440 0.398995 0.757146
Si Si2 0.575143 0.771457 0.034556
Si Si3 0.251470 0.900824 0.754802
Si Si4 0.560582 0.177393 0.366757
Si Si5 0.974936 0.835054 0.570090
Si Si6 0.850879 0.599407 0.100021
Si Si7 0.301286 0.600314 0.988447
O O1 0.322940 0.500000 0.782257
O O2 0.389443 0.330498 0.892447
O O3 0.175738 0.370228 0.521041
O O4 0.265421 0.389882 0.825479
O O5 0.685936 0.834649 0.216026
O O6 0.500000 0.800873 0.000000
O O7 0.500415 0.782419 0.821751
O O8 0.115974 0.906277 0.540059
O O9 0.296523 0.000000 0.809553
O O10 0.285012 0.858443 0.907887
O O11 0.583176 0.247182 0.484722
O O12 0.482754 0.107538 0.295322
O O13 0.000000 0.837431 0.500000
O O14 0.089578 0.843851 0.811020
O O15 0.815222 0.500000 0.044895
O O16 0.803765 0.639206 0.120776
O O17 0.330213 0.500000 0.059281
#
# Coordination Sequence:
#
# PCOD8106464 Si02
#       7
#     8   8   8   8   8   8   8
#     4  11  24  44  67  95 134 173 215 272 334 397
#     4  11  25  47  73  93 124 167 226 283 337 383
#     4  10  21  39  62  94 131 165 211 270 329 381
#     4  11  24  40  63  93 131 171 218 270 323 393
#     4  12  22  34  62  97 136 177 214 259 320 390
#     4   9  19  35  56  85 125 170 213 258 311 381
#     4  10  21  36  58  90 130 175 219 260 314 390
#
# _framework density 21.371877000000001
#
# number of rings (size 3 to 8) (size 9 to 14) (size 15 to 20)
#    0.000    1.429    4.286    0.857    2.000    2.857 
#    0.000    2.143    0.000    0.000    0.000    0.000 
#    0.000    0.000    0.000    0.000    0.000    0.000 
#
# Total GULP energy -346897.886093 kJ/mol
# GULP energy per Si atom -12389.210218 kJ/mol
# Density = 2.132323 g / cm^3
# Si number density = 21.371877 Si / 1000 Ang^3
#
#
#
# Elastic Constant Matrix: (Units=GPa)
#
#
# Indices 1 2 3 4 5 6 
#
# 1 109.2701 31.9025 22.4854 0.0000 19.2218 0.0000
# 2 31.9025 87.5113 20.9861 0.0000 4.5855 0.0000
# 3 22.4854 20.9861 91.2358 0.0000 11.0869 0.0000
# 4 0.0000 0.0000 0.0000 31.9503 0.0000 6.3512
# 5 19.2218 4.5855 11.0869 0.0000 19.9097 0.0000
# 6 0.0000 0.0000 0.0000 6.3512 0.0000 21.2434
#
#
#
# Elastic Compliance Matrix: (Units=1/GPa)
#
#
# Indices 1 2 3 4 5 6 
#
# 1 0.012263 -0.003706 -0.000895 0.000000 -0.010487 0.000000
# 2 -0.003706 0.013247 -0.002357 0.000000 0.001840 0.000000
# 3 -0.000895 -0.002357 0.012391 0.000000 -0.005493 0.000000
# 4 0.000000 0.000000 0.000000 0.033276 0.000000 -0.009949
# 5 -0.010487 0.001840 -0.005493 0.000000 0.062986 0.000000
# 6 0.000000 0.000000 0.000000 -0.009949 0.000000 0.050048
#
#
# Mechanical properties :
#
#
# Convention : Reuss Voigt Hill
#
# Bulk Modulus (GPa) = 41.69591 48.75166 45.22378
# Shear Modulus (GPa) = 24.25737 28.79691 26.52714
#
# Velocity S-wave (km/s) = 3.37265 3.67471 3.52691
# Velocity P-wave (km/s) = 5.89224 6.39259 6.14751
#
# Compressibility (1/GPa) = 0.02398317
#
# Stress axis : x y z
#
# Youngs Moduli (GPa) = 81.54823 75.48828 80.70397
#
# Poissons Ratio (x) = 0.27977 0.07226
# Poissons Ratio (y) = 0.30223 0.19024
# Poissons Ratio (z) = 0.07301 0.17795
#
# Static dielectric constant tensor:
#      x y z
#    x 3.805370 0.000000 0.129000 
#    y 0.000000 3.882980 0.000000 
#    z 0.129000 0.000000 3.802910 
# 
# 
# High freq. dielectric constant tensor:
#      x y z
#    x 1.819400 0.000000 0.013180 
#    y 0.000000 1.840340 0.000000 
#    z 0.013180 0.000000 1.834420 
# 
# From -- ./inp_files/246569.got.cif
#   From: 2010.06.25/outbox.cif.g09.slc.cpg/sg12_124_cif.got.tgz:246569.got - 2010.06.28 00:19:55.
