data_PCOD8106273
_publ_section_title
;
Structure prediction by ZEFSAII (Michael W. Deem and Ramdas Pophale) SiO2 
 PCOD8106273
Probable space group: C 2/M
;
_chemical_formula_sum "Si O2"
_cell_formula_units_Z 60
_cell_length_a 25.817915
_cell_length_b 15.527923
_cell_length_c 7.758153
_cell_angle_alpha 90.000000
_cell_angle_beta 105.850487
_cell_angle_gamma 90.000000
_cell_volume 2991.974436
_symmetry_space_group_name_H-M "C 2/M"
_symmetry_group_IT_number 12
_symmetry_cell_setting 'monoclinic'
loop_
_space_group_symop_operation_xyz
x,y,z
-x,y,-z
-x,-y,-z
x,-y,z
1/2+x,1/2+y,z
1/2-x,1/2+y,-z
1/2-x,1/2-y,-z
1/2+x,1/2-y,z
loop_
_atom_site_type_symbol
_atom_site_label
_atom_site_fract_x
_atom_site_fract_y
_atom_site_fract_z
Si Si1 0.362890 0.786753 0.859459
Si Si2 0.776482 0.593085 0.887216
Si Si3 0.687774 0.094754 0.702209
Si Si4 0.107850 0.263868 0.716101
Si Si5 0.543586 0.902580 0.186388
Si Si6 0.785682 0.827702 0.604270
Si Si7 0.000000 0.659820 0.500000
Si Si8 0.334200 0.597638 0.318176
O O1 0.308698 0.843566 0.792530
O O2 0.408882 0.832914 0.788815
O O3 0.341326 0.699163 0.753149
O O4 0.382788 0.773271 0.071822
O O5 0.775096 0.500000 0.793917
O O6 0.714235 0.621456 0.860272
O O7 0.809163 0.587589 0.091265
O O8 0.643589 0.170003 0.630753
O O9 0.746964 0.117754 0.691948
O O10 0.669092 0.000000 0.613834
O O11 0.118638 0.165708 0.670116
O O12 0.046183 0.278877 0.615603
O O13 0.519197 0.898505 0.356942
O O14 0.565222 0.000000 0.176682
O O15 0.500000 0.880799 0.000000
O O16 0.750000 0.750000 0.500000
O O17 0.806206 0.892290 0.477379
O O18 0.356306 0.500000 0.315046
#
# Coordination Sequence:
#
# PCOD8106273 Si02
#       8
#     8   8   8   8   8   8   4   8
#     4  11  21  39  62  85 123 166 207 251 315 368
#     4   9  18  33  56  85 119 157 197 242 298 369
#     4  10  21  36  56  86 124 162 202 246 302 371
#     4  11  23  41  63  88 118 165 214 267 314 375
#     4  11  24  42  63  94 130 168 217 266 313 373
#     4  12  21  35  55  88 125 162 201 245 309 374
#     4  12  25  44  63  92 124 168 218 262 324 370
#     4  11  22  38  59  89 122 159 204 257 318 377
#
# _framework density 20.053647000000002
#
# number of rings (size 3 to 8) (size 9 to 14) (size 15 to 20)
#    0.000    1.200    4.000    2.600    0.000    3.733 
#    0.000    1.000    0.000    0.000    0.000    1.867 
#    0.000    0.000    0.000    0.000    0.000    0.000 
#
# Total GULP energy -371819.328879 kJ/mol
# GULP energy per Si atom -12393.977629 kJ/mol
# Density = 2.000800 g / cm^3
# Si number density = 20.053647 Si / 1000 Ang^3
#
#
#
# Elastic Constant Matrix: (Units=GPa)
#
#
# Indices 1 2 3 4 5 6 
#
# 1 88.9214 49.9020 25.4310 0.0000 3.1887 0.0000
# 2 49.9020 117.5727 24.0856 0.0000 6.4703 0.0000
# 3 25.4310 24.0856 74.4814 0.0000 6.1283 0.0000
# 4 0.0000 0.0000 0.0000 17.6117 0.0000 -3.3286
# 5 3.1887 6.4703 6.1283 0.0000 37.7768 0.0000
# 6 0.0000 0.0000 0.0000 -3.3286 0.0000 22.6996
#
#
#
# Elastic Compliance Matrix: (Units=1/GPa)
#
#
# Indices 1 2 3 4 5 6 
#
# 1 0.015527 -0.005905 -0.003413 0.000000 0.000254 0.000000
# 2 -0.005905 0.011400 -0.001572 0.000000 -0.001199 0.000000
# 3 -0.003413 -0.001572 0.015257 0.000000 -0.001918 0.000000
# 4 0.000000 0.000000 0.000000 0.058399 0.000000 0.008563
# 5 0.000254 -0.001199 -0.001918 0.000000 0.026966 0.000000
# 6 0.000000 0.000000 0.000000 0.008563 0.000000 0.045309
#
#
# Mechanical properties :
#
#
# Convention : Reuss Voigt Hill
#
# Bulk Modulus (GPa) = 49.00741 53.31254 51.15997
# Shear Modulus (GPa) = 24.82146 27.72139 26.27143
#
# Velocity S-wave (km/s) = 3.52199 3.72205 3.62340
# Velocity P-wave (km/s) = 6.40550 6.71671 6.56295
#
# Compressibility (1/GPa) = 0.02040508
#
# Stress axis : x y z
#
# Youngs Moduli (GPa) = 64.40556 87.72276 65.54172
#
# Poissons Ratio (x) = 0.51799 0.22368
# Poissons Ratio (y) = 0.38031 0.10300
# Poissons Ratio (z) = 0.21981 0.13786
#
# Static dielectric constant tensor:
#      x y z
#    x 3.581720 0.000000 0.025080 
#    y 0.000000 3.752580 0.000000 
#    z 0.025080 0.000000 3.697710 
# 
# 
# High freq. dielectric constant tensor:
#      x y z
#    x 1.763700 0.000000 -0.003630 
#    y 0.000000 1.774930 0.000000 
#    z -0.003630 0.000000 1.792510 
# 
# From -- ./inp_files/96922.got.cif
#   From: 2010.06.25/outbox.cif.g09.slc.cpg/sg12_49_cif.got.tgz:96922.got - 2010.06.28 00:19:55.
