data_PCOD8106993
_publ_section_title
;
Structure prediction by ZEFSAII (Michael W. Deem and Ramdas Pophale) SiO2 
 PCOD8106993
Probable space group: C 2/M
;
_chemical_formula_sum "Si O2"
_cell_formula_units_Z 56
_cell_length_a 28.325392
_cell_length_b 8.593205
_cell_length_c 14.304134
_cell_angle_alpha 90.000000
_cell_angle_beta 60.135786
_cell_angle_gamma 90.000000
_cell_volume 3019.367043
_symmetry_space_group_name_H-M "C 2/M"
_symmetry_group_IT_number 12
_symmetry_cell_setting 'monoclinic'
loop_
_space_group_symop_operation_xyz
x,y,z
-x,y,-z
-x,-y,-z
x,-y,z
1/2+x,1/2+y,z
1/2-x,1/2+y,-z
1/2-x,1/2-y,-z
1/2+x,1/2-y,z
loop_
_atom_site_type_symbol
_atom_site_label
_atom_site_fract_x
_atom_site_fract_y
_atom_site_fract_z
Si Si1 0.447323 0.815460 0.994195
Si Si2 0.646839 0.182662 0.445802
Si Si3 0.138730 0.823880 0.793475
Si Si4 0.558317 0.318601 0.399844
Si Si5 0.967152 0.679775 0.764075
Si Si6 0.753870 0.317039 0.391864
Si Si7 0.921391 0.825210 0.334120
O O1 0.390812 0.743398 0.086024
O O2 0.444456 0.000000 0.005477
O O3 0.500000 0.753906 0.000000
O O4 0.450705 0.761053 0.883143
O O5 0.607011 0.226308 0.400800
O O6 0.708535 0.240095 0.368398
O O7 0.630745 0.271822 0.556444
O O8 0.645624 0.000000 0.463580
O O9 0.188901 0.717775 0.713825
O O10 0.092351 0.819355 0.760679
O O11 0.158906 0.000000 0.791259
O O12 0.500000 0.265265 0.500000
O O13 0.567412 0.500000 0.407820
O O14 0.563289 0.279141 0.285208
O O15 0.952963 0.500000 0.763351
O O16 0.031383 0.704459 0.688119
O O17 0.745045 0.500000 0.406388
O O18 0.750000 0.250000 0.500000
O O19 0.939032 0.000000 0.346894
#
# Coordination Sequence:
#
# PCOD8106993 Si02
#       7
#     8   8   8   8   8   8   8
#     4  10  21  37  57  84 118 155 195 239 289 344
#     4  12  24  38  59  85 117 154 195 238 288 348
#     4  11  23  37  57  85 119 156 197 238 286 345
#     4  11  23  38  58  84 118 154 193 240 291 348
#     4  11  22  36  57  84 117 156 199 240 287 346
#     4  12  24  39  60  85 118 155 194 238 290 344
#     4  11  21  33  53  83 120 155 192 237 285 342
#
# _framework density 18.546935000000001
#
# number of rings (size 3 to 8) (size 9 to 14) (size 15 to 20)
#    0.000    0.857    4.286    4.286    0.000    3.143 
#    0.000    0.000    0.000    0.857    0.000    0.000 
#    0.000    0.000    0.000    0.000    0.000    0.000 
#
# Total GULP energy -347282.877277 kJ/mol
# GULP energy per Si atom -12402.959903 kJ/mol
# Density = 1.850472 g / cm^3
# Si number density = 18.546935 Si / 1000 Ang^3
#
#
#
# Elastic Constant Matrix: (Units=GPa)
#
#
# Indices 1 2 3 4 5 6 
#
# 1 94.7681 32.4158 42.5353 0.0000 0.5898 0.0000
# 2 32.4158 74.5682 29.4610 0.0000 6.9217 0.0000
# 3 42.5353 29.4610 103.8205 0.0000 5.7709 0.0000
# 4 0.0000 0.0000 0.0000 28.2458 0.0000 -2.0296
# 5 0.5898 6.9217 5.7709 0.0000 28.5402 0.0000
# 6 0.0000 0.0000 0.0000 -2.0296 0.0000 30.8830
#
#
#
# Elastic Compliance Matrix: (Units=1/GPa)
#
#
# Indices 1 2 3 4 5 6 
#
# 1 0.014150 -0.004486 -0.004620 0.000000 0.001730 0.000000
# 2 -0.004486 0.016755 -0.002727 0.000000 -0.003420 0.000000
# 3 -0.004620 -0.002727 0.012396 0.000000 -0.001750 0.000000
# 4 0.000000 0.000000 0.000000 0.035572 0.000000 0.002338
# 5 0.001730 -0.003420 -0.001750 0.000000 0.036186 0.000000
# 6 0.000000 0.000000 0.000000 0.002338 0.000000 0.032534
#
#
# Mechanical properties :
#
#
# Convention : Reuss Voigt Hill
#
# Bulk Modulus (GPa) = 50.92971 53.55346 52.24158
# Shear Modulus (GPa) = 28.12105 28.78345 28.45225
#
# Velocity S-wave (km/s) = 3.89808 3.94372 3.92097
# Velocity P-wave (km/s) = 6.91227 7.04801 6.98047
#
# Compressibility (1/GPa) = 0.01963490
#
# Stress axis : x y z
#
# Youngs Moduli (GPa) = 70.67373 59.68225 80.67191
#
# Poissons Ratio (x) = 0.26774 0.37272
# Poissons Ratio (y) = 0.31705 0.21996
# Poissons Ratio (z) = 0.32653 0.16273
#
# Static dielectric constant tensor:
#      x y z
#    x 3.362950 0.000000 0.047590 
#    y 0.000000 3.444000 0.000000 
#    z 0.047590 0.000000 3.380480 
# 
# 
# High freq. dielectric constant tensor:
#      x y z
#    x 1.709130 0.000000 0.001220 
#    y 0.000000 1.731950 0.000000 
#    z 0.001220 0.000000 1.707170 
# 
# From -- ./inp_files/248899.got.cif
#   From: 2010.06.25/outbox.cif.g09.slc.cpg/sg12_125_cif.got.tgz:248899.got - 2010.06.28 00:19:55.
