data_PCOD8106855
_publ_section_title
;
Structure prediction by ZEFSAII (Michael W. Deem and Ramdas Pophale) SiO2 
 PCOD8106855
Probable space group: C 2/M
;
_chemical_formula_sum "Si O2"
_cell_formula_units_Z 56
_cell_length_a 21.286974
_cell_length_b 8.946187
_cell_length_c 14.685264
_cell_angle_alpha 90.000000
_cell_angle_beta 79.536023
_cell_angle_gamma 90.000000
_cell_volume 2750.111490
_symmetry_space_group_name_H-M "C 2/M"
_symmetry_group_IT_number 12
_symmetry_cell_setting 'monoclinic'
loop_
_space_group_symop_operation_xyz
x,y,z
-x,y,-z
-x,-y,-z
x,-y,z
1/2+x,1/2+y,z
1/2-x,1/2+y,-z
1/2-x,1/2-y,-z
1/2+x,1/2-y,z
loop_
_atom_site_type_symbol
_atom_site_label
_atom_site_fract_x
_atom_site_fract_y
_atom_site_fract_z
Si Si1 0.132951 0.830166 0.895215
Si Si2 0.536413 0.170688 0.272629
Si Si3 0.819201 0.321173 0.466259
Si Si4 0.394647 0.167124 0.274522
Si Si5 0.893078 0.822456 0.894354
Si Si6 0.770506 0.672188 0.903028
Si Si7 0.569720 0.322997 0.443275
O O1 0.097294 0.756686 0.820740
O O2 0.208874 0.814407 0.853964
O O3 0.110955 0.000000 0.902897
O O4 0.112220 0.763935 0.999544
O O5 0.460986 0.176593 0.311898
O O6 0.546825 0.246737 0.170706
O O7 0.573341 0.266178 0.338693
O O8 0.561350 0.000000 0.266577
O O9 0.816460 0.500000 0.479063
O O10 0.750000 0.250000 0.500000
O O11 0.840164 0.275334 0.358054
O O12 0.872073 0.255967 0.520388
O O13 0.378570 0.000000 0.248545
O O14 0.832048 0.762686 0.851361
O O15 0.896309 0.000000 0.888531
O O16 0.788604 0.500000 0.915251
O O17 0.750000 0.750000 0.000000
O O18 0.500000 0.277346 0.500000
O O19 0.580093 0.500000 0.444843
#
# Coordination Sequence:
#
# PCOD8106855 Si02
#       7
#     8   8   8   8   8   8   8
#     4   9  20  36  57  83 118 160 201 246 304 362
#     4  11  23  40  62  89 120 160 206 254 309 374
#     4  11  24  44  67  96 132 167 209 265 321 380
#     4  10  23  40  60  86 119 159 204 251 308 372
#     4  10  21  37  56  86 121 157 203 256 304 362
#     4   9  17  32  53  79 110 151 198 246 301 361
#     4  11  23  41  68  97 123 161 209 258 318 384
#
# _framework density 20.362808999999999
#
# number of rings (size 3 to 8) (size 9 to 14) (size 15 to 20)
#    0.000    1.857    1.429    3.000    0.000    8.000 
#    0.000    5.714    0.000    0.000    0.000    0.000 
#    0.000    0.000    0.000    0.000    0.000    0.000 
#
# Total GULP energy -347049.386265 kJ/mol
# GULP energy per Si atom -12394.620938 kJ/mol
# Density = 2.031646 g / cm^3
# Si number density = 20.362809 Si / 1000 Ang^3
#
#
#
# Elastic Constant Matrix: (Units=GPa)
#
#
# Indices 1 2 3 4 5 6 
#
# 1 100.3052 45.5077 49.2589 0.0000 -5.7189 0.0000
# 2 45.5077 90.8729 47.3464 0.0000 0.4640 0.0000
# 3 49.2589 47.3464 123.9054 0.0000 -1.5287 0.0000
# 4 0.0000 0.0000 0.0000 33.7784 0.0000 1.3461
# 5 -5.7189 0.4640 -1.5287 0.0000 32.0547 0.0000
# 6 0.0000 0.0000 0.0000 1.3461 0.0000 36.3314
#
#
#
# Elastic Compliance Matrix: (Units=1/GPa)
#
#
# Indices 1 2 3 4 5 6 
#
# 1 0.014287 -0.005274 -0.003634 0.000000 0.002452 0.000000
# 2 -0.005274 0.015693 -0.003917 0.000000 -0.001355 0.000000
# 3 -0.003634 -0.003917 0.011011 0.000000 -0.000067 0.000000
# 4 0.000000 0.000000 0.000000 0.029648 0.000000 -0.001098
# 5 0.002452 -0.001355 -0.000067 0.000000 0.031651 0.000000
# 6 0.000000 0.000000 0.000000 -0.001098 0.000000 0.027565
#
#
# Mechanical properties :
#
#
# Convention : Reuss Voigt Hill
#
# Bulk Modulus (GPa) = 65.18176 66.58995 65.88586
# Shear Modulus (GPa) = 31.12972 31.96428 31.54700
#
# Velocity S-wave (km/s) = 3.91417 3.96629 3.94032
# Velocity P-wave (km/s) = 7.24619 7.33130 7.28887
#
# Compressibility (1/GPa) = 0.01534172
#
# Stress axis : x y z
#
# Youngs Moduli (GPa) = 69.99510 63.72316 90.81536
#
# Poissons Ratio (x) = 0.33605 0.33006
# Poissons Ratio (y) = 0.36912 0.35570
# Poissons Ratio (z) = 0.25439 0.24959
#
# Static dielectric constant tensor:
#      x y z
#    x 4.000550 0.000000 -0.103050 
#    y 0.000000 3.746850 0.000000 
#    z -0.103050 0.000000 3.567860 
# 
# 
# High freq. dielectric constant tensor:
#      x y z
#    x 1.797790 0.000000 -0.006200 
#    y 0.000000 1.801300 0.000000 
#    z -0.006200 0.000000 1.786630 
# 
# From -- ./inp_files/230952.got.cif
#   From: 2010.06.25/outbox.cif.g09.slc.cpg/sg12_116_cif.got.tgz:230952.got - 2010.06.28 00:19:55.
