data_PCOD8106207
_publ_section_title
;
Structure prediction by ZEFSAII (Michael W. Deem and Ramdas Pophale) SiO2 
 PCOD8106207
Probable space group: C 2/M
;
_chemical_formula_sum "Si O2"
_cell_formula_units_Z 56
_cell_length_a 15.782975
_cell_length_b 8.952856
_cell_length_c 19.343703
_cell_angle_alpha 90.000000
_cell_angle_beta 91.906177
_cell_angle_gamma 90.000000
_cell_volume 2731.804989
_symmetry_space_group_name_H-M "C 2/M"
_symmetry_group_IT_number 12
_symmetry_cell_setting 'monoclinic'
loop_
_space_group_symop_operation_xyz
x,y,z
-x,y,-z
-x,-y,-z
x,-y,z
1/2+x,1/2+y,z
1/2-x,1/2+y,-z
1/2-x,1/2-y,-z
1/2+x,1/2-y,z
loop_
_atom_site_type_symbol
_atom_site_label
_atom_site_fract_x
_atom_site_fract_y
_atom_site_fract_z
Si Si1 0.674198 0.827250 0.811652
Si Si2 0.852648 0.679295 0.341793
Si Si3 0.110757 0.162701 0.940507
Si Si4 0.987487 0.828872 0.580784
Si Si5 0.416732 0.663812 0.912382
Si Si6 0.341900 0.830985 0.796274
Si Si7 0.827113 0.325751 0.639075
O O1 0.637362 0.764769 0.737644
O O2 0.631930 0.774490 0.880302
O O3 0.771294 0.783589 0.819041
O O4 0.661295 0.000000 0.808006
O O5 0.847594 0.500000 0.348588
O O6 0.765382 0.748596 0.370703
O O7 0.935132 0.738962 0.383060
O O8 0.011653 0.142906 0.936960
O O9 0.153452 0.000000 0.928225
O O10 0.134811 0.218585 0.019425
O O11 0.896268 0.753378 0.592632
O O12 0.000000 0.823311 0.500000
O O13 0.987204 0.000000 0.607686
O O14 0.381553 0.500000 0.888294
O O15 0.417167 0.784781 0.849932
O O16 0.365481 0.807603 0.717130
O O17 0.312654 0.000000 0.808237
O O18 0.817801 0.500000 0.618452
#
# Coordination Sequence:
#
# PCOD8106207 Si02
#       7
#     8   8   8   8   8   8   8
#     4  10  21  36  56  82 111 145 190 237 287 344
#     4  10  22  41  64  92 126 162 203 251 302 358
#     4   9  19  35  53  76 108 147 190 235 287 344
#     4  11  25  43  65  95 126 161 204 243 293 362
#     4   9  19  35  53  76 108 147 190 235 287 344
#     4  10  21  36  56  82 111 145 190 237 287 344
#     4  10  22  41  64  92 126 162 203 251 302 358
#
# _framework density 20.499267
#
# number of rings (size 3 to 8) (size 9 to 14) (size 15 to 20)
#    0.000    2.143    0.000    3.000    2.000    6.857 
#    0.000    1.429    0.000    0.000    0.000    0.000 
#    0.000    0.000    0.000    0.000    0.000    0.000 
#
# Total GULP energy -346901.599303 kJ/mol
# GULP energy per Si atom -12389.342832 kJ/mol
# Density = 2.045261 g / cm^3
# Si number density = 20.499267 Si / 1000 Ang^3
#
#
#
# Elastic Constant Matrix: (Units=GPa)
#
#
# Indices 1 2 3 4 5 6 
#
# 1 39.7913 19.2807 4.9619 0.0000 -18.0798 0.0000
# 2 19.2807 86.2743 27.1986 0.0000 -12.0788 0.0000
# 3 4.9619 27.1986 55.2172 0.0000 -15.2645 0.0000
# 4 0.0000 0.0000 0.0000 34.0701 0.0000 2.1292
# 5 -18.0798 -12.0788 -15.2645 0.0000 30.7628 0.0000
# 6 0.0000 0.0000 0.0000 2.1292 0.0000 33.9716
#
#
#
# Elastic Compliance Matrix: (Units=1/GPa)
#
#
# Indices 1 2 3 4 5 6 
#
# 1 0.038281 -0.007416 0.006522 0.000000 0.022823 0.000000
# 2 -0.007416 0.015308 -0.007437 0.000000 -0.002038 0.000000
# 3 0.006522 -0.007437 0.024848 0.000000 0.013243 0.000000
# 4 0.000000 0.000000 0.000000 0.029467 0.000000 -0.001847
# 5 0.022823 -0.002038 0.013243 0.000000 0.051691 0.000000
# 6 0.000000 0.000000 0.000000 -0.001847 0.000000 0.029552
#
#
# Mechanical properties :
#
#
# Convention : Reuss Voigt Hill
#
# Bulk Modulus (GPa) = 16.18773 31.57393 23.88083
# Shear Modulus (GPa) = 22.08474 28.41700 25.25087
#
# Velocity S-wave (km/s) = 3.28585 3.72727 3.51350
# Velocity P-wave (km/s) = 4.72331 5.82746 5.30419
#
# Compressibility (1/GPa) = 0.06177518
#
# Stress axis : x y z
#
# Youngs Moduli (GPa) = 26.12247 65.32742 40.24391
#
# Poissons Ratio (x) = 0.48447 -0.26248
# Poissons Ratio (y) = 0.19372 0.29930
# Poissons Ratio (z) = -0.17038 0.48585
#
# Static dielectric constant tensor:
#      x y z
#    x 3.590720 0.000000 -0.128620 
#    y 0.000000 4.018980 0.000000 
#    z -0.128620 0.000000 4.146290 
# 
# 
# High freq. dielectric constant tensor:
#      x y z
#    x 1.789180 0.000000 0.000360 
#    y 0.000000 1.806340 0.000000 
#    z 0.000360 0.000000 1.810990 
# 
# From -- ./inp_files/309005.got.cif
#   From: 2010.06.25/outbox.cif.g09.slc.cpg/sg12_155_cif.got.tgz:309005.got - 2010.06.28 00:19:55.
