data_PCOD8106306
_publ_section_title
;
Structure prediction by ZEFSAII (Michael W. Deem and Ramdas Pophale) SiO2 
 PCOD8106306
Probable space group: C 2/M
;
_chemical_formula_sum "Si O2"
_cell_formula_units_Z 56
_cell_length_a 16.403407
_cell_length_b 17.504747
_cell_length_c 12.786658
_cell_angle_alpha 90.000000
_cell_angle_beta 123.143134
_cell_angle_gamma 90.000000
_cell_volume 3074.198141
_symmetry_space_group_name_H-M "C 2/M"
_symmetry_group_IT_number 12
_symmetry_cell_setting 'monoclinic'
loop_
_space_group_symop_operation_xyz
x,y,z
-x,y,-z
-x,-y,-z
x,-y,z
1/2+x,1/2+y,z
1/2-x,1/2+y,-z
1/2-x,1/2-y,-z
1/2+x,1/2-y,z
loop_
_atom_site_type_symbol
_atom_site_label
_atom_site_fract_x
_atom_site_fract_y
_atom_site_fract_z
Si Si1 0.819647 0.790316 0.469036
Si Si2 0.151531 0.411009 0.859943
Si Si3 0.406847 0.180515 0.368275
Si Si4 0.482578 0.829988 0.869926
Si Si5 0.672627 0.588584 0.875983
Si Si6 0.995724 0.204661 0.272794
Si Si7 0.218512 0.588892 0.261490
O O1 0.750000 0.750000 0.500000
O O2 0.834643 0.723317 0.395226
O O3 0.775435 0.866225 0.390332
O O4 0.916947 0.822646 0.591696
O O5 0.130825 0.500000 0.857294
O O6 0.142660 0.389187 0.730339
O O7 0.074871 0.369727 0.881605
O O8 0.260521 0.391192 0.976591
O O9 0.500000 0.150851 0.500000
O O10 0.429974 0.239711 0.294013
O O11 0.458547 0.751261 0.792449
O O12 0.394026 0.889197 0.808222
O O13 0.500000 0.804545 0.000000
O O14 0.643333 0.500000 0.853958
O O15 0.571535 0.634763 0.812123
O O16 0.735957 0.610104 0.818560
O O17 0.229294 0.500000 0.293378
#
# Coordination Sequence:
#
# PCOD8106306 Si02
#       7
#     8   8   8   8   8   8   8
#     4  11  21  39  59  81 115 153 189 241 290 338
#     4  10  21  36  57  83 118 157 190 237 292 345
#     4   9  20  36  55  81 113 147 195 239 283 343
#     4  11  21  35  57  88 117 152 190 240 292 343
#     4  10  21  37  59  86 117 151 190 241 291 344
#     4  10  21  37  58  84 113 149 195 240 285 346
#     4  11  22  36  58  89 118 148 189 240 296 343
#
# _framework density 18.216132999999999
#
# number of rings (size 3 to 8) (size 9 to 14) (size 15 to 20)
#    0.000    1.714    4.286    0.429    0.000    4.857 
#    0.000    2.143    0.000    0.429    0.000    0.000 
#    0.000    0.000    0.000    0.000    0.000    0.000 
#
# Total GULP energy -347118.910905 kJ/mol
# GULP energy per Si atom -12397.103961 kJ/mol
# Density = 1.817467 g / cm^3
# Si number density = 18.216133 Si / 1000 Ang^3
#
#
#
# Elastic Constant Matrix: (Units=GPa)
#
#
# Indices 1 2 3 4 5 6 
#
# 1 67.6526 27.7910 31.6090 0.0000 -8.7559 0.0000
# 2 27.7910 74.5258 52.3112 0.0000 -2.9510 0.0000
# 3 31.6090 52.3112 124.1857 0.0000 -8.1763 0.0000
# 4 0.0000 0.0000 0.0000 35.6241 0.0000 2.1254
# 5 -8.7559 -2.9510 -8.1763 0.0000 29.2483 0.0000
# 6 0.0000 0.0000 0.0000 2.1254 0.0000 18.2268
#
#
#
# Elastic Compliance Matrix: (Units=1/GPa)
#
#
# Indices 1 2 3 4 5 6 
#
# 1 0.018519 -0.005149 -0.002256 0.000000 0.004394 0.000000
# 2 -0.005149 0.020486 -0.007421 0.000000 -0.001549 0.000000
# 3 -0.002256 -0.007421 0.011877 0.000000 0.001896 0.000000
# 4 0.000000 0.000000 0.000000 0.028268 0.000000 -0.003296
# 5 0.004394 -0.001549 0.001896 0.000000 0.035879 0.000000
# 6 0.000000 0.000000 0.000000 -0.003296 0.000000 0.055249
#
#
# Mechanical properties :
#
#
# Convention : Reuss Voigt Hill
#
# Bulk Modulus (GPa) = 47.09871 54.42074 50.75972
# Shear Modulus (GPa) = 24.15411 26.93003 25.54207
#
# Velocity S-wave (km/s) = 3.64534 3.84912 3.74861
# Velocity P-wave (km/s) = 6.60527 7.04941 6.83095
#
# Compressibility (1/GPa) = 0.02123200
#
# Stress axis : x y z
#
# Youngs Moduli (GPa) = 53.99879 48.81501 84.19441
#
# Poissons Ratio (x) = 0.25133 0.18991
# Poissons Ratio (y) = 0.27802 0.62478
# Poissons Ratio (z) = 0.12180 0.36224
#
# Static dielectric constant tensor:
#      x y z
#    x 3.316010 0.000000 -0.074110 
#    y 0.000000 2.983550 0.000000 
#    z -0.074110 0.000000 3.997170 
# 
# 
# High freq. dielectric constant tensor:
#      x y z
#    x 1.696330 0.000000 0.001640 
#    y 0.000000 1.694600 0.000000 
#    z 0.001640 0.000000 1.723000 
# 
# From -- ./inp_files/146015.got.cif
#   From: 2010.06.25/outbox.cif.g09.slc.cpg/sg12_74_cif.got.tgz:146015.got - 2010.06.28 00:19:55.
