data_PCOD8106844
_publ_section_title
;
Structure prediction by ZEFSAII (Michael W. Deem and Ramdas Pophale) SiO2 
 PCOD8106844
Probable space group: C 2/M
;
_chemical_formula_sum "Si O2"
_cell_formula_units_Z 56
_cell_length_a 29.378501
_cell_length_b 8.860668
_cell_length_c 21.737311
_cell_angle_alpha 90.000000
_cell_angle_beta 30.590620
_cell_angle_gamma 90.000000
_cell_volume 2879.617402
_symmetry_space_group_name_H-M "C 2/M"
_symmetry_group_IT_number 12
_symmetry_cell_setting 'monoclinic'
loop_
_space_group_symop_operation_xyz
x,y,z
-x,y,-z
-x,-y,-z
x,-y,z
1/2+x,1/2+y,z
1/2-x,1/2+y,-z
1/2-x,1/2-y,-z
1/2+x,1/2-y,z
loop_
_atom_site_type_symbol
_atom_site_label
_atom_site_fract_x
_atom_site_fract_y
_atom_site_fract_z
Si Si1 0.332998 0.677608 0.137943
Si Si2 0.367634 0.822455 0.220882
Si Si3 0.460381 0.822481 0.898692
Si Si4 0.856190 0.823773 0.652188
Si Si5 0.477683 0.674733 0.623227
Si Si6 0.719097 0.820841 0.472658
Si Si7 0.016602 0.677699 0.699869
O O1 0.343286 0.500000 0.134084
O O2 0.386316 0.761826 0.130668
O O3 0.229304 0.720988 0.259412
O O4 0.376850 0.731549 0.023191
O O5 0.449953 0.780606 0.168718
O O6 0.278838 0.739594 0.347622
O O7 0.350251 0.000000 0.239654
O O8 0.472114 0.765831 0.815086
O O9 0.440476 0.000000 0.926030
O O10 0.893828 0.791872 0.676639
O O11 0.930643 0.773286 0.516208
O O12 0.831731 0.000000 0.673032
O O13 0.484028 0.500000 0.631114
O O14 0.461573 0.760985 0.705809
O O15 0.750000 0.750000 0.500000
O O16 0.618513 0.765721 0.576995
O O17 0.726009 0.000000 0.469505
O O18 0.013558 0.500000 0.702317
#
# Coordination Sequence:
#
# PCOD8106844 Si02
#       7
#     8   8   8   8   8   8   8
#     4  12  25  38  56  86 114 144 192 242 285 333
#     4  11  22  39  60  82 111 154 196 233 286 342
#     4  10  22  41  58  76 110 157 197 230 278 341
#     4   9  19  39  62  85 115 148 184 228 280 342
#     4   9  19  36  62  91 113 142 186 230 279 338
#     4  11  21  35  55  84 118 151 188 233 279 332
#     4  10  21  37  56  83 117 151 188 228 282 340
#
# _framework density 19.447029000000001
#
# number of rings (size 3 to 8) (size 9 to 14) (size 15 to 20)
#    0.000    1.714    1.429    4.286    0.000    8.000 
#    0.000    2.143    0.000    0.000    0.000    0.000 
#    0.000    0.000    0.000    0.000    0.000    0.000 
#
# Total GULP energy -347314.355758 kJ/mol
# GULP energy per Si atom -12404.084134 kJ/mol
# Density = 1.940277 g / cm^3
# Si number density = 19.447029 Si / 1000 Ang^3
#
#
#
# Elastic Constant Matrix: (Units=GPa)
#
#
# Indices 1 2 3 4 5 6 
#
# 1 103.4361 25.8134 27.1719 0.0005 22.6373 0.0016
# 2 25.8134 56.7658 23.7139 0.0438 1.8926 -0.0129
# 3 27.1719 23.7139 74.1328 0.0383 16.8709 -0.0131
# 4 0.0005 0.0438 0.0383 31.6914 -0.0106 4.2990
# 5 22.6373 1.8926 16.8709 -0.0106 28.6859 -0.0005
# 6 0.0016 -0.0129 -0.0131 4.2990 -0.0005 35.9408
#
#
#
# Elastic Compliance Matrix: (Units=1/GPa)
#
#
# Indices 1 2 3 4 5 6 
#
# 1 0.013366 -0.005337 -0.001006 0.000006 -0.009604 -0.000004
# 2 -0.005337 0.022671 -0.006828 -0.000022 0.006732 0.000009
# 3 -0.001006 -0.006828 0.018194 -0.000017 -0.009456 0.000006
# 4 0.000006 -0.000022 -0.000017 0.032075 0.000018 -0.003837
# 5 -0.009604 0.006732 -0.009456 0.000018 0.047556 -0.000002
# 6 -0.000004 0.000009 0.000006 -0.003837 -0.000002 0.028282
#
#
# Mechanical properties :
#
#
# Convention : Reuss Voigt Hill
#
# Bulk Modulus (GPa) = 35.85690 43.08146 39.46918
# Shear Modulus (GPa) = 25.28009 29.77264 27.52637
#
# Velocity S-wave (km/s) = 3.60939 3.91699 3.76633
# Velocity P-wave (km/s) = 5.98736 6.53134 6.26526
#
# Compressibility (1/GPa) = 0.02788863
#
# Stress axis : x y z
#
# Youngs Moduli (GPa) = 74.81714 44.10860 54.96260
#
# Poissons Ratio (x) = 0.23543 0.05529
# Poissons Ratio (y) = 0.39934 0.37528
# Poissons Ratio (z) = 0.07527 0.30117
#
# Static dielectric constant tensor:
#      x y z
#    x 3.575940 -0.000010 0.064850 
#    y -0.000010 3.402900 0.000030 
#    z 0.064850 0.000030 3.632790 
# 
# 
# High freq. dielectric constant tensor:
#      x y z
#    x 1.761220 0.000000 0.010940 
#    y 0.000000 1.750880 0.000000 
#    z 0.010940 0.000000 1.754510 
# 
# From -- ./inp_files/238941.got.cif
#   From: 2010.06.25/outbox.cif.g09.slc.cpg/sg12_120_cif.got.tgz:238941.got - 2010.06.28 00:19:55.
