data_PCOD8106882
_publ_section_title
;
Structure prediction by ZEFSAII (Michael W. Deem and Ramdas Pophale) SiO2 
 PCOD8106882
Probable space group: C 2/M
;
_chemical_formula_sum "Si O2"
_cell_formula_units_Z 56
_cell_length_a 19.075039
_cell_length_b 8.979382
_cell_length_c 18.847996
_cell_angle_alpha 90.000000
_cell_angle_beta 64.018966
_cell_angle_gamma 90.000000
_cell_volume 2902.066347
_symmetry_space_group_name_H-M "C 2/M"
_symmetry_group_IT_number 12
_symmetry_cell_setting 'monoclinic'
loop_
_space_group_symop_operation_xyz
x,y,z
-x,y,-z
-x,-y,-z
x,-y,z
1/2+x,1/2+y,z
1/2-x,1/2+y,-z
1/2-x,1/2-y,-z
1/2+x,1/2-y,z
loop_
_atom_site_type_symbol
_atom_site_label
_atom_site_fract_x
_atom_site_fract_y
_atom_site_fract_z
Si Si1 0.933487 0.676100 0.272650
Si Si2 0.859022 0.174742 0.178424
Si Si3 0.410837 0.831324 0.019489
Si Si4 0.276838 0.169333 0.418209
Si Si5 0.828932 0.174328 0.938092
Si Si6 0.089193 0.170203 0.242156
Si Si7 0.286779 0.669476 0.700131
O O1 0.932658 0.500000 0.261608
O O2 0.924917 0.751897 0.199403
O O3 0.860743 0.729057 0.353490
O O4 0.014165 0.724515 0.272679
O O5 0.861436 0.243795 0.099501
O O6 0.773162 0.209495 0.244439
O O7 0.874089 0.000000 0.168376
O O8 0.379073 0.000000 0.027832
O O9 0.500000 0.828352 0.000000
O O10 0.400307 0.746883 0.949744
O O11 0.250000 0.250000 0.500000
O O12 0.210678 0.189382 0.386362
O O13 0.286896 0.000000 0.435749
O O14 0.847267 0.206811 0.847289
O O15 0.823472 0.000000 0.956066
O O16 0.750000 0.250000 0.000000
O O17 0.129515 0.198171 0.300794
O O18 0.060876 0.000000 0.247069
O O19 0.258045 0.500000 0.730284
#
# Coordination Sequence:
#
# PCOD8106882 Si02
#       7
#     8   8   8   8   8   8   8
#     4  10  21  37  57  82 113 147 182 223 275 331
#     4  11  21  34  55  80 105 138 184 231 274 326
#     4  11  23  37  53  74 104 143 184 230 282 329
#     4   9  19  36  59  85 112 144 180 220 267 323
#     4  11  23  37  55  80 110 146 189 235 283 334
#     4  10  21  37  57  81 110 144 184 230 276 326
#     4   9  19  37  58  81 111 144 179 220 269 325
#
# _framework density 19.296596999999998
#
# number of rings (size 3 to 8) (size 9 to 14) (size 15 to 20)
#    0.000    1.857    0.000    5.143    0.000    9.143 
#    0.000    0.714    0.000    4.286    0.000    0.000 
#    0.000    0.000    0.000    0.000    0.000    0.000 
#
# Total GULP energy -347216.415054 kJ/mol
# GULP energy per Si atom -12400.586252 kJ/mol
# Density = 1.925268 g / cm^3
# Si number density = 19.296597 Si / 1000 Ang^3
#
#
#
# Elastic Constant Matrix: (Units=GPa)
#
#
# Indices 1 2 3 4 5 6 
#
# 1 103.1578 41.7760 35.2037 0.0000 17.1042 0.0000
# 2 41.7760 105.4153 42.8335 0.0001 5.7929 0.0002
# 3 35.2037 42.8335 96.5710 0.0000 13.1184 0.0000
# 4 0.0000 0.0001 0.0000 31.6169 0.0000 0.7992
# 5 17.1042 5.7929 13.1184 0.0000 26.1293 0.0000
# 6 0.0000 0.0002 0.0000 0.7992 0.0000 34.9001
#
#
#
# Elastic Compliance Matrix: (Units=1/GPa)
#
#
# Indices 1 2 3 4 5 6 
#
# 1 0.013130 -0.003977 -0.002119 0.000000 -0.006649 0.000000
# 2 -0.003977 0.012776 -0.004492 0.000000 0.002026 0.000000
# 3 -0.002119 -0.004492 0.013733 0.000000 -0.004512 0.000000
# 4 0.000000 0.000000 0.000000 0.031647 0.000000 -0.000725
# 5 -0.006649 0.002026 -0.004512 0.000000 0.044440 0.000000
# 6 0.000000 0.000000 0.000000 -0.000725 0.000000 0.028670
#
#
# Mechanical properties :
#
#
# Convention : Reuss Voigt Hill
#
# Bulk Modulus (GPa) = 54.16395 60.53005 57.34700
# Shear Modulus (GPa) = 29.11592 30.88465 30.00029
#
# Velocity S-wave (km/s) = 3.88862 4.00499 3.94724
# Velocity P-wave (km/s) = 6.94924 7.26794 7.11038
#
# Compressibility (1/GPa) = 0.01846246
#
# Stress axis : x y z
#
# Youngs Moduli (GPa) = 76.16066 78.26923 72.81706
#
# Poissons Ratio (x) = 0.31127 0.15431
# Poissons Ratio (y) = 0.30289 0.32712
# Poissons Ratio (z) = 0.16140 0.35162
#
# Static dielectric constant tensor:
#      x y z
#    x 3.528690 0.000000 0.259340 
#    y 0.000000 3.603430 0.000000 
#    z 0.259340 0.000000 3.686740 
# 
# 
# High freq. dielectric constant tensor:
#      x y z
#    x 1.750640 0.000000 0.016110 
#    y 0.000000 1.755260 0.000000 
#    z 0.016110 0.000000 1.738020 
# 
# From -- ./inp_files/280196.got.cif
#   From: 2010.06.25/outbox.cif.g09.slc.cpg/sg12_141_cif.got.tgz:280196.got - 2010.06.28 00:19:55.
