data_PCOD8106427
_publ_section_title
;
Structure prediction by ZEFSAII (Michael W. Deem and Ramdas Pophale) SiO2 
 PCOD8106427
Probable space group: C 2/M
;
_chemical_formula_sum "Si O2"
_cell_formula_units_Z 48
_cell_length_a 24.614974
_cell_length_b 8.896135
_cell_length_c 12.414303
_cell_angle_alpha 90.000000
_cell_angle_beta 71.588184
_cell_angle_gamma 90.000000
_cell_volume 2579.305300
_symmetry_space_group_name_H-M "C 2/M"
_symmetry_group_IT_number 12
_symmetry_cell_setting 'monoclinic'
loop_
_space_group_symop_operation_xyz
x,y,z
-x,y,-z
-x,-y,-z
x,-y,z
1/2+x,1/2+y,z
1/2-x,1/2+y,-z
1/2-x,1/2-y,-z
1/2+x,1/2-y,z
loop_
_atom_site_type_symbol
_atom_site_label
_atom_site_fract_x
_atom_site_fract_y
_atom_site_fract_z
Si Si1 0.506695 0.822667 0.616638
Si Si2 0.693424 0.674999 0.760879
Si Si3 0.189087 0.823977 0.374715
Si Si4 0.103315 0.825311 0.238671
Si Si5 0.809091 0.826369 0.991478
Si Si6 0.632023 0.178052 0.609347
O O1 0.500000 0.757806 0.500000
O O2 0.457264 0.758089 0.723738
O O3 0.567418 0.770586 0.625797
O O4 0.500813 0.000000 0.619417
O O5 0.693767 0.500000 0.729055
O O6 0.756452 0.741130 0.708057
O O7 0.673554 0.699626 0.895952
O O8 0.647788 0.764931 0.717981
O O9 0.135873 0.792081 0.329844
O O10 0.175537 0.756271 0.499628
O O11 0.202741 0.000000 0.377030
O O12 0.090897 0.000000 0.231271
O O13 0.140435 0.761139 0.115658
O O14 0.800453 0.000000 0.968754
O O15 0.750000 0.750000 0.000000
O O16 0.639495 0.000000 0.595649
#
# Coordination Sequence:
#
# PCOD8106427 Si02
#       6
#     8   8   8   8   8   8
#     4  10  21  38  59  83 112 148 190 235 282 334
#     4  11  23  38  58  84 117 154 191 231 283 339
#     4  11  21  35  58  87 119 149 185 233 286 342
#     4  10  21  36  58  88 116 144 186 235 282 334
#     4  10  21  38  59  85 115 149 189 234 280 333
#     4  11  23  39  58  82 117 153 190 235 285 340
#
# _framework density 18.609662
#
# number of rings (size 3 to 8) (size 9 to 14) (size 15 to 20)
#    0.000    1.500    3.333    2.000    0.000    3.667 
#    0.000    0.833    0.000    5.000    0.000    0.000 
#    0.000    0.000    0.000    0.000    0.000    0.000 
#
# Total GULP energy -297717.611485 kJ/mol
# GULP energy per Si atom -12404.900479 kJ/mol
# Density = 1.856731 g / cm^3
# Si number density = 18.609662 Si / 1000 Ang^3
#
#
#
# Elastic Constant Matrix: (Units=GPa)
#
#
# Indices 1 2 3 4 5 6 
#
# 1 78.4977 24.3814 30.7780 0.0000 -12.4326 0.0000
# 2 24.3814 35.6450 31.4995 0.0000 -2.8369 0.0000
# 3 30.7780 31.4995 108.2127 0.0000 -11.9781 0.0000
# 4 0.0000 0.0000 0.0000 28.0746 0.0000 -2.7271
# 5 -12.4326 -2.8369 -11.9781 0.0000 32.5127 0.0000
# 6 0.0000 0.0000 0.0000 -2.7271 0.0000 34.3361
#
#
#
# Elastic Compliance Matrix: (Units=1/GPa)
#
#
# Indices 1 2 3 4 5 6 
#
# 1 0.017264 -0.010184 -0.001369 0.000000 0.005209 0.000000
# 2 -0.010184 0.043797 -0.010280 0.000000 -0.003860 0.000000
# 3 -0.001369 -0.010280 0.012995 0.000000 0.003367 0.000000
# 4 0.000000 0.000000 0.000000 0.035896 0.000000 0.002851
# 5 0.005209 -0.003860 0.003367 0.000000 0.033653 0.000000
# 6 0.000000 0.000000 0.000000 0.002851 0.000000 0.029350
#
#
# Mechanical properties :
#
#
# Convention : Reuss Voigt Hill
#
# Bulk Modulus (GPa) = 32.90456 43.96370 38.43413
# Shear Modulus (GPa) = 22.05039 28.03109 25.04074
#
# Velocity S-wave (km/s) = 3.44596 3.88527 3.67219
# Velocity P-wave (km/s) = 5.79246 6.61835 6.21913
#
# Compressibility (1/GPa) = 0.03039093
#
# Stress axis : x y z
#
# Youngs Moduli (GPa) = 57.92294 22.83236 76.94983
#
# Poissons Ratio (x) = 0.23253 0.10536
# Poissons Ratio (y) = 0.58991 0.79101
# Poissons Ratio (z) = 0.07931 0.23471
#
# Static dielectric constant tensor:
#      x y z
#    x 3.394360 0.000000 0.016140 
#    y 0.000000 3.407910 0.000000 
#    z 0.016140 0.000000 3.642670 
# 
# 
# High freq. dielectric constant tensor:
#      x y z
#    x 1.720330 0.000000 -0.001450 
#    y 0.000000 1.724960 0.000000 
#    z -0.001450 0.000000 1.726320 
# 
# From -- ./inp_files/172153.got.cif
#   From: 2010.06.25/outbox.cif.g09.slc.cpg/sg12_87_cif.got.tgz:172153.got - 2010.06.28 00:19:55.
