data_PCOD8106235
_publ_section_title
;
Structure prediction by ZEFSAII (Michael W. Deem and Ramdas Pophale) SiO2 
 PCOD8106235
Probable space group: C 2/M
;
_chemical_formula_sum "Si O2"
_cell_formula_units_Z 64
_cell_length_a 28.615346
_cell_length_b 8.915123
_cell_length_c 16.665978
_cell_angle_alpha 90.000000
_cell_angle_beta 132.717378
_cell_angle_gamma 90.000000
_cell_volume 3123.722387
_symmetry_space_group_name_H-M "C 2/M"
_symmetry_group_IT_number 12
_symmetry_cell_setting 'monoclinic'
loop_
_space_group_symop_operation_xyz
x,y,z
-x,y,-z
-x,-y,-z
x,-y,z
1/2+x,1/2+y,z
1/2-x,1/2+y,-z
1/2-x,1/2-y,-z
1/2+x,1/2-y,z
loop_
_atom_site_type_symbol
_atom_site_label
_atom_site_fract_x
_atom_site_fract_y
_atom_site_fract_z
Si Si1 0.014419 0.324479 0.833934
Si Si2 0.201651 0.824771 0.292816
Si Si3 0.869208 0.173257 0.950258
Si Si4 0.296868 0.164144 0.997253
Si Si5 0.579135 0.836844 0.755252
Si Si6 0.128620 0.676955 0.348893
Si Si7 0.835295 0.179294 0.442241
Si Si8 0.071093 0.176460 0.588326
O O1 0.029597 0.500000 0.859937
O O2 0.024739 0.274243 0.752518
O O3 0.941258 0.287717 0.768692
O O4 0.061093 0.240786 0.950378
O O5 0.147813 0.801274 0.162523
O O6 0.180452 0.739516 0.348035
O O7 0.267836 0.752610 0.341903
O O8 0.211850 0.000000 0.323493
O O9 0.871464 0.000000 0.976135
O O10 0.811412 0.246237 0.932897
O O11 0.361522 0.143224 0.118830
O O12 0.268611 0.000000 0.942188
O O13 0.250000 0.250000 0.000000
O O14 0.597359 0.724212 0.705582
O O15 0.559871 0.000000 0.697033
O O16 0.138839 0.500000 0.373672
O O17 0.137781 0.761816 0.442800
O O18 0.884065 0.236412 0.430330
O O19 0.829124 0.000000 0.436970
O O20 0.000000 0.244933 0.500000
O O21 0.068701 0.000000 0.581091
#
# Coordination Sequence:
#
# PCOD8106235 Si02
#       8
#     8   8   8   8   8   8   8   8
#     4   9  20  39  62  90 123 159 199 248 303 362
#     4  11  25  43  62  87 122 160 202 252 305 363
#     4  10  22  39  60  88 121 160 203 248 301 357
#     4  10  21  36  56  83 117 155 196 240 290 351
#     4   9  19  35  55  82 115 151 191 233 282 344
#     4  11  23  41  66  91 117 155 203 252 309 367
#     4  11  24  41  62  89 121 159 202 249 305 361
#     4  10  22  38  57  86 120 153 193 240 291 348
#
# _framework density 20.488375999999999
#
# number of rings (size 3 to 8) (size 9 to 14) (size 15 to 20)
#    0.000    1.875    0.000    3.750    1.750    7.250 
#    0.000    2.500    0.000    0.000    0.000    0.000 
#    0.000    0.000    0.000    0.000    0.000    0.000 
#
# Total GULP energy -396778.256583 kJ/mol
# GULP energy per Si atom -12399.320518 kJ/mol
# Density = 2.044174 g / cm^3
# Si number density = 20.488376 Si / 1000 Ang^3
#
#
#
# Elastic Constant Matrix: (Units=GPa)
#
#
# Indices 1 2 3 4 5 6 
#
# 1 126.9171 37.9157 33.3406 0.0000 -0.3683 0.0000
# 2 37.9157 85.6144 32.9344 0.0000 3.2400 0.0000
# 3 33.3406 32.9344 78.4612 0.0000 -5.1280 0.0000
# 4 0.0000 0.0000 0.0000 34.9888 0.0000 0.9090
# 5 -0.3683 3.2400 -5.1280 0.0000 29.1508 0.0000
# 6 0.0000 0.0000 0.0000 0.9090 0.0000 29.1651
#
#
#
# Elastic Compliance Matrix: (Units=1/GPa)
#
#
# Indices 1 2 3 4 5 6 
#
# 1 0.009544 -0.003180 -0.002721 0.000000 -0.000005 0.000000
# 2 -0.003180 0.015187 -0.005197 0.000000 -0.002642 0.000000
# 3 -0.002721 -0.005197 0.016306 0.000000 0.003412 0.000000
# 4 0.000000 0.000000 0.000000 0.028604 0.000000 -0.000892
# 5 -0.000005 -0.002642 0.003412 0.000000 0.035198 0.000000
# 6 0.000000 0.000000 0.000000 -0.000892 0.000000 0.034315
#
#
# Mechanical properties :
#
#
# Convention : Reuss Voigt Hill
#
# Bulk Modulus (GPa) = 53.07200 55.48599 54.27899
# Shear Modulus (GPa) = 29.82765 31.11441 30.47103
#
# Velocity S-wave (km/s) = 3.81968 3.90120 3.86065
# Velocity P-wave (km/s) = 6.73891 6.88716 6.81344
#
# Compressibility (1/GPa) = 0.01884233
#
# Stress axis : x y z
#
# Youngs Moduli (GPa) = 104.77909 65.84369 61.32839
#
# Poissons Ratio (x) = 0.20936 0.16688
# Poissons Ratio (y) = 0.33317 0.31869
# Poissons Ratio (z) = 0.28511 0.34216
#
# Static dielectric constant tensor:
#      x y z
#    x 3.209830 0.000000 -0.128110 
#    y 0.000000 3.825950 0.000000 
#    z -0.128110 0.000000 3.555480 
# 
# 
# High freq. dielectric constant tensor:
#      x y z
#    x 1.809550 0.000000 0.001570 
#    y 0.000000 1.805410 0.000000 
#    z 0.001570 0.000000 1.797810 
# 
# From -- ./inp_files/249979.got.cif
#   From: 2010.06.25/outbox.cif.g09.slc.cpg/sg12_125_cif.got.tgz:249979.got - 2010.06.28 00:19:55.
