data_PCOD8106955
_publ_section_title
;
Structure prediction by ZEFSAII (Michael W. Deem and Ramdas Pophale) SiO2 
 PCOD8106955
Probable space group: C 2/M
;
_chemical_formula_sum "Si O2"
_cell_formula_units_Z 48
_cell_length_a 17.804896
_cell_length_b 8.431295
_cell_length_c 30.785648
_cell_angle_alpha 90.000000
_cell_angle_beta 149.851158
_cell_angle_gamma 90.000000
_cell_volume 2321.134413
_symmetry_space_group_name_H-M "C 2/M"
_symmetry_group_IT_number 12
_symmetry_cell_setting 'monoclinic'
loop_
_space_group_symop_operation_xyz
x,y,z
-x,y,-z
-x,-y,-z
x,-y,z
1/2+x,1/2+y,z
1/2-x,1/2+y,-z
1/2-x,1/2-y,-z
1/2+x,1/2-y,z
loop_
_atom_site_type_symbol
_atom_site_label
_atom_site_fract_x
_atom_site_fract_y
_atom_site_fract_z
Si Si1 0.663453 0.812529 0.915433
Si Si2 0.666369 0.685919 0.083012
Si Si3 0.660516 0.815645 0.414624
Si Si4 0.171660 0.316422 0.581454
Si Si5 0.677479 0.813504 0.259123
Si Si6 0.666204 0.683583 0.752053
O O1 0.739392 0.740910 0.909908
O O2 0.492395 0.756117 0.832000
O O3 0.671131 0.000000 0.919155
O O4 0.750000 0.750000 0.000000
O O5 0.653470 0.500000 0.069365
O O6 0.748870 0.716980 0.169218
O O7 0.500000 0.761830 0.000000
O O8 0.750000 0.750000 0.500000
O O9 0.757285 0.793194 0.419871
O O10 0.508369 0.719170 0.333821
O O11 0.624503 0.000000 0.403294
O O12 0.187574 0.500000 0.576093
O O13 0.253697 0.286752 0.667630
O O14 0.000000 0.265867 0.500000
O O15 0.768930 0.767340 0.262030
O O16 0.688194 0.000000 0.275003
O O17 0.694473 0.500000 0.775818
#
# Coordination Sequence:
#
# PCOD8106955 Si02
#       6
#     8   8   8   8   8   8
#     4  10  21  37  57  83 115 152 195 243 297 355
#     4  10  21  37  58  86 120 159 203 250 303 361
#     4  12  25  42  64  89 121 158 198 246 300 358
#     4  11  24  41  63  92 122 155 198 243 291 352
#     4  10  22  39  59  86 120 158 199 245 297 352
#     4  11  23  39  61  89 120 157 204 252 301 357
#
# _framework density 20.679545000000001
#
# number of rings (size 3 to 8) (size 9 to 14) (size 15 to 20)
#    0.000    1.333    0.000    5.500    0.000    8.333 
#    0.000    0.000    0.000    0.000    0.000    0.000 
#    0.000    0.000    0.000    0.000    0.000    0.000 
#
# Total GULP energy -297755.651587 kJ/mol
# GULP energy per Si atom -12406.485483 kJ/mol
# Density = 2.063248 g / cm^3
# Si number density = 20.679545 Si / 1000 Ang^3
#
#
#
# Elastic Constant Matrix: (Units=GPa)
#
#
# Indices 1 2 3 4 5 6 
#
# 1 145.4179 18.8228 57.0996 0.0000 4.9193 0.0000
# 2 18.8228 24.2483 5.5512 0.0000 1.8613 0.0000
# 3 57.0996 5.5512 159.5502 -0.0002 5.3798 -0.0001
# 4 0.0000 0.0000 -0.0002 29.6829 -0.0001 -11.7132
# 5 4.9193 1.8613 5.3798 -0.0001 44.1187 0.0000
# 6 0.0000 0.0000 -0.0001 -11.7132 0.0000 24.5656
#
#
#
# Elastic Compliance Matrix: (Units=1/GPa)
#
#
# Indices 1 2 3 4 5 6 
#
# 1 0.008840 -0.006161 -0.002937 0.000000 -0.000368 0.000000
# 2 -0.006161 0.045976 0.000650 0.000000 -0.001332 0.000000
# 3 -0.002937 0.000650 0.007316 0.000000 -0.000592 0.000000
# 4 0.000000 0.000000 0.000000 0.041497 0.000000 0.019787
# 5 -0.000368 -0.001332 -0.000592 0.000000 0.022836 0.000000
# 6 0.000000 0.000000 0.000000 0.019787 0.000000 0.050142
#
#
# Mechanical properties :
#
#
# Convention : Reuss Voigt Hill
#
# Bulk Modulus (GPa) = 22.10621 54.68486 38.39553
# Shear Modulus (GPa) = 23.97143 36.18960 30.08052
#
# Velocity S-wave (km/s) = 3.40838 4.18786 3.81806
# Velocity P-wave (km/s) = 5.11883 7.06297 6.16798
#
# Compressibility (1/GPa) = 0.04523616
#
# Stress axis : x y z
#
# Youngs Moduli (GPa) = 113.12378 21.75037 136.68690
#
# Poissons Ratio (x) = 0.13401 0.40143
# Poissons Ratio (y) = 0.69700 -0.08889
# Poissons Ratio (z) = 0.33223 -0.01414
#
# Static dielectric constant tensor:
#      x y z
#    x 3.435920 0.000000 0.249270 
#    y 0.000000 3.487720 0.000000 
#    z 0.249270 0.000000 3.690800 
# 
# 
# High freq. dielectric constant tensor:
#      x y z
#    x 1.829300 0.000000 0.003200 
#    y 0.000000 1.799760 0.000000 
#    z 0.003200 0.000000 1.826440 
# 
# From -- ./inp_files/378544.got.cif
#   From: 2010.06.25/outbox.cif.g09.slc.cpg/sg12_190_cif.got.tgz:378544.got - 2010.06.28 00:19:55.
