data_PCOD8106411
_publ_section_title
;
Structure prediction by ZEFSAII (Michael W. Deem and Ramdas Pophale) SiO2 
 PCOD8106411
Probable space group: C 2/M
;
_chemical_formula_sum "Si O2"
_cell_formula_units_Z 64
_cell_length_a 12.605300
_cell_length_b 27.413710
_cell_length_c 17.081241
_cell_angle_alpha 90.000000
_cell_angle_beta 32.980287
_cell_angle_gamma 90.000000
_cell_volume 3213.061282
_symmetry_space_group_name_H-M "C 2/M"
_symmetry_group_IT_number 12
_symmetry_cell_setting 'monoclinic'
loop_
_space_group_symop_operation_xyz
x,y,z
-x,y,-z
-x,-y,-z
x,-y,z
1/2+x,1/2+y,z
1/2-x,1/2+y,-z
1/2-x,1/2-y,-z
1/2+x,1/2-y,z
loop_
_atom_site_type_symbol
_atom_site_label
_atom_site_fract_x
_atom_site_fract_y
_atom_site_fract_z
Si Si1 0.214649 0.555745 0.334155
Si Si2 0.941084 0.139973 0.664532
Si Si3 0.095088 0.056893 0.197185
Si Si4 0.791636 0.358867 0.342727
Si Si5 0.286614 0.589657 0.128097
Si Si6 0.294273 0.793214 0.084290
Si Si7 0.817160 0.312661 0.889535
Si Si8 0.940637 0.553693 0.865021
O O1 0.254974 0.500000 0.283233
O O2 0.388312 0.571617 0.285601
O O3 0.208581 0.592396 0.264616
O O4 0.000000 0.561343 0.500000
O O5 0.878011 0.087819 0.739849
O O6 0.833915 0.157992 0.652788
O O7 0.890100 0.182030 0.758556
O O8 0.167685 0.134933 0.499354
O O9 0.097414 0.000000 0.218150
O O10 0.278855 0.070475 0.028521
O O11 0.951462 0.318552 0.266470
O O12 0.882826 0.409043 0.253058
O O13 0.292095 0.642379 0.083288
O O14 0.161171 0.551370 0.156479
O O15 0.500000 0.567327 0.000000
O O16 0.261877 0.735372 0.103557
O O17 0.500000 0.805572 0.000000
O O18 0.284586 0.813797 0.002676
O O19 0.022215 0.500000 0.835407
#
# Coordination Sequence:
#
# PCOD8106411 Si02
#       8
#     8   8   8   8   8   8   8   8
#     4  10  22  37  55  85 125 167 202 240 298 357
#     4  11  23  40  64  86 120 164 193 247 304 357
#     4  10  22  38  58  89 122 159 209 250 295 354
#     4  10  23  41  60  88 122 155 201 243 303 357
#     4  11  20  35  59  84 122 150 199 249 292 350
#     4  11  22  42  69  89 119 152 195 246 304 361
#     4  10  23  40  64  95 115 152 199 245 298 362
#     4  10  21  36  58  86 117 158 203 250 294 348
#
# _framework density 19.918697999999999
#
# number of rings (size 3 to 8) (size 9 to 14) (size 15 to 20)
#    0.000    1.625    2.500    2.250    3.500    2.000 
#    0.000    2.500    2.750    0.000    0.000    0.000 
#    0.000    0.000    0.000    0.000    0.000    0.000 
#
# Total GULP energy -396604.935661 kJ/mol
# GULP energy per Si atom -12393.904239 kJ/mol
# Density = 1.987336 g / cm^3
# Si number density = 19.918698 Si / 1000 Ang^3
#
#
#
# Elastic Constant Matrix: (Units=GPa)
#
#
# Indices 1 2 3 4 5 6 
#
# 1 59.0036 12.4253 25.4619 0.0041 7.7934 -0.0096
# 2 12.4253 74.4575 40.4588 -0.0173 11.5081 -0.0056
# 3 25.4619 40.4588 137.1433 0.0527 0.7249 -0.0290
# 4 0.0041 -0.0173 0.0527 19.5054 -0.0023 4.5662
# 5 7.7934 11.5081 0.7249 -0.0023 30.8807 -0.0261
# 6 -0.0096 -0.0056 -0.0290 4.5662 -0.0261 7.7477
#
#
#
# Elastic Compliance Matrix: (Units=1/GPa)
#
#
# Indices 1 2 3 4 5 6 
#
# 1 0.019120 -0.000692 -0.003322 0.000006 -0.004490 -0.000008
# 2 -0.000692 0.017151 -0.004899 0.000040 -0.006102 -0.000051
# 3 -0.003322 -0.004899 0.009341 -0.000043 0.002445 0.000061
# 4 0.000006 0.000040 -0.000043 0.059474 -0.000040 -0.035052
# 5 -0.004490 -0.006102 0.002445 -0.000040 0.035732 0.000144
# 6 -0.000008 -0.000051 0.000061 -0.035052 0.000144 0.149730
#
#
# Mechanical properties :
#
#
# Convention : Reuss Voigt Hill
#
# Bulk Modulus (GPa) = 35.98863 47.47737 41.73300
# Shear Modulus (GPa) = 15.74125 24.44398 20.09262
#
# Velocity S-wave (km/s) = 2.81423 3.50692 3.17950
# Velocity P-wave (km/s) = 5.35414 6.34707 5.87164
#
# Compressibility (1/GPa) = 0.02778655
#
# Stress axis : x y z
#
# Youngs Moduli (GPa) = 52.30018 58.30516 107.05694
#
# Poissons Ratio (x) = 0.04033 0.35565
# Poissons Ratio (y) = 0.03617 0.52449
# Poissons Ratio (z) = 0.17375 0.28564
#
# Static dielectric constant tensor:
#      x y z
#    x 3.592370 -0.000020 -0.044860 
#    y -0.000020 3.508620 0.000160 
#    z -0.044860 0.000160 3.791580 
# 
# 
# High freq. dielectric constant tensor:
#      x y z
#    x 1.779950 0.000000 0.001570 
#    y 0.000000 1.764360 0.000000 
#    z 0.001570 0.000000 1.782320 
# 
# From -- ./inp_files/209862.got.cif
#   From: 2010.06.25/outbox.cif.g09.slc.cpg/sg12_105_cif.got.tgz:209862.got - 2010.06.28 00:19:55.
