data_PCOD8106972
_publ_section_title
;
Structure prediction by ZEFSAII (Michael W. Deem and Ramdas Pophale) SiO2 
 PCOD8106972
Probable space group: C 2/M
;
_chemical_formula_sum "Si O2"
_cell_formula_units_Z 64
_cell_length_a 24.290781
_cell_length_b 27.430616
_cell_length_c 9.526339
_cell_angle_alpha 90.000000
_cell_angle_beta 150.041038
_cell_angle_gamma 90.000000
_cell_volume 3169.814540
_symmetry_space_group_name_H-M "C 2/M"
_symmetry_group_IT_number 12
_symmetry_cell_setting 'monoclinic'
loop_
_space_group_symop_operation_xyz
x,y,z
-x,y,-z
-x,-y,-z
x,-y,z
1/2+x,1/2+y,z
1/2-x,1/2+y,-z
1/2-x,1/2-y,-z
1/2+x,1/2-y,z
loop_
_atom_site_type_symbol
_atom_site_label
_atom_site_fract_x
_atom_site_fract_y
_atom_site_fract_z
Si Si1 0.761671 0.814836 0.132488
Si Si2 0.698630 0.333114 0.235814
Si Si3 0.618884 0.618935 0.799125
Si Si4 0.065214 0.262391 0.006664
Si Si5 0.939087 0.556138 0.151168
Si Si6 0.167011 0.555400 0.782641
Si Si7 0.860058 0.712834 0.392783
Si Si8 0.310536 0.859756 0.744236
O O1 0.864019 0.834722 0.266477
O O2 0.786935 0.761493 0.245246
O O3 0.739406 0.850848 0.212230
O O4 0.653831 0.811602 0.792088
O O5 0.813555 0.324756 0.406052
O O6 0.717161 0.365772 0.417514
O O7 0.615981 0.363762 0.954391
O O8 0.648207 0.280655 0.157341
O O9 0.500000 0.595009 0.500000
O O10 0.720278 0.582879 0.999093
O O11 0.986606 0.273568 0.699943
O O12 0.127536 0.312205 0.176299
O O13 0.000000 0.245763 0.000000
O O14 0.935500 0.500000 0.089656
O O15 0.865999 0.561174 0.128870
O O16 0.064664 0.573140 0.459534
O O17 0.888049 0.592280 0.921004
O O18 0.191262 0.500000 0.798701
#
# Coordination Sequence:
#
# PCOD8106972 Si02
#       8
#     8   8   8   8   8   8   8   8
#     4  10  21  37  57  83 121 156 211 254 299 349
#     4  11  24  40  55  85 127 163 207 247 301 363
#     4  11  23  40  61  90 121 163 208 257 305 362
#     4  12  23  36  59  82 121 167 208 244 303 361
#     4   9  20  38  65  96 123 153 195 256 319 368
#     4   9  19  39  66  95 123 152 199 259 314 367
#     4  10  21  38  53  82 118 161 205 257 293 347
#     4  12  22  37  62  90 119 164 205 251 307 370
#
# _framework density 20.190456999999999
#
# number of rings (size 3 to 8) (size 9 to 14) (size 15 to 20)
#    0.000    1.500    3.750    2.625    3.500    0.750 
#    0.000    0.625    0.000    1.875    0.000    1.750 
#    0.000    0.000    0.000    0.000    0.000    0.000 
#
# Total GULP energy -396704.636590 kJ/mol
# GULP energy per Si atom -12397.019893 kJ/mol
# Density = 2.014450 g / cm^3
# Si number density = 20.190457 Si / 1000 Ang^3
#
#
#
# Elastic Constant Matrix: (Units=GPa)
#
#
# Indices 1 2 3 4 5 6 
#
# 1 70.0662 26.8526 45.6661 0.0000 -9.2793 0.0000
# 2 26.8526 77.1794 50.1800 0.0000 2.1607 0.0000
# 3 45.6661 50.1800 139.5236 0.0000 -9.3142 0.0000
# 4 0.0000 0.0000 0.0000 36.0533 0.0000 -0.6521
# 5 -9.2793 2.1607 -9.3142 0.0000 29.3106 0.0000
# 6 0.0000 0.0000 0.0000 -0.6521 0.0000 10.9680
#
#
#
# Elastic Compliance Matrix: (Units=1/GPa)
#
#
# Indices 1 2 3 4 5 6 
#
# 1 0.019440 -0.003892 -0.004631 0.000000 0.004970 0.000000
# 2 -0.003892 0.017999 -0.005487 0.000000 -0.004302 0.000000
# 3 -0.004631 -0.005487 0.010815 0.000000 0.002375 0.000000
# 4 0.000000 0.000000 0.000000 0.027767 0.000000 0.001651
# 5 0.004970 -0.004302 0.002375 0.000000 0.036763 0.000000
# 6 0.000000 0.000000 0.000000 0.001651 0.000000 0.091273
#
#
# Mechanical properties :
#
#
# Convention : Reuss Voigt Hill
#
# Bulk Modulus (GPa) = 49.42099 59.12964 54.27531
# Shear Modulus (GPa) = 20.93626 26.20442 23.57034
#
# Velocity S-wave (km/s) = 3.22365 3.60649 3.42043
# Velocity P-wave (km/s) = 6.19568 6.83315 6.52220
#
# Compressibility (1/GPa) = 0.02023432
#
# Stress axis : x y z
#
# Youngs Moduli (GPa) = 51.43925 55.55993 92.46446
#
# Poissons Ratio (x) = 0.21622 0.42824
# Poissons Ratio (y) = 0.20019 0.50732
# Poissons Ratio (z) = 0.23824 0.30484
#
# Static dielectric constant tensor:
#      x y z
#    x 3.512150 0.000000 -0.163230 
#    y 0.000000 3.563400 0.000000 
#    z -0.163230 0.000000 3.857050 
# 
# 
# High freq. dielectric constant tensor:
#      x y z
#    x 1.775640 0.000000 -0.010670 
#    y 0.000000 1.770940 0.000000 
#    z -0.010670 0.000000 1.790040 
# 
# From -- ./inp_files/100205.got.cif
#   From: 2010.06.25/outbox.cif.g09.slc.cpg/sg12_51_cif.got.tgz:100205.got - 2010.06.28 00:19:55.
