data_PCOD8106488
_publ_section_title
;
Structure prediction by ZEFSAII (Michael W. Deem and Ramdas Pophale) SiO2 
 PCOD8106488
Probable space group: C 2/M
;
_chemical_formula_sum "Si O2"
_cell_formula_units_Z 64
_cell_length_a 16.926173
_cell_length_b 14.398086
_cell_length_c 24.057225
_cell_angle_alpha 90.000000
_cell_angle_beta 147.719740
_cell_angle_gamma 90.000000
_cell_volume 3131.122188
_symmetry_space_group_name_H-M "C 2/M"
_symmetry_group_IT_number 12
_symmetry_cell_setting 'monoclinic'
loop_
_space_group_symop_operation_xyz
x,y,z
-x,y,-z
-x,-y,-z
x,-y,z
1/2+x,1/2+y,z
1/2-x,1/2+y,-z
1/2-x,1/2-y,-z
1/2+x,1/2-y,z
loop_
_atom_site_type_symbol
_atom_site_label
_atom_site_fract_x
_atom_site_fract_y
_atom_site_fract_z
Si Si1 0.322317 0.102644 0.594065
Si Si2 0.261362 0.105578 0.781429
Si Si3 0.020533 0.847993 0.450302
Si Si4 0.180427 0.105767 0.855337
Si Si5 0.433150 0.892809 0.093404
Si Si6 0.045108 0.251275 0.242406
Si Si7 0.059714 0.357976 0.457994
Si Si8 0.261829 0.899785 0.333523
O O1 0.365167 0.180157 0.664347
O O2 0.384989 0.130116 0.571650
O O3 0.142932 0.095130 0.487867
O O4 0.383862 0.000000 0.646488
O O5 0.133658 0.161721 0.674121
O O6 0.268044 0.124963 0.850830
O O7 0.421739 0.132502 0.855185
O O8 0.222625 0.000000 0.744705
O O9 0.000000 0.891181 0.500000
O O10 0.084069 0.745463 0.494167
O O11 0.045132 0.176917 0.775316
O O12 0.120211 0.000000 0.821293
O O13 0.288748 0.124405 0.970987
O O14 0.431298 0.817874 0.141695
O O15 0.437763 0.000000 0.117304
O O16 0.150931 0.188695 0.265573
O O17 0.164418 0.414334 0.561972
O O18 0.888133 0.387029 0.361534
O O19 0.182162 0.000000 0.273651
#
# Coordination Sequence:
#
# PCOD8106488 Si02
#       8
#     8   8   8   8   8   8   8   8
#     4  12  25  38  57  85 125 164 197 237 286 350
#     4  10  21  36  59  86 115 153 196 238 288 348
#     4  12  22  38  58  88 125 161 195 239 287 347
#     4  10  22  40  62  89 114 146 196 253 299 342
#     4  10  21  40  63  85 116 151 191 243 302 357
#     4  12  23  38  58  89 118 156 192 237 300 356
#     4  11  21  40  56  80 114 161 203 242 281 332
#     4  11  22  38  59  81 113 155 202 248 289 337
#
# _framework density 20.439955000000001
#
# number of rings (size 3 to 8) (size 9 to 14) (size 15 to 20)
#    0.000    1.000    2.500    6.000    1.750    3.500 
#    0.000    0.000    0.000    0.000    0.000    0.000 
#    0.000   14.000    0.000    0.000    0.000    0.000 
#
# Total GULP energy -396663.050868 kJ/mol
# GULP energy per Si atom -12395.720340 kJ/mol
# Density = 2.039343 g / cm^3
# Si number density = 20.439955 Si / 1000 Ang^3
#
#
#
# Elastic Constant Matrix: (Units=GPa)
#
#
# Indices 1 2 3 4 5 6 
#
# 1 94.2274 27.4510 0.8339 -0.0001 0.4391 0.0001
# 2 27.4510 105.3307 19.1941 -0.0008 0.7677 -0.0002
# 3 0.8339 19.1941 42.6604 -0.0019 2.4589 -0.0005
# 4 -0.0001 -0.0008 -0.0019 22.9474 -0.0006 2.7954
# 5 0.4391 0.7677 2.4589 -0.0006 27.2946 0.0000
# 6 0.0001 -0.0002 -0.0005 2.7954 0.0000 22.7267
#
#
#
# Elastic Compliance Matrix: (Units=1/GPa)
#
#
# Indices 1 2 3 4 5 6 
#
# 1 0.011545 -0.003233 0.001241 0.000000 -0.000207 0.000000
# 2 -0.003233 0.011248 -0.005008 0.000000 0.000187 0.000000
# 3 0.001241 -0.005008 0.025797 0.000002 -0.002203 0.000000
# 4 0.000000 0.000000 0.000002 0.044241 0.000001 -0.005442
# 5 -0.000207 0.000187 -0.002203 0.000001 0.036834 0.000000
# 6 0.000000 0.000000 0.000000 -0.005442 0.000000 0.044670
#
#
# Mechanical properties :
#
#
# Convention : Reuss Voigt Hill
#
# Bulk Modulus (GPa) = 28.91161 37.46407 33.18784
# Shear Modulus (GPa) = 25.01686 27.57636 26.29661
#
# Velocity S-wave (km/s) = 3.50225 3.67705 3.59071
# Velocity P-wave (km/s) = 5.52537 6.03293 5.78472
#
# Compressibility (1/GPa) = 0.03458818
#
# Stress axis : x y z
#
# Youngs Moduli (GPa) = 86.62086 88.90585 38.76417
#
# Poissons Ratio (x) = 0.28746 -0.04811
# Poissons Ratio (y) = 0.28008 0.19414
# Poissons Ratio (z) = -0.10750 0.44527
#
# Static dielectric constant tensor:
#      x y z
#    x 3.745800 0.000000 0.104820 
#    y 0.000000 3.915570 0.000000 
#    z 0.104820 0.000000 3.413060 
# 
# 
# High freq. dielectric constant tensor:
#      x y z
#    x 1.798760 0.000000 0.008420 
#    y 0.000000 1.816640 0.000000 
#    z 0.008420 0.000000 1.773060 
# 
# From -- ./inp_files/344103.got.cif
#   From: 2010.06.25/outbox.cif.g09.slc.cpg/sg12_173_cif.got.tgz:344103.got - 2010.06.28 00:19:55.
