data_PCOD8106829
_publ_section_title
;
Structure prediction by ZEFSAII (Michael W. Deem and Ramdas Pophale) SiO2 
 PCOD8106829
Probable space group: C 2/M
;
_chemical_formula_sum "Si O2"
_cell_formula_units_Z 64
_cell_length_a 28.896904
_cell_length_b 9.819775
_cell_length_c 17.671939
_cell_angle_alpha 90.000000
_cell_angle_beta 141.388130
_cell_angle_gamma 90.000000
_cell_volume 3129.323935
_symmetry_space_group_name_H-M "C 2/M"
_symmetry_group_IT_number 12
_symmetry_cell_setting 'monoclinic'
loop_
_space_group_symop_operation_xyz
x,y,z
-x,y,-z
-x,-y,-z
x,-y,z
1/2+x,1/2+y,z
1/2-x,1/2+y,-z
1/2-x,1/2-y,-z
1/2+x,1/2-y,z
loop_
_atom_site_type_symbol
_atom_site_label
_atom_site_fract_x
_atom_site_fract_y
_atom_site_fract_z
Si Si1 0.067701 0.747708 0.135988
Si Si2 0.474572 0.149178 0.154399
Si Si3 0.182292 0.850519 0.396511
Si Si4 0.160713 0.646974 0.120827
Si Si5 0.925987 0.344396 0.358939
Si Si6 0.791513 0.657915 0.300081
Si Si7 0.365712 0.648726 0.503829
Si Si8 0.470439 0.344276 0.288347
O O1 0.132558 0.839690 0.256595
O O2 0.112027 0.652627 0.134900
O O3 0.032378 0.663778 0.159446
O O4 0.000000 0.820601 0.000000
O O5 0.477596 0.271769 0.217031
O O6 0.490723 0.000000 0.212324
O O7 0.391491 0.152540 0.018134
O O8 0.250000 0.750000 0.500000
O O9 0.126326 0.833763 0.395710
O O10 0.218486 0.000000 0.440639
O O11 0.202153 0.500000 0.175457
O O12 0.215828 0.772383 0.177526
O O13 0.928135 0.500000 0.332029
O O14 0.853914 0.318957 0.317206
O O15 0.918552 0.242043 0.278518
O O16 0.000000 0.311972 0.500000
O O17 0.777471 0.500000 0.299086
O O18 0.814598 0.730862 0.407385
O O19 0.330525 0.500000 0.439757
O O20 0.447113 0.655534 0.571033
O O21 0.440788 0.500000 0.241504
#
# Coordination Sequence:
#
# PCOD8106829 Si02
#       8
#     8   8   8   8   8   8   8   8
#     4  10  21  39  64  93 122 161 214 261 303 361
#     4  10  21  39  64  89 118 160 205 247 296 357
#     4  11  24  40  56  85 125 166 208 253 309 365
#     4  10  22  40  61  88 122 159 200 247 300 357
#     4  10  21  39  61  87 118 153 196 246 299 361
#     4  11  23  39  61  90 121 155 198 246 301 363
#     4  10  21  37  56  81 119 157 191 239 297 356
#     4  11  22  37  60  90 119 149 193 246 298 351
#
# _framework density 20.451699999999999
#
# number of rings (size 3 to 8) (size 9 to 14) (size 15 to 20)
#    0.000    1.625    2.500    1.875    0.000    8.000 
#    0.000    3.125    0.000    0.000    0.000    0.000 
#    0.000    0.000    0.000    0.000    0.000    0.000 
#
# Total GULP energy -396496.269939 kJ/mol
# GULP energy per Si atom -12390.508436 kJ/mol
# Density = 2.040515 g / cm^3
# Si number density = 20.451700 Si / 1000 Ang^3
#
#
#
# Elastic Constant Matrix: (Units=GPa)
#
#
# Indices 1 2 3 4 5 6 
#
# 1 78.5891 58.9085 33.2533 0.0000 -0.6567 0.0000
# 2 58.9085 169.5922 59.1301 0.0000 -3.9251 0.0000
# 3 33.2533 59.1301 92.9030 0.0000 8.1292 0.0000
# 4 0.0000 0.0000 0.0000 30.3014 0.0000 -0.8850
# 5 -0.6567 -3.9251 8.1292 0.0000 22.0058 0.0000
# 6 0.0000 0.0000 0.0000 -0.8850 0.0000 28.4969
#
#
#
# Elastic Compliance Matrix: (Units=1/GPa)
#
#
# Indices 1 2 3 4 5 6 
#
# 1 0.017906 -0.005064 -0.003259 0.000000 0.000835 0.000000
# 2 -0.005064 0.009240 -0.004340 0.000000 0.003100 0.000000
# 3 -0.003259 -0.004340 0.015262 0.000000 -0.006509 0.000000
# 4 0.000000 0.000000 0.000000 0.033032 0.000000 0.001026
# 5 0.000835 0.003100 -0.006509 0.000000 0.048425 0.000000
# 6 0.000000 0.000000 0.000000 0.001026 0.000000 0.035123
#
#
# Mechanical properties :
#
#
# Convention : Reuss Voigt Hill
#
# Bulk Modulus (GPa) = 58.53909 71.51866 65.02888
# Shear Modulus (GPa) = 26.31435 28.81365 27.56400
#
# Velocity S-wave (km/s) = 3.59089 3.75756 3.67517
# Velocity P-wave (km/s) = 6.77332 7.33969 7.06219
#
# Compressibility (1/GPa) = 0.01708260
#
# Stress axis : x y z
#
# Youngs Moduli (GPa) = 55.84585 108.21957 65.52078
#
# Poissons Ratio (x) = 0.54804 0.21355
# Poissons Ratio (y) = 0.28281 0.28436
# Poissons Ratio (z) = 0.18201 0.46967
#
# Static dielectric constant tensor:
#      x y z
#    x 3.630250 0.000000 0.017550 
#    y 0.000000 3.792810 0.000000 
#    z 0.017550 0.000000 3.636170 
# 
# 
# High freq. dielectric constant tensor:
#      x y z
#    x 1.796100 0.000000 0.001250 
#    y 0.000000 1.802510 0.000000 
#    z 0.001250 0.000000 1.787890 
# 
# From -- ./inp_files/295768.got.cif
#   From: 2010.06.25/outbox.cif.g09.slc.cpg/sg12_148_cif.got.tgz:295768.got - 2010.06.28 00:19:55.
