data_PCOD8106061
_publ_section_title
;
Structure prediction by ZEFSAII (Michael W. Deem and Ramdas Pophale) SiO2 
 PCOD8106061
Probable space group: C 2/M
;
_chemical_formula_sum "Si O2"
_cell_formula_units_Z 64
_cell_length_a 34.263535
_cell_length_b 9.529720
_cell_length_c 17.603090
_cell_angle_alpha 90.000000
_cell_angle_beta 143.904404
_cell_angle_gamma 90.000000
_cell_volume 3386.222485
_symmetry_space_group_name_H-M "C 2/M"
_symmetry_group_IT_number 12
_symmetry_cell_setting 'monoclinic'
loop_
_space_group_symop_operation_xyz
x,y,z
-x,y,-z
-x,-y,-z
x,-y,z
1/2+x,1/2+y,z
1/2-x,1/2+y,-z
1/2-x,1/2-y,-z
1/2+x,1/2-y,z
loop_
_atom_site_type_symbol
_atom_site_label
_atom_site_fract_x
_atom_site_fract_y
_atom_site_fract_z
Si Si1 0.246320 0.165245 0.762968
Si Si2 0.942091 0.166141 0.353716
Si Si3 0.645375 0.835282 0.179750
Si Si4 0.522186 0.838926 0.893404
Si Si5 0.870674 0.335748 0.679354
Si Si6 0.710741 0.667824 0.872665
Si Si7 0.485453 0.662256 0.258452
Si Si8 0.638256 0.660976 0.476154
O O1 0.305997 0.232798 0.806978
O O2 0.243913 0.219818 0.845729
O O3 0.178763 0.205971 0.614073
O O4 0.255218 0.000000 0.781377
O O5 0.866933 0.212176 0.255269
O O6 0.956330 0.220228 0.291218
O O7 0.000000 0.229168 0.500000
O O8 0.948076 0.000000 0.366733
O O9 0.658413 0.779507 0.285967
O O10 0.658641 0.000000 0.203121
O O11 0.569759 0.802816 0.038626
O O12 0.448652 0.801344 0.803659
O O13 0.547122 0.748819 0.860963
O O14 0.528795 0.000000 0.879137
O O15 0.857432 0.500000 0.646334
O O16 0.837510 0.251382 0.558107
O O17 0.716974 0.500000 0.895610
O O18 0.750000 0.750000 0.000000
O O19 0.468147 0.500000 0.219039
O O20 0.563454 0.690317 0.381406
O O21 0.651240 0.500000 0.474541
#
# Coordination Sequence:
#
# PCOD8106061 Si02
#       8
#     8   8   8   8   8   8   8   8
#     4   9  18  32  50  71  95 128 165 198 237 292
#     4   9  17  31  53  77  99 130 174 214 248 298
#     4   9  17  29  47  69  94 127 165 198 231 286
#     4   9  17  29  47  69  94 125 159 196 236 283
#     4   9  17  30  48  71  96 124 160 201 242 281
#     4  10  21  36  55  78 105 136 170 212 260 307
#     4   9  17  29  48  72  95 121 156 201 245 284
#     4   9  17  31  50  71  97 126 160 200 241 286
#
# _framework density 18.900117000000002
#
# number of rings (size 3 to 8) (size 9 to 14) (size 15 to 20)
#    0.000    2.875    0.000    1.125    1.750    5.000 
#    0.000    1.250    0.000    7.500    0.000    0.000 
#    0.000    0.000    0.000    0.000    0.000    0.000 
#
# Total GULP energy -396597.008394 kJ/mol
# GULP energy per Si atom -12393.656512 kJ/mol
# Density = 1.885710 g / cm^3
# Si number density = 18.900117 Si / 1000 Ang^3
#
#
#
# Elastic Constant Matrix: (Units=GPa)
#
#
# Indices 1 2 3 4 5 6 
#
# 1 138.4485 31.4706 51.3089 0.0000 -29.3484 0.0000
# 2 31.4706 30.8674 25.3246 0.0000 -9.3112 0.0000
# 3 51.3089 25.3246 78.6927 0.0000 -17.3192 0.0000
# 4 0.0000 0.0000 0.0000 22.4273 0.0000 -7.1145
# 5 -29.3484 -9.3112 -17.3192 0.0000 33.9353 0.0000
# 6 0.0000 0.0000 0.0000 -7.1145 0.0000 19.3093
#
#
#
# Elastic Compliance Matrix: (Units=1/GPa)
#
#
# Indices 1 2 3 4 5 6 
#
# 1 0.011507 -0.006576 -0.004048 0.000000 0.006081 0.000000
# 2 -0.006576 0.048695 -0.010921 0.000000 0.002100 0.000000
# 3 -0.004048 -0.010921 0.019637 0.000000 0.003525 0.000000
# 4 0.000000 0.000000 0.000000 0.050490 0.000000 0.018603
# 5 0.006081 0.002100 0.003525 0.000000 0.037102 0.000000
# 6 0.000000 0.000000 0.000000 0.018603 0.000000 0.058643
#
#
# Mechanical properties :
#
#
# Convention : Reuss Voigt Hill
#
# Bulk Modulus (GPa) = 27.21173 51.57965 39.39569
# Shear Modulus (GPa) = 17.76746 24.46134 21.11440
#
# Velocity S-wave (km/s) = 3.06938 3.60146 3.34602
# Velocity P-wave (km/s) = 5.19523 6.68161 5.98474
#
# Compressibility (1/GPa) = 0.03674886
#
# Stress axis : x y z
#
# Youngs Moduli (GPa) = 86.90296 20.53617 50.92369
#
# Poissons Ratio (x) = 0.13505 0.20614
# Poissons Ratio (y) = 0.57151 0.55612
# Poissons Ratio (z) = 0.35178 0.22427
#
# Static dielectric constant tensor:
#      x y z
#    x 3.822060 0.000000 -0.118160 
#    y 0.000000 3.065790 0.000000 
#    z -0.118160 0.000000 3.567510 
# 
# 
# High freq. dielectric constant tensor:
#      x y z
#    x 1.747320 0.000000 -0.006710 
#    y 0.000000 1.679030 0.000000 
#    z -0.006710 0.000000 1.738760 
# 
# From -- ./inp_files/250890.got.cif
#   From: 2010.06.25/outbox.cif.g09.slc.cpg/sg12_126_cif.got.tgz:250890.got - 2010.06.28 00:19:55.
