data_PCOD8106148
_publ_section_title
;
Structure prediction by ZEFSAII (Michael W. Deem and Ramdas Pophale) SiO2 
 PCOD8106148
Probable space group: C 2/M
;
_chemical_formula_sum "Si O2"
_cell_formula_units_Z 56
_cell_length_a 23.929188
_cell_length_b 9.165515
_cell_length_c 14.264749
_cell_angle_alpha 90.000000
_cell_angle_beta 72.193238
_cell_angle_gamma 90.000000
_cell_volume 2978.711769
_symmetry_space_group_name_H-M "C 2/M"
_symmetry_group_IT_number 12
_symmetry_cell_setting 'monoclinic'
loop_
_space_group_symop_operation_xyz
x,y,z
-x,y,-z
-x,-y,-z
x,-y,z
1/2+x,1/2+y,z
1/2-x,1/2+y,-z
1/2-x,1/2-y,-z
1/2+x,1/2-y,z
loop_
_atom_site_type_symbol
_atom_site_label
_atom_site_fract_x
_atom_site_fract_y
_atom_site_fract_z
Si Si1 0.791269 0.670361 0.858932
Si Si2 0.687461 0.172665 0.526124
Si Si3 0.357831 0.828363 0.647580
Si Si4 0.834514 0.170997 0.006850
Si Si5 0.985381 0.673034 0.610126
Si Si6 0.079868 0.327393 0.710183
Si Si7 0.440393 0.327763 0.082475
O O1 0.800536 0.500000 0.871015
O O2 0.806081 0.715928 0.745124
O O3 0.836052 0.750886 0.905758
O O4 0.724547 0.719010 0.909095
O O5 0.750000 0.250000 0.500000
O O6 0.656115 0.234422 0.448077
O O7 0.644476 0.211363 0.635303
O O8 0.698295 0.000000 0.514769
O O9 0.418829 0.772453 0.662060
O O10 0.363712 0.000000 0.632340
O O11 0.837055 0.000000 0.987492
O O12 0.888616 0.224671 0.040854
O O13 0.992248 0.500000 0.607908
O O14 0.000000 0.734528 0.500000
O O15 0.029964 0.735007 0.665257
O O16 0.073938 0.500000 0.727103
O O17 0.068872 0.251027 0.814456
O O18 0.438722 0.500000 0.101772
O O19 0.500000 0.280025 0.000000
#
# Coordination Sequence:
#
# PCOD8106148 Si02
#       7
#     8   8   8   8   8   8   8
#     4   9  18  32  54  80 100 129 175 222 267 315
#     4  10  21  36  55  82 115 147 181 219 263 324
#     4   9  17  30  52  79 105 136 174 214 264 324
#     4   9  19  36  53  72 102 138 176 219 268 319
#     4   9  15  29  52  78 107 134 166 216 269 310
#     4  10  21  36  57  85 109 137 183 233 272 309
#     4  10  23  40  56  76 108 150 187 217 267 336
#
# _framework density 18.800073999999999
#
# number of rings (size 3 to 8) (size 9 to 14) (size 15 to 20)
#    0.000    2.571    1.429    0.000    4.000    1.429 
#    0.000    0.714    0.000    1.286    0.000    0.000 
#    0.000    0.000    0.000    0.000    0.000    0.000 
#
# Total GULP energy -347079.411724 kJ/mol
# GULP energy per Si atom -12395.693276 kJ/mol
# Density = 1.875728 g / cm^3
# Si number density = 18.800074 Si / 1000 Ang^3
#
#
#
# Elastic Constant Matrix: (Units=GPa)
#
#
# Indices 1 2 3 4 5 6 
#
# 1 156.0979 32.9934 74.5336 0.0000 3.8290 0.0000
# 2 32.9934 26.5708 38.0311 0.0000 1.0008 0.0000
# 3 74.5336 38.0311 147.3967 0.0000 2.1089 0.0000
# 4 0.0000 0.0000 0.0000 26.0489 0.0000 0.7034
# 5 3.8290 1.0008 2.1089 0.0000 28.2905 0.0000
# 6 0.0000 0.0000 0.0000 0.7034 0.0000 20.9333
#
#
#
# Elastic Compliance Matrix: (Units=1/GPa)
#
#
# Indices 1 2 3 4 5 6 
#
# 1 0.009354 -0.007660 -0.002742 0.000000 -0.000791 0.000000
# 2 -0.007660 0.065972 -0.013144 0.000000 -0.000317 0.000000
# 3 -0.002742 -0.013144 0.011563 0.000000 -0.000026 0.000000
# 4 0.000000 0.000000 0.000000 0.038424 0.000000 -0.001291
# 5 -0.000791 -0.000317 -0.000026 0.000000 0.035468 0.000000
# 6 0.000000 0.000000 0.000000 -0.001291 0.000000 0.047814
#
#
# Mechanical properties :
#
#
# Convention : Reuss Voigt Hill
#
# Bulk Modulus (GPa) = 25.12807 69.02016 47.07411
# Shear Modulus (GPa) = 18.59056 27.35503 22.97280
#
# Velocity S-wave (km/s) = 3.14802 3.81865 3.49944
# Velocity P-wave (km/s) = 5.15833 7.49901 6.43597
#
# Compressibility (1/GPa) = 0.03979614
#
# Stress axis : x y z
#
# Youngs Moduli (GPa) = 106.90486 15.15788 86.48419
#
# Poissons Ratio (x) = 0.11612 0.23716
# Poissons Ratio (y) = 0.81893 1.13674
# Poissons Ratio (z) = 0.29316 0.19923
#
# Static dielectric constant tensor:
#      x y z
#    x 3.708690 0.000000 -0.013830 
#    y 0.000000 3.040980 0.000000 
#    z -0.013830 0.000000 3.569410 
# 
# 
# High freq. dielectric constant tensor:
#      x y z
#    x 1.742970 0.000000 -0.003010 
#    y 0.000000 1.685480 0.000000 
#    z -0.003010 0.000000 1.739950 
# 
# From -- ./inp_files/237331.got.cif
#   From: 2010.06.25/outbox.cif.g09.slc.cpg/sg12_119_cif.got.tgz:237331.got - 2010.06.28 00:19:55.
