data_PCOD8106291
_publ_section_title
;
Structure prediction by ZEFSAII (Michael W. Deem and Ramdas Pophale) SiO2 
 PCOD8106291
Probable space group: C 2/M
;
_chemical_formula_sum "Si O2"
_cell_formula_units_Z 56
_cell_length_a 19.566710
_cell_length_b 14.147749
_cell_length_c 22.278241
_cell_angle_alpha 90.000000
_cell_angle_beta 28.635193
_cell_angle_gamma 90.000000
_cell_volume 2955.500281
_symmetry_space_group_name_H-M "C 2/M"
_symmetry_group_IT_number 12
_symmetry_cell_setting 'monoclinic'
loop_
_space_group_symop_operation_xyz
x,y,z
-x,y,-z
-x,-y,-z
x,-y,z
1/2+x,1/2+y,z
1/2-x,1/2+y,-z
1/2-x,1/2-y,-z
1/2+x,1/2-y,z
loop_
_atom_site_type_symbol
_atom_site_label
_atom_site_fract_x
_atom_site_fract_y
_atom_site_fract_z
Si Si1 0.145344 0.391252 0.025203
Si Si2 0.653121 0.890845 0.157533
Si Si3 0.615436 0.610462 0.248746
Si Si4 0.592551 0.745223 0.646607
Si Si5 0.842413 0.892556 0.646707
Si Si6 0.039238 0.108153 0.038171
Si Si7 0.111338 0.739029 0.772372
O O1 0.117832 0.500000 0.031708
O O2 0.189194 0.374023 0.059958
O O3 0.002128 0.338129 0.119426
O O4 0.267166 0.349942 0.888158
O O5 0.512770 0.833590 0.287157
O O6 0.618004 0.000000 0.198268
O O7 0.797190 0.856553 0.079706
O O8 0.593782 0.500000 0.259294
O O9 0.467299 0.654561 0.341800
O O10 0.659010 0.637776 0.282552
O O11 0.750000 0.750000 0.500000
O O12 0.603351 0.732679 0.709331
O O13 0.760114 0.811332 0.673458
O O14 0.000000 0.891340 0.500000
O O15 0.780188 0.000000 0.686597
O O16 0.921193 0.165417 0.166557
O O17 0.028188 0.000000 0.068561
O O18 0.000000 0.120402 0.000000
#
# Coordination Sequence:
#
# PCOD8106291 Si02
#       7
#     8   8   8   8   8   8   8
#     4   9  18  33  56  87 114 137 176 232 292 343
#     4   9  19  37  58  80 113 151 186 233 290 341
#     4  10  21  36  57  82 112 147 184 235 289 339
#     4  11  23  37  56  85 115 150 196 234 279 343
#     4  10  22  39  57  81 118 159 192 228 284 352
#     4  10  22  38  57  83 112 150 194 241 297 348
#     4  11  22  35  58  86 112 152 188 240 286 346
#
# _framework density 18.947723
#
# number of rings (size 3 to 8) (size 9 to 14) (size 15 to 20)
#    0.000    2.000    0.000    3.000    4.000    5.143 
#    0.000    2.143    0.000    0.429    0.000    0.000 
#    0.000    0.000    0.000    0.000    0.000    0.000 
#
# Total GULP energy -347167.639855 kJ/mol
# GULP energy per Si atom -12398.844281 kJ/mol
# Density = 1.890460 g / cm^3
# Si number density = 18.947723 Si / 1000 Ang^3
#
#
#
# Elastic Constant Matrix: (Units=GPa)
#
#
# Indices 1 2 3 4 5 6 
#
# 1 76.4417 40.1764 9.7839 0.0051 -10.4827 -0.0007
# 2 40.1764 68.0182 27.3909 -0.0131 -4.9828 0.0044
# 3 9.7839 27.3909 78.1634 -0.0177 -6.1132 0.0048
# 4 0.0051 -0.0131 -0.0177 30.3801 0.0071 -5.2860
# 5 -10.4827 -4.9828 -6.1132 0.0071 24.1400 -0.0010
# 6 -0.0007 0.0044 0.0048 -5.2860 -0.0010 26.2949
#
#
#
# Elastic Compliance Matrix: (Units=1/GPa)
#
#
# Indices 1 2 3 4 5 6 
#
# 1 0.020232 -0.012395 0.002344 -0.000009 0.006821 0.000001
# 2 -0.012395 0.024812 -0.007308 0.000009 -0.002112 -0.000002
# 3 0.002344 -0.007308 0.015327 0.000005 0.003391 0.000000
# 4 -0.000009 0.000009 0.000005 0.034109 -0.000011 0.006857
# 5 0.006821 -0.002112 0.003391 -0.000011 0.044810 -0.000001
# 6 0.000001 -0.000002 0.000000 0.006857 -0.000001 0.039409
#
#
# Mechanical properties :
#
#
# Convention : Reuss Voigt Hill
#
# Bulk Modulus (GPa) = 38.98262 41.92508 40.45385
# Shear Modulus (GPa) = 22.52603 25.84780 24.18692
#
# Velocity S-wave (km/s) = 3.45171 3.69747 3.57670
# Velocity P-wave (km/s) = 6.04187 6.35634 6.20110
#
# Compressibility (1/GPa) = 0.02565246
#
# Stress axis : x y z
#
# Youngs Moduli (GPa) = 49.42775 40.30384 65.24630
#
# Poissons Ratio (x) = 0.49955 -0.15297
# Poissons Ratio (y) = 0.61264 0.47685
# Poissons Ratio (z) = -0.11588 0.29456
#
# Static dielectric constant tensor:
#      x y z
#    x 3.610180 -0.000010 0.029870 
#    y -0.000010 3.667840 -0.000020 
#    z 0.029870 -0.000020 3.715790 
# 
# 
# High freq. dielectric constant tensor:
#      x y z
#    x 1.741960 0.000000 -0.001290 
#    y 0.000000 1.742020 0.000000 
#    z -0.001290 0.000000 1.730190 
# 
# From -- ./inp_files/316694.got.cif
#   From: 2010.06.25/outbox.cif.g09.slc.cpg/sg12_159_cif.got.tgz:316694.got - 2010.06.28 00:19:55.
