data_PCOD8106133
_publ_section_title
;
Structure prediction by ZEFSAII (Michael W. Deem and Ramdas Pophale) SiO2 
 PCOD8106133
Probable space group: C 2/M
;
_chemical_formula_sum "Si O2"
_cell_formula_units_Z 48
_cell_length_a 9.944256
_cell_length_b 9.192170
_cell_length_c 26.795199
_cell_angle_alpha 90.000000
_cell_angle_beta 79.083072
_cell_angle_gamma 90.000000
_cell_volume 2405.004147
_symmetry_space_group_name_H-M "C 2/M"
_symmetry_group_IT_number 12
_symmetry_cell_setting 'monoclinic'
loop_
_space_group_symop_operation_xyz
x,y,z
-x,y,-z
-x,-y,-z
x,-y,z
1/2+x,1/2+y,z
1/2-x,1/2+y,-z
1/2-x,1/2-y,-z
1/2+x,1/2-y,z
loop_
_atom_site_type_symbol
_atom_site_label
_atom_site_fract_x
_atom_site_fract_y
_atom_site_fract_z
Si Si1 0.650933 0.330982 0.112146
Si Si2 0.320059 0.667937 0.283745
Si Si3 0.514999 0.667982 0.556108
Si Si4 0.287551 0.169384 0.387116
Si Si5 0.449053 0.829786 0.056710
Si Si6 0.620405 0.666816 0.226959
O O1 0.614489 0.500000 0.111179
O O2 0.527727 0.244395 0.096306
O O3 0.789489 0.292656 0.073117
O O4 0.665767 0.283910 0.168622
O O5 0.288680 0.500000 0.297019
O O6 0.339047 0.749306 0.334459
O O7 0.457931 0.687983 0.242395
O O8 0.194541 0.732869 0.261774
O O9 0.500000 0.715599 0.500000
O O10 0.560027 0.500000 0.556888
O O11 0.632680 0.767313 0.571102
O O12 0.373673 0.695198 0.595019
O O13 0.322420 0.000000 0.379852
O O14 0.477983 0.000000 0.058689
O O15 0.500000 0.767734 0.000000
O O16 0.662322 0.500000 0.234630
#
# Coordination Sequence:
#
# PCOD8106133 Si02
#       6
#     8   8   8   8   8   8
#     4  10  21  37  57  81 110 145 184 227 275 327
#     4  11  23  38  58  83 111 146 186 227 275 329
#     4  10  22  40  60  84 115 148 184 228 274 323
#     4  11  23  38  59  86 114 147 186 227 274 327
#     4  10  21  36  55  82 113 144 182 227 274 327
#     4  10  22  39  57  81 112 144 184 231 275 325
#
# _framework density 19.958386000000001
#
# number of rings (size 3 to 8) (size 9 to 14) (size 15 to 20)
#    0.000    1.667    0.000    4.000    0.000    8.667 
#    0.000    0.000    0.000    0.000    0.000    0.000 
#    0.000    0.000    0.000    0.000    0.000    0.000 
#
# Total GULP energy -297773.235819 kJ/mol
# GULP energy per Si atom -12407.218159 kJ/mol
# Density = 1.991296 g / cm^3
# Si number density = 19.958386 Si / 1000 Ang^3
#
#
#
# Elastic Constant Matrix: (Units=GPa)
#
#
# Indices 1 2 3 4 5 6 
#
# 1 57.2062 37.6479 9.5605 0.0000 14.8528 0.0000
# 2 37.6479 85.4361 35.0803 0.0000 12.5707 0.0000
# 3 9.5605 35.0803 91.4699 0.0000 0.8538 0.0000
# 4 0.0000 0.0000 0.0000 36.2072 0.0000 9.2149
# 5 14.8528 12.5707 0.8538 0.0000 38.0541 0.0000
# 6 0.0000 0.0000 0.0000 9.2149 0.0000 34.9239
#
#
#
# Elastic Compliance Matrix: (Units=1/GPa)
#
#
# Indices 1 2 3 4 5 6 
#
# 1 0.026371 -0.011329 0.001650 0.000000 -0.006587 0.000000
# 2 -0.011329 0.019563 -0.006301 0.000000 -0.001900 0.000000
# 3 0.001650 -0.006301 0.013166 0.000000 0.001142 0.000000
# 4 0.000000 0.000000 0.000000 0.029607 0.000000 -0.007812
# 5 -0.006587 -0.001900 0.001142 0.000000 0.029451 0.000000
# 6 0.000000 0.000000 0.000000 -0.007812 0.000000 0.030695
#
#
# Mechanical properties :
#
#
# Convention : Reuss Voigt Hill
#
# Bulk Modulus (GPa) = 36.84524 44.29883 40.57204
# Shear Modulus (GPa) = 26.33522 31.95862 29.14692
#
# Velocity S-wave (km/s) = 3.63644 4.00592 3.82564
# Velocity P-wave (km/s) = 6.01105 6.60608 6.31558
#
# Compressibility (1/GPa) = 0.02714055
#
# Stress axis : x y z
#
# Youngs Moduli (GPa) = 37.92091 51.11588 75.95307
#
# Poissons Ratio (x) = 0.57907 -0.12532
# Poissons Ratio (y) = 0.42959 0.47859
# Poissons Ratio (z) = -0.06257 0.32209
#
# Static dielectric constant tensor:
#      x y z
#    x 3.549280 0.000000 -0.139610 
#    y 0.000000 3.599750 0.000000 
#    z -0.139610 0.000000 3.767410 
# 
# 
# High freq. dielectric constant tensor:
#      x y z
#    x 1.785090 0.000000 -0.004460 
#    y 0.000000 1.776710 0.000000 
#    z -0.004460 0.000000 1.793890 
# 
# From -- ./inp_files/334661.got.cif
#   From: 2010.06.25/outbox.cif.g09.slc.cpg/sg12_168_cif.got.tgz:334661.got - 2010.06.28 00:19:55.
