data_PCOD8106131
_publ_section_title
;
Structure prediction by ZEFSAII (Michael W. Deem and Ramdas Pophale) SiO2 
 PCOD8106131
Probable space group: C 2/M
;
_chemical_formula_sum "Si O2"
_cell_formula_units_Z 32
_cell_length_a 9.900384
_cell_length_b 9.201074
_cell_length_c 18.271267
_cell_angle_alpha 90.000000
_cell_angle_beta 106.040856
_cell_angle_gamma 90.000000
_cell_volume 1599.602022
_symmetry_space_group_name_H-M "C 2/M"
_symmetry_group_IT_number 12
_symmetry_cell_setting 'monoclinic'
loop_
_space_group_symop_operation_xyz
x,y,z
-x,y,-z
-x,-y,-z
x,-y,z
1/2+x,1/2+y,z
1/2-x,1/2+y,-z
1/2-x,1/2-y,-z
1/2+x,1/2-y,z
loop_
_atom_site_type_symbol
_atom_site_label
_atom_site_fract_x
_atom_site_fract_y
_atom_site_fract_z
Si Si1 0.998709 0.831239 0.082560
Si Si2 0.437672 0.167829 0.338100
Si Si3 0.812468 0.668539 0.166776
Si Si4 0.252843 0.668318 0.424179
O O1 0.877448 0.750421 0.107913
O O2 0.146815 0.800891 0.143839
O O3 0.959869 0.000000 0.076678
O O4 0.000000 0.771288 0.000000
O O5 0.377513 0.226420 0.252313
O O6 0.375331 0.263759 0.393690
O O7 0.604850 0.187758 0.360972
O O8 0.395249 0.000000 0.344999
O O9 0.846927 0.500000 0.161454
O O10 0.287467 0.500000 0.443291
O O11 0.250000 0.750000 0.500000
#
# Coordination Sequence:
#
# PCOD8106131 Si02
#       4
#     8   8   8   8
#     4  10  21  36  55  82 113 144 182 226 270 320
#     4  10  22  39  57  81 112 143 181 227 270 320
#     4  10  21  37  57  81 110 145 183 224 271 321
#     4  11  23  38  58  83 110 143 182 223 271 325
#
# _framework density 20.004975999999999
#
# number of rings (size 3 to 8) (size 9 to 14) (size 15 to 20)
#    0.000    1.750    0.000    3.750    0.000    7.500 
#    0.000    0.000    0.000    0.000    0.000    0.000 
#    0.000    0.000    0.000    0.000    0.000    0.000 
#
# Total GULP energy -198507.952983 kJ/mol
# GULP energy per Si atom -12406.747061 kJ/mol
# Density = 1.995944 g / cm^3
# Si number density = 20.004976 Si / 1000 Ang^3
#
#
#
# Elastic Constant Matrix: (Units=GPa)
#
#
# Indices 1 2 3 4 5 6 
#
# 1 48.7663 24.2460 -7.3166 0.0000 -13.0817 0.0000
# 2 24.2460 67.0174 19.0094 0.0000 -12.2572 0.0000
# 3 -7.3166 19.0094 84.0422 0.0000 -2.7368 0.0000
# 4 0.0000 0.0000 0.0000 32.6835 0.0000 -7.7837
# 5 -13.0817 -12.2572 -2.7368 0.0000 41.1176 0.0000
# 6 0.0000 0.0000 0.0000 -7.7837 0.0000 34.2236
#
#
#
# Elastic Compliance Matrix: (Units=1/GPa)
#
#
# Indices 1 2 3 4 5 6 
#
# 1 0.028115 -0.010468 0.005016 0.000000 0.006158 0.000000
# 2 -0.010468 0.020728 -0.005519 0.000000 0.002481 0.000000
# 3 0.005016 -0.005519 0.013612 0.000000 0.000857 0.000000
# 4 0.000000 0.000000 0.000000 0.032349 0.000000 0.007357
# 5 0.006158 0.002481 0.000857 0.000000 0.027076 0.000000
# 6 0.000000 0.000000 0.000000 0.007357 0.000000 0.030893
#
#
# Mechanical properties :
#
#
# Convention : Reuss Voigt Hill
#
# Bulk Modulus (GPa) = 24.68373 30.18928 27.43650
# Shear Modulus (GPa) = 26.56476 32.53073 29.54775
#
# Velocity S-wave (km/s) = 3.64800 4.03691 3.84737
# Velocity P-wave (km/s) = 5.48721 6.07062 5.78627
#
# Compressibility (1/GPa) = 0.04051251
#
# Stress axis : x y z
#
# Youngs Moduli (GPa) = 35.56808 48.24395 73.46624
#
# Poissons Ratio (x) = 0.50502 -0.36850
# Poissons Ratio (y) = 0.37233 0.40546
# Poissons Ratio (z) = -0.17841 0.26626
#
# Static dielectric constant tensor:
#      x y z
#    x 3.603770 0.000000 0.125390 
#    y 0.000000 3.588820 0.000000 
#    z 0.125390 0.000000 3.890250 
# 
# 
# High freq. dielectric constant tensor:
#      x y z
#    x 1.787240 0.000000 0.006640 
#    y 0.000000 1.774800 0.000000 
#    z 0.006640 0.000000 1.796160 
# 
# From -- ./inp_files/193401.got.cif
#   From: 2010.06.25/outbox.cif.g09.slc.cpg/sg12_97_cif.got.tgz:193401.got - 2010.06.28 00:19:55.
