data_PCOD8106167
_publ_section_title
;
Structure prediction by ZEFSAII (Michael W. Deem and Ramdas Pophale) SiO2 
 PCOD8106167
Probable space group: C 2/M
;
_chemical_formula_sum "Si O2"
_cell_formula_units_Z 56
_cell_length_a 16.184962
_cell_length_b 21.878809
_cell_length_c 8.172064
_cell_angle_alpha 90.000000
_cell_angle_beta 64.510812
_cell_angle_gamma 90.000000
_cell_volume 2612.127967
_symmetry_space_group_name_H-M "C 2/M"
_symmetry_group_IT_number 12
_symmetry_cell_setting 'monoclinic'
loop_
_space_group_symop_operation_xyz
x,y,z
-x,y,-z
-x,-y,-z
x,-y,z
1/2+x,1/2+y,z
1/2-x,1/2+y,-z
1/2-x,1/2-y,-z
1/2+x,1/2-y,z
loop_
_atom_site_type_symbol
_atom_site_label
_atom_site_fract_x
_atom_site_fract_y
_atom_site_fract_z
Si Si1 0.351131 0.863954 0.526430
Si Si2 0.091384 0.247602 0.334914
Si Si3 0.297463 0.929178 0.867325
Si Si4 0.498797 0.665325 0.810261
Si Si5 0.993100 0.428154 0.816704
Si Si6 0.680328 0.656404 0.466346
Si Si7 0.134429 0.072695 0.230783
O O1 0.388491 0.817396 0.634826
O O2 0.293349 0.914201 0.677423
O O3 0.435159 0.892046 0.355961
O O4 0.281005 0.835611 0.456810
O O5 0.176251 0.207331 0.326373
O O6 0.000000 0.222787 0.500000
O O7 0.063290 0.227549 0.172391
O O8 0.393694 0.904262 0.851938
O O9 0.293414 0.000000 0.900767
O O10 0.212626 0.902138 0.039891
O O11 0.604759 0.670900 0.668142
O O12 0.457463 0.607448 0.745926
O O13 0.500000 0.651841 0.000000
O O14 0.008498 0.500000 0.771151
O O15 0.000000 0.411388 0.000000
O O16 0.664758 0.590799 0.390185
O O17 0.118217 0.000000 0.237437
#
# Coordination Sequence:
#
# PCOD8106167 Si02
#       7
#     8   8   8   8   8   8   8
#     4  12  21  36  60  86 115 156 202 236 283 354
#     4   9  20  39  59  82 114 152 195 243 290 344
#     4  10  21  36  55  84 117 148 190 245 293 338
#     4  10  21  41  62  86 120 153 189 246 306 346
#     4  10  21  37  57  84 120 157 192 239 296 347
#     4  10  22  38  58  84 119 153 189 242 296 343
#     4  10  21  39  62  87 118 157 198 237 290 360
#
# _framework density 21.438459000000002
#
# number of rings (size 3 to 8) (size 9 to 14) (size 15 to 20)
#    0.000    1.857    0.000    5.143    0.000    4.857 
#    0.000   15.714    0.000    1.714    0.000    0.000 
#    0.000    0.000    0.000    0.000    0.000    0.000 
#
# Total GULP energy -346945.016025 kJ/mol
# GULP energy per Si atom -12390.893429 kJ/mol
# Density = 2.138966 g / cm^3
# Si number density = 21.438459 Si / 1000 Ang^3
#
#
#
# Elastic Constant Matrix: (Units=GPa)
#
#
# Indices 1 2 3 4 5 6 
#
# 1 68.2619 31.7904 0.6711 0.0000 1.0195 0.0000
# 2 31.7904 70.4136 21.9132 0.0000 3.3120 0.0000
# 3 0.6711 21.9132 71.6012 0.0000 0.8613 0.0000
# 4 0.0000 0.0000 0.0000 23.9563 0.0000 0.3187
# 5 1.0195 3.3120 0.8613 0.0000 37.2298 0.0000
# 6 0.0000 0.0000 0.0000 0.3187 0.0000 24.2495
#
#
#
# Elastic Compliance Matrix: (Units=1/GPa)
#
#
# Indices 1 2 3 4 5 6 
#
# 1 0.019015 -0.009440 0.002708 0.000000 0.000256 0.000000
# 2 -0.009440 0.020445 -0.006151 0.000000 -0.001418 0.000000
# 3 0.002708 -0.006151 0.015822 0.000000 0.000107 0.000000
# 4 0.000000 0.000000 0.000000 0.041750 0.000000 -0.000549
# 5 0.000256 -0.001418 0.000107 0.000000 0.026977 0.000000
# 6 0.000000 0.000000 0.000000 -0.000549 0.000000 0.041245
#
#
# Mechanical properties :
#
#
# Convention : Reuss Voigt Hill
#
# Bulk Modulus (GPa) = 33.88096 35.44733 34.66414
# Shear Modulus (GPa) = 24.89302 27.48058 26.18680
#
# Velocity S-wave (km/s) = 3.41124 3.58416 3.49877
# Velocity P-wave (km/s) = 5.59943 5.80505 5.70317
#
# Compressibility (1/GPa) = 0.02951511
#
# Stress axis : x y z
#
# Youngs Moduli (GPa) = 52.58958 48.91239 63.20232
#
# Poissons Ratio (x) = 0.46172 -0.17113
# Poissons Ratio (y) = 0.49643 0.38879
# Poissons Ratio (z) = -0.14239 0.30088
#
# Static dielectric constant tensor:
#      x y z
#    x 4.072650 0.000000 -0.053120 
#    y 0.000000 3.717590 0.000000 
#    z -0.053120 0.000000 3.882740 
# 
# 
# High freq. dielectric constant tensor:
#      x y z
#    x 1.849980 0.000000 0.000190 
#    y 0.000000 1.831940 0.000000 
#    z 0.000190 0.000000 1.836470 
# 
# From -- ./inp_files/65734.got.cif
#   From: 2010.06.25/outbox.cif.g09.slc.cpg/sg12_33_cif.got.tgz:65734.got - 2010.06.28 00:19:55.
