data_PCOD8106434
_publ_section_title
;
Structure prediction by ZEFSAII (Michael W. Deem and Ramdas Pophale) SiO2 
 PCOD8106434
Probable space group: C 2/M
;
_chemical_formula_sum "Si O2"
_cell_formula_units_Z 56
_cell_length_a 20.637121
_cell_length_b 8.807632
_cell_length_c 30.248084
_cell_angle_alpha 90.000000
_cell_angle_beta 28.997665
_cell_angle_gamma 90.000000
_cell_volume 2665.295950
_symmetry_space_group_name_H-M "C 2/M"
_symmetry_group_IT_number 12
_symmetry_cell_setting 'monoclinic'
loop_
_space_group_symop_operation_xyz
x,y,z
-x,y,-z
-x,-y,-z
x,-y,z
1/2+x,1/2+y,z
1/2-x,1/2+y,-z
1/2-x,1/2-y,-z
1/2+x,1/2-y,z
loop_
_atom_site_type_symbol
_atom_site_label
_atom_site_fract_x
_atom_site_fract_y
_atom_site_fract_z
Si Si1 0.375452 0.319835 0.103109
Si Si2 0.404945 0.676879 0.596259
Si Si3 0.875462 0.328821 0.904481
Si Si4 0.408838 0.828970 0.451508
Si Si5 0.878164 0.670469 0.801359
Si Si6 0.383406 0.328077 0.376654
Si Si7 0.634764 0.319781 0.788902
O O1 0.385705 0.500000 0.097309
O O2 0.240186 0.266870 0.159343
O O3 0.372841 0.259516 0.155516
O O4 0.500000 0.253797 0.000000
O O5 0.500000 0.740347 0.500000
O O6 0.375800 0.500000 0.607192
O O7 0.488640 0.707483 0.590511
O O8 0.264197 0.761317 0.684928
O O9 0.893352 0.500000 0.911533
O O10 0.835136 0.330135 0.877450
O O11 0.008346 0.236896 0.836824
O O12 0.750000 0.250000 0.000000
O O13 0.395867 0.795551 0.407663
O O14 0.260904 0.811311 0.561092
O O15 0.464198 0.000000 0.425283
O O16 0.918156 0.500000 0.762439
O O17 0.002503 0.785698 0.725987
O O18 0.400393 0.500000 0.384191
O O19 0.637788 0.500000 0.786935
#
# Coordination Sequence:
#
# PCOD8106434 Si02
#       7
#     8   8   8   8   8   8   8
#     4   9  18  36  62  90 118 153 202 253 307 373
#     4  11  25  42  61  87 123 167 215 266 317 373
#     4  11  24  42  64  92 127 168 211 261 320 382
#     4  10  21  38  59  85 118 158 203 250 306 368
#     4  10  21  37  61  88 117 156 206 257 309 371
#     4  10  21  36  58  88 119 154 196 251 309 367
#     4  11  23  40  66  95 127 167 210 262 323 389
#
# _framework density 21.010801000000001
#
# number of rings (size 3 to 8) (size 9 to 14) (size 15 to 20)
#    0.000    1.714    0.000    3.857    2.000    7.429 
#    0.000    0.714    0.000    3.000    0.000    0.000 
#    0.000    0.000    0.000    0.000    0.000    0.000 
#
# Total GULP energy -347145.700700 kJ/mol
# GULP energy per Si atom -12398.060739 kJ/mol
# Density = 2.096298 g / cm^3
# Si number density = 21.010801 Si / 1000 Ang^3
#
#
#
# Elastic Constant Matrix: (Units=GPa)
#
#
# Indices 1 2 3 4 5 6 
#
# 1 91.0669 23.8028 30.9205 -0.0133 -13.3341 0.0527
# 2 23.8028 76.1628 47.7781 -0.0065 -8.0939 0.0059
# 3 30.9205 47.7781 141.5933 0.0004 -12.9917 0.0062
# 4 -0.0133 -0.0065 0.0004 35.5532 -0.0035 -1.6311
# 5 -13.3341 -8.0939 -12.9917 -0.0035 33.4029 0.0054
# 6 0.0527 0.0059 0.0062 -1.6311 0.0054 29.5508
#
#
#
# Elastic Compliance Matrix: (Units=1/GPa)
#
#
# Indices 1 2 3 4 5 6 
#
# 1 0.012753 -0.002601 -0.001553 0.000004 0.003856 -0.000022
# 2 -0.002601 0.017305 -0.005166 0.000002 0.001145 0.000002
# 3 -0.001553 -0.005166 0.009305 -0.000001 0.001747 0.000001
# 4 0.000004 0.000002 -0.000001 0.028198 0.000004 0.001556
# 5 0.003856 0.001145 0.001747 0.000004 0.032434 -0.000013
# 6 -0.000022 0.000002 0.000001 0.001556 -0.000013 0.033926
#
#
# Mechanical properties :
#
#
# Convention : Reuss Voigt Hill
#
# Bulk Modulus (GPa) = 48.25845 57.09176 52.67510
# Shear Modulus (GPa) = 31.35369 33.45615 32.40492
#
# Velocity S-wave (km/s) = 3.86718 3.99473 3.93147
# Velocity P-wave (km/s) = 6.55426 6.96482 6.76266
#
# Compressibility (1/GPa) = 0.02072176
#
# Stress axis : x y z
#
# Youngs Moduli (GPa) = 78.41324 57.78565 107.46621
#
# Poissons Ratio (x) = 0.15032 0.16693
# Poissons Ratio (y) = 0.20398 0.55519
# Poissons Ratio (z) = 0.12180 0.29853
#
# Static dielectric constant tensor:
#      x y z
#    x 1.495580 -0.000130 0.278440 
#    y -0.000130 3.669720 0.000020 
#    z 0.278440 0.000020 3.955420 
# 
# 
# High freq. dielectric constant tensor:
#      x y z
#    x 1.821050 0.000000 -0.006950 
#    y 0.000000 1.810330 0.000000 
#    z -0.006950 0.000000 1.836470 
# 
# From -- ./inp_files/380650.got.cif
#   From: 2010.06.25/outbox.cif.g09.slc.cpg/sg12_191_cif.got.tgz:380650.got - 2010.06.28 00:19:55.
