data_PCOD8106125
_publ_section_title
;
Structure prediction by ZEFSAII (Michael W. Deem and Ramdas Pophale) SiO2 
 PCOD8106125
Probable space group: C 2/M
;
_chemical_formula_sum "Si O2"
_cell_formula_units_Z 64
_cell_length_a 9.485048
_cell_length_b 25.349419
_cell_length_c 32.416219
_cell_angle_alpha 90.000000
_cell_angle_beta 152.233273
_cell_angle_gamma 90.000000
_cell_volume 3631.092530
_symmetry_space_group_name_H-M "C 2/M"
_symmetry_group_IT_number 12
_symmetry_cell_setting 'monoclinic'
loop_
_space_group_symop_operation_xyz
x,y,z
-x,y,-z
-x,-y,-z
x,-y,z
1/2+x,1/2+y,z
1/2-x,1/2+y,-z
1/2-x,1/2-y,-z
1/2+x,1/2-y,z
loop_
_atom_site_type_symbol
_atom_site_label
_atom_site_fract_x
_atom_site_fract_y
_atom_site_fract_z
Si Si1 0.165406 0.688699 0.893912
Si Si2 0.859424 0.561701 0.673875
Si Si3 0.167310 0.562295 0.502516
Si Si4 0.247536 0.124004 0.839810
Si Si5 0.663593 0.561656 0.000887
Si Si6 0.672955 0.061755 0.667853
Si Si7 0.759058 0.126090 0.841007
Si Si8 0.829407 0.191765 0.103968
O O1 0.089257 0.648740 0.837029
O O2 0.117588 0.748733 0.866903
O O3 0.909189 0.674085 0.860598
O O4 0.500000 0.681396 0.000000
O O5 0.898823 0.500000 0.695439
O O6 0.514326 0.580600 0.589537
O O7 0.971664 0.572303 0.656410
O O8 0.038281 0.597669 0.752265
O O9 0.153677 0.500000 0.501487
O O10 0.000000 0.586091 0.500000
O O11 0.007688 0.581102 0.419165
O O12 0.113824 0.147657 0.846952
O O13 0.973611 0.097121 0.744507
O O14 0.487645 0.077746 0.909551
O O15 0.636698 0.500000 0.992058
O O16 0.507244 0.583652 0.919412
O O17 0.500000 0.583553 0.000000
O O18 0.760022 0.000000 0.687727
O O19 0.922414 0.178141 0.865965
O O20 0.500000 0.185439 0.000000
#
# Coordination Sequence:
#
# PCOD8106125 Si02
#       8
#     8   8   8   8   8   8   8   8
#     4  11  22  38  56  77 108 149 193 242 287 317
#     4  10  21  36  55  81 116 150 180 221 273 330
#     4   9  19  35  57  85 110 141 184 226 266 320
#     4  12  20  37  53  82 109 148 187 225 280 333
#     4  11  22  35  50  76 115 154 187 221 270 327
#     4  10  21  36  55  81 116 150 180 221 273 330
#     4  12  20  37  53  82 109 148 187 225 280 333
#     4  11  22  36  58  79 108 143 191 248 279 319
#
# _framework density 17.625547999999998
#
# number of rings (size 3 to 8) (size 9 to 14) (size 15 to 20)
#    0.000    1.250    5.000    1.875    1.750    3.500 
#    0.000    0.625    0.000    0.000    0.000    5.250 
#    0.000    0.000    0.000    0.000    0.000    0.000 
#
# Total GULP energy -396745.408596 kJ/mol
# GULP energy per Si atom -12398.294019 kJ/mol
# Density = 1.758543 g / cm^3
# Si number density = 17.625548 Si / 1000 Ang^3
#
#
#
# Elastic Constant Matrix: (Units=GPa)
#
#
# Indices 1 2 3 4 5 6 
#
# 1 84.7048 28.8229 49.2904 0.0166 -3.9431 0.0065
# 2 28.8229 76.9976 45.9748 -0.0087 -3.3114 -0.0076
# 3 49.2904 45.9748 137.2074 0.1517 -3.4310 0.1026
# 4 0.0166 -0.0087 0.1517 13.9574 0.0409 -3.5501
# 5 -3.9431 -3.3114 -3.4310 0.0409 32.8290 0.0262
# 6 0.0065 -0.0076 0.1026 -3.5501 0.0262 20.4162
#
#
#
# Elastic Compliance Matrix: (Units=1/GPa)
#
#
# Indices 1 2 3 4 5 6 
#
# 1 0.015533 -0.003066 -0.004526 0.000031 0.001083 0.000021
# 2 -0.003066 0.016879 -0.004533 0.000071 0.000860 0.000041
# 3 -0.004526 -0.004533 0.010435 -0.000130 0.000090 -0.000075
# 4 0.000031 0.000071 -0.000130 0.074964 -0.000106 0.013036
# 5 0.001083 0.000860 0.000090 -0.000106 0.030687 -0.000058
# 6 0.000021 0.000041 -0.000075 0.013036 -0.000058 0.051248
#
#
# Mechanical properties :
#
#
# Convention : Reuss Voigt Hill
#
# Bulk Modulus (GPa) = 53.76842 60.78735 57.27788
# Shear Modulus (GPa) = 21.72076 25.09528 23.40802
#
# Velocity S-wave (km/s) = 3.51429 3.77742 3.64823
# Velocity P-wave (km/s) = 6.85851 7.32040 7.09322
#
# Compressibility (1/GPa) = 0.01859828
#
# Stress axis : x y z
#
# Youngs Moduli (GPa) = 64.37956 59.24676 95.82767
#
# Poissons Ratio (x) = 0.18163 0.43370
# Poissons Ratio (y) = 0.19736 0.43438
# Poissons Ratio (z) = 0.29137 0.26856
#
# Static dielectric constant tensor:
#      x y z
#    x 3.467760 -0.000030 -0.035480 
#    y -0.000030 3.111080 -0.000070 
#    z -0.035480 -0.000070 3.166120 
# 
# 
# High freq. dielectric constant tensor:
#      x y z
#    x 1.697300 0.000000 -0.002680 
#    y 0.000000 1.668540 -0.000010 
#    z -0.002680 -0.000010 1.666390 
# 
# From -- ./inp_files/199809.got.cif
#   From: 2010.06.25/outbox.cif.g09.slc.cpg/sg12_100_cif.got.tgz:199809.got - 2010.06.28 00:19:55.
