data_PCOD8106801
_publ_section_title
;
Structure prediction by ZEFSAII (Michael W. Deem and Ramdas Pophale) SiO2 
 PCOD8106801
Probable space group: C 2/M
;
_chemical_formula_sum "Si O2"
_cell_formula_units_Z 32
_cell_length_a 24.427664
_cell_length_b 10.511523
_cell_length_c 11.285120
_cell_angle_alpha 90.000000
_cell_angle_beta 144.710454
_cell_angle_gamma 90.000000
_cell_volume 1674.027838
_symmetry_space_group_name_H-M "C 2/M"
_symmetry_group_IT_number 12
_symmetry_cell_setting 'monoclinic'
loop_
_space_group_symop_operation_xyz
x,y,z
-x,y,-z
-x,-y,-z
x,-y,z
1/2+x,1/2+y,z
1/2-x,1/2+y,-z
1/2-x,1/2-y,-z
1/2+x,1/2-y,z
loop_
_atom_site_type_symbol
_atom_site_label
_atom_site_fract_x
_atom_site_fract_y
_atom_site_fract_z
Si Si1 0.034153 0.148229 0.934086
Si Si2 0.700835 0.767297 0.093814
Si Si3 0.640071 0.859950 0.748312
Si Si4 0.897245 0.142728 0.478248
O O1 0.952034 0.176950 0.694647
O O2 0.056997 0.000000 0.983728
O O3 0.131381 0.217732 0.072254
O O4 0.000000 0.202412 0.000000
O O5 0.751732 0.652060 0.110611
O O6 0.783635 0.851559 0.301874
O O7 0.640713 0.847403 0.891606
O O8 0.575578 0.748934 0.573511
O O9 0.600285 0.000000 0.645098
O O10 0.924221 0.000000 0.482199
#
# Coordination Sequence:
#
# PCOD8106801 Si02
#       4
#     8   8   8   8
#     4  10  21  37  56  80 109 148 193 228 264 323
#     4   9  19  32  58  79 113 139 179 225 273 320
#     4   9  18  34  57  83 113 145 177 220 280 334
#     4   9  19  35  57  84 111 142 184 227 273 324
#
# _framework density 19.115572
#
# number of rings (size 3 to 8) (size 9 to 14) (size 15 to 20)
#    1.500    1.250    0.000    1.500    0.000    3.000 
#    0.000    6.250    0.000    5.250    0.000    0.000 
#    0.000    0.000    0.000    0.000    0.000    0.000 
#
# Total GULP energy -198219.244327 kJ/mol
# GULP energy per Si atom -12388.702770 kJ/mol
# Density = 1.907206 g / cm^3
# Si number density = 19.115572 Si / 1000 Ang^3
#
#
#
# Elastic Constant Matrix: (Units=GPa)
#
#
# Indices 1 2 3 4 5 6 
#
# 1 90.3332 8.7185 6.1686 0.0000 -6.6218 0.0000
# 2 8.7185 101.5636 20.9852 0.0000 -4.0411 0.0000
# 3 6.1686 20.9852 74.5162 0.0000 4.8353 0.0000
# 4 0.0000 0.0000 0.0000 16.8373 0.0000 -7.0339
# 5 -6.6218 -4.0411 4.8353 0.0000 16.8740 0.0000
# 6 0.0000 0.0000 0.0000 -7.0339 0.0000 16.0904
#
#
#
# Elastic Compliance Matrix: (Units=1/GPa)
#
#
# Indices 1 2 3 4 5 6 
#
# 1 0.011546 -0.000577 -0.001099 0.000000 0.004708 0.000000
# 2 -0.000577 0.010679 -0.003170 0.000000 0.003240 0.000000
# 3 -0.001099 -0.003170 0.014755 0.000000 -0.005419 0.000000
# 4 0.000000 0.000000 0.000000 0.072662 0.000000 0.031764
# 5 0.004708 0.003240 -0.005419 0.000000 0.063439 0.000000
# 6 0.000000 0.000000 0.000000 0.031764 0.000000 0.076035
#
#
# Mechanical properties :
#
#
# Convention : Reuss Voigt Hill
#
# Bulk Modulus (GPa) = 36.64438 37.57308 37.10873
# Shear Modulus (GPa) = 18.66342 25.32970 21.99656
#
# Velocity S-wave (km/s) = 3.12804 3.64412 3.39590
# Velocity P-wave (km/s) = 5.67959 6.11592 5.90179
#
# Compressibility (1/GPa) = 0.02728931
#
# Stress axis : x y z
#
# Youngs Moduli (GPa) = 86.61069 93.63768 67.77263
#
# Poissons Ratio (x) = 0.05401 0.07447
# Poissons Ratio (y) = 0.04996 0.21484
# Poissons Ratio (z) = 0.09517 0.29683
#
# Static dielectric constant tensor:
#      x y z
#    x 3.187840 0.000000 0.016990 
#    y 0.000000 3.294430 0.000000 
#    z 0.016990 0.000000 3.368550 
# 
# 
# High freq. dielectric constant tensor:
#      x y z
#    x 1.718790 0.000000 0.012040 
#    y 0.000000 1.729420 0.000000 
#    z 0.012040 0.000000 1.740010 
# 
# From -- ./inp_files/93942.got.cif
#   From: 2010.06.25/outbox.cif.g09.slc.cpg/sg12_47_cif.got.tgz:93942.got - 2010.06.28 00:19:55.
