data_PCOD8106854
_publ_section_title
;
Structure prediction by ZEFSAII (Michael W. Deem and Ramdas Pophale) SiO2 
 PCOD8106854
Probable space group: C 2/M
;
_chemical_formula_sum "Si O2"
_cell_formula_units_Z 32
_cell_length_a 5.116378
_cell_length_b 26.267583
_cell_length_c 10.163830
_cell_angle_alpha 90.000000
_cell_angle_beta 103.068037
_cell_angle_gamma 90.000000
_cell_volume 1330.591293
_symmetry_space_group_name_H-M "C 2/M"
_symmetry_group_IT_number 12
_symmetry_cell_setting 'monoclinic'
loop_
_space_group_symop_operation_xyz
x,y,z
-x,y,-z
-x,-y,-z
x,-y,z
1/2+x,1/2+y,z
1/2-x,1/2+y,-z
1/2-x,1/2-y,-z
1/2+x,1/2-y,z
loop_
_atom_site_type_symbol
_atom_site_label
_atom_site_fract_x
_atom_site_fract_y
_atom_site_fract_z
Si Si1 0.464621 0.942002 0.854659
Si Si2 0.406022 0.441898 0.690690
Si Si3 0.038982 0.216881 0.150787
Si Si4 0.286223 0.659399 0.577826
O O1 0.738527 0.937776 0.805995
O O2 0.206923 0.919939 0.748695
O O3 0.379753 0.000000 0.872377
O O4 0.500000 0.914181 0.000000
O O5 0.396411 0.500000 0.633851
O O6 0.282233 0.402651 0.570822
O O7 0.253646 0.262616 0.168974
O O8 0.146936 0.174773 0.264669
O O9 0.000000 0.192829 0.000000
O O10 0.500000 0.682527 0.500000
O O11 0.000000 0.681074 0.500000
#
# Coordination Sequence:
#
# PCOD8106854 Si02
#       4
#     8   8   8   8
#     4   9  17  31  53  81 114 157 210 263 312 360
#     4  10  21  37  56  84 126 172 215 258 305 364
#     4  10  23  45  71  98 128 163 205 258 323 388
#     4  12  26  42  64  97 131 168 215 261 313 374
#
# _framework density 24.049458999999999
#
# number of rings (size 3 to 8) (size 9 to 14) (size 15 to 20)
#    0.000    1.750    0.000    3.750    0.000    9.000 
#    0.000    2.500    0.000    0.000    0.000    0.000 
#    0.000    0.000    0.000    0.000    0.000    0.000 
#
# Total GULP energy -198373.120016 kJ/mol
# GULP energy per Si atom -12398.320001 kJ/mol
# Density = 2.399472 g / cm^3
# Si number density = 24.049459 Si / 1000 Ang^3
#
#
#
# Elastic Constant Matrix: (Units=GPa)
#
#
# Indices 1 2 3 4 5 6 
#
# 1 132.4649 10.9512 41.7805 0.0000 9.2823 0.0000
# 2 10.9512 51.4967 36.0835 0.0000 4.1717 0.0000
# 3 41.7805 36.0835 138.9841 0.0000 7.8390 0.0000
# 4 0.0000 0.0000 0.0000 26.3795 0.0000 3.7407
# 5 9.2823 4.1717 7.8390 0.0000 37.6089 0.0000
# 6 0.0000 0.0000 0.0000 3.7407 0.0000 16.5083
#
#
#
# Elastic Compliance Matrix: (Units=1/GPa)
#
#
# Indices 1 2 3 4 5 6 
#
# 1 0.008431 0.000059 -0.002461 0.000000 -0.001574 0.000000
# 2 0.000059 0.023807 -0.006121 0.000000 -0.001380 0.000000
# 3 -0.002461 -0.006121 0.009564 0.000000 -0.000707 0.000000
# 4 0.000000 0.000000 0.000000 0.039167 0.000000 -0.008875
# 5 -0.001574 -0.001380 -0.000707 0.000000 0.027278 0.000000
# 6 0.000000 0.000000 0.000000 -0.008875 0.000000 0.062587
#
#
# Mechanical properties :
#
#
# Convention : Reuss Voigt Hill
#
# Bulk Modulus (GPa) = 40.39413 55.61957 48.00685
# Shear Modulus (GPa) = 25.49329 31.70807 28.60068
#
# Velocity S-wave (km/s) = 3.25935 3.63499 3.45228
# Velocity P-wave (km/s) = 5.56752 6.38709 5.99133
#
# Compressibility (1/GPa) = 0.02475607
#
# Stress axis : x y z
#
# Youngs Moduli (GPa) = 118.61255 42.00508 104.56080
#
# Poissons Ratio (x) = -0.00248 0.25732
# Poissons Ratio (y) = -0.00700 0.63998
# Poissons Ratio (z) = 0.29190 0.25710
#
# Static dielectric constant tensor:
#      x y z
#    x 4.456690 0.000000 0.115430 
#    y 0.000000 3.903480 0.000000 
#    z 0.115430 0.000000 4.257750 
# 
# 
# High freq. dielectric constant tensor:
#      x y z
#    x 1.973080 0.000000 0.000690 
#    y 0.000000 1.918380 0.000000 
#    z 0.000690 0.000000 1.953600 
# 
# From -- ./inp_files/34496.got.cif
#   From: 2010.06.25/outbox.cif.g09.slc.cpg/sg12_18_cif.got.tgz:34496.got - 2010.06.28 00:19:55.
