data_PCOD8106513
_publ_section_title
;
Structure prediction by ZEFSAII (Michael W. Deem and Ramdas Pophale) SiO2 
 PCOD8106513
Probable space group: C 2/M
;
_chemical_formula_sum "Si O2"
_cell_formula_units_Z 56
_cell_length_a 18.753501
_cell_length_b 14.194129
_cell_length_c 21.641741
_cell_angle_alpha 90.000000
_cell_angle_beta 30.510434
_cell_angle_gamma 90.000000
_cell_volume 2924.734251
_symmetry_space_group_name_H-M "C 2/M"
_symmetry_group_IT_number 12
_symmetry_cell_setting 'monoclinic'
loop_
_space_group_symop_operation_xyz
x,y,z
-x,y,-z
-x,-y,-z
x,-y,z
1/2+x,1/2+y,z
1/2-x,1/2+y,-z
1/2-x,1/2-y,-z
1/2+x,1/2-y,z
loop_
_atom_site_type_symbol
_atom_site_label
_atom_site_fract_x
_atom_site_fract_y
_atom_site_fract_z
Si Si1 0.627305 0.243497 0.640380
Si Si2 0.562486 0.392456 0.793415
Si Si3 0.643618 0.240457 0.024733
Si Si4 0.149263 0.893349 0.862051
Si Si5 0.148584 0.249012 0.232525
Si Si6 0.612587 0.891089 0.756205
Si Si7 0.381262 0.391211 0.636552
O O1 0.750000 0.250000 0.500000
O O2 0.620005 0.334877 0.691072
O O3 0.481208 0.225285 0.714562
O O4 0.665269 0.151884 0.652340
O O5 0.532200 0.500000 0.795186
O O6 0.666481 0.389435 0.774553
O O7 0.423535 0.344743 0.926128
O O8 0.723529 0.209439 0.903565
O O9 0.750000 0.250000 0.000000
O O10 0.529235 0.160009 0.118790
O O11 0.289130 0.840838 0.780730
O O12 0.158748 0.000000 0.879296
O O13 0.000000 0.850882 0.000000
O O14 0.099686 0.169258 0.316267
O O15 0.727940 0.873406 0.722769
O O16 0.581696 0.000000 0.769319
O O17 0.500000 0.358496 0.500000
O O18 0.403595 0.500000 0.637787
#
# Coordination Sequence:
#
# PCOD8106513 Si02
#       7
#     8   8   8   8   8   8   8
#     4  11  24  41  60  86 117 156 206 247 292 348
#     4  10  21  39  61  85 121 160 194 238 295 356
#     4  11  21  38  55  94 123 153 193 240 305 358
#     4  10  21  36  59  90 121 155 190 232 294 360
#     4  12  22  36  63  91 118 156 197 248 298 352
#     4  10  22  40  61  84 120 158 193 246 300 350
#     4  10  23  42  62  86 118 161 206 245 293 350
#
# _framework density 19.147038999999999
#
# number of rings (size 3 to 8) (size 9 to 14) (size 15 to 20)
#    0.000    1.429    4.286    2.571    0.000    2.857 
#    0.000    1.429    0.000    2.143    0.000    0.000 
#    0.000    0.000    0.000    0.000    0.000    0.000 
#
# Total GULP energy -347073.571514 kJ/mol
# GULP energy per Si atom -12395.484697 kJ/mol
# Density = 1.910346 g / cm^3
# Si number density = 19.147039 Si / 1000 Ang^3
#
#
#
# Elastic Constant Matrix: (Units=GPa)
#
#
# Indices 1 2 3 4 5 6 
#
# 1 78.3650 38.6521 15.4583 -0.0003 9.4339 0.0003
# 2 38.6521 109.7906 30.8769 0.0027 3.5325 0.0006
# 3 15.4583 30.8769 105.5539 0.0047 17.8258 0.0009
# 4 -0.0003 0.0027 0.0047 23.5746 -0.0012 3.4240
# 5 9.4339 3.5325 17.8258 -0.0012 32.1655 -0.0003
# 6 0.0003 0.0006 0.0009 3.4240 -0.0003 23.6684
#
#
#
# Elastic Compliance Matrix: (Units=1/GPa)
#
#
# Indices 1 2 3 4 5 6 
#
# 1 0.015958 -0.005473 -0.000052 0.000001 -0.004051 0.000000
# 2 -0.005473 0.011811 -0.002985 -0.000001 0.001962 0.000000
# 3 -0.000052 -0.002985 0.011360 -0.000002 -0.005952 0.000000
# 4 0.000001 -0.000001 -0.000002 0.043329 0.000003 -0.006268
# 5 -0.004051 0.001962 -0.005952 0.000003 0.035361 0.000000
# 6 0.000000 0.000000 0.000000 -0.006268 0.000000 0.043157
#
#
# Mechanical properties :
#
#
# Convention : Reuss Voigt Hill
#
# Bulk Modulus (GPa) = 45.22996 51.52046 48.37521
# Shear Modulus (GPa) = 26.97362 29.79649 28.38505
#
# Velocity S-wave (km/s) = 3.75742 3.94914 3.85447
# Velocity P-wave (km/s) = 6.51905 6.91090 6.71783
#
# Compressibility (1/GPa) = 0.02210924
#
# Stress axis : x y z
#
# Youngs Moduli (GPa) = 62.66364 84.66375 88.02926
#
# Poissons Ratio (x) = 0.46338 0.00458
# Poissons Ratio (y) = 0.34297 0.26276
# Poissons Ratio (z) = 0.00326 0.25272
#
# Static dielectric constant tensor:
#      x y z
#    x 3.711300 0.000530 0.092880 
#    y 0.000530 54.827930 -0.006360 
#    z 0.092880 -0.006360 3.488910 
# 
# 
# High freq. dielectric constant tensor:
#      x y z
#    x 1.761210 0.000000 0.005510 
#    y 0.000000 1.740630 0.000000 
#    z 0.005510 0.000000 1.740100 
# 
# From -- ./inp_files/316704.got.cif
#   From: 2010.06.25/outbox.cif.g09.slc.cpg/sg12_159_cif.got.tgz:316704.got - 2010.06.28 00:19:55.
