data_PCOD8106118
_publ_section_title
;
Structure prediction by ZEFSAII (Michael W. Deem and Ramdas Pophale) SiO2 
 PCOD8106118
Probable space group: C 2/M
;
_chemical_formula_sum "Si O2"
_cell_formula_units_Z 64
_cell_length_a 19.295775
_cell_length_b 8.978947
_cell_length_c 19.380962
_cell_angle_alpha 90.000000
_cell_angle_beta 85.791277
_cell_angle_gamma 90.000000
_cell_volume 3348.807837
_symmetry_space_group_name_H-M "C 2/M"
_symmetry_group_IT_number 12
_symmetry_cell_setting 'monoclinic'
loop_
_space_group_symop_operation_xyz
x,y,z
-x,y,-z
-x,-y,-z
x,-y,z
1/2+x,1/2+y,z
1/2-x,1/2+y,-z
1/2-x,1/2-y,-z
1/2+x,1/2-y,z
loop_
_atom_site_type_symbol
_atom_site_label
_atom_site_fract_x
_atom_site_fract_y
_atom_site_fract_z
Si Si1 0.494847 0.325406 0.201239
Si Si2 0.362325 0.824600 0.828436
Si Si3 0.772151 0.172817 0.726595
Si Si4 0.197103 0.330533 0.407079
Si Si5 0.823199 0.674836 0.984752
Si Si6 0.329756 0.169651 0.445323
Si Si7 0.560790 0.326706 0.943126
Si Si8 0.113656 0.668762 0.699057
O O1 0.509258 0.500000 0.202661
O O2 0.567417 0.242939 0.207931
O O3 0.462104 0.276612 0.130969
O O4 0.441469 0.281157 0.264857
O O5 0.296006 0.759582 0.792977
O O6 0.363638 0.000000 0.818457
O O7 0.355533 0.778686 0.908854
O O8 0.818668 0.226501 0.657531
O O9 0.691335 0.208990 0.719235
O O10 0.786058 0.000000 0.736880
O O11 0.195431 0.500000 0.380752
O O12 0.272470 0.293150 0.432499
O O13 0.144491 0.307642 0.476774
O O14 0.813569 0.500000 0.991691
O O15 0.872230 0.731105 0.042420
O O16 0.750000 0.750000 0.000000
O O17 0.390846 0.187808 0.384057
O O18 0.299317 0.000000 0.439500
O O19 0.580388 0.500000 0.945207
O O20 0.500000 0.285788 0.000000
O O21 0.095064 0.500000 0.722266
#
# Coordination Sequence:
#
# PCOD8106118 Si02
#       8
#     8   8   8   8   8   8   8   8
#     4  11  23  38  59  83 110 146 186 228 276 328
#     4  11  24  41  59  81 110 146 187 228 273 331
#     4  10  21  36  55  81 114 149 185 227 279 332
#     4   9  15  26  48  77 108 143 183 227 273 324
#     4  11  25  41  61  87 114 144 182 228 277 328
#     4   8  15  28  47  74 109 146 183 224 274 325
#     4  10  21  40  62  83 110 145 184 227 274 327
#     4   9  19  35  54  81 114 147 184 226 273 325
#
# _framework density 19.111277999999999
#
# number of rings (size 3 to 8) (size 9 to 14) (size 15 to 20)
#    0.000    2.125    1.250    2.625    1.750    5.750 
#    0.000    0.000    0.000    0.750    0.000    5.250 
#    0.000    0.000    0.000    0.000    0.000    0.000 
#
# Total GULP energy -396732.678325 kJ/mol
# GULP energy per Si atom -12397.896198 kJ/mol
# Density = 1.906778 g / cm^3
# Si number density = 19.111278 Si / 1000 Ang^3
#
#
#
# Elastic Constant Matrix: (Units=GPa)
#
#
# Indices 1 2 3 4 5 6 
#
# 1 69.1229 31.6385 19.1100 0.0000 -10.7814 0.0000
# 2 31.6385 70.8420 28.7952 0.0000 -6.8500 0.0000
# 3 19.1100 28.7952 54.4183 0.0000 -19.3432 0.0000
# 4 0.0000 0.0000 0.0000 33.7497 0.0000 0.2274
# 5 -10.7814 -6.8500 -19.3432 0.0000 24.9622 0.0000
# 6 0.0000 0.0000 0.0000 0.2274 0.0000 31.4432
#
#
#
# Elastic Compliance Matrix: (Units=1/GPa)
#
#
# Indices 1 2 3 4 5 6 
#
# 1 0.019045 -0.007716 -0.000598 0.000000 0.005644 0.000000
# 2 -0.007716 0.021318 -0.010594 0.000000 -0.005692 0.000000
# 3 -0.000598 -0.010594 0.031836 0.000000 0.021504 0.000000
# 4 0.000000 0.000000 0.000000 0.029631 0.000000 -0.000214
# 5 0.005644 -0.005692 0.021504 0.000000 0.057600 0.000000
# 6 0.000000 0.000000 0.000000 -0.000214 0.000000 0.031805
#
#
# Mechanical properties :
#
#
# Convention : Reuss Voigt Hill
#
# Bulk Modulus (GPa) = 29.08593 39.27450 34.18022
# Shear Modulus (GPa) = 20.78902 25.68698 23.23800
#
# Velocity S-wave (km/s) = 3.30174 3.67014 3.49080
# Velocity P-wave (km/s) = 5.45780 6.20926 5.84562
#
# Compressibility (1/GPa) = 0.03438088
#
# Stress axis : x y z
#
# Youngs Moduli (GPa) = 52.50793 46.90923 31.41146
#
# Poissons Ratio (x) = 0.36197 0.01880
# Poissons Ratio (y) = 0.40518 0.33276
# Poissons Ratio (z) = 0.03142 0.49694
#
# Static dielectric constant tensor:
#      x y z
#    x 2.741270 0.000000 -0.162980 
#    y 0.000000 3.495290 0.000000 
#    z -0.162980 0.000000 3.904310 
# 
# 
# High freq. dielectric constant tensor:
#      x y z
#    x 1.704500 0.000000 -0.009480 
#    y 0.000000 1.750680 0.000000 
#    z -0.009480 0.000000 1.758610 
# 
# From -- ./inp_files/281347.got.cif
#   From: 2010.06.25/outbox.cif.g09.slc.cpg/sg12_141_cif.got.tgz:281347.got - 2010.06.28 00:19:55.
