data_PCOD8106552
_publ_section_title
;
Structure prediction by ZEFSAII (Michael W. Deem and Ramdas Pophale) SiO2 
 PCOD8106552
Probable space group: C 2/M
;
_chemical_formula_sum "Si O2"
_cell_formula_units_Z 56
_cell_length_a 23.069321
_cell_length_b 14.180507
_cell_length_c 18.259618
_cell_angle_alpha 90.000000
_cell_angle_beta 30.128179
_cell_angle_gamma 90.000000
_cell_volume 2998.242477
_symmetry_space_group_name_H-M "C 2/M"
_symmetry_group_IT_number 12
_symmetry_cell_setting 'monoclinic'
loop_
_space_group_symop_operation_xyz
x,y,z
-x,y,-z
-x,-y,-z
x,-y,z
1/2+x,1/2+y,z
1/2-x,1/2+y,-z
1/2-x,1/2-y,-z
1/2+x,1/2-y,z
loop_
_atom_site_type_symbol
_atom_site_label
_atom_site_fract_x
_atom_site_fract_y
_atom_site_fract_z
Si Si1 0.016906 0.241532 0.660750
Si Si2 0.304670 0.739666 0.111420
Si Si3 0.247642 0.801638 0.326920
Si Si4 0.458822 0.799760 0.204562
Si Si5 0.485681 0.000000 0.897269
Si Si6 0.812501 0.891124 0.858010
Si Si7 0.688068 0.000000 0.791528
Si Si8 0.668872 0.892136 0.161193
O O1 0.123796 0.229461 0.490341
O O2 0.062134 0.254238 0.693744
O O3 0.937211 0.148797 0.744814
O O4 0.948936 0.333444 0.707351
O O5 0.284507 0.733426 0.220303
O O6 0.238326 0.831682 0.153483
O O7 0.257167 0.644981 0.126126
O O8 0.441494 0.745058 0.948209
O O9 0.340325 0.792028 0.290030
O O10 0.236909 0.908075 0.308148
O O11 0.498841 0.908697 0.170771
O O12 0.576499 0.000000 0.862678
O O13 0.358007 0.000000 0.073914
O O14 0.826919 0.000000 0.819726
O O15 0.725068 0.877674 0.020578
O O16 0.640286 0.000000 0.209597
#
# Coordination Sequence:
#
# PCOD8106552 Si02
#       8
#     8   8   8   8   4   8   4   8
#     4  11  22  39  58  87 119 157 194 238 302 354
#     4  11  20  37  61  88 114 152 195 241 297 345
#     4  11  24  35  56  89 130 153 186 236 304 363
#     4  11  20  37  60  87 120 160 195 236 283 360
#     4   9  18  30  58  87 110 155 201 227 272 338
#     4  10  21  36  60  88 112 148 196 248 295 350
#     4   9  18  34  50  86 125 153 180 227 293 355
#     4  10  21  40  64  83 104 151 210 255 282 330
#
# _framework density 18.677609
#
# number of rings (size 3 to 8) (size 9 to 14) (size 15 to 20)
#    0.000    1.571    4.286    1.714    4.000    2.286 
#    0.000    2.143    0.000    3.429    0.000    0.000 
#    0.000    0.000    0.000    0.000    0.000    0.000 
#
# Total GULP energy -347267.275153 kJ/mol
# GULP energy per Si atom -12402.402684 kJ/mol
# Density = 1.863510 g / cm^3
# Si number density = 18.677609 Si / 1000 Ang^3
#
#
#
# Elastic Constant Matrix: (Units=GPa)
#
#
# Indices 1 2 3 4 5 6 
#
# 1 37.1614 18.6368 9.6566 0.0000 -5.7041 0.0000
# 2 18.6368 96.0504 43.9071 0.0000 -7.0108 0.0000
# 3 9.6566 43.9071 113.0796 0.0000 -2.1632 0.0000
# 4 0.0000 0.0000 0.0000 23.5713 0.0000 -2.8198
# 5 -5.7041 -7.0108 -2.1632 0.0000 28.5663 0.0000
# 6 0.0000 0.0000 0.0000 -2.8198 0.0000 20.4968
#
#
#
# Elastic Compliance Matrix: (Units=1/GPa)
#
#
# Indices 1 2 3 4 5 6 
#
# 1 0.030437 -0.005366 -0.000425 0.000000 0.004728 0.000000
# 2 -0.005366 0.013822 -0.004871 0.000000 0.001952 0.000000
# 3 -0.000425 -0.004871 0.010762 0.000000 -0.000465 0.000000
# 4 0.000000 0.000000 0.000000 0.043134 0.000000 0.005934
# 5 0.004728 0.001952 -0.000465 0.000000 0.036394 0.000000
# 6 0.000000 0.000000 0.000000 0.005934 0.000000 0.049604
#
#
# Mechanical properties :
#
#
# Convention : Reuss Voigt Hill
#
# Bulk Modulus (GPa) = 29.67727 43.41024 36.54375
# Shear Modulus (GPa) = 23.07221 26.13293 24.60257
#
# Velocity S-wave (km/s) = 3.51848 3.74459 3.63329
# Velocity P-wave (km/s) = 5.69473 6.47983 6.09993
#
# Compressibility (1/GPa) = 0.03369582
#
# Stress axis : x y z
#
# Youngs Moduli (GPa) = 32.85457 72.35050 92.91854
#
# Poissons Ratio (x) = 0.38825 0.03950
# Poissons Ratio (y) = 0.17631 0.45262
# Poissons Ratio (z) = 0.01397 0.35243
#
# Static dielectric constant tensor:
#      x y z
#    x 3.455090 0.000000 -0.052540 
#    y 0.000000 3.489360 0.000000 
#    z -0.052540 0.000000 3.270190 
# 
# 
# High freq. dielectric constant tensor:
#      x y z
#    x 1.733830 0.000000 -0.005420 
#    y 0.000000 1.713270 0.000000 
#    z -0.005420 0.000000 1.715360 
# 
# From -- ./inp_files/284548.got.cif
#   From: 2010.06.25/outbox.cif.g09.slc.cpg/sg12_143_cif.got.tgz:284548.got - 2010.06.28 00:19:55.
