data_PCOD8106687
_publ_section_title
;
Structure prediction by ZEFSAII (Michael W. Deem and Ramdas Pophale) SiO2 
 PCOD8106687
Probable space group: C 2/M
;
_chemical_formula_sum "Si O2"
_cell_formula_units_Z 56
_cell_length_a 28.655912
_cell_length_b 9.001840
_cell_length_c 20.060465
_cell_angle_alpha 90.000000
_cell_angle_beta 146.747295
_cell_angle_gamma 90.000000
_cell_volume 2837.466054
_symmetry_space_group_name_H-M "C 2/M"
_symmetry_group_IT_number 12
_symmetry_cell_setting 'monoclinic'
loop_
_space_group_symop_operation_xyz
x,y,z
-x,y,-z
-x,-y,-z
x,-y,z
1/2+x,1/2+y,z
1/2-x,1/2+y,-z
1/2-x,1/2-y,-z
1/2+x,1/2-y,z
loop_
_atom_site_type_symbol
_atom_site_label
_atom_site_fract_x
_atom_site_fract_y
_atom_site_fract_z
Si Si1 0.551112 0.830115 0.237772
Si Si2 0.382425 0.176370 0.538165
Si Si3 0.078177 0.175325 0.545332
Si Si4 0.333537 0.671640 0.125212
Si Si5 0.613354 0.668859 0.953106
Si Si6 0.302154 0.823097 0.214946
Si Si7 0.770548 0.326354 0.593608
O O1 0.578695 0.774427 0.344396
O O2 0.466943 0.749494 0.109512
O O3 0.627305 0.805969 0.274996
O O4 0.526007 0.000000 0.214072
O O5 0.438485 0.252427 0.547015
O O6 0.285716 0.243008 0.417546
O O7 0.379403 0.000000 0.525126
O O8 0.163483 0.252414 0.675953
O O9 0.000000 0.214437 0.500000
O O10 0.091477 0.000000 0.554081
O O11 0.316469 0.500000 0.122327
O O12 0.399110 0.686160 0.142107
O O13 0.361499 0.756900 0.225877
O O14 0.250000 0.750000 0.000000
O O15 0.608775 0.500000 0.970090
O O16 0.704476 0.730897 0.087495
O O17 0.310452 0.000000 0.225195
O O18 0.746609 0.500000 0.562775
O O19 0.750000 0.250000 0.500000
#
# Coordination Sequence:
#
# PCOD8106687 Si02
#       7
#     8   8   8   8   8   8   8
#     4   9  19  32  52  84 114 140 175 217 268 324
#     4  10  21  37  56  81 110 145 183 222 272 325
#     4  11  25  41  57  79 106 143 186 227 269 320
#     4   9  17  30  47  71 100 135 177 219 264 316
#     4   9  19  32  50  77 107 139 175 217 270 320
#     4  10  21  37  54  74 103 142 183 225 270 321
#     4   9  17  32  53  80 111 143 179 222 271 324
#
# _framework density 19.735918999999999
#
# number of rings (size 3 to 8) (size 9 to 14) (size 15 to 20)
#    0.000    2.429    0.000    3.857    2.000    8.000 
#    0.000    0.000    0.000    0.857    0.000    6.000 
#    0.000    0.000    0.000    0.000    0.000    0.000 
#
# Total GULP energy -346990.210095 kJ/mol
# GULP energy per Si atom -12392.507503 kJ/mol
# Density = 1.969100 g / cm^3
# Si number density = 19.735919 Si / 1000 Ang^3
#
#
#
# Elastic Constant Matrix: (Units=GPa)
#
#
# Indices 1 2 3 4 5 6 
#
# 1 71.0334 34.5679 19.2230 0.0000 16.8881 0.0000
# 2 34.5679 91.3905 26.0698 0.0000 15.7278 0.0000
# 3 19.2230 26.0698 64.8417 0.0000 15.8089 0.0000
# 4 0.0000 0.0000 0.0000 27.5662 0.0000 1.3253
# 5 16.8881 15.7278 15.8089 0.0000 28.0861 0.0000
# 6 0.0000 0.0000 0.0000 1.3253 0.0000 34.4305
#
#
#
# Elastic Compliance Matrix: (Units=1/GPa)
#
#
# Indices 1 2 3 4 5 6 
#
# 1 0.018918 -0.005415 -0.001620 0.000000 -0.007432 0.000000
# 2 -0.005415 0.014489 -0.003519 0.000000 -0.002877 0.000000
# 3 -0.001620 -0.003519 0.019239 0.000000 -0.007885 0.000000
# 4 0.000000 0.000000 0.000000 0.036344 0.000000 -0.001399
# 5 -0.007432 -0.002877 -0.007885 0.000000 0.046123 0.000000
# 6 0.000000 0.000000 0.000000 -0.001399 0.000000 0.029098
#
#
# Mechanical properties :
#
#
# Convention : Reuss Voigt Hill
#
# Bulk Modulus (GPa) = 31.70504 42.99854 37.35179
# Shear Modulus (GPa) = 25.53233 27.84356 26.68794
#
# Velocity S-wave (km/s) = 3.60070 3.76015 3.68129
# Velocity P-wave (km/s) = 5.77809 6.37854 6.08573
#
# Compressibility (1/GPa) = 0.03154072
#
# Stress axis : x y z
#
# Youngs Moduli (GPa) = 52.85960 69.01795 51.97657
#
# Poissons Ratio (x) = 0.37371 0.08418
# Poissons Ratio (y) = 0.28622 0.18289
# Poissons Ratio (z) = 0.08561 0.24285
#
# Static dielectric constant tensor:
#      x y z
#    x 3.807760 0.000000 0.193450 
#    y 0.000000 3.653560 0.000000 
#    z 0.193450 0.000000 3.486200 
# 
# 
# High freq. dielectric constant tensor:
#      x y z
#    x 1.752420 0.000000 0.020370 
#    y 0.000000 1.777120 0.000000 
#    z 0.020370 0.000000 1.747370 
# 
# From -- ./inp_files/329663.got.cif
#   From: 2010.06.25/outbox.cif.g09.slc.cpg/sg12_165_cif.got.tgz:329663.got - 2010.06.28 00:19:55.
