data_PCOD8106446
_publ_section_title
;
Structure prediction by ZEFSAII (Michael W. Deem and Ramdas Pophale) SiO2 
 PCOD8106446
Probable space group: C 2/M
;
_chemical_formula_sum "Si O2"
_cell_formula_units_Z 44
_cell_length_a 28.791891
_cell_length_b 10.226091
_cell_length_c 7.873116
_cell_angle_alpha 90.000000
_cell_angle_beta 68.558375
_cell_angle_gamma 90.000000
_cell_volume 2157.637244
_symmetry_space_group_name_H-M "C 2/M"
_symmetry_group_IT_number 12
_symmetry_cell_setting 'monoclinic'
loop_
_space_group_symop_operation_xyz
x,y,z
-x,y,-z
-x,-y,-z
x,-y,z
1/2+x,1/2+y,z
1/2-x,1/2+y,-z
1/2-x,1/2-y,-z
1/2+x,1/2-y,z
loop_
_atom_site_type_symbol
_atom_site_label
_atom_site_fract_x
_atom_site_fract_y
_atom_site_fract_z
Si Si1 0.716980 0.646536 0.331391
Si Si2 0.299013 0.650318 0.250146
Si Si3 0.500000 0.217549 0.000000
Si Si4 0.037525 0.644191 0.598935
Si Si5 0.904496 0.849148 0.990511
Si Si6 0.607631 0.649311 0.376787
O O1 0.737806 0.500000 0.266638
O O2 0.702469 0.659499 0.546433
O O3 0.756875 0.756318 0.223979
O O4 0.666964 0.671753 0.290432
O O5 0.290585 0.500000 0.199244
O O6 0.351911 0.711768 0.121444
O O7 0.490496 0.133896 0.182370
O O8 0.549289 0.302401 0.960778
O O9 0.059804 0.500000 0.530922
O O10 0.081589 0.751738 0.543917
O O11 0.000000 0.685678 0.500000
O O12 0.914142 0.819724 0.779948
O O13 0.898726 0.000000 0.035310
O O14 0.595625 0.500000 0.448906
#
# Coordination Sequence:
#
# PCOD8106446 Si02
#       6
#     8   8   4   8   8   8
#     4   9  18  34  56  81 113 151 194 245 295 349
#     4   9  18  34  54  80 114 151 195 243 295 352
#     4  12  22  40  64  88 117 164 203 246 297 360
#     4  11  24  42  61  87 122 158 198 247 299 356
#     4  10  21  36  58  89 120 155 201 252 298 351
#     4  10  21  39  61  88 120 155 199 249 298 353
#
# _framework density 20.392679000000001
#
# number of rings (size 3 to 8) (size 9 to 14) (size 15 to 20)
#    0.000    2.000    1.818    1.636    0.000    4.727 
#    0.000    6.364    0.000    0.000    0.000    0.000 
#    0.000    0.000    0.000    0.000    0.000    0.000 
#
# Total GULP energy -272754.762711 kJ/mol
# GULP energy per Si atom -12397.943760 kJ/mol
# Density = 2.034626 g / cm^3
# Si number density = 20.392679 Si / 1000 Ang^3
#
#
#
# Elastic Constant Matrix: (Units=GPa)
#
#
# Indices 1 2 3 4 5 6 
#
# 1 109.8823 62.6817 38.6478 0.0000 -9.1008 0.0000
# 2 62.6817 104.1338 48.0512 0.0000 -21.3821 0.0000
# 3 38.6478 48.0512 73.0701 0.0000 -17.4674 0.0000
# 4 0.0000 0.0000 0.0000 20.1660 0.0000 -15.4283
# 5 -9.1008 -21.3821 -17.4674 0.0000 34.6557 0.0000
# 6 0.0000 0.0000 0.0000 -15.4283 0.0000 13.2597
#
#
#
# Elastic Compliance Matrix: (Units=1/GPa)
#
#
# Indices 1 2 3 4 5 6 
#
# 1 0.014418 -0.007760 -0.003141 0.000000 -0.002585 0.000000
# 2 -0.007760 0.018602 -0.006676 0.000000 0.006074 0.000000
# 3 -0.003141 -0.006676 0.021097 0.000000 0.005690 0.000000
# 4 0.000000 0.000000 0.000000 0.451577 0.000000 0.525431
# 5 -0.002585 0.006074 0.005690 0.000000 0.034792 0.000000
# 6 0.000000 0.000000 0.000000 0.525431 0.000000 0.686780
#
#
# Mechanical properties :
#
#
# Convention : Reuss Voigt Hill
#
# Bulk Modulus (GPa) = 52.73430 65.09417 58.91424
# Shear Modulus (GPa) = 3.94091 22.79665 13.36878
#
# Velocity S-wave (km/s) = 1.39166 3.34710 2.56318
# Velocity P-wave (km/s) = 5.33834 6.85034 6.14105
#
# Compressibility (1/GPa) = 0.01896299
#
# Stress axis : x y z
#
# Youngs Moduli (GPa) = 69.35798 53.75732 47.40005
#
# Poissons Ratio (x) = 0.41717 0.14886
# Poissons Ratio (y) = 0.53823 0.31646
# Poissons Ratio (z) = 0.21782 0.35890
#
# Static dielectric constant tensor:
#      x y z
#    x 3.733230 0.000000 -0.008610 
#    y 0.000000 3.637980 0.000000 
#    z -0.008610 0.000000 3.597660 
# 
# 
# High freq. dielectric constant tensor:
#      x y z
#    x 1.798230 0.000000 0.004100 
#    y 0.000000 1.785670 0.000000 
#    z 0.004100 0.000000 1.794630 
# 
# From -- ./inp_files/94833.got.cif
#   From: 2010.06.25/outbox.cif.g09.slc.cpg/sg12_48_cif.got.tgz:94833.got - 2010.06.28 00:19:55.
