data_PCOD8106746
_publ_section_title
;
Structure prediction by ZEFSAII (Michael W. Deem and Ramdas Pophale) SiO2 
 PCOD8106746
Probable space group: C 2/M
;
_chemical_formula_sum "Si O2"
_cell_formula_units_Z 56
_cell_length_a 18.202683
_cell_length_b 8.341608
_cell_length_c 20.152511
_cell_angle_alpha 90.000000
_cell_angle_beta 62.998797
_cell_angle_gamma 90.000000
_cell_volume 2726.406369
_symmetry_space_group_name_H-M "C 2/M"
_symmetry_group_IT_number 12
_symmetry_cell_setting 'monoclinic'
loop_
_space_group_symop_operation_xyz
x,y,z
-x,y,-z
-x,-y,-z
x,-y,z
1/2+x,1/2+y,z
1/2-x,1/2+y,-z
1/2-x,1/2-y,-z
1/2+x,1/2-y,z
loop_
_atom_site_type_symbol
_atom_site_label
_atom_site_fract_x
_atom_site_fract_y
_atom_site_fract_z
Si Si1 0.747331 0.813344 0.855038
Si Si2 0.275851 0.686766 0.278401
Si Si3 0.593677 0.186162 0.141673
Si Si4 0.627760 0.310309 0.417349
Si Si5 0.462348 0.689827 0.416191
Si Si6 0.438999 0.312844 0.280234
Si Si7 0.415397 0.190255 0.004717
O O1 0.749706 0.786559 0.775599
O O2 0.818506 0.712423 0.860723
O O3 0.660784 0.748980 0.919603
O O4 0.761092 0.000000 0.865056
O O5 0.281808 0.500000 0.257693
O O6 0.208823 0.714458 0.363140
O O7 0.362933 0.757278 0.269062
O O8 0.524693 0.283422 0.208853
O O9 0.570230 0.000000 0.153162
O O10 0.596479 0.251663 0.065372
O O11 0.642249 0.500000 0.404559
O O12 0.607149 0.261087 0.501754
O O13 0.552457 0.250421 0.402018
O O14 0.467085 0.500000 0.410388
O O15 0.440963 0.765523 0.353160
O O16 0.423978 0.500000 0.294654
O O17 0.418779 0.000000 0.005199
O O18 0.500000 0.262569 0.000000
#
# Coordination Sequence:
#
# PCOD8106746 Si02
#       7
#     8   8   8   8   8   8   8
#     4  11  22  38  60  81 108 149 189 224 273 334
#     4  11  23  36  52  80 115 146 183 234 281 321
#     4  11  22  37  59  86 114 142 182 233 274 318
#     4   9  17  33  58  81 103 140 188 229 272 332
#     4   8  16  33  56  79 103 139 187 230 269 324
#     4  10  21  37  55  78 113 152 186 224 275 331
#     4   9  19  36  58  84 113 145 182 224 269 320
#
# _framework density 20.539857000000001
#
# number of rings (size 3 to 8) (size 9 to 14) (size 15 to 20)
#    0.000    2.143    0.000    4.286    0.000    4.000 
#    0.000    4.286    0.000    5.143    0.000    0.000 
#    0.000    0.000    0.000    0.000    0.000    0.000 
#
# Total GULP energy -347255.238427 kJ/mol
# GULP energy per Si atom -12401.972801 kJ/mol
# Density = 2.049311 g / cm^3
# Si number density = 20.539857 Si / 1000 Ang^3
#
#
#
# Elastic Constant Matrix: (Units=GPa)
#
#
# Indices 1 2 3 4 5 6 
#
# 1 137.9497 6.1216 59.9092 0.0000 -3.2910 -0.0002
# 2 6.1216 20.0898 4.3343 0.0000 4.6003 -0.0009
# 3 59.9092 4.3343 135.8884 0.0000 -4.1511 0.0000
# 4 0.0000 0.0000 0.0000 25.4059 0.0001 -4.6271
# 5 -3.2910 4.6003 -4.1511 0.0001 38.5692 0.0000
# 6 -0.0002 -0.0009 0.0000 -4.6271 0.0000 12.9377
#
#
#
# Elastic Compliance Matrix: (Units=1/GPa)
#
#
# Indices 1 2 3 4 5 6 
#
# 1 0.009051 -0.002052 -0.003907 0.000000 0.000597 0.000000
# 2 -0.002052 0.052094 -0.000955 0.000001 -0.006491 0.000004
# 3 -0.003907 -0.000955 0.009135 0.000000 0.000764 0.000000
# 4 0.000000 0.000001 0.000000 0.042103 0.000000 0.015058
# 5 0.000597 -0.006491 0.000764 0.000000 0.026835 -0.000001
# 6 0.000000 0.000004 0.000000 0.015058 -0.000001 0.082679
#
#
# Mechanical properties :
#
#
# Convention : Reuss Voigt Hill
#
# Bulk Modulus (GPa) = 17.71385 48.29535 33.00460
# Shear Modulus (GPa) = 19.64312 30.28675 24.96494
#
# Velocity S-wave (km/s) = 3.09583 3.84413 3.49010
# Velocity P-wave (km/s) = 4.62836 6.57778 5.68722
#
# Compressibility (1/GPa) = 0.05645299
#
# Stress axis : x y z
#
# Youngs Moduli (GPa) = 110.48668 19.19593 109.46797
#
# Poissons Ratio (x) = 0.03938 0.42765
# Poissons Ratio (y) = 0.22668 0.10458
# Poissons Ratio (z) = 0.43163 0.01834
#
# Static dielectric constant tensor:
#      x y z
#    x 3.949120 0.000000 0.162090 
#    y 0.000000 3.253590 0.000000 
#    z 0.162090 0.000000 3.907500 
# 
# 
# High freq. dielectric constant tensor:
#      x y z
#    x 1.810840 0.000000 0.001480 
#    y 0.000000 1.768270 0.000000 
#    z 0.001480 0.000000 1.818230 
# 
# From -- ./inp_files/313765.got.cif
#   From: 2010.06.25/outbox.cif.g09.slc.cpg/sg12_157_cif.got.tgz:313765.got - 2010.06.28 00:19:55.
