data_PCOD8106519
_publ_section_title
;
Structure prediction by ZEFSAII (Michael W. Deem and Ramdas Pophale) SiO2 
 PCOD8106519
Probable space group: C 2/M
;
_chemical_formula_sum "Si O2"
_cell_formula_units_Z 60
_cell_length_a 9.351606
_cell_length_b 23.257014
_cell_length_c 20.144638
_cell_angle_alpha 90.000000
_cell_angle_beta 137.181907
_cell_angle_gamma 90.000000
_cell_volume 2977.828082
_symmetry_space_group_name_H-M "C 2/M"
_symmetry_group_IT_number 12
_symmetry_cell_setting 'monoclinic'
loop_
_space_group_symop_operation_xyz
x,y,z
-x,y,-z
-x,-y,-z
x,-y,z
1/2+x,1/2+y,z
1/2-x,1/2+y,-z
1/2-x,1/2-y,-z
1/2+x,1/2-y,z
loop_
_atom_site_type_symbol
_atom_site_label
_atom_site_fract_x
_atom_site_fract_y
_atom_site_fract_z
Si Si1 0.222357 0.065775 0.540584
Si Si2 0.875332 0.171792 0.578521
Si Si3 0.142456 0.622592 0.903174
Si Si4 0.154576 0.226048 0.106514
Si Si5 0.000000 0.748724 0.500000
Si Si6 0.198663 0.841132 0.799568
Si Si7 0.476515 0.368560 0.124183
Si Si8 0.114201 0.564527 0.763016
O O1 0.238635 0.114971 0.489760
O O2 0.395986 0.082178 0.654365
O O3 0.000000 0.070752 0.500000
O O4 0.253992 0.000000 0.523665
O O5 0.707659 0.208450 0.565208
O O6 0.993156 0.210673 0.562912
O O7 0.054830 0.146529 0.687377
O O8 0.210908 0.676673 0.882424
O O9 0.094917 0.571115 0.836044
O O10 0.935097 0.638037 0.872091
O O11 0.324189 0.603342 0.016515
O O12 0.308743 0.272786 0.190118
O O13 0.011913 0.198348 0.116538
O O14 0.000000 0.255979 0.000000
O O15 0.118055 0.875664 0.835555
O O16 0.700680 0.398265 0.204344
O O17 0.171954 0.500000 0.765491
#
# Coordination Sequence:
#
# PCOD8106519 Si02
#       8
#     8   8   8   8   4   8   8   8
#     4  10  21  42  70  93 120 159 215 275 314 369
#     4  11  25  41  63  93 129 170 209 263 320 389
#     4  10  21  36  59  90 125 161 204 253 300 366
#     4   9  19  35  56  84 122 164 206 242 291 362
#     4  10  26  42  60  90 138 166 208 256 334 382
#     4  12  23  34  60  88 124 170 199 251 302 369
#     4  10  22  37  57  91 128 159 202 254 302 367
#     4  10  22  41  69  90 111 159 211 258 314 370
#
# _framework density 20.148914000000001
#
# number of rings (size 3 to 8) (size 9 to 14) (size 15 to 20)
#    0.000    1.733    0.667    4.000    5.600    5.333 
#    0.000    1.667    0.000    1.600    0.000    0.000 
#    0.000    0.000    0.000    0.000    0.000    0.000 
#
# Total GULP energy -371949.076996 kJ/mol
# GULP energy per Si atom -12398.302567 kJ/mol
# Density = 2.010305 g / cm^3
# Si number density = 20.148914 Si / 1000 Ang^3
#
#
#
# Elastic Constant Matrix: (Units=GPa)
#
#
# Indices 1 2 3 4 5 6 
#
# 1 118.9084 19.6045 37.4374 0.0005 3.5126 -0.0007
# 2 19.6045 71.7067 40.1645 -0.0002 -3.5596 0.0003
# 3 37.4374 40.1645 141.6854 -0.0006 1.6327 0.0010
# 4 0.0005 -0.0002 -0.0006 115.4778 0.0000 -128.3843
# 5 3.5126 -3.5596 1.6327 0.0000 32.1617 0.0000
# 6 -0.0007 0.0003 0.0010 -128.3843 0.0000 194.6257
#
#
#
# Elastic Compliance Matrix: (Units=1/GPa)
#
#
# Indices 1 2 3 4 5 6 
#
# 1 0.009324 -0.001462 -0.002037 0.000000 -0.001077 0.000000
# 2 -0.001462 0.016947 -0.004444 0.000000 0.002261 0.000000
# 3 -0.002037 -0.004444 0.008864 0.000000 -0.000719 0.000000
# 4 0.000000 0.000000 0.000000 0.032479 0.000000 0.021424
# 5 -0.001077 0.002261 -0.000719 0.000000 0.031497 0.000000
# 6 0.000000 0.000000 0.000000 0.021424 0.000000 0.019271
#
#
# Mechanical properties :
#
#
# Convention : Reuss Voigt Hill
#
# Bulk Modulus (GPa) = 51.94835 58.52368 55.23601
# Shear Modulus (GPa) = 35.54098 84.12597 59.83347
#
# Velocity S-wave (km/s) = 4.20446 6.46860 5.45528
# Velocity P-wave (km/s) = 7.02909 9.21406 8.19473
#
# Compressibility (1/GPa) = 0.01924989
#
# Stress axis : x y z
#
# Youngs Moduli (GPa) = 107.25090 59.00886 112.81463
#
# Poissons Ratio (x) = 0.08625 0.22979
# Poissons Ratio (y) = 0.15677 0.50133
# Poissons Ratio (z) = 0.21846 0.26222
#
# Static dielectric constant tensor:
#      x y z
#    x 3.741790 0.000000 -0.029380 
#    y 0.000000 3.659310 0.000000 
#    z -0.029380 0.000000 3.747470 
# 
# 
# High freq. dielectric constant tensor:
#      x y z
#    x 1.788450 0.000000 0.005620 
#    y 0.000000 1.769180 0.000000 
#    z 0.005620 0.000000 1.795150 
# 
# From -- ./inp_files/302467.got.cif
#   From: 2010.06.25/outbox.cif.g09.slc.cpg/sg12_152_cif.got.tgz:302467.got - 2010.06.28 00:19:55.
