data_PCOD8106975
_publ_section_title
;
Structure prediction by ZEFSAII (Michael W. Deem and Ramdas Pophale) SiO2 
 PCOD8106975
Probable space group: C 2/M
;
_chemical_formula_sum "Si O2"
_cell_formula_units_Z 48
_cell_length_a 9.341713
_cell_length_b 29.272746
_cell_length_c 8.640247
_cell_angle_alpha 90.000000
_cell_angle_beta 86.239504
_cell_angle_gamma 90.000000
_cell_volume 2357.653980
_symmetry_space_group_name_H-M "C 2/M"
_symmetry_group_IT_number 12
_symmetry_cell_setting 'monoclinic'
loop_
_space_group_symop_operation_xyz
x,y,z
-x,y,-z
-x,-y,-z
x,-y,z
1/2+x,1/2+y,z
1/2-x,1/2+y,-z
1/2-x,1/2-y,-z
1/2+x,1/2-y,z
loop_
_atom_site_type_symbol
_atom_site_label
_atom_site_fract_x
_atom_site_fract_y
_atom_site_fract_z
Si Si1 0.763519 0.384329 0.826188
Si Si2 0.939645 0.365614 0.333078
Si Si3 0.117124 0.731641 0.607666
Si Si4 0.058806 0.053067 0.661658
Si Si5 0.969645 0.187347 0.172749
Si Si6 0.680926 0.395225 0.179134
O O1 0.702777 0.420545 0.704845
O O2 0.684641 0.336291 0.806447
O O3 0.930698 0.374457 0.793651
O O4 0.738389 0.401481 0.001780
O O5 0.860808 0.316260 0.304115
O O6 0.811015 0.399814 0.293278
O O7 0.000000 0.375681 0.500000
O O8 0.250000 0.750000 0.500000
O O9 0.038681 0.769755 0.714341
O O10 0.000000 0.712971 0.500000
O O11 0.000000 0.070718 0.500000
O O12 0.929963 0.063225 0.790355
O O13 0.096999 0.000000 0.654927
O O14 0.094164 0.152167 0.211621
O O15 0.000000 0.206755 0.000000
#
# Coordination Sequence:
#
# PCOD8106975 Si02
#       6
#     8   8   8   8   8   8
#     4  10  21  37  57  84 114 147 187 229 283 336
#     4  11  22  36  54  80 115 152 187 233 284 329
#     4  11  22  35  52  78 110 149 195 236 277 326
#     4  10  21  39  64  90 113 142 181 226 278 339
#     4   9  19  35  54  77 107 147 191 234 276 325
#     4  10  21  37  58  82 112 148 187 231 279 336
#
# _framework density 20.359221999999999
#
# number of rings (size 3 to 8) (size 9 to 14) (size 15 to 20)
#    0.000    1.833    0.000    6.000    0.000    6.667 
#    0.000    5.000    0.000    5.000    0.000    0.000 
#    0.000    0.000    0.000    0.000    0.000    0.000 
#
# Total GULP energy -297436.770496 kJ/mol
# GULP energy per Si atom -12393.198771 kJ/mol
# Density = 2.031288 g / cm^3
# Si number density = 20.359222 Si / 1000 Ang^3
#
#
#
# Elastic Constant Matrix: (Units=GPa)
#
#
# Indices 1 2 3 4 5 6 
#
# 1 109.8019 11.1075 17.9519 0.0000 -7.6140 0.0000
# 2 11.1075 57.8733 21.9213 0.0000 -3.4267 0.0000
# 3 17.9519 21.9213 81.8605 0.0000 -3.5994 0.0000
# 4 0.0000 0.0000 0.0000 9.4273 0.0000 10.6065
# 5 -7.6140 -3.4267 -3.5994 0.0000 40.3815 0.0000
# 6 0.0000 0.0000 0.0000 10.6065 0.0000 13.6470
#
#
#
# Elastic Compliance Matrix: (Units=1/GPa)
#
#
# Indices 1 2 3 4 5 6 
#
# 1 0.009612 -0.001090 -0.001747 0.000000 0.001564 0.000000
# 2 -0.001090 0.019409 -0.004914 0.000000 0.001003 0.000000
# 3 -0.001747 -0.004914 0.013937 0.000000 0.000496 0.000000
# 4 0.000000 0.000000 0.000000 0.844720 0.000000 -0.656522
# 5 0.001564 0.001003 0.000496 0.000000 0.025188 0.000000
# 6 0.000000 0.000000 0.000000 -0.656522 0.000000 0.583530
#
#
# Mechanical properties :
#
#
# Convention : Reuss Voigt Hill
#
# Bulk Modulus (GPa) = 36.42428 39.05522 37.73975
# Shear Modulus (GPa) = 3.28720 25.92817 14.60769
#
# Velocity S-wave (km/s) = 1.27205 3.57253 2.68152
# Velocity P-wave (km/s) = 4.48186 6.02014 5.30703
#
# Compressibility (1/GPa) = 0.02745422
#
# Stress axis : x y z
#
# Youngs Moduli (GPa) = 104.03983 51.52182 71.75232
#
# Poissons Ratio (x) = 0.05618 0.12536
# Poissons Ratio (y) = 0.11344 0.35261
# Poissons Ratio (z) = 0.18176 0.25320
#
# Static dielectric constant tensor:
#      x y z
#    x 3.748620 0.000000 0.037860 
#    y 0.000000 3.362260 0.000000 
#    z 0.037860 0.000000 3.798260 
# 
# 
# High freq. dielectric constant tensor:
#      x y z
#    x 1.804420 0.000000 0.000080 
#    y 0.000000 1.769000 0.000000 
#    z 0.000080 0.000000 1.803160 
# 
# From -- ./inp_files/42245.got.cif
#   From: 2010.06.25/outbox.cif.g09.slc.cpg/sg12_22_cif.got.tgz:42245.got - 2010.06.28 00:19:55.
