data_PCOD8106340
_publ_section_title
;
Structure prediction by ZEFSAII (Michael W. Deem and Ramdas Pophale) SiO2 
 PCOD8106340
Probable space group: C 2/M
;
_chemical_formula_sum "Si O2"
_cell_formula_units_Z 56
_cell_length_a 14.006598
_cell_length_b 16.891171
_cell_length_c 17.990329
_cell_angle_alpha 90.000000
_cell_angle_beta 42.124104
_cell_angle_gamma 90.000000
_cell_volume 2854.860529
_symmetry_space_group_name_H-M "C 2/M"
_symmetry_group_IT_number 12
_symmetry_cell_setting 'monoclinic'
loop_
_space_group_symop_operation_xyz
x,y,z
-x,y,-z
-x,-y,-z
x,-y,z
1/2+x,1/2+y,z
1/2-x,1/2+y,-z
1/2-x,1/2-y,-z
1/2+x,1/2-y,z
loop_
_atom_site_type_symbol
_atom_site_label
_atom_site_fract_x
_atom_site_fract_y
_atom_site_fract_z
Si Si1 0.835292 0.826379 0.929052
Si Si2 0.879958 0.691802 0.413792
Si Si3 0.694498 0.800812 0.281859
Si Si4 0.840838 0.414952 0.567306
Si Si5 0.162826 0.090622 0.921133
Si Si6 0.572361 0.791798 0.782097
Si Si7 0.590797 0.907714 0.019175
O O1 0.992497 0.794333 0.818449
O O2 0.750000 0.750000 0.000000
O O3 0.823008 0.891343 0.000674
O O4 0.750552 0.872135 0.911710
O O5 0.750000 0.750000 0.500000
O O6 0.836967 0.613195 0.483861
O O7 0.890014 0.674235 0.320609
O O8 0.029905 0.724085 0.362616
O O9 0.726085 0.852260 0.337471
O O10 0.742138 0.849610 0.181909
O O11 0.790217 0.723037 0.243754
O O12 0.759989 0.500000 0.618413
O O13 0.000000 0.428858 0.500000
O O14 0.207935 0.000000 0.878013
O O15 0.000000 0.107487 0.000000
O O16 0.476687 0.860262 0.872943
O O17 0.594001 0.000000 0.036703
O O18 0.500000 0.888902 0.000000
#
# Coordination Sequence:
#
# PCOD8106340 Si02
#       7
#     8   8   8   8   8   8   8
#     4  10  21  36  57  86 118 157 199 239 286 357
#     4  11  23  39  58  89 116 153 203 247 303 351
#     4  11  21  37  62  88 122 157 193 250 299 362
#     4   9  19  37  60  85 114 148 192 246 302 354
#     4  11  22  36  58  91 126 154 191 243 306 368
#     4  11  23  36  62  89 116 158 204 245 301 358
#     4  10  23  40  59  86 121 162 203 242 286 350
#
# _framework density 19.615669
#
# number of rings (size 3 to 8) (size 9 to 14) (size 15 to 20)
#    0.000    1.571    2.857    2.571    6.000    1.143 
#    0.000    0.000    0.000    0.857    0.000    2.000 
#    0.000    0.000    0.000    0.000    0.000    0.000 
#
# Total GULP energy -346925.443992 kJ/mol
# GULP energy per Si atom -12390.194428 kJ/mol
# Density = 1.957102 g / cm^3
# Si number density = 19.615669 Si / 1000 Ang^3
#
#
#
# Elastic Constant Matrix: (Units=GPa)
#
#
# Indices 1 2 3 4 5 6 
#
# 1 104.8152 48.3571 25.4942 0.0000 -8.8982 0.0000
# 2 48.3571 72.7388 24.7581 -0.0001 -2.3463 0.0000
# 3 25.4942 24.7581 67.1972 -0.0003 7.6337 0.0000
# 4 0.0000 -0.0001 -0.0003 21.2225 0.0001 -0.2303
# 5 -8.8982 -2.3463 7.6337 0.0001 38.2393 0.0000
# 6 0.0000 0.0000 0.0000 -0.2303 0.0000 6.6372
#
#
#
# Elastic Compliance Matrix: (Units=1/GPa)
#
#
# Indices 1 2 3 4 5 6 
#
# 1 0.014438 -0.008570 -0.002704 0.000000 0.003374 0.000000
# 2 -0.008570 0.020983 -0.004502 0.000000 0.000192 0.000000
# 3 -0.002704 -0.004502 0.018079 0.000000 -0.004514 0.000000
# 4 0.000000 0.000000 0.000000 0.047138 0.000000 0.001636
# 5 0.003374 0.000192 -0.004514 0.000000 0.027849 0.000000
# 6 0.000000 0.000000 0.000000 0.001636 0.000000 0.150722
#
#
# Mechanical properties :
#
#
# Convention : Reuss Voigt Hill
#
# Bulk Modulus (GPa) = 45.55692 49.10777 47.33234
# Shear Modulus (GPa) = 15.71955 22.96260 19.34107
#
# Velocity S-wave (km/s) = 2.83393 3.42515 3.14347
# Velocity P-wave (km/s) = 5.82953 6.38213 6.11208
#
# Compressibility (1/GPa) = 0.02195056
#
# Stress axis : x y z
#
# Youngs Moduli (GPa) = 69.26057 47.65685 55.31352
#
# Poissons Ratio (x) = 0.40840 0.14955
# Poissons Ratio (y) = 0.59353 0.24900
# Poissons Ratio (z) = 0.18726 0.21454
#
# Static dielectric constant tensor:
#      x y z
#    x 3.686980 0.000000 -0.333050 
#    y 0.000000 3.819130 0.000000 
#    z -0.333050 0.000000 3.278840 
# 
# 
# High freq. dielectric constant tensor:
#      x y z
#    x 1.776920 0.000000 -0.001960 
#    y 0.000000 1.751720 0.000000 
#    z -0.001960 0.000000 1.753850 
# 
# From -- ./inp_files/271402.got.cif
#   From: 2010.06.25/outbox.cif.g09.slc.cpg/sg12_136_cif.got.tgz:271402.got - 2010.06.28 00:19:55.
