data_PCOD8106163
_publ_section_title
;
Structure prediction by ZEFSAII (Michael W. Deem and Ramdas Pophale) SiO2 
 PCOD8106163
Probable space group: C 2/M
;
_chemical_formula_sum "Si O2"
_cell_formula_units_Z 48
_cell_length_a 20.546567
_cell_length_b 17.921371
_cell_length_c 20.073855
_cell_angle_alpha 90.000000
_cell_angle_beta 159.597942
_cell_angle_gamma 90.000000
_cell_volume 2576.770752
_symmetry_space_group_name_H-M "C 2/M"
_symmetry_group_IT_number 12
_symmetry_cell_setting 'monoclinic'
loop_
_space_group_symop_operation_xyz
x,y,z
-x,y,-z
-x,-y,-z
x,-y,z
1/2+x,1/2+y,z
1/2-x,1/2+y,-z
1/2-x,1/2-y,-z
1/2+x,1/2-y,z
loop_
_atom_site_type_symbol
_atom_site_label
_atom_site_fract_x
_atom_site_fract_y
_atom_site_fract_z
Si Si1 0.372693 0.195265 0.262126
Si Si2 0.193770 0.784704 0.222936
Si Si3 0.875096 0.916182 0.614997
Si Si4 0.092224 0.203187 0.883417
Si Si5 0.228590 0.213244 0.573462
Si Si6 0.166532 0.416891 0.553207
O O1 0.351022 0.223970 0.316933
O O2 0.525431 0.246920 0.370064
O O3 0.452962 0.111148 0.343573
O O4 0.169602 0.191972 0.032572
O O5 0.214087 0.714752 0.293315
O O6 0.215664 0.860633 0.287272
O O7 0.000000 0.784566 0.000000
O O8 0.781647 0.871027 0.463707
O O9 0.741423 0.916986 0.550187
O O10 0.068321 0.875912 0.822702
O O11 0.918493 0.000000 0.631843
O O12 0.888397 0.242033 0.685706
O O13 0.250000 0.250000 0.000000
O O14 0.173127 0.500000 0.590299
#
# Coordination Sequence:
#
# PCOD8106163 Si02
#       6
#     8   8   8   8   8   8
#     4  11  21  36  61  86 116 154 202 238 284 344
#     4  11  21  36  58  88 113 154 206 240 282 346
#     4  11  22  38  59  88 121 154 191 241 300 346
#     4  12  21  36  64  88 114 154 195 242 290 345
#     4  11  21  39  60  83 120 150 197 245 285 340
#     4  10  21  36  55  83 124 160 189 234 294 351
#
# _framework density 18.627967999999999
#
# number of rings (size 3 to 8) (size 9 to 14) (size 15 to 20)
#    0.000    1.000    6.667    3.500    0.000    2.333 
#    0.000    0.833    0.000    2.500    0.000    0.000 
#    0.000    0.000    0.000    0.000    0.000    0.000 
#
# Total GULP energy -297421.011138 kJ/mol
# GULP energy per Si atom -12392.542131 kJ/mol
# Density = 1.858557 g / cm^3
# Si number density = 18.627968 Si / 1000 Ang^3
#
#
#
# Elastic Constant Matrix: (Units=GPa)
#
#
# Indices 1 2 3 4 5 6 
#
# 1 96.1581 60.5685 30.5896 0.0538 -1.7998 0.0028
# 2 60.5685 134.9996 61.7762 0.0643 -12.1639 0.0669
# 3 30.5896 61.7762 111.7663 0.0472 -16.5007 0.0197
# 4 0.0538 0.0643 0.0472 18.5724 0.0509 0.4533
# 5 -1.7998 -12.1639 -16.5007 0.0509 38.7051 0.0267
# 6 0.0028 0.0669 0.0197 0.4533 0.0267 24.5889
#
#
#
# Elastic Compliance Matrix: (Units=1/GPa)
#
#
# Indices 1 2 3 4 5 6 
#
# 1 0.014612 -0.006375 -0.000716 -0.000014 -0.001629 0.000018
# 2 -0.006375 0.012722 -0.005059 -0.000016 0.001545 -0.000031
# 3 -0.000716 -0.005059 0.012486 -0.000022 0.003700 0.000000
# 4 -0.000014 -0.000016 -0.000022 0.053868 -0.000085 -0.000993
# 5 -0.001629 0.001545 0.003700 -0.000085 0.027824 -0.000036
# 6 0.000018 -0.000031 0.000000 -0.000993 -0.000036 0.040687
#
#
# Mechanical properties :
#
#
# Convention : Reuss Voigt Hill
#
# Bulk Modulus (GPa) = 64.43377 72.08806 68.26091
# Shear Modulus (GPa) = 26.08626 29.03926 27.56276
#
# Velocity S-wave (km/s) = 3.74623 3.95258 3.85079
# Velocity P-wave (km/s) = 7.30597 7.72097 7.51633
#
# Compressibility (1/GPa) = 0.01551981
#
# Stress axis : x y z
#
# Youngs Moduli (GPa) = 68.43490 78.60543 80.09234
#
# Poissons Ratio (x) = 0.50111 0.05736
# Poissons Ratio (y) = 0.43627 0.40517
# Poissons Ratio (z) = 0.04901 0.39764
#
# Static dielectric constant tensor:
#      x y z
#    x 3.764490 -0.000300 -0.167030 
#    y -0.000300 3.491590 -0.000870 
#    z -0.167030 -0.000870 3.710440 
# 
# 
# High freq. dielectric constant tensor:
#      x y z
#    x 1.736710 -0.000020 -0.003060 
#    y -0.000020 1.685920 -0.000020 
#    z -0.003060 -0.000020 1.733390 
# 
# From -- ./inp_files/322575.got.cif
#   From: 2010.06.25/outbox.cif.g09.slc.cpg/sg12_162_cif.got.tgz:322575.got - 2010.06.28 00:19:55.
