data_PCOD8106461
_publ_section_title
;
Structure prediction by ZEFSAII (Michael W. Deem and Ramdas Pophale) SiO2 
 PCOD8106461
Probable space group: C 2/M
;
_chemical_formula_sum "Si O2"
_cell_formula_units_Z 28
_cell_length_a 20.346483
_cell_length_b 9.942224
_cell_length_c 17.834716
_cell_angle_alpha 90.000000
_cell_angle_beta 162.699589
_cell_angle_gamma 90.000000
_cell_volume 1072.885473
_symmetry_space_group_name_H-M "C 2/M"
_symmetry_group_IT_number 12
_symmetry_cell_setting 'monoclinic'
loop_
_space_group_symop_operation_xyz
x,y,z
-x,y,-z
-x,-y,-z
x,-y,z
1/2+x,1/2+y,z
1/2-x,1/2+y,-z
1/2-x,1/2-y,-z
1/2+x,1/2-y,z
loop_
_atom_site_type_symbol
_atom_site_label
_atom_site_fract_x
_atom_site_fract_y
_atom_site_fract_z
Si Si1 0.524129 0.500000 0.367504
Si Si2 0.289837 0.500000 0.963614
Si Si3 0.259275 0.711143 0.145422
Si Si4 0.209329 0.000000 0.328268
Si Si5 0.000000 0.782305 0.000000
Si Si6 0.036308 0.500000 0.250274
O O1 0.489804 0.630260 0.383888
O O2 0.747238 0.500000 0.565953
O O3 0.309420 0.500000 0.075595
O O4 0.185485 0.365876 0.813155
O O5 0.545780 0.500000 0.219788
O O6 0.161494 0.694804 0.123140
O O7 0.076271 0.642223 0.892805
O O8 0.171351 0.869978 0.235953
O O9 0.438233 0.000000 0.628099
#
# Coordination Sequence:
#
# PCOD8106461 Si02
#       6
#     4   4   8   4   4   4
#     4  10  21  36  58  90 126 161 200 252 312 370
#     4   9  18  35  60  88 115 155 207 251 295 353
#     4  10  21  39  63  89 124 164 202 255 311 364
#     4   8  17  34  60  87 116 160 208 250 295 363
#     4   9  18  35  58  86 122 162 200 244 310 370
#     4  10  22  39  64  94 120 157 212 258 302 364
#
# _framework density 26.097847999999999
#
# number of rings (size 3 to 8) (size 9 to 14) (size 15 to 20)
#    0.000    2.571    0.000    1.714    0.000   12.571 
#    0.000    4.286    0.000   17.143    0.000   54.000 
#    0.000    0.000    0.000    0.000    0.000    0.000 
#
# Total GULP energy -173441.203319 kJ/mol
# GULP energy per Si atom -12388.657380 kJ/mol
# Density = 2.603845 g / cm^3
# Si number density = 26.097848 Si / 1000 Ang^3
#
#
#
# Elastic Constant Matrix: (Units=GPa)
#
#
# Indices 1 2 3 4 5 6 
#
# 1 209.1173 60.1536 26.7726 -0.0149 14.2649 -0.0053
# 2 60.1536 178.9352 31.4975 -0.0218 7.6858 -0.0195
# 3 26.7726 31.4975 88.0007 -0.0092 -15.2573 -0.0145
# 4 -0.0149 -0.0218 -0.0092 8.7555 -0.0070 8.9699
# 5 14.2649 7.6858 -15.2573 -0.0070 41.2949 -0.0090
# 6 -0.0053 -0.0195 -0.0145 8.9699 -0.0090 17.5018
#
#
#
# Elastic Compliance Matrix: (Units=1/GPa)
#
#
# Indices 1 2 3 4 5 6 
#
# 1 0.005562 -0.001504 -0.001537 0.000010 -0.002209 -0.000008
# 2 -0.001504 0.006535 -0.002139 0.000012 -0.001487 -0.000002
# 3 -0.001537 -0.002139 0.013631 -0.000001 0.005965 0.000012
# 4 0.000010 0.000012 -0.000001 0.240486 0.000008 -0.123253
# 5 -0.002209 -0.001487 0.005965 0.000008 0.027460 0.000013
# 6 -0.000008 -0.000002 0.000012 -0.123253 0.000013 0.120306
#
#
# Mechanical properties :
#
#
# Convention : Reuss Voigt Hill
#
# Bulk Modulus (GPa) = 65.07275 79.21120 72.14197
# Shear Modulus (GPa) = 11.64245 37.35241 24.49743
#
# Velocity S-wave (km/s) = 2.11442 3.78728 3.06711
# Velocity P-wave (km/s) = 5.56321 7.03862 6.34395
#
# Compressibility (1/GPa) = 0.01536742
#
# Stress axis : x y z
#
# Youngs Moduli (GPa) = 179.78431 153.02744 73.36275
#
# Poissons Ratio (x) = 0.23023 0.11274
# Poissons Ratio (y) = 0.27048 0.15692
# Poissons Ratio (z) = 0.27628 0.32733
#
# Static dielectric constant tensor:
#      x y z
#    x 5.327130 -0.000010 0.255250 
#    y -0.000010 4.475660 -0.000020 
#    z 0.255250 -0.000020 4.617920 
# 
# 
# High freq. dielectric constant tensor:
#      x y z
#    x 2.091100 0.000000 0.029600 
#    y 0.000000 2.033570 0.000000 
#    z 0.029600 0.000000 2.034900 
# 
# From -- ./inp_files/283502.got.cif
#   From: 2010.06.25/outbox.cif.g09.slc.cpg/sg12_142_cif.got.tgz:283502.got - 2010.06.28 00:19:55.
