data_PCOD8106973
_publ_section_title
;
Structure prediction by ZEFSAII (Michael W. Deem and Ramdas Pophale) SiO2 
 PCOD8106973
Probable space group: C 2/M
;
_chemical_formula_sum "Si O2"
_cell_formula_units_Z 64
_cell_length_a 14.830502
_cell_length_b 12.408100
_cell_length_c 26.103038
_cell_angle_alpha 90.000000
_cell_angle_beta 140.672568
_cell_angle_gamma 90.000000
_cell_volume 3044.185088
_symmetry_space_group_name_H-M "C 2/M"
_symmetry_group_IT_number 12
_symmetry_cell_setting 'monoclinic'
loop_
_space_group_symop_operation_xyz
x,y,z
-x,y,-z
-x,-y,-z
x,-y,z
1/2+x,1/2+y,z
1/2-x,1/2+y,-z
1/2-x,1/2-y,-z
1/2+x,1/2-y,z
loop_
_atom_site_type_symbol
_atom_site_label
_atom_site_fract_x
_atom_site_fract_y
_atom_site_fract_z
Si Si1 0.790786 0.871830 0.583521
Si Si2 0.961746 0.273586 0.580862
Si Si3 0.907293 0.791741 0.888868
Si Si4 0.370867 0.384207 0.404610
Si Si5 0.496413 0.872903 0.144319
Si Si6 0.815387 0.877304 0.953954
Si Si7 0.095218 0.281486 0.290071
Si Si8 0.875037 0.621444 0.262998
O O1 0.876142 0.816698 0.574748
O O2 0.628835 0.828925 0.504641
O O3 0.856193 0.836962 0.667770
O O4 0.798559 0.000000 0.582454
O O5 0.101493 0.212598 0.622216
O O6 0.024372 0.368223 0.643443
O O7 0.951494 0.671902 0.888186
O O8 0.841889 0.795026 0.917931
O O9 0.785673 0.838470 0.797778
O O10 0.050719 0.863770 0.948812
O O11 0.500000 0.388077 0.500000
O O12 0.360483 0.500000 0.371907
O O13 0.220325 0.360803 0.366486
O O14 0.328304 0.851853 0.078134
O O15 0.582705 0.800278 0.223733
O O16 0.533318 0.000000 0.164728
O O17 0.811782 0.000000 0.931302
O O18 0.942566 0.310983 0.246126
O O19 0.871967 0.500000 0.242886
#
# Coordination Sequence:
#
# PCOD8106973 Si02
#       8
#     8   8   8   8   8   8   8   8
#     4  10  21  39  58  81 116 156 199 255 317 368
#     4  10  21  37  57  84 112 151 204 251 308 377
#     4  11  21  38  66 100 129 160 212 263 306 375
#     4  11  21  35  55  79 108 146 197 253 303 359
#     4  11  23  41  66  95 129 173 213 258 316 373
#     4  10  21  41  69  97 132 169 206 257 314 377
#     4  11  22  39  59  85 120 159 208 255 305 373
#     4  11  21  36  62  90 119 158 203 256 311 369
#
# _framework density 21.023688
#
# number of rings (size 3 to 8) (size 9 to 14) (size 15 to 20)
#    0.000    1.375    2.500    4.500    0.000    0.000 
#    0.000    8.750    0.000    3.000    0.000    0.000 
#    0.000    0.000    0.000    0.000    0.000    0.000 
#
# Total GULP energy -396489.336725 kJ/mol
# GULP energy per Si atom -12390.291773 kJ/mol
# Density = 2.097584 g / cm^3
# Si number density = 21.023688 Si / 1000 Ang^3
#
#
#
# Elastic Constant Matrix: (Units=GPa)
#
#
# Indices 1 2 3 4 5 6 
#
# 1 76.3361 43.9667 39.2418 0.0000 5.2363 0.0000
# 2 43.9667 123.6576 52.1530 0.0000 1.5846 0.0000
# 3 39.2418 52.1530 104.6322 0.0000 22.6834 0.0000
# 4 0.0000 0.0000 0.0000 19.6903 0.0000 0.7814
# 5 5.2363 1.5846 22.6834 0.0000 29.4411 0.0000
# 6 0.0000 0.0000 0.0000 0.7814 0.0000 27.1714
#
#
#
# Elastic Compliance Matrix: (Units=1/GPa)
#
#
# Indices 1 2 3 4 5 6 
#
# 1 0.018022 -0.004440 -0.004686 0.000000 0.000644 0.000000
# 2 -0.004440 0.011754 -0.005075 0.000000 0.004067 0.000000
# 3 -0.004686 -0.005075 0.016332 0.000000 -0.011477 0.000000
# 4 0.000000 0.000000 0.000000 0.050844 0.000000 -0.001462
# 5 0.000644 0.004067 -0.011477 0.000000 0.042475 0.000000
# 6 0.000000 0.000000 0.000000 -0.001462 0.000000 0.036845
#
#
# Mechanical properties :
#
#
# Convention : Reuss Voigt Hill
#
# Bulk Modulus (GPa) = 56.47545 63.92766 60.20155
# Shear Modulus (GPa) = 23.74435 26.54484 25.14459
#
# Velocity S-wave (km/s) = 3.36431 3.55719 3.46209
# Velocity P-wave (km/s) = 6.48171 6.88076 6.68421
#
# Compressibility (1/GPa) = 0.01770681
#
# Stress axis : x y z
#
# Youngs Moduli (GPa) = 55.48899 85.07903 61.22787
#
# Poissons Ratio (x) = 0.37773 0.28689
# Poissons Ratio (y) = 0.24636 0.31075
# Poissons Ratio (z) = 0.26000 0.43180
#
# Static dielectric constant tensor:
#      x y z
#    x 3.803710 0.000000 0.249350 
#    y 0.000000 3.706650 0.000000 
#    z 0.249350 0.000000 4.062720 
# 
# 
# High freq. dielectric constant tensor:
#      x y z
#    x 1.809980 0.000000 0.025490 
#    y 0.000000 1.803050 0.000000 
#    z 0.025490 0.000000 1.837900 
# 
# From -- ./inp_files/361060.got.cif
#   From: 2010.06.25/outbox.cif.g09.slc.cpg/sg12_181_cif.got.tgz:361060.got - 2010.06.28 00:19:55.
