data_PCOD8106473
_publ_section_title
;
Structure prediction by ZEFSAII (Michael W. Deem and Ramdas Pophale) SiO2 
 PCOD8106473
Probable space group: C 2/M
;
_chemical_formula_sum "Si O2"
_cell_formula_units_Z 40
_cell_length_a 9.131175
_cell_length_b 22.327103
_cell_length_c 8.610973
_cell_angle_alpha 90.000000
_cell_angle_beta 83.122917
_cell_angle_gamma 90.000000
_cell_volume 1742.911610
_symmetry_space_group_name_H-M "C 2/M"
_symmetry_group_IT_number 12
_symmetry_cell_setting 'monoclinic'
loop_
_space_group_symop_operation_xyz
x,y,z
-x,y,-z
-x,-y,-z
x,-y,z
1/2+x,1/2+y,z
1/2-x,1/2+y,-z
1/2-x,1/2-y,-z
1/2+x,1/2-y,z
loop_
_atom_site_type_symbol
_atom_site_label
_atom_site_fract_x
_atom_site_fract_y
_atom_site_fract_z
Si Si1 0.045760 0.934647 0.656035
Si Si2 0.832254 0.677260 0.363389
Si Si3 0.768163 0.433859 0.176093
Si Si4 0.163089 0.135691 0.910488
Si Si5 0.351562 0.782099 0.702815
O O1 0.159244 0.897898 0.745175
O O2 0.000000 0.901472 0.500000
O O3 0.903237 0.944416 0.777627
O O4 0.115427 0.000000 0.605626
O O5 0.836349 0.608774 0.301591
O O6 0.688343 0.711978 0.315514
O O7 0.823065 0.678500 0.550740
O O8 0.975316 0.713052 0.281377
O O9 0.846384 0.500000 0.164922
O O10 0.772980 0.401840 0.007948
O O11 0.251697 0.196068 0.859654
O O12 0.000000 0.149776 0.000000
#
# Coordination Sequence:
#
# PCOD8106473 Si02
#       5
#     8   8   8   8   8
#     4   9  17  31  56  87 121 165 211 254 301 363
#     4  10  23  43  68  93 122 167 212 267 316 372
#     4  10  21  38  59  89 130 170 208 254 316 381
#     4  10  21  36  58  93 128 167 202 256 314 376
#     4  10  23  43  65  95 124 162 216 264 318 372
#
# _framework density 22.950102000000001
#
# number of rings (size 3 to 8) (size 9 to 14) (size 15 to 20)
#    0.000    2.200    0.000    1.800    5.600    4.000 
#    0.000    6.000    0.000    0.000    0.000    0.000 
#    0.000    0.000    0.000    0.000    0.000    0.000 
#
# Total GULP energy -247852.061586 kJ/mol
# GULP energy per Si atom -12392.603079 kJ/mol
# Density = 2.289787 g / cm^3
# Si number density = 22.950102 Si / 1000 Ang^3
#
#
#
# Elastic Constant Matrix: (Units=GPa)
#
#
# Indices 1 2 3 4 5 6 
#
# 1 61.4583 30.6493 3.3701 0.0000 -9.0333 0.0000
# 2 30.6493 108.1974 36.1223 0.0000 -2.0286 0.0000
# 3 3.3701 36.1223 96.8242 0.0000 4.3694 0.0000
# 4 0.0000 0.0000 0.0000 29.6117 0.0000 -3.6064
# 5 -9.0333 -2.0286 4.3694 0.0000 34.0072 0.0000
# 6 0.0000 0.0000 0.0000 -3.6064 0.0000 17.0785
#
#
#
# Elastic Compliance Matrix: (Units=1/GPa)
#
#
# Indices 1 2 3 4 5 6 
#
# 1 0.019882 -0.005986 0.001327 0.000000 0.004754 0.000000
# 2 -0.005986 0.012404 -0.004406 0.000000 -0.000284 0.000000
# 3 0.001327 -0.004406 0.011991 0.000000 -0.001451 0.000000
# 4 0.000000 0.000000 0.000000 0.034662 0.000000 0.007319
# 5 0.004754 -0.000284 -0.001451 0.000000 0.030838 0.000000
# 6 0.000000 0.000000 0.000000 0.007319 0.000000 0.060099
#
#
# Mechanical properties :
#
#
# Convention : Reuss Voigt Hill
#
# Bulk Modulus (GPa) = 38.24664 45.19590 41.72127
# Shear Modulus (GPa) = 25.41654 29.22869 27.32261
#
# Velocity S-wave (km/s) = 3.33148 3.57259 3.45414
# Velocity P-wave (km/s) = 5.61245 6.06249 5.84180
#
# Compressibility (1/GPa) = 0.02614609
#
# Stress axis : x y z
#
# Youngs Moduli (GPa) = 50.29588 80.62077 83.39462
#
# Poissons Ratio (x) = 0.48259 -0.11063
# Poissons Ratio (y) = 0.30107 0.36746
# Poissons Ratio (z) = -0.06672 0.35524
#
# Static dielectric constant tensor:
#      x y z
#    x 3.796680 0.000000 0.023950 
#    y 0.000000 4.142920 0.000000 
#    z 0.023950 0.000000 4.140710 
# 
# 
# High freq. dielectric constant tensor:
#      x y z
#    x 1.871730 0.000000 0.002620 
#    y 0.000000 1.900450 0.000000 
#    z 0.002620 0.000000 1.912560 
# 
# From -- ./inp_files/39154.got.cif
#   From: 2010.06.25/outbox.cif.g09.slc.cpg/sg12_20_cif.got.tgz:39154.got - 2010.06.28 00:19:55.
