data_PCOD8106845
_publ_section_title
;
Structure prediction by ZEFSAII (Michael W. Deem and Ramdas Pophale) SiO2 
 PCOD8106845
Probable space group: C 2/M
;
_chemical_formula_sum "Si O2"
_cell_formula_units_Z 64
_cell_length_a 30.082362
_cell_length_b 8.720253
_cell_length_c 25.707885
_cell_angle_alpha 90.000000
_cell_angle_beta 150.364512
_cell_angle_gamma 90.000000
_cell_volume 3334.697009
_symmetry_space_group_name_H-M "C 2/M"
_symmetry_group_IT_number 12
_symmetry_cell_setting 'monoclinic'
loop_
_space_group_symop_operation_xyz
x,y,z
-x,y,-z
-x,-y,-z
x,-y,z
1/2+x,1/2+y,z
1/2-x,1/2+y,-z
1/2-x,1/2-y,-z
1/2+x,1/2-y,z
loop_
_atom_site_type_symbol
_atom_site_label
_atom_site_fract_x
_atom_site_fract_y
_atom_site_fract_z
Si Si1 0.631692 0.325740 0.492017
Si Si2 0.500297 0.819729 0.720764
Si Si3 0.907929 0.176366 0.431797
Si Si4 0.698721 0.817952 0.898608
Si Si5 0.319228 0.181279 0.934467
Si Si6 0.174526 0.681785 0.273795
Si Si7 0.725206 0.679567 0.218912
Si Si8 0.491694 0.817889 0.827714
O O1 0.625800 0.500000 0.466743
O O2 0.582888 0.222227 0.400159
O O3 0.581738 0.304280 0.496045
O O4 0.735249 0.273694 0.602965
O O5 0.595341 0.759817 0.794936
O O6 0.483415 0.750399 0.761072
O O7 0.505329 0.000000 0.730864
O O8 0.830540 0.283872 0.330618
O O9 0.000000 0.232102 0.500000
O O10 0.885118 0.000000 0.394354
O O11 0.739953 0.759512 0.886630
O O12 0.705118 0.000000 0.908004
O O13 0.750000 0.750000 0.000000
O O14 0.315310 0.230755 0.870938
O O15 0.308790 0.000000 0.929055
O O16 0.414588 0.239200 0.053229
O O17 0.172523 0.500000 0.261609
O O18 0.171960 0.764773 0.215654
O O19 0.090509 0.744520 0.221195
O O20 0.711288 0.500000 0.196806
O O21 0.487222 0.000000 0.822884
#
# Coordination Sequence:
#
# PCOD8106845 Si02
#       8
#     8   8   8   8   8   8   8   8
#     4   9  19  34  54  84 114 145 187 233 282 335
#     4  10  21  37  56  83 117 151 189 230 280 339
#     4   9  19  37  58  81 110 149 195 237 279 339
#     4  11  22  38  58  84 118 155 192 237 288 341
#     4  11  22  39  61  85 115 154 198 237 284 344
#     4   9  19  40  64  82 109 150 196 240 284 341
#     4  11  23  38  56  85 120 149 186 236 294 346
#     4   9  19  38  62  84 108 149 199 240 281 340
#
# _framework density 19.192150000000002
#
# number of rings (size 3 to 8) (size 9 to 14) (size 15 to 20)
#    0.000    2.125    1.250    2.625    1.750    4.250 
#    0.000    4.375    0.000    0.000    0.000    0.000 
#    0.000    0.000    0.000    0.000    0.000    0.000 
#
# Total GULP energy -396869.183587 kJ/mol
# GULP energy per Si atom -12402.161987 kJ/mol
# Density = 1.914847 g / cm^3
# Si number density = 19.192150 Si / 1000 Ang^3
#
#
#
# Elastic Constant Matrix: (Units=GPa)
#
#
# Indices 1 2 3 4 5 6 
#
# 1 157.4392 26.5445 70.9957 0.0000 14.9158 0.0000
# 2 26.5445 46.3198 19.2254 0.0000 0.2695 0.0000
# 3 70.9957 19.2254 98.2120 0.0000 -11.8165 0.0000
# 4 0.0000 0.0000 0.0000 31.4901 0.0000 -5.2712
# 5 14.9158 0.2695 -11.8165 0.0000 31.6400 0.0000
# 6 0.0000 0.0000 0.0000 -5.2712 0.0000 27.2100
#
#
#
# Elastic Compliance Matrix: (Units=1/GPa)
#
#
# Indices 1 2 3 4 5 6 
#
# 1 0.011733 -0.002949 -0.008969 0.000000 -0.008856 0.000000
# 2 -0.002949 0.024362 -0.002612 0.000000 0.000207 0.000000
# 3 -0.008969 -0.002612 0.018521 0.000000 0.011168 0.000000
# 4 0.000000 0.000000 0.000000 0.032820 0.000000 0.006358
# 5 -0.008856 0.000207 0.011168 0.000000 0.039949 0.000000
# 6 0.000000 0.000000 0.000000 0.006358 0.000000 0.037983
#
#
# Mechanical properties :
#
#
# Convention : Reuss Voigt Hill
#
# Bulk Modulus (GPa) = 39.13275 59.50025 49.31650
# Shear Modulus (GPa) = 24.63693 30.41506 27.52599
#
# Velocity S-wave (km/s) = 3.58676 3.98523 3.79123
# Velocity P-wave (km/s) = 6.13085 7.22812 6.70198
#
# Compressibility (1/GPa) = 0.02555404
#
# Stress axis : x y z
#
# Youngs Moduli (GPa) = 85.23288 41.04738 53.99320
#
# Poissons Ratio (x) = 0.12106 0.48429
# Poissons Ratio (y) = 0.25137 0.14103
# Poissons Ratio (z) = 0.76449 0.10722
#
# Static dielectric constant tensor:
#      x y z
#    x 3.782240 0.000000 0.092640 
#    y 0.000000 3.278430 0.000000 
#    z 0.092640 0.000000 3.495700 
# 
# 
# High freq. dielectric constant tensor:
#      x y z
#    x 1.757470 0.000000 -0.000040 
#    y 0.000000 1.728210 0.000000 
#    z -0.000040 0.000000 1.749150 
# 
# From -- ./inp_files/353553.got.cif
#   From: 2010.06.25/outbox.cif.g09.slc.cpg/sg12_177_cif.got.tgz:353553.got - 2010.06.28 00:19:55.
