data_PCOD8106565
_publ_section_title
;
Structure prediction by ZEFSAII (Michael W. Deem and Ramdas Pophale) SiO2 
 PCOD8106565
Probable space group: C 2/M
;
_chemical_formula_sum "Si O2"
_cell_formula_units_Z 64
_cell_length_a 25.823537
_cell_length_b 8.884737
_cell_length_c 14.835670
_cell_angle_alpha 90.000000
_cell_angle_beta 109.686063
_cell_angle_gamma 90.000000
_cell_volume 3204.881786
_symmetry_space_group_name_H-M "C 2/M"
_symmetry_group_IT_number 12
_symmetry_cell_setting 'monoclinic'
loop_
_space_group_symop_operation_xyz
x,y,z
-x,y,-z
-x,-y,-z
x,-y,z
1/2+x,1/2+y,z
1/2-x,1/2+y,-z
1/2-x,1/2-y,-z
1/2+x,1/2-y,z
loop_
_atom_site_type_symbol
_atom_site_label
_atom_site_fract_x
_atom_site_fract_y
_atom_site_fract_z
Si Si1 0.061396 0.671272 0.022001
Si Si2 0.628282 0.678381 0.706482
Si Si3 0.861955 0.822353 0.791761
Si Si4 0.204039 0.658359 0.517940
Si Si5 0.443446 0.826800 0.186739
Si Si6 0.052977 0.178993 0.308684
Si Si7 0.590097 0.180815 0.502239
Si Si8 0.260932 0.835851 0.261534
O O1 0.064252 0.500000 0.059650
O O2 0.103473 0.771295 0.102367
O O3 0.078543 0.680777 0.927917
O O4 0.000000 0.734897 0.000000
O O5 0.625826 0.500000 0.694631
O O6 0.599365 0.731973 0.780067
O O7 0.592417 0.750330 0.603448
O O8 0.692365 0.727434 0.753084
O O9 0.891596 0.774098 0.714807
O O10 0.799606 0.757455 0.767440
O O11 0.856888 0.000000 0.789431
O O12 0.200301 0.500000 0.463560
O O13 0.250000 0.750000 0.500000
O O14 0.144958 0.736263 0.481982
O O15 0.219244 0.627366 0.628242
O O16 0.503099 0.750163 0.223848
O O17 0.446953 0.000000 0.222087
O O18 0.046484 0.247173 0.407131
O O19 0.046673 0.000000 0.310960
O O20 0.583363 0.000000 0.505588
O O21 0.259046 0.000000 0.209756
#
# Coordination Sequence:
#
# PCOD8106565 Si02
#       8
#     8   8   8   8   8   8   8   8
#     4  10  21  39  62  89 119 151 191 236 288 353
#     4  11  23  40  61  86 115 152 200 248 288 337
#     4  10  21  36  60  91 124 155 189 240 296 347
#     4   9  17  29  48  73 107 147 190 234 279 334
#     4  11  23  41  63  85 115 156 194 237 293 353
#     4  11  22  36  57  90 123 152 193 245 292 340
#     4  10  21  37  55  79 114 158 198 236 286 345
#     4   9  19  37  56  80 115 156 194 232 286 347
#
# _framework density 19.969535
#
# number of rings (size 3 to 8) (size 9 to 14) (size 15 to 20)
#    0.000    1.875    1.250    3.750    0.000    6.250 
#    0.000    3.125    0.000    0.000    0.000    0.000 
#    0.000    0.000    0.000    0.000    0.000    0.000 
#
# Total GULP energy -396481.107712 kJ/mol
# GULP energy per Si atom -12390.034616 kJ/mol
# Density = 1.992408 g / cm^3
# Si number density = 19.969535 Si / 1000 Ang^3
#
#
#
# Elastic Constant Matrix: (Units=GPa)
#
#
# Indices 1 2 3 4 5 6 
#
# 1 95.1557 33.0284 28.2160 0.0000 -1.9500 0.0000
# 2 33.0284 83.4103 29.5214 0.0000 -6.8169 0.0000
# 3 28.2160 29.5214 64.8875 0.0000 -3.2638 0.0000
# 4 0.0000 0.0000 0.0000 31.7350 0.0000 -0.1298
# 5 -1.9500 -6.8169 -3.2638 0.0000 28.7894 0.0000
# 6 0.0000 0.0000 0.0000 -0.1298 0.0000 39.7739
#
#
#
# Elastic Compliance Matrix: (Units=1/GPa)
#
#
# Indices 1 2 3 4 5 6 
#
# 1 0.012983 -0.003781 -0.003949 0.000000 -0.000464 0.000000
# 2 -0.003781 0.015597 -0.005309 0.000000 0.002835 0.000000
# 3 -0.003949 -0.005309 0.019579 0.000000 0.000695 0.000000
# 4 0.000000 0.000000 0.000000 0.031511 0.000000 0.000103
# 5 -0.000464 0.002835 0.000695 0.000000 0.035454 0.000000
# 6 0.000000 0.000000 0.000000 0.000103 0.000000 0.025142
#
#
# Mechanical properties :
#
#
# Convention : Reuss Voigt Hill
#
# Bulk Modulus (GPa) = 45.28852 47.22055 46.25453
# Shear Modulus (GPa) = 28.78453 30.23884 29.51169
#
# Velocity S-wave (km/s) = 3.80073 3.89556 3.84843
# Velocity P-wave (km/s) = 6.47987 6.62808 6.55439
#
# Compressibility (1/GPa) = 0.02208065
#
# Stress axis : x y z
#
# Youngs Moduli (GPa) = 77.02442 64.11484 51.07584
#
# Poissons Ratio (x) = 0.24244 0.20167
# Poissons Ratio (y) = 0.29125 0.27117
# Poissons Ratio (z) = 0.30413 0.34040
#
# Static dielectric constant tensor:
#      x y z
#    x 3.754500 0.000000 0.132040 
#    y 0.000000 3.729560 0.000000 
#    z 0.132040 0.000000 3.463570 
# 
# 
# High freq. dielectric constant tensor:
#      x y z
#    x 1.782210 0.000000 0.001820 
#    y 0.000000 1.778920 0.000000 
#    z 0.001820 0.000000 1.766060 
# 
# From -- ./inp_files/244228.got.cif
#   From: 2010.06.25/outbox.cif.g09.slc.cpg/sg12_123_cif.got.tgz:244228.got - 2010.06.28 00:19:55.
