data_PCOD8106875
_publ_section_title
;
Structure prediction by ZEFSAII (Michael W. Deem and Ramdas Pophale) SiO2 
 PCOD8106875
Probable space group: C 2/M
;
_chemical_formula_sum "Si O2"
_cell_formula_units_Z 40
_cell_length_a 10.466181
_cell_length_b 18.602415
_cell_length_c 10.302531
_cell_angle_alpha 90.000000
_cell_angle_beta 100.094290
_cell_angle_gamma 90.000000
_cell_volume 1974.814605
_symmetry_space_group_name_H-M "C 2/M"
_symmetry_group_IT_number 12
_symmetry_cell_setting 'monoclinic'
loop_
_space_group_symop_operation_xyz
x,y,z
-x,y,-z
-x,-y,-z
x,-y,z
1/2+x,1/2+y,z
1/2-x,1/2+y,-z
1/2-x,1/2-y,-z
1/2+x,1/2-y,z
loop_
_atom_site_type_symbol
_atom_site_label
_atom_site_fract_x
_atom_site_fract_y
_atom_site_fract_z
Si Si1 0.908464 0.173290 0.100498
Si Si2 0.164274 0.583890 0.427099
Si Si3 0.614077 0.915396 0.695154
Si Si4 0.625924 0.836922 0.949449
Si Si5 0.929091 0.915714 0.353980
O O1 0.920252 0.259032 0.108725
O O2 0.967271 0.134409 0.239347
O O3 0.754140 0.158354 0.061137
O O4 0.000000 0.144476 0.000000
O O5 0.140629 0.500000 0.438521
O O6 0.192753 0.610436 0.580295
O O7 0.278622 0.601692 0.349876
O O8 0.032260 0.615760 0.345577
O O9 0.673454 0.880694 0.833087
O O10 0.620288 0.000000 0.716617
O O11 0.500000 0.871517 0.000000
O O12 0.000000 0.893847 0.500000
O O13 0.954951 0.000000 0.326342
#
# Coordination Sequence:
#
# PCOD8106875 Si02
#       5
#     8   8   8   8   8
#     4  10  23  40  56  79 115 149 183 228 278 329
#     4   8  16  32  52  80 113 136 169 228 281 316
#     4   9  17  31  56  83 107 139 180 227 275 326
#     4  10  21  38  58  77 112 148 183 229 279 322
#     4  10  21  37  57  80 112 148 185 229 274 325
#
# _framework density 20.255064999999998
#
# number of rings (size 3 to 8) (size 9 to 14) (size 15 to 20)
#    0.000    2.600    0.000    2.400    2.800    1.600 
#    3.600    1.000    0.000    0.000    0.000    0.000 
#    0.000    0.000    0.000    0.000    0.000    0.000 
#
# Total GULP energy -247795.851854 kJ/mol
# GULP energy per Si atom -12389.792593 kJ/mol
# Density = 2.020896 g / cm^3
# Si number density = 20.255065 Si / 1000 Ang^3
#
#
#
# Elastic Constant Matrix: (Units=GPa)
#
#
# Indices 1 2 3 4 5 6 
#
# 1 54.5914 13.7049 13.1116 0.0000 -7.2749 0.0000
# 2 13.7049 43.6449 49.1482 0.0000 -1.7001 0.0000
# 3 13.1116 49.1482 128.0546 0.0000 -6.6648 0.0000
# 4 0.0000 0.0000 0.0000 23.8208 0.0000 -0.3611
# 5 -7.2749 -1.7001 -6.6648 0.0000 26.9105 0.0000
# 6 0.0000 0.0000 0.0000 -0.3611 0.0000 16.3281
#
#
#
# Elastic Compliance Matrix: (Units=1/GPa)
#
#
# Indices 1 2 3 4 5 6 
#
# 1 0.020651 -0.007413 0.001010 0.000000 0.005365 0.000000
# 2 -0.007413 0.043059 -0.015935 0.000000 -0.003230 0.000000
# 3 0.001010 -0.015935 0.013964 0.000000 0.002725 0.000000
# 4 0.000000 0.000000 0.000000 0.041994 0.000000 0.000929
# 5 0.005365 -0.003230 0.002725 0.000000 0.039081 0.000000
# 6 0.000000 0.000000 0.000000 0.000929 0.000000 0.061265
#
#
# Mechanical properties :
#
#
# Convention : Reuss Voigt Hill
#
# Bulk Modulus (GPa) = 30.30594 42.02447 36.16520
# Shear Modulus (GPa) = 18.13634 23.43361 20.78498
#
# Velocity S-wave (km/s) = 2.99557 3.40505 3.20685
# Velocity P-wave (km/s) = 5.19222 6.02095 5.62188
#
# Compressibility (1/GPa) = 0.03299684
#
# Stress axis : x y z
#
# Youngs Moduli (GPa) = 48.42323 23.22408 71.61445
#
# Poissons Ratio (x) = 0.17216 -0.07232
# Poissons Ratio (y) = 0.35896 1.14120
# Poissons Ratio (z) = -0.04890 0.37008
#
# Static dielectric constant tensor:
#      x y z
#    x 4.274840 0.000000 -0.191670 
#    y 0.000000 3.286340 0.000000 
#    z -0.191670 0.000000 3.653080 
# 
# 
# High freq. dielectric constant tensor:
#      x y z
#    x 1.797500 0.000000 -0.007750 
#    y 0.000000 1.750320 0.000000 
#    z -0.007750 0.000000 1.797420 
# 
# From -- ./inp_files/48799.got.cif
#   From: 2010.06.25/outbox.cif.g09.slc.cpg/sg12_25_cif.got.tgz:48799.got - 2010.06.28 00:19:55.
