data_PCOD8106194
_publ_section_title
;
Structure prediction by ZEFSAII (Michael W. Deem and Ramdas Pophale) SiO2 
 PCOD8106194
Probable space group: C 2/M
;
_chemical_formula_sum "Si O2"
_cell_formula_units_Z 48
_cell_length_a 9.689648
_cell_length_b 15.284444
_cell_length_c 17.636745
_cell_angle_alpha 90.000000
_cell_angle_beta 82.788961
_cell_angle_gamma 90.000000
_cell_volume 2591.357834
_symmetry_space_group_name_H-M "C 2/M"
_symmetry_group_IT_number 12
_symmetry_cell_setting 'monoclinic'
loop_
_space_group_symop_operation_xyz
x,y,z
-x,y,-z
-x,-y,-z
x,-y,z
1/2+x,1/2+y,z
1/2-x,1/2+y,-z
1/2-x,1/2-y,-z
1/2+x,1/2-y,z
loop_
_atom_site_type_symbol
_atom_site_label
_atom_site_fract_x
_atom_site_fract_y
_atom_site_fract_z
Si Si1 0.370061 0.000000 0.454860
Si Si2 0.673962 0.835176 0.648361
Si Si3 0.054415 0.828803 0.170005
Si Si4 0.869574 0.332155 0.173066
Si Si5 0.605869 0.000000 0.924154
Si Si6 0.096453 0.000000 0.564476
Si Si7 0.494163 0.669770 0.652618
Si Si8 0.428407 0.500000 0.924311
O O1 0.500000 0.000000 0.500000
O O2 0.365718 0.916438 0.400841
O O3 0.251772 0.000000 0.525500
O O4 0.629157 0.854647 0.737789
O O5 0.587937 0.752603 0.623132
O O6 0.838796 0.816463 0.631048
O O7 0.216614 0.804934 0.156145
O O8 0.005513 0.846645 0.258236
O O9 0.970407 0.746855 0.142639
O O10 0.020198 0.914679 0.124090
O O11 0.924250 0.416513 0.125641
O O12 0.762368 0.000000 0.945127
O O13 0.500000 0.000000 0.000000
O O14 0.000000 0.000000 0.500000
O O15 0.067779 0.085265 0.615042
O O16 0.500000 0.500000 0.000000
#
# Coordination Sequence:
#
# PCOD8106194 Si02
#       8
#     4   8   8   8   4   4   8   4
#     4  12  27  40  55  82 117 150 186 232 283 335
#     4  10  21  40  61  84 110 147 189 231 280 331
#     4   9  19  37  59  84 109 145 187 227 273 323
#     4   9  19  37  61  82 109 145 186 229 272 326
#     4  10  21  36  56  83 114 150 182 222 276 327
#     4  12  23  40  57  82 113 152 186 224 287 339
#     4  10  21  38  63  84 110 146 189 233 277 334
#     4  10  21  36  56  81 116 151 182 222 272 328
#
# _framework density 18.523108000000001
#
# number of rings (size 3 to 8) (size 9 to 14) (size 15 to 20)
#    0.000    2.000    1.667    1.000    2.333    6.000 
#    0.000    3.333    3.667    0.000    0.000    0.000 
#    0.000    0.000    0.000    0.000    0.000    0.000 
#
# Total GULP energy -297644.769705 kJ/mol
# GULP energy per Si atom -12401.865404 kJ/mol
# Density = 1.848095 g / cm^3
# Si number density = 18.523108 Si / 1000 Ang^3
#
#
#
# Elastic Constant Matrix: (Units=GPa)
#
#
# Indices 1 2 3 4 5 6 
#
# 1 123.7487 98.7057 65.4958 0.0000 0.0154 0.0000
# 2 98.7057 204.1806 90.2205 0.0000 -1.5809 0.0000
# 3 65.4958 90.2205 82.8031 0.0000 1.8854 0.0000
# 4 0.0000 0.0000 0.0000 41.9718 0.0000 10.6666
# 5 0.0154 -1.5809 1.8854 0.0000 36.5500 0.0000
# 6 0.0000 0.0000 0.0000 10.6666 0.0000 36.1747
#
#
#
# Elastic Compliance Matrix: (Units=1/GPa)
#
#
# Indices 1 2 3 4 5 6 
#
# 1 0.015415 -0.003973 -0.007869 0.000000 0.000228 0.000000
# 2 -0.003973 0.010501 -0.008319 0.000000 0.000885 0.000000
# 3 -0.007869 -0.008319 0.027406 0.000000 -0.001770 0.000000
# 4 0.000000 0.000000 0.000000 0.025755 0.000000 -0.007594
# 5 0.000228 0.000885 -0.001770 0.000000 0.027489 0.000000
# 6 0.000000 0.000000 0.000000 -0.007594 0.000000 0.029883
#
#
# Mechanical properties :
#
#
# Convention : Reuss Voigt Hill
#
# Bulk Modulus (GPa) = 76.92890 102.17515 89.55203
# Shear Modulus (GPa) = 27.60822 33.36001 30.48412
#
# Velocity S-wave (km/s) = 3.86486 4.24842 4.06117
# Velocity P-wave (km/s) = 7.84459 8.90764 8.39296
#
# Compressibility (1/GPa) = 0.01299902
#
# Stress axis : x y z
#
# Youngs Moduli (GPa) = 64.87353 95.22716 36.48825
#
# Poissons Ratio (x) = 0.37834 0.28713
# Poissons Ratio (y) = 0.25774 0.30356
# Poissons Ratio (z) = 0.51049 0.79224
#
# Static dielectric constant tensor:
#      x y z
#    x 3.519320 0.000000 -0.011310 
#    y 0.000000 3.541570 0.000000 
#    z -0.011310 0.000000 3.383850 
# 
# 
# High freq. dielectric constant tensor:
#      x y z
#    x 1.723970 0.000000 -0.001620 
#    y 0.000000 1.731100 0.000000 
#    z -0.001620 0.000000 1.720050 
# 
# From -- ./inp_files/255859.got.cif
#   From: 2010.06.25/outbox.cif.g09.slc.cpg/sg12_128_cif.got.tgz:255859.got - 2010.06.28 00:19:55.
