data_PCOD8106203
_publ_section_title
;
Structure prediction by ZEFSAII (Michael W. Deem and Ramdas Pophale) SiO2 
 PCOD8106203
Probable space group: C 2/M
;
_chemical_formula_sum "Si O2"
_cell_formula_units_Z 64
_cell_length_a 21.598724
_cell_length_b 9.210257
_cell_length_c 16.679358
_cell_angle_alpha 90.000000
_cell_angle_beta 89.191112
_cell_angle_gamma 90.000000
_cell_volume 3317.690679
_symmetry_space_group_name_H-M "C 2/M"
_symmetry_group_IT_number 12
_symmetry_cell_setting 'monoclinic'
loop_
_space_group_symop_operation_xyz
x,y,z
-x,y,-z
-x,-y,-z
x,-y,z
1/2+x,1/2+y,z
1/2-x,1/2+y,-z
1/2-x,1/2-y,-z
1/2+x,1/2-y,z
loop_
_atom_site_type_symbol
_atom_site_label
_atom_site_fract_x
_atom_site_fract_y
_atom_site_fract_z
Si Si1 0.750754 0.165015 0.690077
Si Si2 0.497257 0.828128 0.590692
Si Si3 0.929783 0.657022 0.997635
Si Si4 0.372469 0.332390 0.863448
Si Si5 0.114197 0.164439 0.325475
Si Si6 0.258059 0.163107 0.847103
Si Si7 0.614629 0.167257 0.690353
Si Si8 0.120391 0.834307 0.856683
O O1 0.815406 0.189179 0.639539
O O2 0.749387 0.288160 0.756219
O O3 0.683608 0.181671 0.646750
O O4 0.755009 0.000000 0.726494
O O5 0.500000 0.769760 0.500000
O O6 0.435408 0.768366 0.633084
O O7 0.560726 0.775337 0.632326
O O8 0.491812 0.000000 0.593045
O O9 0.893814 0.500000 0.999080
O O10 0.920810 0.744799 0.915521
O O11 0.917149 0.753318 0.075154
O O12 0.000000 0.616258 0.000000
O O13 0.376584 0.500000 0.885908
O O14 0.384516 0.302507 0.769557
O O15 0.304843 0.272175 0.890492
O O16 0.092784 0.000000 0.341729
O O17 0.190733 0.170376 0.888057
O O18 0.284998 0.000000 0.848022
O O19 0.610909 0.257789 0.771681
O O20 0.602184 0.000000 0.712657
O O21 0.097243 0.000000 0.848191
#
# Coordination Sequence:
#
# PCOD8106203 Si02
#       8
#     8   8   8   8   8   8   8   8
#     4   8  15  31  54  80 107 140 184 228 271 325
#     4  10  22  38  56  82 114 147 182 222 272 331
#     4  11  25  40  53  74 107 145 189 232 271 319
#     4  10  21  37  57  81 108 144 183 223 274 325
#     4   9  19  35  57  83 109 142 182 225 277 329
#     4   9  17  31  53  81 109 137 176 224 272 323
#     4   9  18  35  59  81 108 147 188 228 272 329
#     4  10  21  36  56  82 110 142 180 226 278 326
#
# _framework density 19.290526
#
# number of rings (size 3 to 8) (size 9 to 14) (size 15 to 20)
#    0.000    2.500    0.000    2.250    1.750    6.250 
#    0.000    0.625    0.000    0.000    0.000    0.000 
#    0.000    0.000    0.000    0.000    0.000    0.000 
#
# Total GULP energy -396440.074815 kJ/mol
# GULP energy per Si atom -12388.752338 kJ/mol
# Density = 1.924662 g / cm^3
# Si number density = 19.290526 Si / 1000 Ang^3
#
#
#
# Elastic Constant Matrix: (Units=GPa)
#
#
# Indices 1 2 3 4 5 6 
#
# 1 127.5394 41.9909 48.8498 0.0000 -4.1834 0.0000
# 2 41.9909 93.9436 40.4206 0.0000 -3.6937 0.0000
# 3 48.8498 40.4206 78.9846 0.0000 0.6192 0.0000
# 4 0.0000 0.0000 0.0000 65.5415 0.0000 -7.1007
# 5 -4.1834 -3.6937 0.6192 0.0000 6.6144 0.0000
# 6 0.0000 0.0000 0.0000 -7.1007 0.0000 29.4959
#
#
#
# Elastic Compliance Matrix: (Units=1/GPa)
#
#
# Indices 1 2 3 4 5 6 
#
# 1 0.010951 -0.002199 -0.005696 0.000000 0.006231 0.000000
# 2 -0.002199 0.014561 -0.006149 0.000000 0.007316 0.000000
# 3 -0.005696 -0.006149 0.019400 0.000000 -0.008853 0.000000
# 4 0.000000 0.000000 0.000000 0.015666 0.000000 0.003771
# 5 0.006231 0.007316 -0.008853 0.000000 0.160041 0.000000
# 6 0.000000 0.000000 0.000000 0.003771 0.000000 0.034811
#
#
# Mechanical properties :
#
#
# Convention : Reuss Voigt Hill
#
# Bulk Modulus (GPa) = 59.44176 62.55448 60.99812
# Shear Modulus (GPa) = 17.29351 31.61078 24.45214
#
# Velocity S-wave (km/s) = 2.99737 4.05244 3.56416
# Velocity P-wave (km/s) = 6.54674 7.37525 6.97331
#
# Compressibility (1/GPa) = 0.01682319
#
# Stress axis : x y z
#
# Youngs Moduli (GPa) = 91.31688 68.67720 51.54665
#
# Poissons Ratio (x) = 0.15101 0.29363
# Poissons Ratio (y) = 0.20079 0.31696
# Poissons Ratio (z) = 0.52018 0.42229
#
# Static dielectric constant tensor:
#      x y z
#    x 3.880980 0.000000 0.125680 
#    y 0.000000 3.591170 0.000000 
#    z 0.125680 0.000000 3.189570 
# 
# 
# High freq. dielectric constant tensor:
#      x y z
#    x 1.765430 0.000000 0.005870 
#    y 0.000000 1.761140 0.000000 
#    z 0.005870 0.000000 1.706630 
# 
# From -- ./inp_files/238797.got.cif
#   From: 2010.06.25/outbox.cif.g09.slc.cpg/sg12_120_cif.got.tgz:238797.got - 2010.06.28 00:19:55.
