data_PCOD8106708
_publ_section_title
;
Structure prediction by ZEFSAII (Michael W. Deem and Ramdas Pophale) SiO2 
 PCOD8106708
Probable space group: C 2/M
;
_chemical_formula_sum "Si O2"
_cell_formula_units_Z 56
_cell_length_a 14.617008
_cell_length_b 13.839971
_cell_length_c 21.276644
_cell_angle_alpha 90.000000
_cell_angle_beta 39.682878
_cell_angle_gamma 90.000000
_cell_volume 2748.422200
_symmetry_space_group_name_H-M "C 2/M"
_symmetry_group_IT_number 12
_symmetry_cell_setting 'monoclinic'
loop_
_space_group_symop_operation_xyz
x,y,z
-x,y,-z
-x,-y,-z
x,-y,z
1/2+x,1/2+y,z
1/2-x,1/2+y,-z
1/2-x,1/2-y,-z
1/2+x,1/2-y,z
loop_
_atom_site_type_symbol
_atom_site_label
_atom_site_fract_x
_atom_site_fract_y
_atom_site_fract_z
Si Si1 0.443282 0.387962 0.243687
Si Si2 0.577333 0.268508 0.282016
Si Si3 0.350335 0.890278 0.568052
Si Si4 0.459163 0.389453 0.450259
Si Si5 0.349039 0.109595 0.423627
Si Si6 0.161999 0.749638 0.940959
Si Si7 0.789991 0.887568 0.974972
O O1 0.433823 0.500000 0.265770
O O2 0.507259 0.339074 0.270020
O O3 0.280410 0.347784 0.320291
O O4 0.543106 0.369515 0.131018
O O5 0.569305 0.322398 0.353211
O O6 0.490112 0.168397 0.329935
O O7 0.740943 0.252775 0.173185
O O8 0.500000 0.832611 0.500000
O O9 0.309658 0.883117 0.517313
O O10 0.374083 0.000000 0.578387
O O11 0.500000 0.382249 0.500000
O O12 0.467257 0.500000 0.421359
O O13 0.295472 0.350035 0.532463
O O14 0.381441 0.000000 0.385696
O O15 0.185329 0.659791 0.977388
O O16 0.217803 0.842514 0.951316
O O17 0.000000 0.754035 0.000000
O O18 0.749084 0.000000 0.999598
#
# Coordination Sequence:
#
# PCOD8106708 Si02
#       7
#     8   8   8   8   8   8   8
#     4   9  17  33  58  82 110 153 200 242 291 357
#     4  11  21  37  60  84 115 162 201 239 303 358
#     4   9  17  29  48  77 112 146 185 234 281 339
#     4  10  21  39  60  88 122 156 198 243 291 356
#     4  10  21  37  54  81 121 155 195 244 288 348
#     4  10  23  42  61  92 127 158 209 265 307 369
#     4   9  20  41  66  89 119 161 205 257 317 367
#
# _framework density 20.375326000000001
#
# number of rings (size 3 to 8) (size 9 to 14) (size 15 to 20)
#    0.000    2.286    1.429    0.857    0.000    3.429 
#    7.714    1.429    0.000    0.000    0.000    0.000 
#    0.000    0.000    0.000    0.000    0.000    0.000 
#
# Total GULP energy -346958.466467 kJ/mol
# GULP energy per Si atom -12391.373802 kJ/mol
# Density = 2.032895 g / cm^3
# Si number density = 20.375326 Si / 1000 Ang^3
#
#
#
# Elastic Constant Matrix: (Units=GPa)
#
#
# Indices 1 2 3 4 5 6 
#
# 1 83.9759 29.9994 38.7394 0.0000 -15.5368 0.0000
# 2 29.9994 79.6841 40.5620 0.0000 2.3207 0.0000
# 3 38.7394 40.5620 114.3056 -0.0002 -13.4905 0.0001
# 4 0.0000 0.0000 -0.0002 24.4836 0.0001 -1.5969
# 5 -15.5368 2.3207 -13.4905 0.0001 31.0577 0.0000
# 6 0.0000 0.0000 0.0001 -1.5969 0.0000 8.6343
#
#
#
# Elastic Compliance Matrix: (Units=1/GPa)
#
#
# Indices 1 2 3 4 5 6 
#
# 1 0.016353 -0.004861 -0.002961 0.000000 0.007258 0.000000
# 2 -0.004861 0.017174 -0.005149 0.000000 -0.005952 0.000000
# 3 -0.002961 -0.005149 0.012068 0.000000 0.004146 0.000000
# 4 0.000000 0.000000 0.000000 0.041342 0.000000 0.007646
# 5 0.007258 -0.005952 0.004146 0.000000 0.038075 0.000000
# 6 0.000000 0.000000 0.000000 0.007646 0.000000 0.117231
#
#
# Mechanical properties :
#
#
# Convention : Reuss Voigt Hill
#
# Bulk Modulus (GPa) = 50.88064 55.17414 53.02739
# Shear Modulus (GPa) = 18.19921 24.07945 21.13933
#
# Velocity S-wave (km/s) = 2.99188 3.44145 3.22451
# Velocity P-wave (km/s) = 6.07956 6.55203 6.32021
#
# Compressibility (1/GPa) = 0.01965384
#
# Stress axis : x y z
#
# Youngs Moduli (GPa) = 61.14935 58.22708 82.86037
#
# Poissons Ratio (x) = 0.28304 0.24533
# Poissons Ratio (y) = 0.29724 0.42668
# Poissons Ratio (z) = 0.18105 0.29983
#
# Static dielectric constant tensor:
#      x y z
#    x 3.596070 0.000000 -0.189720 
#    y 0.000000 3.863560 0.000000 
#    z -0.189720 0.000000 4.330670 
# 
# 
# High freq. dielectric constant tensor:
#      x y z
#    x 1.786690 0.000000 -0.006520 
#    y 0.000000 1.796370 0.000000 
#    z -0.006520 0.000000 1.795030 
# 
# From -- ./inp_files/310746.got.cif
#   From: 2010.06.25/outbox.cif.g09.slc.cpg/sg12_156_cif.got.tgz:310746.got - 2010.06.28 00:19:55.
