data_PCOD8106554
_publ_section_title
;
Structure prediction by ZEFSAII (Michael W. Deem and Ramdas Pophale) SiO2 
 PCOD8106554
Probable space group: C 2/M
;
_chemical_formula_sum "Si O2"
_cell_formula_units_Z 56
_cell_length_a 17.130880
_cell_length_b 9.604231
_cell_length_c 27.923323
_cell_angle_alpha 90.000000
_cell_angle_beta 149.641240
_cell_angle_gamma 90.000000
_cell_volume 2321.964750
_symmetry_space_group_name_H-M "C 2/M"
_symmetry_group_IT_number 12
_symmetry_cell_setting 'monoclinic'
loop_
_space_group_symop_operation_xyz
x,y,z
-x,y,-z
-x,-y,-z
x,-y,z
1/2+x,1/2+y,z
1/2-x,1/2+y,-z
1/2-x,1/2-y,-z
1/2+x,1/2-y,z
loop_
_atom_site_type_symbol
_atom_site_label
_atom_site_fract_x
_atom_site_fract_y
_atom_site_fract_z
Si Si1 0.370585 0.732443 0.251905
Si Si2 0.178444 0.348617 0.674911
Si Si3 0.032343 0.345332 0.070609
Si Si4 0.725425 0.343400 0.618660
Si Si5 0.039757 0.844496 0.883149
Si Si6 0.913084 0.651165 0.173971
Si Si7 0.709952 0.657365 0.433721
O O1 0.396786 0.828058 0.312581
O O2 0.216114 0.643042 0.178665
O O3 0.341080 0.819449 0.187918
O O4 0.525667 0.642481 0.327265
O O5 0.122086 0.500000 0.626318
O O6 0.130215 0.224557 0.612794
O O7 0.362302 0.351483 0.774915
O O8 0.963810 0.500000 0.042204
O O9 0.943951 0.238183 0.058326
O O10 0.000000 0.292520 0.000000
O O11 0.661136 0.500000 0.573991
O O12 0.703431 0.237286 0.563145
O O13 0.903448 0.354716 0.725653
O O14 0.135408 0.764553 0.891903
O O15 0.107829 0.000000 0.924780
O O16 0.851936 0.500000 0.124891
O O17 0.775341 0.500000 0.473144
O O18 0.750000 0.750000 0.500000
#
# Coordination Sequence:
#
# PCOD8106554 Si02
#       7
#     8   8   8   8   8   8   8
#     4  10  21  36  60  88 115 147 189 235 282 333
#     4   9  17  31  54  83 114 149 188 230 280 335
#     4  10  21  38  60  85 114 149 189 233 282 337
#     4   9  18  33  54  81 114 150 188 231 281 335
#     4   9  18  32  52  80 114 150 188 232 281 334
#     4   9  17  31  54  82 112 149 190 232 280 334
#     4  11  23  39  60  85 115 150 189 234 283 336
#
# _framework density 24.117505999999999
#
# number of rings (size 3 to 8) (size 9 to 14) (size 15 to 20)
#    0.000    2.429    0.000    2.143    0.000   10.571 
#    0.000    1.429    0.000    3.429    0.000    0.000 
#    0.000    0.000    0.000    0.000    0.000    0.000 
#
# Total GULP energy -347051.354056 kJ/mol
# GULP energy per Si atom -12394.691216 kJ/mol
# Density = 2.406261 g / cm^3
# Si number density = 24.117506 Si / 1000 Ang^3
#
#
#
# Elastic Constant Matrix: (Units=GPa)
#
#
# Indices 1 2 3 4 5 6 
#
# 1 144.3462 86.3230 29.3353 0.0000 -49.8683 0.0000
# 2 86.3230 238.2777 32.8875 0.0000 -52.4022 0.0000
# 3 29.3353 32.8875 49.5877 0.0001 -19.5338 0.0000
# 4 0.0000 0.0000 0.0001 23.9560 0.0000 -17.4937
# 5 -49.8683 -52.4022 -19.5338 0.0000 55.6252 0.0000
# 6 0.0000 0.0000 0.0000 -17.4937 0.0000 20.6864
#
#
#
# Elastic Compliance Matrix: (Units=1/GPa)
#
#
# Indices 1 2 3 4 5 6 
#
# 1 0.011163 -0.002144 -0.002362 0.000000 0.007159 0.000000
# 2 -0.002144 0.005846 -0.001389 0.000000 0.003098 0.000000
# 3 -0.002362 -0.001389 0.024528 0.000000 0.005187 0.000000
# 4 0.000000 0.000000 0.000000 0.109144 0.000000 0.092299
# 5 0.007159 0.003098 0.005187 0.000000 0.029135 0.000000
# 6 0.000000 0.000000 0.000000 0.092299 0.000000 0.126395
#
#
# Mechanical properties :
#
#
# Convention : Reuss Voigt Hill
#
# Bulk Modulus (GPa) = 33.61543 81.03369 57.32456
# Shear Modulus (GPa) = 15.24771 38.96458 27.10615
#
# Velocity S-wave (km/s) = 2.51714 4.02383 3.35613
# Velocity P-wave (km/s) = 4.73460 7.43376 6.23206
#
# Compressibility (1/GPa) = 0.02974825
#
# Stress axis : x y z
#
# Youngs Moduli (GPa) = 89.58153 171.04406 40.76928
#
# Poissons Ratio (x) = 0.36668 0.09630
# Poissons Ratio (y) = 0.19204 0.05662
# Poissons Ratio (z) = 0.21160 0.23755
#
# Static dielectric constant tensor:
#      x y z
#    x 4.382430 0.000000 -0.143290 
#    y 0.000000 4.531640 0.000000 
#    z -0.143290 0.000000 4.089820 
# 
# 
# High freq. dielectric constant tensor:
#      x y z
#    x 1.957620 0.000000 -0.006340 
#    y 0.000000 1.956500 0.000000 
#    z -0.006340 0.000000 1.944530 
# 
# From -- ./inp_files/363127.got.cif
#   From: 2010.06.25/outbox.cif.g09.slc.cpg/sg12_182_cif.got.tgz:363127.got - 2010.06.28 00:19:55.
