data_PCOD8106990
_publ_section_title
;
Structure prediction by ZEFSAII (Michael W. Deem and Ramdas Pophale) SiO2 
 PCOD8106990
Probable space group: C 2/M
;
_chemical_formula_sum "Si O2"
_cell_formula_units_Z 64
_cell_length_a 29.088601
_cell_length_b 8.907647
_cell_length_c 24.836337
_cell_angle_alpha 90.000000
_cell_angle_beta 149.207542
_cell_angle_gamma 90.000000
_cell_volume 3294.456535
_symmetry_space_group_name_H-M "C 2/M"
_symmetry_group_IT_number 12
_symmetry_cell_setting 'monoclinic'
loop_
_space_group_symop_operation_xyz
x,y,z
-x,y,-z
-x,-y,-z
x,-y,z
1/2+x,1/2+y,z
1/2-x,1/2+y,-z
1/2-x,1/2-y,-z
1/2+x,1/2-y,z
loop_
_atom_site_type_symbol
_atom_site_label
_atom_site_fract_x
_atom_site_fract_y
_atom_site_fract_z
Si Si1 0.174721 0.327115 0.959096
Si Si2 0.043998 0.177393 0.599338
Si Si3 0.619038 0.675243 0.010151
Si Si4 0.064070 0.323170 0.192383
Si Si5 0.778032 0.673688 0.247702
Si Si6 0.907973 0.176560 0.554118
Si Si7 0.025004 0.329921 0.274592
Si Si8 0.744337 0.322321 0.334707
O O1 0.198880 0.500000 0.994763
O O2 0.082006 0.313624 0.833551
O O3 0.250000 0.250000 0.000000
O O4 0.170823 0.240873 0.011225
O O5 0.144491 0.239247 0.706570
O O6 0.000000 0.239756 0.500000
O O7 0.984748 0.233265 0.590169
O O8 0.049297 0.000000 0.603586
O O9 0.600815 0.500000 0.982638
O O10 0.681223 0.705878 0.124347
O O11 0.525008 0.758239 0.925332
O O12 0.065362 0.500000 0.184081
O O13 0.148038 0.247402 0.248973
O O14 0.064581 0.285015 0.256339
O O15 0.802779 0.500000 0.268858
O O16 0.774993 0.728826 0.306205
O O17 0.815089 0.259686 0.448604
O O18 0.935532 0.215550 0.642425
O O19 0.892085 0.000000 0.532792
O O20 0.052544 0.500000 0.317344
O O21 0.737176 0.500000 0.332555
#
# Coordination Sequence:
#
# PCOD8106990 Si02
#       8
#     8   8   8   8   8   8   8   8
#     4  10  21  37  57  84 117 154 198 243 290 347
#     4  10  21  38  58  83 119 156 191 240 294 342
#     4  10  21  39  60  86 119 154 194 241 292 348
#     4  10  22  42  64  87 116 153 196 245 297 348
#     4  10  23  39  59  88 119 156 198 238 288 351
#     4  11  23  38  59  89 119 153 196 241 291 350
#     4   9  21  40  59  82 115 152 192 239 290 348
#     4  11  23  40  62  87 116 155 198 243 294 348
#
# _framework density 19.426573999999999
#
# number of rings (size 3 to 8) (size 9 to 14) (size 15 to 20)
#    0.000    1.875    1.250    2.625    1.750    6.750 
#    0.000    2.500    0.000    0.000    0.000    0.000 
#    0.000    0.000    0.000    0.000    0.000    0.000 
#
# Total GULP energy -396956.968563 kJ/mol
# GULP energy per Si atom -12404.905268 kJ/mol
# Density = 1.938236 g / cm^3
# Si number density = 19.426574 Si / 1000 Ang^3
#
#
#
# Elastic Constant Matrix: (Units=GPa)
#
#
# Indices 1 2 3 4 5 6 
#
# 1 55.2127 28.6362 27.8491 0.0000 20.8775 0.0000
# 2 28.6362 80.0770 38.0047 0.0000 4.9443 0.0000
# 3 27.8491 38.0047 83.3083 0.0000 1.4628 0.0000
# 4 0.0000 0.0000 0.0000 36.3974 0.0000 5.6961
# 5 20.8775 4.9443 1.4628 0.0000 34.4530 0.0000
# 6 0.0000 0.0000 0.0000 5.6961 0.0000 32.7204
#
#
#
# Elastic Compliance Matrix: (Units=1/GPa)
#
#
# Indices 1 2 3 4 5 6 
#
# 1 0.032318 -0.006961 -0.007307 0.000000 -0.018274 0.000000
# 2 -0.006961 0.017574 -0.005724 0.000000 0.001939 0.000000
# 3 -0.007307 -0.005724 0.016978 0.000000 0.004529 0.000000
# 4 0.000000 0.000000 0.000000 0.028244 0.000000 -0.004917
# 5 -0.018274 0.001939 0.004529 0.000000 0.039628 0.000000
# 6 0.000000 0.000000 0.000000 -0.004917 0.000000 0.031418
#
#
# Mechanical properties :
#
#
# Convention : Reuss Voigt Hill
#
# Bulk Modulus (GPa) = 37.19458 45.28644 41.24051
# Shear Modulus (GPa) = 23.24423 28.98802 26.11612
#
# Velocity S-wave (km/s) = 3.46282 3.86707 3.67052
# Velocity P-wave (km/s) = 5.93094 6.58036 6.26407
#
# Compressibility (1/GPa) = 0.02688564
#
# Stress axis : x y z
#
# Youngs Moduli (GPa) = 30.94270 56.90128 58.89883
#
# Poissons Ratio (x) = 0.39608 0.43038
# Poissons Ratio (y) = 0.21538 0.33716
# Poissons Ratio (z) = 0.22610 0.32573
#
# Static dielectric constant tensor:
#      x y z
#    x 3.554970 0.000000 0.008250 
#    y 0.000000 3.552050 0.000000 
#    z 0.008250 0.000000 3.517750 
# 
# 
# High freq. dielectric constant tensor:
#      x y z
#    x 1.757780 0.000000 0.004330 
#    y 0.000000 1.762820 0.000000 
#    z 0.004330 0.000000 1.760960 
# 
# From -- ./inp_files/353455.got.cif
#   From: 2010.06.25/outbox.cif.g09.slc.cpg/sg12_177_cif.got.tgz:353455.got - 2010.06.28 00:19:55.
