data_PCOD8106183
_publ_section_title
;
Structure prediction by ZEFSAII (Michael W. Deem and Ramdas Pophale) SiO2 
 PCOD8106183
Probable space group: C 2/M
;
_chemical_formula_sum "Si O2"
_cell_formula_units_Z 56
_cell_length_a 9.280642
_cell_length_b 18.574938
_cell_length_c 25.301739
_cell_angle_alpha 90.000000
_cell_angle_beta 142.795311
_cell_angle_gamma 90.000000
_cell_volume 2637.364113
_symmetry_space_group_name_H-M "C 2/M"
_symmetry_group_IT_number 12
_symmetry_cell_setting 'monoclinic'
loop_
_space_group_symop_operation_xyz
x,y,z
-x,y,-z
-x,-y,-z
x,-y,z
1/2+x,1/2+y,z
1/2-x,1/2+y,-z
1/2-x,1/2-y,-z
1/2+x,1/2-y,z
loop_
_atom_site_type_symbol
_atom_site_label
_atom_site_fract_x
_atom_site_fract_y
_atom_site_fract_z
Si Si1 0.205204 0.673966 0.515051
Si Si2 0.151326 0.417067 0.855102
Si Si3 0.142735 0.083553 0.191434
Si Si4 0.851010 0.083044 0.348432
Si Si5 0.096471 0.415901 0.381254
Si Si6 0.099252 0.707543 0.912000
Si Si7 0.736950 0.827550 0.104137
O O1 0.250000 0.750000 0.500000
O O2 0.445865 0.639629 0.611201
O O3 0.140853 0.619130 0.450225
O O4 0.000000 0.679946 0.500000
O O5 0.193774 0.500000 0.884191
O O6 0.333097 0.390491 0.862302
O O7 0.212470 0.367127 0.923671
O O8 0.882045 0.405074 0.755888
O O9 0.346901 0.117701 0.287674
O O10 0.882162 0.098920 0.139245
O O11 0.195009 0.000000 0.205401
O O12 0.794866 0.098994 0.394005
O O13 0.936690 0.000000 0.367291
O O14 0.078240 0.500000 0.386886
O O15 0.081396 0.763355 0.858497
O O16 0.838670 0.686553 0.857693
O O17 0.250000 0.750000 0.000000
O O18 0.500000 0.831287 0.000000
#
# Coordination Sequence:
#
# PCOD8106183 Si02
#       7
#     8   8   8   8   8   8   8
#     4  12  25  38  55  84 122 161 203 247 293 345
#     4   9  19  38  64  90 116 151 197 246 295 353
#     4   9  19  37  61  89 118 151 194 242 295 354
#     4   9  19  38  63  88 116 154 198 245 299 354
#     4   9  19  38  62  85 116 157 195 238 296 357
#     4  10  21  37  57  82 113 150 190 234 291 354
#     4  10  21  36  56  79 112 152 190 236 290 351
#
# _framework density 21.233321
#
# number of rings (size 3 to 8) (size 9 to 14) (size 15 to 20)
#    0.000    2.286    0.000    4.286    0.000    6.571 
#    0.000    5.000    0.000   10.714    0.000    0.000 
#    0.000    0.000    0.000    0.000    0.000    0.000 
#
# Total GULP energy -346935.010001 kJ/mol
# GULP energy per Si atom -12390.536071 kJ/mol
# Density = 2.118499 g / cm^3
# Si number density = 21.233321 Si / 1000 Ang^3
#
#
#
# Elastic Constant Matrix: (Units=GPa)
#
#
# Indices 1 2 3 4 5 6 
#
# 1 138.0409 38.8629 31.1162 0.0013 12.8470 -0.0004
# 2 38.8629 75.4508 31.5210 0.0008 -2.2082 -0.0003
# 3 31.1162 31.5210 49.7938 0.0061 6.9411 -0.0014
# 4 0.0013 0.0008 0.0061 21.6327 -0.0011 8.5997
# 5 12.8470 -2.2082 6.9411 -0.0011 33.9488 0.0003
# 6 -0.0004 -0.0003 -0.0014 8.5997 0.0003 40.0610
#
#
#
# Elastic Compliance Matrix: (Units=1/GPa)
#
#
# Indices 1 2 3 4 5 6 
#
# 1 0.009228 -0.003555 -0.003085 0.000000 -0.003093 0.000000
# 2 -0.003555 0.019828 -0.011011 0.000003 0.004886 -0.000001
# 3 -0.003085 -0.011011 0.029767 -0.000009 -0.005635 0.000003
# 4 0.000000 0.000003 -0.000009 0.050539 0.000004 -0.010849
# 5 -0.003093 0.004886 -0.005635 0.000004 0.032096 -0.000001
# 6 0.000000 -0.000001 0.000003 -0.010849 -0.000001 0.027291
#
#
# Mechanical properties :
#
#
# Convention : Reuss Voigt Hill
#
# Bulk Modulus (GPa) = 42.51715 51.80953 47.16334
# Shear Modulus (GPa) = 23.59683 29.91419 26.75551
#
# Velocity S-wave (km/s) = 3.33725 3.75751 3.55360
# Velocity P-wave (km/s) = 5.90905 6.57862 6.25281
#
# Compressibility (1/GPa) = 0.02351992
#
# Stress axis : x y z
#
# Youngs Moduli (GPa) = 108.36198 50.43391 33.59437
#
# Poissons Ratio (x) = 0.17928 0.10365
# Poissons Ratio (y) = 0.38521 0.36992
# Poissons Ratio (z) = 0.33434 0.55535
#
# Static dielectric constant tensor:
#      x y z
#    x 4.519170 0.000000 0.061650 
#    y 0.000000 3.914370 0.000000 
#    z 0.061650 0.000000 3.641370 
# 
# 
# High freq. dielectric constant tensor:
#      x y z
#    x 1.836690 0.000000 0.004690 
#    y 0.000000 1.831320 0.000000 
#    z 0.004690 0.000000 1.815500 
# 
# From -- ./inp_files/356740.got.cif
#   From: 2010.06.25/outbox.cif.g09.slc.cpg/sg12_179_cif.got.tgz:356740.got - 2010.06.28 00:19:55.
