data_PCOD8106613
_publ_section_title
;
Structure prediction by ZEFSAII (Michael W. Deem and Ramdas Pophale) SiO2 
 PCOD8106613
Probable space group: C 2/M
;
_chemical_formula_sum "Si O2"
_cell_formula_units_Z 56
_cell_length_a 14.296337
_cell_length_b 32.189112
_cell_length_c 10.877192
_cell_angle_alpha 90.000000
_cell_angle_beta 34.620410
_cell_angle_gamma 90.000000
_cell_volume 2843.829705
_symmetry_space_group_name_H-M "C 2/M"
_symmetry_group_IT_number 12
_symmetry_cell_setting 'monoclinic'
loop_
_space_group_symop_operation_xyz
x,y,z
-x,y,-z
-x,-y,-z
x,-y,z
1/2+x,1/2+y,z
1/2-x,1/2+y,-z
1/2-x,1/2-y,-z
1/2+x,1/2-y,z
loop_
_atom_site_type_symbol
_atom_site_label
_atom_site_fract_x
_atom_site_fract_y
_atom_site_fract_z
Si Si1 0.587279 0.890834 0.023144
Si Si2 0.685702 0.344438 0.781695
Si Si3 0.724926 0.171975 0.049660
Si Si4 0.756824 0.890407 0.507950
Si Si5 0.073194 0.722029 0.555353
Si Si6 0.941678 0.813365 0.423497
Si Si7 0.822009 0.047359 0.634522
O O1 0.716945 0.861663 0.949729
O O2 0.439661 0.898560 0.279183
O O3 0.500000 0.869019 0.000000
O O4 0.683098 0.931708 0.871707
O O5 0.777444 0.350148 0.813075
O O6 0.690837 0.386344 0.692247
O O7 0.774464 0.309583 0.602070
O O8 0.500000 0.329897 0.000000
O O9 0.576080 0.205145 0.196487
O O10 0.902250 0.191858 0.836403
O O11 0.816964 0.849792 0.519850
O O12 0.837449 0.930515 0.484844
O O13 0.142650 0.768218 0.507597
O O14 0.000000 0.723632 0.500000
O O15 0.000000 0.820980 0.500000
O O16 0.000000 0.050885 0.500000
O O17 0.767775 0.000000 0.673895
#
# Coordination Sequence:
#
# PCOD8106613 Si02
#       7
#     8   8   8   8   8   8   8
#     4  10  21  36  61  92 119 151 195 244 301 357
#     4  11  22  39  57  83 114 165 207 242 296 354
#     4  11  20  38  59  80 121 161 205 253 298 355
#     4  11  21  37  59  89 120 154 203 241 297 364
#     4   9  21  37  55  80 115 160 212 255 300 345
#     4  11  21  36  56  83 118 159 206 260 305 347
#     4  10  22  41  66  96 125 153 191 244 306 363
#
# _framework density 19.691756000000002
#
# number of rings (size 3 to 8) (size 9 to 14) (size 15 to 20)
#    0.000    1.571    2.857    3.429    0.000    3.143 
#    0.000    2.143    0.000    1.286    0.000    5.000 
#    0.000    0.000    0.000    0.000    0.000    0.000 
#
# Total GULP energy -346973.567649 kJ/mol
# GULP energy per Si atom -12391.913130 kJ/mol
# Density = 1.964694 g / cm^3
# Si number density = 19.691756 Si / 1000 Ang^3
#
#
#
# Elastic Constant Matrix: (Units=GPa)
#
#
# Indices 1 2 3 4 5 6 
#
# 1 78.1694 42.5624 14.3809 0.0000 13.0322 0.0000
# 2 42.5624 121.8328 40.1278 0.0000 1.2790 0.0000
# 3 14.3809 40.1278 117.4878 0.0000 -4.5791 0.0000
# 4 0.0000 0.0000 0.0000 27.7025 0.0000 -3.9848
# 5 13.0322 1.2790 -4.5791 0.0000 32.1069 0.0000
# 6 0.0000 0.0000 0.0000 -3.9848 0.0000 21.6240
#
#
#
# Elastic Compliance Matrix: (Units=1/GPa)
#
#
# Indices 1 2 3 4 5 6 
#
# 1 0.017149 -0.005793 -0.000385 0.000000 -0.006785 0.000000
# 2 -0.005793 0.011227 -0.003068 0.000000 0.001467 0.000000
# 3 -0.000385 -0.003068 0.009671 0.000000 0.001658 0.000000
# 4 0.000000 0.000000 0.000000 0.037081 0.000000 0.006833
# 5 -0.006785 0.001467 0.001658 0.000000 0.034078 0.000000
# 6 0.000000 0.000000 0.000000 0.006833 0.000000 0.047504
#
#
# Mechanical properties :
#
#
# Convention : Reuss Voigt Hill
#
# Bulk Modulus (GPa) = 51.13875 56.84801 53.99338
# Shear Modulus (GPa) = 27.51478 30.98128 29.24803
#
# Velocity S-wave (km/s) = 3.74207 3.97080 3.85813
# Velocity P-wave (km/s) = 6.68556 7.06786 6.87937
#
# Compressibility (1/GPa) = 0.01955464
#
# Stress axis : x y z
#
# Youngs Moduli (GPa) = 58.31277 89.07135 103.39949
#
# Poissons Ratio (x) = 0.51599 0.03980
# Poissons Ratio (y) = 0.33780 0.31726
# Poissons Ratio (z) = 0.02245 0.27330
#
# Static dielectric constant tensor:
#      x y z
#    x 3.675730 0.000000 0.033610 
#    y 0.000000 3.508150 0.000000 
#    z 0.033610 0.000000 3.815630 
# 
# 
# High freq. dielectric constant tensor:
#      x y z
#    x 1.773250 0.000000 -0.006750 
#    y 0.000000 1.729240 0.000000 
#    z -0.006750 0.000000 1.779680 
# 
# From -- ./inp_files/150408.got.cif
#   From: 2010.06.25/outbox.cif.g09.slc.cpg/sg12_76_cif.got.tgz:150408.got - 2010.06.28 00:19:55.
