data_PCOD8106009
_publ_section_title
;
Structure prediction by ZEFSAII (Michael W. Deem and Ramdas Pophale) SiO2 
 PCOD8106009
Probable space group: C 2/M
;
_chemical_formula_sum "Si O2"
_cell_formula_units_Z 56
_cell_length_a 10.107345
_cell_length_b 9.125732
_cell_length_c 31.841784
_cell_angle_alpha 90.000000
_cell_angle_beta 76.179216
_cell_angle_gamma 90.000000
_cell_volume 2851.955541
_symmetry_space_group_name_H-M "C 2/M"
_symmetry_group_IT_number 12
_symmetry_cell_setting 'monoclinic'
loop_
_space_group_symop_operation_xyz
x,y,z
-x,y,-z
-x,-y,-z
x,-y,z
1/2+x,1/2+y,z
1/2-x,1/2+y,-z
1/2-x,1/2-y,-z
1/2+x,1/2-y,z
loop_
_atom_site_type_symbol
_atom_site_label
_atom_site_fract_x
_atom_site_fract_y
_atom_site_fract_z
Si Si1 0.625651 0.328134 0.693515
Si Si2 0.565682 0.670338 0.114691
Si Si3 0.760806 0.169002 0.162444
Si Si4 0.884040 0.330637 0.974348
Si Si5 0.980751 0.827689 0.548693
Si Si6 0.143591 0.328705 0.260866
Si Si7 0.211928 0.171512 0.595417
O O1 0.601730 0.500000 0.699500
O O2 0.760139 0.278751 0.708240
O O3 0.498583 0.251796 0.724489
O O4 0.641172 0.278967 0.644053
O O5 0.594015 0.500000 0.103418
O O6 0.687314 0.730387 0.133978
O O7 0.422445 0.694877 0.148786
O O8 0.560133 0.756751 0.071762
O O9 0.713521 0.217577 0.212087
O O10 0.724373 0.000000 0.155827
O O11 0.849245 0.500000 0.968265
O O12 0.750000 0.250000 0.000000
O O13 0.000000 0.313237 0.000000
O O14 0.853350 0.753645 0.580286
O O15 0.000000 0.768476 0.500000
O O16 0.114807 0.783803 0.564375
O O17 0.955021 0.000000 0.551128
O O18 0.114881 0.500000 0.264800
O O19 0.243237 0.000000 0.593552
#
# Coordination Sequence:
#
# PCOD8106009 Si02
#       7
#     8   8   8   8   8   8   8
#     4  10  21  37  56  81 112 143 182 231 278 330
#     4  11  23  39  61  87 116 152 190 231 281 331
#     4  10  22  39  58  83 115 148 185 230 277 329
#     4  11  24  41  62  89 119 152 192 235 280 333
#     4  10  21  36  54  79 110 143 183 229 275 329
#     4  10  21  37  57  82 111 145 185 227 275 331
#     4  10  21  36  55  80 109 143 183 227 277 332
#
# _framework density 19.635649999999998
#
# number of rings (size 3 to 8) (size 9 to 14) (size 15 to 20)
#    0.000    1.714    0.000    3.857    0.000    8.286 
#    0.000    0.000    0.000    0.000    0.000    0.000 
#    0.000    0.000    0.000    0.000    0.000    0.000 
#
# Total GULP energy -347372.086010 kJ/mol
# GULP energy per Si atom -12406.145929 kJ/mol
# Density = 1.959096 g / cm^3
# Si number density = 19.635650 Si / 1000 Ang^3
#
#
#
# Elastic Constant Matrix: (Units=GPa)
#
#
# Indices 1 2 3 4 5 6 
#
# 1 74.0470 37.0203 12.4858 0.0000 -5.2093 0.0000
# 2 37.0203 67.8254 33.6804 0.0000 -1.8143 0.0000
# 3 12.4858 33.6804 95.7282 0.0000 1.1174 0.0000
# 4 0.0000 0.0000 0.0000 24.1540 0.0000 -13.8328
# 5 -5.2093 -1.8143 1.1174 0.0000 42.4672 0.0000
# 6 0.0000 0.0000 0.0000 -13.8328 0.0000 27.0210
#
#
#
# Elastic Compliance Matrix: (Units=1/GPa)
#
#
# Indices 1 2 3 4 5 6 
#
# 1 0.018864 -0.010924 0.001362 0.000000 0.001812 0.000000
# 2 -0.010924 0.024228 -0.007098 0.000000 -0.000118 0.000000
# 3 0.001362 -0.007098 0.012771 0.000000 -0.000472 0.000000
# 4 0.000000 0.000000 0.000000 0.058573 0.000000 0.029985
# 5 0.001812 -0.000118 -0.000472 0.000000 0.023777 0.000000
# 6 0.000000 0.000000 0.000000 0.029985 0.000000 0.052359
#
#
# Mechanical properties :
#
#
# Convention : Reuss Voigt Hill
#
# Bulk Modulus (GPa) = 44.35968 44.88596 44.62282
# Shear Modulus (GPa) = 21.60685 29.02272 25.31478
#
# Velocity S-wave (km/s) = 3.32081 3.84873 3.59447
# Velocity P-wave (km/s) = 6.11099 6.53141 6.32469
#
# Compressibility (1/GPa) = 0.02254299
#
# Stress axis : x y z
#
# Youngs Moduli (GPa) = 53.00980 41.27457 78.29974
#
# Poissons Ratio (x) = 0.45090 -0.10664
# Poissons Ratio (y) = 0.57910 0.55577
# Poissons Ratio (z) = -0.07220 0.29297
#
# Static dielectric constant tensor:
#      x y z
#    x 3.544810 0.000000 0.097860 
#    y 0.000000 3.569100 0.000000 
#    z 0.097860 0.000000 3.883980 
# 
# 
# High freq. dielectric constant tensor:
#      x y z
#    x 1.776490 0.000000 0.001670 
#    y 0.000000 1.761460 0.000000 
#    z 0.001670 0.000000 1.783090 
# 
# From -- ./inp_files/373473.got.cif
#   From: 2010.06.25/outbox.cif.g09.slc.cpg/sg12_187_cif.got.tgz:373473.got - 2010.06.28 00:19:55.
