data_PCOD8106375
_publ_section_title
;
Structure prediction by ZEFSAII (Michael W. Deem and Ramdas Pophale) SiO2 
 PCOD8106375
Probable space group: C 2/M
;
_chemical_formula_sum "Si O2"
_cell_formula_units_Z 52
_cell_length_a 18.313294
_cell_length_b 21.520463
_cell_length_c 8.773007
_cell_angle_alpha 90.000000
_cell_angle_beta 45.988026
_cell_angle_gamma 90.000000
_cell_volume 2486.640362
_symmetry_space_group_name_H-M "C 2/M"
_symmetry_group_IT_number 12
_symmetry_cell_setting 'monoclinic'
loop_
_space_group_symop_operation_xyz
x,y,z
-x,y,-z
-x,-y,-z
x,-y,z
1/2+x,1/2+y,z
1/2-x,1/2+y,-z
1/2-x,1/2-y,-z
1/2+x,1/2-y,z
loop_
_atom_site_type_symbol
_atom_site_label
_atom_site_fract_x
_atom_site_fract_y
_atom_site_fract_z
Si Si1 0.000000 0.785055 0.000000
Si Si2 0.592527 0.224960 0.152173
Si Si3 0.683401 0.318867 0.234021
Si Si4 0.187423 0.429439 0.468111
Si Si5 0.741320 0.932165 0.041910
Si Si6 0.472923 0.092310 0.701286
Si Si7 0.694934 0.317296 0.562286
O O1 0.899818 0.825090 0.184351
O O2 0.022098 0.743208 0.113828
O O3 0.599216 0.276684 0.273916
O O4 0.537463 0.166046 0.303163
O O5 0.705547 0.211546 0.928358
O O6 0.651359 0.325856 0.455601
O O7 0.681211 0.384274 0.147076
O O8 0.225190 0.500000 0.451905
O O9 0.214242 0.411517 0.254159
O O10 0.233552 0.376448 0.509232
O O11 0.065719 0.426521 0.676982
O O12 0.637279 0.934477 0.091079
O O13 0.792773 0.000000 0.965063
O O14 0.500000 0.062127 0.500000
O O15 0.750000 0.250000 0.500000
#
# Coordination Sequence:
#
# PCOD8106375 Si02
#       7
#     4   8   8   8   8   8   8
#     4  12  24  38  61  90 127 154 214 256 328 372
#     4  10  21  36  57  89 123 163 200 262 305 374
#     4  10  22  38  59  85 125 165 210 251 317 371
#     4  10  21  39  61  90 128 168 207 260 323 382
#     4   9  18  35  59  87 122 164 210 259 314 385
#     4   9  18  30  58  89 123 159 205 249 310 379
#     4  12  25  40  62  91 125 168 211 266 315 374
#
# _framework density 20.911747999999999
#
# number of rings (size 3 to 8) (size 9 to 14) (size 15 to 20)
#    0.000    1.846    1.538    2.308    8.615    2.462 
#    0.000    0.385    0.000    3.692    0.000    4.308 
#    0.000    0.000    0.000    0.000    0.000    0.000 
#
# Total GULP energy -322247.832272 kJ/mol
# GULP energy per Si atom -12394.147395 kJ/mol
# Density = 2.086415 g / cm^3
# Si number density = 20.911748 Si / 1000 Ang^3
#
#
#
# Elastic Constant Matrix: (Units=GPa)
#
#
# Indices 1 2 3 4 5 6 
#
# 1 92.7836 45.0753 9.4640 0.0000 12.8021 0.0000
# 2 45.0753 147.2746 23.1951 0.0000 8.0649 0.0000
# 3 9.4640 23.1951 60.1806 0.0000 6.1646 0.0000
# 4 0.0000 0.0000 0.0000 20.7147 0.0000 4.4975
# 5 12.8021 8.0649 6.1646 0.0000 29.3098 0.0000
# 6 0.0000 0.0000 0.0000 4.4975 0.0000 25.8869
#
#
#
# Elastic Compliance Matrix: (Units=1/GPa)
#
#
# Indices 1 2 3 4 5 6 
#
# 1 0.013283 -0.003784 -0.000146 0.000000 -0.004730 0.000000
# 2 -0.003784 0.008366 -0.002619 0.000000 -0.000099 0.000000
# 3 -0.000146 -0.002619 0.017956 0.000000 -0.002992 0.000000
# 4 0.000000 0.000000 0.000000 0.050167 0.000000 -0.008716
# 5 -0.004730 -0.000099 -0.002992 0.000000 0.036841 0.000000
# 6 0.000000 0.000000 0.000000 -0.008716 0.000000 0.040144
#
#
# Mechanical properties :
#
#
# Convention : Reuss Voigt Hill
#
# Bulk Modulus (GPa) = 37.72590 50.63418 44.18004
# Shear Modulus (GPa) = 26.49840 30.01590 28.25715
#
# Velocity S-wave (km/s) = 3.56357 3.79273 3.67993
# Velocity P-wave (km/s) = 5.91707 6.59132 6.26328
#
# Compressibility (1/GPa) = 0.02650699
#
# Stress axis : x y z
#
# Youngs Moduli (GPa) = 75.28187 119.53196 55.69265
#
# Poissons Ratio (x) = 0.45225 0.00814
# Poissons Ratio (y) = 0.28483 0.14588
# Poissons Ratio (z) = 0.01100 0.31310
#
# Static dielectric constant tensor:
#      x y z
#    x 3.707240 0.000000 -0.014830 
#    y 0.000000 3.759090 0.000000 
#    z -0.014830 0.000000 3.554740 
# 
# 
# High freq. dielectric constant tensor:
#      x y z
#    x 1.806850 0.000000 0.002190 
#    y 0.000000 1.816580 0.000000 
#    z 0.002190 0.000000 1.797320 
# 
# From -- ./inp_files/77939.got.cif
#   From: 2010.06.25/outbox.cif.g09.slc.cpg/sg12_39_cif.got.tgz:77939.got - 2010.06.28 00:19:55.
