data_PCOD8106808
_publ_section_title
;
Structure prediction by ZEFSAII (Michael W. Deem and Ramdas Pophale) SiO2 
 PCOD8106808
Probable space group: C 2/M
;
_chemical_formula_sum "Si O2"
_cell_formula_units_Z 56
_cell_length_a 22.127994
_cell_length_b 8.932013
_cell_length_c 14.572243
_cell_angle_alpha 90.000000
_cell_angle_beta 77.603165
_cell_angle_gamma 90.000000
_cell_volume 2813.014243
_symmetry_space_group_name_H-M "C 2/M"
_symmetry_group_IT_number 12
_symmetry_cell_setting 'monoclinic'
loop_
_space_group_symop_operation_xyz
x,y,z
-x,y,-z
-x,-y,-z
x,-y,z
1/2+x,1/2+y,z
1/2-x,1/2+y,-z
1/2-x,1/2-y,-z
1/2+x,1/2-y,z
loop_
_atom_site_type_symbol
_atom_site_label
_atom_site_fract_x
_atom_site_fract_y
_atom_site_fract_z
Si Si1 0.903705 0.829535 0.377593
Si Si2 0.349084 0.327382 0.203211
Si Si3 0.890999 0.826120 0.861325
Si Si4 0.031289 0.324257 0.316906
Si Si5 0.777542 0.828405 0.768525
Si Si6 0.873854 0.827663 0.589197
Si Si7 0.928759 0.676593 0.029570
O O1 0.857190 0.799350 0.309054
O O2 0.865373 0.800744 0.483649
O O3 0.960195 0.715680 0.355109
O O4 0.929034 0.000000 0.366898
O O5 0.356815 0.500000 0.173894
O O6 0.281084 0.275844 0.195995
O O7 0.401744 0.233823 0.134352
O O8 0.945095 0.753965 0.783147
O O9 0.824592 0.799397 0.836558
O O10 0.906196 0.000000 0.867089
O O11 0.889269 0.749849 0.960930
O O12 0.038636 0.500000 0.301955
O O13 0.069437 0.271598 0.393240
O O14 0.810661 0.783366 0.661878
O O15 0.755344 0.000000 0.773517
O O16 0.889817 0.000000 0.607981
O O17 0.921473 0.500000 0.025961
O O18 0.000000 0.726565 0.000000
#
# Coordination Sequence:
#
# PCOD8106808 Si02
#       7
#     8   8   8   8   8   8   8
#     4  10  21  37  56  80 113 154 196 235 281 338
#     4  11  24  39  58  84 114 151 192 233 279 336
#     4  10  21  39  63  86 112 151 191 230 281 338
#     4  11  21  33  54  87 120 148 186 236 287 338
#     4   9  20  39  60  83 112 147 189 235 283 333
#     4   9  19  37  59  81 111 153 194 234 283 337
#     4  11  24  41  62  89 118 147 182 229 284 336
#
# _framework density 19.907471999999999
#
# number of rings (size 3 to 8) (size 9 to 14) (size 15 to 20)
#    0.000    1.857    0.000    4.714    0.000   10.857 
#    0.000    0.000    0.000    0.000    0.000    0.000 
#    0.000    0.000    0.000    0.000    0.000    0.000 
#
# Total GULP energy -347348.074000 kJ/mol
# GULP energy per Si atom -12405.288357 kJ/mol
# Density = 1.986216 g / cm^3
# Si number density = 19.907472 Si / 1000 Ang^3
#
#
#
# Elastic Constant Matrix: (Units=GPa)
#
#
# Indices 1 2 3 4 5 6 
#
# 1 99.2439 48.9501 35.7941 0.0000 -6.6723 0.0000
# 2 48.9501 100.4119 41.0451 0.0000 1.0855 0.0000
# 3 35.7941 41.0451 115.0336 0.0000 8.9766 0.0000
# 4 0.0000 0.0000 0.0000 22.2220 0.0000 -5.0561
# 5 -6.6723 1.0855 8.9766 0.0000 21.3423 0.0000
# 6 0.0000 0.0000 0.0000 -5.0561 0.0000 27.8690
#
#
#
# Elastic Compliance Matrix: (Units=1/GPa)
#
#
# Indices 1 2 3 4 5 6 
#
# 1 0.014435 -0.005941 -0.002841 0.000000 0.006010 0.000000
# 2 -0.005941 0.014134 -0.003095 0.000000 -0.001274 0.000000
# 3 -0.002841 -0.003095 0.011103 0.000000 -0.005401 0.000000
# 4 0.000000 0.000000 0.000000 0.046938 0.000000 0.008516
# 5 0.006010 -0.001274 -0.005401 0.000000 0.051071 0.000000
# 6 0.000000 0.000000 0.000000 0.008516 0.000000 0.037427
#
#
# Mechanical properties :
#
#
# Convention : Reuss Voigt Hill
#
# Bulk Modulus (GPa) = 62.82052 62.91868 62.86960
# Shear Modulus (GPa) = 24.48971 26.87998 25.68485
#
# Velocity S-wave (km/s) = 3.51119 3.67856 3.59585
# Velocity P-wave (km/s) = 6.93273 7.05100 6.99211
#
# Compressibility (1/GPa) = 0.01591837
#
# Stress axis : x y z
#
# Youngs Moduli (GPa) = 69.27626 70.75140 90.06632
#
# Poissons Ratio (x) = 0.42031 0.25587
# Poissons Ratio (y) = 0.41154 0.27877
# Poissons Ratio (z) = 0.19681 0.21899
#
# Static dielectric constant tensor:
#      x y z
#    x 3.390800 0.000000 0.019870 
#    y 0.000000 3.599910 0.000000 
#    z 0.019870 0.000000 3.782660 
# 
# 
# High freq. dielectric constant tensor:
#      x y z
#    x 1.764860 0.000000 0.000550 
#    y 0.000000 1.778710 0.000000 
#    z 0.000550 0.000000 1.786580 
# 
# From -- ./inp_files/230879.got.cif
#   From: 2010.06.25/outbox.cif.g09.slc.cpg/sg12_116_cif.got.tgz:230879.got - 2010.06.28 00:19:55.
