data_PCOD8106205
_publ_section_title
;
Structure prediction by ZEFSAII (Michael W. Deem and Ramdas Pophale) SiO2 
 PCOD8106205
Probable space group: C 2/M
;
_chemical_formula_sum "Si O2"
_cell_formula_units_Z 56
_cell_length_a 15.049110
_cell_length_b 9.492686
_cell_length_c 20.707591
_cell_angle_alpha 90.000000
_cell_angle_beta 72.048043
_cell_angle_gamma 90.000000
_cell_volume 2814.193723
_symmetry_space_group_name_H-M "C 2/M"
_symmetry_group_IT_number 12
_symmetry_cell_setting 'monoclinic'
loop_
_space_group_symop_operation_xyz
x,y,z
-x,y,-z
-x,-y,-z
x,-y,z
1/2+x,1/2+y,z
1/2-x,1/2+y,-z
1/2-x,1/2-y,-z
1/2+x,1/2-y,z
loop_
_atom_site_type_symbol
_atom_site_label
_atom_site_fract_x
_atom_site_fract_y
_atom_site_fract_z
Si Si1 0.057141 0.662144 0.171674
Si Si2 0.365981 0.338897 0.438124
Si Si3 0.764159 0.837303 0.144678
Si Si4 0.535051 0.656733 0.704659
Si Si5 0.702659 0.661996 0.415427
Si Si6 0.059911 0.333962 0.924548
Si Si7 0.255147 0.660248 0.292526
O O1 0.034472 0.500000 0.188717
O O2 0.166044 0.683283 0.129490
O O3 0.034483 0.737962 0.244160
O O4 0.995280 0.720607 0.126454
O O5 0.329142 0.500000 0.432241
O O6 0.461141 0.317737 0.374366
O O7 0.381331 0.322680 0.512408
O O8 0.293616 0.221812 0.430796
O O9 0.750241 0.782904 0.220829
O O10 0.841484 0.744402 0.091603
O O11 0.796524 0.000000 0.137002
O O12 0.499242 0.500000 0.728454
O O13 0.639677 0.678818 0.706920
O O14 0.719013 0.500000 0.392718
O O15 0.685043 0.747951 0.353182
O O16 0.078204 0.500000 0.917664
O O17 0.000000 0.291990 0.000000
O O18 0.220299 0.500000 0.303489
#
# Coordination Sequence:
#
# PCOD8106205 Si02
#       7
#     8   8   8   8   8   8   8
#     4  10  21  36  56  82 111 142 181 224 265 315
#     4   8  15  26  39  63 100 138 175 221 269 317
#     4  10  21  38  58  81 110 146 184 221 263 318
#     4   9  16  29  50  73 101 139 180 221 269 318
#     4   9  15  23  40  67  98 133 177 223 269 317
#     4  10  22  40  60  85 117 144 170 217 274 319
#     4   9  17  30  48  70 101 138 176 221 270 314
#
# _framework density 19.899128000000001
#
# number of rings (size 3 to 8) (size 9 to 14) (size 15 to 20)
#    0.000    2.714    1.429    1.286    0.000    4.857 
#    0.000    0.000    0.000    0.857    0.000    6.000 
#    0.000    0.000    0.000    0.000    0.000    0.000 
#
# Total GULP energy -347002.831673 kJ/mol
# GULP energy per Si atom -12392.958274 kJ/mol
# Density = 1.985384 g / cm^3
# Si number density = 19.899128 Si / 1000 Ang^3
#
#
#
# Elastic Constant Matrix: (Units=GPa)
#
#
# Indices 1 2 3 4 5 6 
#
# 1 35.7470 20.2163 25.2180 0.0000 -16.0148 0.0000
# 2 20.2163 77.0980 59.3803 0.0000 -11.1220 0.0000
# 3 25.2180 59.3803 134.8928 0.0000 -13.1333 0.0000
# 4 0.0000 0.0000 0.0000 36.4265 0.0000 -5.3009
# 5 -16.0148 -11.1220 -13.1333 0.0000 15.0841 0.0000
# 6 0.0000 0.0000 0.0000 -5.3009 0.0000 18.3910
#
#
#
# Elastic Compliance Matrix: (Units=1/GPa)
#
#
# Indices 1 2 3 4 5 6 
#
# 1 0.057444 -0.004546 -0.003416 0.000000 0.054662 0.000000
# 2 -0.004546 0.020813 -0.007963 0.000000 0.003586 0.000000
# 3 -0.003416 -0.007963 0.011617 0.000000 0.000617 0.000000
# 4 0.000000 0.000000 0.000000 0.028654 0.000000 0.008259
# 5 0.054662 0.003586 0.000617 0.000000 0.127512 0.000000
# 6 0.000000 0.000000 0.000000 0.008259 0.000000 0.056755
#
#
# Mechanical properties :
#
#
# Convention : Reuss Voigt Hill
#
# Bulk Modulus (GPa) = 17.23417 50.81855 34.02636
# Shear Modulus (GPa) = 14.12482 23.50855 18.81669
#
# Velocity S-wave (km/s) = 2.66714 3.44086 3.07840
# Velocity P-wave (km/s) = 4.26197 6.43269 5.45637
#
# Compressibility (1/GPa) = 0.05802425
#
# Stress axis : x y z
#
# Youngs Moduli (GPa) = 17.40819 48.04723 86.07944
#
# Poissons Ratio (x) = 0.21845 0.29402
# Poissons Ratio (y) = 0.07915 0.68543
# Poissons Ratio (z) = 0.05946 0.38259
#
# Static dielectric constant tensor:
#      x y z
#    x 3.233350 0.000000 0.139640 
#    y 0.000000 3.541160 0.000000 
#    z 0.139640 0.000000 3.947650 
# 
# 
# High freq. dielectric constant tensor:
#      x y z
#    x 1.735790 0.000000 0.006030 
#    y 0.000000 1.770050 0.000000 
#    z 0.006030 0.000000 1.787120 
# 
# From -- ./inp_files/338476.got.cif
#   From: 2010.06.25/outbox.cif.g09.slc.cpg/sg12_170_cif.got.tgz:338476.got - 2010.06.28 00:19:55.
