data_PCOD8106063
_publ_section_title
;
Structure prediction by ZEFSAII (Michael W. Deem and Ramdas Pophale) SiO2 
 PCOD8106063
Probable space group: C 2/M
;
_chemical_formula_sum "Si O2"
_cell_formula_units_Z 56
_cell_length_a 30.140083
_cell_length_b 8.750356
_cell_length_c 12.381390
_cell_angle_alpha 90.000000
_cell_angle_beta 105.756536
_cell_angle_gamma 90.000000
_cell_volume 3142.723219
_symmetry_space_group_name_H-M "C 2/M"
_symmetry_group_IT_number 12
_symmetry_cell_setting 'monoclinic'
loop_
_space_group_symop_operation_xyz
x,y,z
-x,y,-z
-x,-y,-z
x,-y,z
1/2+x,1/2+y,z
1/2-x,1/2+y,-z
1/2-x,1/2-y,-z
1/2+x,1/2-y,z
loop_
_atom_site_type_symbol
_atom_site_label
_atom_site_fract_x
_atom_site_fract_y
_atom_site_fract_z
Si Si1 0.951335 0.820902 0.519447
Si Si2 0.199500 0.678010 0.854376
Si Si3 0.551782 0.321910 0.860965
Si Si4 0.800830 0.179167 0.918077
Si Si5 0.894206 0.822362 0.885168
Si Si6 0.457363 0.821347 0.755771
Si Si7 0.895018 0.678757 0.302019
O O1 0.950133 0.772233 0.642052
O O2 0.910980 0.731578 0.430426
O O3 0.000000 0.773742 0.500000
O O4 0.942213 0.000000 0.503510
O O5 0.202174 0.500000 0.878727
O O6 0.249898 0.735737 0.845856
O O7 0.159612 0.716826 0.741803
O O8 0.185888 0.752616 0.958035
O O9 0.539760 0.500000 0.842957
O O10 0.504457 0.229686 0.844491
O O11 0.577163 0.271467 0.769252
O O12 0.582904 0.285847 0.984602
O O13 0.840062 0.223721 0.857210
O O14 0.801995 0.000000 0.936119
O O15 0.915293 0.715976 0.807327
O O16 0.901136 0.000000 0.859231
O O17 0.458460 0.000000 0.730512
O O18 0.904742 0.500000 0.291449
#
# Coordination Sequence:
#
# PCOD8106063 Si02
#       7
#     8   8   8   8   8   8   8
#     4  11  23  39  59  78 102 141 184 225 265 318
#     4   9  18  31  51  81 113 141 174 220 269 314
#     4  11  21  35  54  79 110 147 184 217 258 318
#     4   9  17  32  53  78 109 146 181 214 260 317
#     4  10  21  36  55  78 110 149 185 219 258 317
#     4  12  25  38  55  78 108 143 180 226 274 320
#     4  11  21  33  54  83 114 142 174 223 274 314
#
# _framework density 17.818942
#
# number of rings (size 3 to 8) (size 9 to 14) (size 15 to 20)
#    0.000    1.571    2.857    3.000    0.000    4.571 
#    0.000    0.000    0.000    0.857    0.000    0.000 
#    0.000    0.000    0.000    0.000    0.000    0.000 
#
# Total GULP energy -347227.696056 kJ/mol
# GULP energy per Si atom -12400.989145 kJ/mol
# Density = 1.777839 g / cm^3
# Si number density = 17.818942 Si / 1000 Ang^3
#
#
#
# Elastic Constant Matrix: (Units=GPa)
#
#
# Indices 1 2 3 4 5 6 
#
# 1 118.0627 28.7517 39.0604 0.0000 13.7951 0.0000
# 2 28.7517 34.2520 17.5622 0.0000 6.7893 0.0000
# 3 39.0604 17.5622 66.9485 0.0000 7.6236 0.0000
# 4 0.0000 0.0000 0.0000 27.5206 0.0000 -1.8972
# 5 13.7951 6.7893 7.6236 0.0000 23.4533 0.0000
# 6 0.0000 0.0000 0.0000 -1.8972 0.0000 24.3169
#
#
#
# Elastic Compliance Matrix: (Units=1/GPa)
#
#
# Indices 1 2 3 4 5 6 
#
# 1 0.012215 -0.007050 -0.004872 0.000000 -0.003560 0.000000
# 2 -0.007050 0.038998 -0.005508 0.000000 -0.005352 0.000000
# 3 -0.004872 -0.005508 0.019436 0.000000 -0.001858 0.000000
# 4 0.000000 0.000000 0.000000 0.036533 0.000000 0.002850
# 5 -0.003560 -0.005352 -0.001858 0.000000 0.046885 0.000000
# 6 0.000000 0.000000 0.000000 0.002850 0.000000 0.041346
#
#
# Mechanical properties :
#
#
# Convention : Reuss Voigt Hill
#
# Bulk Modulus (GPa) = 27.94071 43.33464 35.63768
# Shear Modulus (GPa) = 20.64408 23.98409 22.31409
#
# Velocity S-wave (km/s) = 3.40744 3.67275 3.54258
# Velocity P-wave (km/s) = 5.58527 6.50828 6.06436
#
# Compressibility (1/GPa) = 0.03579007
#
# Stress axis : x y z
#
# Youngs Moduli (GPa) = 81.86881 25.64253 51.45196
#
# Poissons Ratio (x) = 0.18077 0.25067
# Poissons Ratio (y) = 0.57714 0.28338
# Poissons Ratio (z) = 0.39885 0.14123
#
# Static dielectric constant tensor:
#      x y z
#    x 3.725600 0.000000 0.225870 
#    y 0.000000 3.329290 0.000000 
#    z 0.225870 0.000000 3.213570 
# 
# 
# High freq. dielectric constant tensor:
#      x y z
#    x 1.693930 0.000000 0.012050 
#    y 0.000000 1.695330 0.000000 
#    z 0.012050 0.000000 1.669460 
# 
# From -- ./inp_files/186820.got.cif
#   From: 2010.06.25/outbox.cif.g09.slc.cpg/sg12_94_cif.got.tgz:186820.got - 2010.06.28 00:19:55.
