data_PCOD8106607
_publ_section_title
;
Structure prediction by ZEFSAII (Michael W. Deem and Ramdas Pophale) SiO2 
 PCOD8106607
Probable space group: C 2/M
;
_chemical_formula_sum "Si O2"
_cell_formula_units_Z 64
_cell_length_a 28.704455
_cell_length_b 8.853516
_cell_length_c 23.917996
_cell_angle_alpha 90.000000
_cell_angle_beta 147.249124
_cell_angle_gamma 90.000000
_cell_volume 3288.341890
_symmetry_space_group_name_H-M "C 2/M"
_symmetry_group_IT_number 12
_symmetry_cell_setting 'monoclinic'
loop_
_space_group_symop_operation_xyz
x,y,z
-x,y,-z
-x,-y,-z
x,-y,z
1/2+x,1/2+y,z
1/2-x,1/2+y,-z
1/2-x,1/2-y,-z
1/2+x,1/2-y,z
loop_
_atom_site_type_symbol
_atom_site_label
_atom_site_fract_x
_atom_site_fract_y
_atom_site_fract_z
Si Si1 0.085914 0.178762 0.055278
Si Si2 0.250844 0.320667 0.710623
Si Si3 0.068393 0.823075 0.818584
Si Si4 0.387209 0.174674 0.638012
Si Si5 0.842668 0.823144 0.207123
Si Si6 0.734350 0.675605 0.400204
Si Si7 0.646243 0.821394 0.006391
Si Si8 0.411197 0.179361 0.384142
O O1 0.087480 0.253432 0.996013
O O2 0.088597 0.000000 0.050088
O O3 0.166100 0.238991 0.172389
O O4 0.000000 0.231181 0.000000
O O5 0.248700 0.500000 0.708052
O O6 0.253965 0.260986 0.650464
O O7 0.165988 0.256662 0.655308
O O8 0.122769 0.780051 0.818889
O O9 0.110166 0.733958 0.911436
O O10 0.970743 0.773178 0.710252
O O11 0.071541 0.000000 0.834624
O O12 0.342179 0.229298 0.649443
O O13 0.323948 0.202097 0.522207
O O14 0.412583 0.000000 0.670120
O O15 0.901684 0.739300 0.311815
O O16 0.849341 0.000000 0.225152
O O17 0.744466 0.765545 0.112895
O O18 0.707684 0.500000 0.374350
O O19 0.640410 0.000000 0.002119
O O20 0.500000 0.239694 0.500000
O O21 0.410039 0.000000 0.380759
#
# Coordination Sequence:
#
# PCOD8106607 Si02
#       8
#     8   8   8   8   8   8   8   8
#     4  10  21  37  60  89 119 158 200 234 285 353
#     4   9  18  35  57  86 118 154 197 238 282 342
#     4  11  24  40  61  85 113 152 196 238 294 358
#     4  10  21  37  57  87 119 151 195 246 294 340
#     4  10  23  42  61  85 118 153 190 239 297 352
#     4   9  19  36  59  82 118 161 196 237 287 345
#     4  11  23  41  62  87 117 148 191 246 299 346
#     4  10  21  36  61  91 119 154 198 241 285 343
#
# _framework density 19.462695
#
# number of rings (size 3 to 8) (size 9 to 14) (size 15 to 20)
#    0.000    2.000    1.250    1.500    3.500    2.500 
#    0.000    1.250    0.000    0.000    0.000    0.000 
#    0.000    0.000    0.000    0.000    0.000    0.000 
#
# Total GULP energy -396952.034220 kJ/mol
# GULP energy per Si atom -12404.751069 kJ/mol
# Density = 1.941840 g / cm^3
# Si number density = 19.462695 Si / 1000 Ang^3
#
#
#
# Elastic Constant Matrix: (Units=GPa)
#
#
# Indices 1 2 3 4 5 6 
#
# 1 153.3794 37.5651 70.2480 0.0000 -2.4111 0.0000
# 2 37.5651 27.0520 30.5391 0.0000 -0.0362 0.0000
# 3 70.2480 30.5391 105.7048 0.0000 7.0321 0.0000
# 4 0.0000 0.0000 0.0000 33.6626 0.0000 -1.9523
# 5 -2.4111 -0.0362 7.0321 0.0000 38.4385 0.0000
# 6 0.0000 0.0000 0.0000 -1.9523 0.0000 29.1445
#
#
#
# Elastic Compliance Matrix: (Units=1/GPa)
#
#
# Indices 1 2 3 4 5 6 
#
# 1 0.011156 -0.010397 -0.004511 0.000000 0.001515 0.000000
# 2 -0.010397 0.064888 -0.011943 0.000000 0.001594 0.000000
# 3 -0.004511 -0.011943 0.016124 0.000000 -0.003244 0.000000
# 4 0.000000 0.000000 0.000000 0.029822 0.000000 0.001998
# 5 0.001515 0.001594 -0.003244 0.000000 0.026706 0.000000
# 6 0.000000 0.000000 0.000000 0.001998 0.000000 0.034446
#
#
# Mechanical properties :
#
#
# Convention : Reuss Voigt Hill
#
# Bulk Modulus (GPa) = 25.99684 62.53785 44.26734
# Shear Modulus (GPa) = 20.02666 30.10139 25.06402
#
# Velocity S-wave (km/s) = 3.21125 3.93698 3.59248
# Velocity P-wave (km/s) = 5.20920 7.27106 6.32471
#
# Compressibility (1/GPa) = 0.03846622
#
# Stress axis : x y z
#
# Youngs Moduli (GPa) = 89.63763 15.41108 62.01761
#
# Poissons Ratio (x) = 0.16023 0.27976
# Poissons Ratio (y) = 0.93197 0.74069
# Poissons Ratio (z) = 0.40435 0.18406
#
# Static dielectric constant tensor:
#      x y z
#    x 3.712860 0.000000 0.065880 
#    y 0.000000 3.340140 0.000000 
#    z 0.065880 0.000000 3.662420 
# 
# 
# High freq. dielectric constant tensor:
#      x y z
#    x 1.771410 0.000000 -0.000910 
#    y 0.000000 1.740720 0.000000 
#    z -0.000910 0.000000 1.767580 
# 
# From -- ./inp_files/353466.got.cif
#   From: 2010.06.25/outbox.cif.g09.slc.cpg/sg12_177_cif.got.tgz:353466.got - 2010.06.28 00:19:55.
