data_PCOD8106508
_publ_section_title
;
Structure prediction by ZEFSAII (Michael W. Deem and Ramdas Pophale) SiO2 
 PCOD8106508
Probable space group: C 2/M
;
_chemical_formula_sum "Si O2"
_cell_formula_units_Z 64
_cell_length_a 19.305245
_cell_length_b 9.147088
_cell_length_c 29.992888
_cell_angle_alpha 90.000000
_cell_angle_beta 141.508966
_cell_angle_gamma 90.000000
_cell_volume 3296.405083
_symmetry_space_group_name_H-M "C 2/M"
_symmetry_group_IT_number 12
_symmetry_cell_setting 'monoclinic'
loop_
_space_group_symop_operation_xyz
x,y,z
-x,y,-z
-x,-y,-z
x,-y,z
1/2+x,1/2+y,z
1/2-x,1/2+y,-z
1/2-x,1/2-y,-z
1/2+x,1/2-y,z
loop_
_atom_site_type_symbol
_atom_site_label
_atom_site_fract_x
_atom_site_fract_y
_atom_site_fract_z
Si Si1 0.914570 0.166717 0.848846
Si Si2 0.034178 0.171961 0.383177
Si Si3 0.323858 0.328092 0.628835
Si Si4 0.823560 0.331094 0.239707
Si Si5 0.201008 0.330471 0.875934
Si Si6 0.929724 0.327540 0.007945
Si Si7 0.405053 0.672789 0.486976
Si Si8 0.490321 0.334091 0.789652
O O1 0.794930 0.227511 0.803102
O O2 0.916992 0.176036 0.796955
O O3 0.931144 0.000000 0.874121
O O4 0.009417 0.267377 0.917736
O O5 0.917775 0.242023 0.311934
O O6 0.131395 0.218955 0.397579
O O7 0.064815 0.225710 0.448051
O O8 0.016707 0.000000 0.372475
O O9 0.300811 0.500000 0.620034
O O10 0.210973 0.246013 0.584616
O O11 0.415896 0.278506 0.711041
O O12 0.839687 0.500000 0.259960
O O13 0.829261 0.301982 0.190352
O O14 0.219301 0.500000 0.896133
O O15 0.309652 0.244275 0.945087
O O16 0.097007 0.268301 0.851014
O O17 0.915567 0.500000 0.004951
O O18 0.000000 0.282087 0.000000
O O19 0.500000 0.724074 0.500000
O O20 0.389247 0.500000 0.476915
O O21 0.530610 0.500000 0.801055
#
# Coordination Sequence:
#
# PCOD8106508 Si02
#       8
#     8   8   8   8   8   8   8   8
#     4  10  22  40  60  85 119 156 192 240 296 347
#     4  10  21  38  60  84 115 155 194 237 288 339
#     4  10  21  38  61  86 113 152 196 236 282 340
#     4  10  21  36  59  89 115 148 196 242 287 342
#     4  11  22  38  62  88 117 153 194 241 292 347
#     4  11  23  38  60  88 117 153 197 244 292 345
#     4  10  23  40  57  85 121 154 190 235 289 343
#     4  10  22  40  61  87 121 154 191 241 293 346
#
# _framework density 19.415089999999999
#
# number of rings (size 3 to 8) (size 9 to 14) (size 15 to 20)
#    0.000    1.750    2.500    1.125    1.750    4.250 
#    0.000    0.000    0.000    0.000    0.000    0.000 
#    0.000    0.000    0.000    0.000    0.000    0.000 
#
# Total GULP energy -396951.840465 kJ/mol
# GULP energy per Si atom -12404.745015 kJ/mol
# Density = 1.937090 g / cm^3
# Si number density = 19.415090 Si / 1000 Ang^3
#
#
#
# Elastic Constant Matrix: (Units=GPa)
#
#
# Indices 1 2 3 4 5 6 
#
# 1 40.4362 44.4750 45.0162 0.0004 -1.1553 0.0012
# 2 44.4750 52.9261 42.8867 -0.0002 11.1223 -0.0004
# 3 45.0162 42.8867 107.7641 -0.0001 17.0371 -0.0002
# 4 0.0004 -0.0002 -0.0001 33.7100 0.0002 -6.2175
# 5 -1.1553 11.1223 17.0371 0.0002 34.8367 0.0004
# 6 0.0012 -0.0004 -0.0002 -6.2175 0.0004 -7.1161
#
#
#
# Elastic Compliance Matrix: (Units=1/GPa)
#
#
# Indices 1 2 3 4 5 6 
#
# 1 -0.451401 0.354207 0.073531 -0.000010 -0.164018 -0.000097
# 2 0.354207 -0.249590 -0.068376 0.000007 0.124873 0.000074
# 3 0.073531 -0.068376 0.002101 0.000002 0.023242 0.000016
# 4 -0.000010 0.000007 0.000002 0.025548 -0.000003 -0.022322
# 5 -0.164018 0.124873 0.023242 -0.000003 -0.027969 -0.000033
# 6 -0.000097 0.000074 0.000016 -0.022322 -0.000033 -0.121023
#
#
# Mechanical properties :
#
#
# Convention : Reuss Voigt Hill
#
# Bulk Modulus (GPa) = 50.41770 51.76469 51.09119
# Shear Modulus (GPa) = -3.25850 16.86935 6.80542
#
# Velocity S-wave (km/s) = -1.29691 2.95087 1.87426
# Velocity P-wave (km/s) = 4.87668 6.19114 5.57280
#
# Compressibility (1/GPa) = 0.01983431
#
# Stress axis : x y z
#
# Youngs Moduli (GPa) = -2.21533 -4.00658 476.06895
#
# Poissons Ratio (x) = 1.41916 -35.00577
# Poissons Ratio (y) = 0.78468 32.55164
# Poissons Ratio (z) = 0.16289 -0.27395
#
# Static dielectric constant tensor:
#      x y z
#    x 3.659870 0.000000 -0.049980 
#    y 0.000000 3.462000 0.000000 
#    z -0.049980 0.000000 3.508780 
# 
# 
# High freq. dielectric constant tensor:
#      x y z
#    x 1.764610 0.000000 0.002810 
#    y 0.000000 1.749510 0.000000 
#    z 0.002810 0.000000 1.761310 
# 
# From -- ./inp_files/378410.got.cif
#   From: 2010.06.25/outbox.cif.g09.slc.cpg/sg12_190_cif.got.tgz:378410.got - 2010.06.28 00:19:55.
