data_PCOD8106820
_publ_section_title
;
Structure prediction by ZEFSAII (Michael W. Deem and Ramdas Pophale) SiO2 
 PCOD8106820
Probable space group: C 2/M
;
_chemical_formula_sum "Si O2"
_cell_formula_units_Z 56
_cell_length_a 8.627784
_cell_length_b 15.622318
_cell_length_c 23.474637
_cell_angle_alpha 90.000000
_cell_angle_beta 56.543382
_cell_angle_gamma 90.000000
_cell_volume 2639.779681
_symmetry_space_group_name_H-M "C 2/M"
_symmetry_group_IT_number 12
_symmetry_cell_setting 'monoclinic'
loop_
_space_group_symop_operation_xyz
x,y,z
-x,y,-z
-x,-y,-z
x,-y,z
1/2+x,1/2+y,z
1/2-x,1/2+y,-z
1/2-x,1/2-y,-z
1/2+x,1/2-y,z
loop_
_atom_site_type_symbol
_atom_site_label
_atom_site_fract_x
_atom_site_fract_y
_atom_site_fract_z
Si Si1 0.179212 0.902285 0.934372
Si Si2 0.982358 0.597706 0.065622
Si Si3 0.576327 0.155944 0.660088
Si Si4 0.273200 0.658626 0.196495
Si Si5 0.298289 0.500000 0.419306
Si Si6 0.137375 0.841413 0.196499
Si Si7 0.056152 0.500000 0.580708
Si Si8 0.056612 0.155931 0.339918
O O1 0.368485 0.859163 0.921007
O O2 0.171587 0.900504 0.867488
O O3 0.177502 0.000000 0.953706
O O4 0.000000 0.856800 0.000000
O O5 0.038737 0.500000 0.046256
O O6 0.774083 0.599448 0.132513
O O7 0.000000 0.643200 0.000000
O O8 0.409907 0.124145 0.734618
O O9 0.762802 0.161953 0.658123
O O10 0.536207 0.250008 0.642525
O O11 0.600943 0.086168 0.606046
O O12 0.234597 0.750031 0.176992
O O13 0.435888 0.662286 0.209431
O O14 0.188911 0.500000 0.500007
O O15 0.419102 0.586166 0.393974
O O16 0.159136 0.500000 0.393924
O O17 0.113765 0.875895 0.265395
#
# Coordination Sequence:
#
# PCOD8106820 Si02
#       8
#     8   8   8   8   4   8   4   8
#     4  10  21  37  56  81 115 153 199 249 306 365
#     4  10  21  37  56  81 115 153 199 249 306 365
#     4  11  23  42  67  96 132 170 213 263 318 376
#     4  11  22  38  60  86 118 155 202 251 305 364
#     4  11  25  45  69  99 132 169 214 259 311 377
#     4  11  22  38  60  86 118 155 202 251 305 364
#     4  11  25  45  69  99 132 169 214 259 311 377
#     4  11  23  42  67  96 132 170 213 263 318 376
#
# _framework density 21.213889999999999
#
# number of rings (size 3 to 8) (size 9 to 14) (size 15 to 20)
#    0.000    1.286    0.000    8.143    2.000    4.000 
#    0.000    2.857    0.000    0.000    0.000    0.000 
#    0.000    0.000    0.000    0.000    0.000    0.000 
#
# Total GULP energy -347202.210739 kJ/mol
# GULP energy per Si atom -12400.078955 kJ/mol
# Density = 2.116561 g / cm^3
# Si number density = 21.213890 Si / 1000 Ang^3
#
#
#
# Elastic Constant Matrix: (Units=GPa)
#
#
# Indices 1 2 3 4 5 6 
#
# 1 213.1924 50.5416 62.4493 0.0000 2.7710 0.0001
# 2 50.5416 76.6957 48.2903 0.0001 0.0806 0.0000
# 3 62.4493 48.2903 116.2975 0.0002 0.7486 0.0002
# 4 0.0000 0.0001 0.0002 6.5145 -0.0001 0.9290
# 5 2.7710 0.0806 0.7486 -0.0001 37.3347 -0.0001
# 6 0.0001 0.0000 0.0002 0.9290 -0.0001 32.0462
#
#
#
# Elastic Compliance Matrix: (Units=1/GPa)
#
#
# Indices 1 2 3 4 5 6 
#
# 1 0.005924 -0.002575 -0.002109 0.000000 -0.000392 0.000000
# 2 -0.002575 0.018774 -0.006414 0.000000 0.000279 0.000000
# 3 -0.002109 -0.006414 0.012395 0.000000 -0.000078 0.000000
# 4 0.000000 0.000000 0.000000 0.154140 0.000000 -0.004468
# 5 -0.000392 0.000279 -0.000078 0.000000 0.026815 0.000000
# 6 0.000000 0.000000 0.000000 -0.004468 0.000000 0.031334
#
#
# Mechanical properties :
#
#
# Convention : Reuss Voigt Hill
#
# Bulk Modulus (GPa) = 67.13526 80.97200 74.05363
# Shear Modulus (GPa) = 18.08019 31.50605 24.79312
#
# Velocity S-wave (km/s) = 2.92255 3.85796 3.42236
# Velocity P-wave (km/s) = 6.56536 7.62216 7.11341
#
# Compressibility (1/GPa) = 0.01489530
#
# Stress axis : x y z
#
# Youngs Moduli (GPa) = 168.80227 53.26449 80.67641
#
# Poissons Ratio (x) = 0.13718 0.17016
# Poissons Ratio (y) = 0.43475 0.51749
# Poissons Ratio (z) = 0.35603 0.34166
#
# Static dielectric constant tensor:
#      x y z
#    x 4.228590 0.000000 0.015650 
#    y 0.000000 3.701880 0.000000 
#    z 0.015650 0.000000 3.799810 
# 
# 
# High freq. dielectric constant tensor:
#      x y z
#    x 1.856200 0.000000 0.000800 
#    y 0.000000 1.818510 0.000000 
#    z 0.000800 0.000000 1.834160 
# 
# From -- ./inp_files/332869.got.cif
#   From: 2010.06.25/outbox.cif.g09.slc.cpg/sg12_167_cif.got.tgz:332869.got - 2010.06.28 00:19:55.
