data_PCOD8106001
_publ_section_title
;
Structure prediction by ZEFSAII (Michael W. Deem and Ramdas Pophale) SiO2 
 PCOD8106001
Probable space group: C 2/M
;
_chemical_formula_sum "Si O2"
_cell_formula_units_Z 40
_cell_length_a 14.452375
_cell_length_b 8.953705
_cell_length_c 16.391854
_cell_angle_alpha 90.000000
_cell_angle_beta 90.451562
_cell_angle_gamma 90.000000
_cell_volume 2121.077771
_symmetry_space_group_name_H-M "C 2/M"
_symmetry_group_IT_number 12
_symmetry_cell_setting 'monoclinic'
loop_
_space_group_symop_operation_xyz
x,y,z
-x,y,-z
-x,-y,-z
x,-y,z
1/2+x,1/2+y,z
1/2-x,1/2+y,-z
1/2-x,1/2-y,-z
1/2+x,1/2-y,z
loop_
_atom_site_type_symbol
_atom_site_label
_atom_site_fract_x
_atom_site_fract_y
_atom_site_fract_z
Si Si1 0.588418 0.176685 0.394778
Si Si2 0.764279 0.822782 0.704619
Si Si3 0.394004 0.673540 0.988816
Si Si4 0.117209 0.676693 0.574640
Si Si5 0.752687 0.673556 0.874293
O O1 0.635156 0.262787 0.319956
O O2 0.633555 0.229380 0.481441
O O3 0.482333 0.229261 0.393525
O O4 0.598642 0.000000 0.381983
O O5 0.694227 0.758193 0.635721
O O6 0.733433 0.759613 0.790936
O O7 0.764234 0.000000 0.709121
O O8 0.390465 0.500000 0.964364
O O9 0.337532 0.703990 0.071253
O O10 0.500000 0.727424 0.000000
O O11 0.346579 0.766224 0.916155
O O12 0.118986 0.500000 0.575230
O O13 0.766938 0.500000 0.856644
#
# Coordination Sequence:
#
# PCOD8106001 Si02
#       5
#     8   8   8   8   8
#     4   9  17  34  55  74  99 136 180 218 257 308
#     4  11  21  33  50  76 108 138 170 214 262 301
#     4   9  19  38  61  81 104 133 165 208 259 305
#     4   8  17  33  53  74 101 138 176 215 260 310
#     4  10  21  36  54  79 107 136 171 207 250 309
#
# _framework density 18.858336999999999
#
# number of rings (size 3 to 8) (size 9 to 14) (size 15 to 20)
#    0.000    2.600    0.000    3.000    0.000    2.800 
#    0.000    9.000    0.000    0.000    0.000    0.000 
#    0.000    0.000    0.000    0.000    0.000    0.000 
#
# Total GULP energy -247993.460878 kJ/mol
# GULP energy per Si atom -12399.673044 kJ/mol
# Density = 1.881541 g / cm^3
# Si number density = 18.858337 Si / 1000 Ang^3
#
#
#
# Elastic Constant Matrix: (Units=GPa)
#
#
# Indices 1 2 3 4 5 6 
#
# 1 100.2057 30.3937 36.3414 0.0000 -2.4020 0.0000
# 2 30.3937 65.0999 37.4925 0.0000 -1.9738 0.0000
# 3 36.3414 37.4925 90.5321 0.0000 -7.3258 0.0000
# 4 0.0000 0.0000 0.0000 28.4157 0.0000 -0.5246
# 5 -2.4020 -1.9738 -7.3258 0.0000 20.1825 0.0000
# 6 0.0000 0.0000 0.0000 -0.5246 0.0000 24.8418
#
#
#
# Elastic Compliance Matrix: (Units=1/GPa)
#
#
# Indices 1 2 3 4 5 6 
#
# 1 0.012366 -0.003825 -0.003391 0.000000 -0.000133 0.000000
# 2 -0.003825 0.021379 -0.007403 0.000000 -0.001052 0.000000
# 3 -0.003391 -0.007403 0.015847 0.000000 0.004625 0.000000
# 4 0.000000 0.000000 0.000000 0.035206 0.000000 0.000743
# 5 -0.000133 -0.001052 0.004625 0.000000 0.051108 0.000000
# 6 0.000000 0.000000 0.000000 0.000743 0.000000 0.040270
#
#
# Mechanical properties :
#
#
# Convention : Reuss Voigt Hill
#
# Bulk Modulus (GPa) = 49.13029 51.58809 50.35919
# Shear Modulus (GPa) = 23.56291 24.79536 24.17914
#
# Velocity S-wave (km/s) = 3.53862 3.62998 3.58459
# Velocity P-wave (km/s) = 6.54252 6.70701 6.62528
#
# Compressibility (1/GPa) = 0.02035404
#
# Stress axis : x y z
#
# Youngs Moduli (GPa) = 80.86625 46.77589 63.10266
#
# Poissons Ratio (x) = 0.17890 0.21397
# Poissons Ratio (y) = 0.30928 0.46717
# Poissons Ratio (z) = 0.27421 0.34630
#
# Static dielectric constant tensor:
#      x y z
#    x 3.615410 0.000000 0.122380 
#    y 0.000000 3.216170 0.000000 
#    z 0.122380 0.000000 3.534720 
# 
# 
# High freq. dielectric constant tensor:
#      x y z
#    x 1.736870 0.000000 -0.003830 
#    y 0.000000 1.715840 0.000000 
#    z -0.003830 0.000000 1.733200 
# 
# From -- ./inp_files/211228.got.cif
#   From: 2010.06.25/outbox.cif.g09.slc.cpg/sg12_106_cif.got.tgz:211228.got - 2010.06.28 00:19:55.
