data_PCOD8106222
_publ_section_title
;
Structure prediction by ZEFSAII (Michael W. Deem and Ramdas Pophale) SiO2 
 PCOD8106222
Probable space group: C 2/M
;
_chemical_formula_sum "Si O2"
_cell_formula_units_Z 64
_cell_length_a 26.948504
_cell_length_b 9.124734
_cell_length_c 17.657812
_cell_angle_alpha 90.000000
_cell_angle_beta 48.983539
_cell_angle_gamma 90.000000
_cell_volume 3276.145122
_symmetry_space_group_name_H-M "C 2/M"
_symmetry_group_IT_number 12
_symmetry_cell_setting 'monoclinic'
loop_
_space_group_symop_operation_xyz
x,y,z
-x,y,-z
-x,-y,-z
x,-y,z
1/2+x,1/2+y,z
1/2-x,1/2+y,-z
1/2-x,1/2-y,-z
1/2+x,1/2-y,z
loop_
_atom_site_type_symbol
_atom_site_label
_atom_site_fract_x
_atom_site_fract_y
_atom_site_fract_z
Si Si1 0.115935 0.827314 0.712592
Si Si2 0.241552 0.831578 0.179330
Si Si3 0.113745 0.173236 0.215940
Si Si4 0.865153 0.331572 0.463175
Si Si5 0.740336 0.673409 0.682123
Si Si6 0.128288 0.330076 0.042421
Si Si7 0.515594 0.670837 0.070875
Si Si8 0.000858 0.331895 0.585938
O O1 0.123677 0.759704 0.622940
O O2 0.173291 0.770339 0.710645
O O3 0.046139 0.779804 0.816604
O O4 0.121187 0.000000 0.698770
O O5 0.173755 0.778587 0.209436
O O6 0.255466 0.736820 0.238699
O O7 0.237325 0.000000 0.208557
O O8 0.298414 0.806342 0.061201
O O9 0.121798 0.245231 0.126753
O O10 0.046176 0.226591 0.319955
O O11 0.111159 0.000000 0.207162
O O12 0.856048 0.500000 0.448812
O O13 0.800842 0.271155 0.570324
O O14 0.925559 0.309736 0.459024
O O15 0.742007 0.500000 0.688785
O O16 0.112043 0.500000 0.072002
O O17 0.078032 0.266001 0.031428
O O18 0.531953 0.500000 0.065967
O O19 0.500000 0.706209 0.000000
O O20 0.977319 0.500000 0.618645
O O21 0.000000 0.282426 0.500000
#
# Coordination Sequence:
#
# PCOD8106222 Si02
#       8
#     8   8   8   8   8   8   8   8
#     4  10  21  36  56  83 113 147 187 229 275 328
#     4  10  23  40  58  84 114 144 183 232 282 332
#     4  11  23  39  59  84 114 148 188 232 280 334
#     4  10  21  36  56  83 113 147 187 229 275 328
#     4  10  21  38  60  84 110 146 189 228 274 332
#     4  11  23  39  59  84 114 148 188 232 280 334
#     4  10  21  38  59  84 115 150 188 231 280 334
#     4  10  21  38  59  84 115 150 188 231 280 334
#
# _framework density 19.535153000000001
#
# number of rings (size 3 to 8) (size 9 to 14) (size 15 to 20)
#    0.000    1.750    0.000    3.750    0.000    8.500 
#    0.000    0.000    0.000    0.000    0.000    0.000 
#    0.000    0.000    0.000    0.000    0.000    0.000 
#
# Total GULP energy -396988.399868 kJ/mol
# GULP energy per Si atom -12405.887496 kJ/mol
# Density = 1.949069 g / cm^3
# Si number density = 19.535153 Si / 1000 Ang^3
#
#
#
# Elastic Constant Matrix: (Units=GPa)
#
#
# Indices 1 2 3 4 5 6 
#
# 1 66.4653 20.5926 2.8712 -0.0109 6.4098 0.0002
# 2 20.5926 45.5912 25.2129 -0.0111 3.1391 -0.0019
# 3 2.8712 25.2129 68.1931 -0.0037 10.3035 0.0091
# 4 -0.0109 -0.0111 -0.0037 28.7691 0.0002 0.6979
# 5 6.4098 3.1391 10.3035 0.0002 40.9420 -0.0044
# 6 0.0002 -0.0019 0.0091 0.6979 -0.0044 69.7740
#
#
#
# Elastic Compliance Matrix: (Units=1/GPa)
#
#
# Indices 1 2 3 4 5 6 
#
# 1 0.018246 -0.009880 0.003328 0.000004 -0.002937 -0.000001
# 2 -0.009880 0.032930 -0.012070 0.000007 0.002060 0.000003
# 3 0.003328 -0.012070 0.019674 -0.000001 -0.004547 -0.000003
# 4 0.000004 0.000007 -0.000001 0.034768 -0.000001 -0.000348
# 5 -0.002937 0.002060 -0.004547 -0.000001 0.025871 0.000002
# 6 -0.000001 0.000003 -0.000003 -0.000348 0.000002 0.014335
#
#
# Mechanical properties :
#
#
# Convention : Reuss Voigt Hill
#
# Bulk Modulus (GPa) = 29.75650 30.84477 30.30064
# Shear Modulus (GPa) = 25.73748 36.66856 31.20302
#
# Velocity S-wave (km/s) = 3.63367 4.33720 4.00093
# Velocity P-wave (km/s) = 5.73324 6.39573 6.07353
#
# Compressibility (1/GPa) = 0.03360610
#
# Stress axis : x y z
#
# Youngs Moduli (GPa) = 54.80701 30.36756 50.82900
#
# Poissons Ratio (x) = 0.30002 -0.16917
# Poissons Ratio (y) = 0.54148 0.61352
# Poissons Ratio (z) = -0.18241 0.36655
#
# Static dielectric constant tensor:
#      x y z
#    x 3.834070 -0.000010 -0.222170 
#    y -0.000010 3.536660 0.000020 
#    z -0.222170 0.000020 3.760680 
# 
# 
# High freq. dielectric constant tensor:
#      x y z
#    x 1.778900 0.000000 -0.001930 
#    y 0.000000 1.754450 0.000000 
#    z -0.001930 0.000000 1.776080 
# 
# From -- ./inp_files/295465.got.cif
#   From: 2010.06.25/outbox.cif.g09.slc.cpg/sg12_148_cif.got.tgz:295465.got - 2010.06.28 00:19:55.
