data_PCOD8106948
_publ_section_title
;
Structure prediction by ZEFSAII (Michael W. Deem and Ramdas Pophale) SiO2 
 PCOD8106948
Probable space group: C 2/M
;
_chemical_formula_sum "Si O2"
_cell_formula_units_Z 48
_cell_length_a 14.309911
_cell_length_b 9.221915
_cell_length_c 28.283167
_cell_angle_alpha 90.000000
_cell_angle_beta 137.782187
_cell_angle_gamma 90.000000
_cell_volume 2507.977326
_symmetry_space_group_name_H-M "C 2/M"
_symmetry_group_IT_number 12
_symmetry_cell_setting 'monoclinic'
loop_
_space_group_symop_operation_xyz
x,y,z
-x,y,-z
-x,-y,-z
x,-y,z
1/2+x,1/2+y,z
1/2-x,1/2+y,-z
1/2-x,1/2-y,-z
1/2+x,1/2-y,z
loop_
_atom_site_type_symbol
_atom_site_label
_atom_site_fract_x
_atom_site_fract_y
_atom_site_fract_z
Si Si1 0.847749 0.835102 0.645788
Si Si2 0.598820 0.330917 0.892736
Si Si3 0.446019 0.664870 0.361422
Si Si4 0.122883 0.831719 0.011082
Si Si5 0.141163 0.666909 0.491117
Si Si6 0.367578 0.832089 0.748183
O O1 0.692911 0.817602 0.564820
O O2 0.870491 0.721311 0.695597
O O3 0.964995 0.796467 0.651300
O O4 0.866686 0.000000 0.671332
O O5 0.604422 0.500000 0.882970
O O6 0.740234 0.260517 0.925930
O O7 0.469354 0.260146 0.818427
O O8 0.577240 0.301828 0.940226
O O9 0.471839 0.500000 0.386672
O O10 0.490665 0.763175 0.423441
O O11 0.286059 0.692948 0.288621
O O12 0.158565 0.000000 0.032634
O O13 0.000000 0.780661 0.000000
O O14 0.137432 0.500000 0.474717
O O15 0.250000 0.750000 0.500000
O O16 0.411648 0.000000 0.765969
#
# Coordination Sequence:
#
# PCOD8106948 Si02
#       6
#     8   8   8   8   8   8
#     4   9  19  36  54  75 105 140 181 227 276 326
#     4  10  21  37  57  83 115 145 175 216 262 312
#     4   9  20  37  54  75 106 143 182 226 275 325
#     4   9  19  38  63  88 112 140 176 215 257 309
#     4   9  17  31  53  77 103 137 179 229 277 323
#     4  11  23  37  54  78 110 146 182 222 267 317
#
# _framework density 19.138929999999998
#
# number of rings (size 3 to 8) (size 9 to 14) (size 15 to 20)
#    0.000    2.500    0.000    2.500    0.000    7.667 
#    0.000    6.667    0.000    0.000    0.000    0.000 
#    0.000    0.000    0.000    0.000    0.000    0.000 
#
# Total GULP energy -297561.351204 kJ/mol
# GULP energy per Si atom -12398.389633 kJ/mol
# Density = 1.909537 g / cm^3
# Si number density = 19.138930 Si / 1000 Ang^3
#
#
#
# Elastic Constant Matrix: (Units=GPa)
#
#
# Indices 1 2 3 4 5 6 
#
# 1 174.6144 91.6183 120.1227 0.0000 31.5628 0.0000
# 2 91.6183 133.9585 114.0447 0.0000 22.9687 0.0000
# 3 120.1227 114.0447 198.9613 0.0000 36.8142 0.0000
# 4 0.0000 0.0000 0.0000 40.8799 0.0000 2.4026
# 5 31.5628 22.9687 36.8142 0.0000 27.7461 0.0000
# 6 0.0000 0.0000 0.0000 2.4026 0.0000 26.9649
#
#
#
# Elastic Compliance Matrix: (Units=1/GPa)
#
#
# Indices 1 2 3 4 5 6 
#
# 1 0.011001 -0.003526 -0.003771 0.000000 -0.004592 0.000000
# 2 -0.003526 0.015746 -0.006928 0.000000 0.000169 0.000000
# 3 -0.003771 -0.006928 0.012484 0.000000 -0.006539 0.000000
# 4 0.000000 0.000000 0.000000 0.024591 0.000000 -0.002191
# 5 -0.004592 0.000169 -0.006539 0.000000 0.049801 0.000000
# 6 0.000000 0.000000 0.000000 -0.002191 0.000000 0.037280
#
#
# Mechanical properties :
#
#
# Convention : Reuss Voigt Hill
#
# Bulk Modulus (GPa) = 92.75825 128.78953 110.77389
# Shear Modulus (GPa) = 27.33031 31.23475 29.28253
#
# Velocity S-wave (km/s) = 3.78298 4.04419 3.91576
# Velocity P-wave (km/s) = 8.22510 9.44697 8.85713
#
# Compressibility (1/GPa) = 0.01078071
#
# Stress axis : x y z
#
# Youngs Moduli (GPa) = 90.89693 63.50987 80.10399
#
# Poissons Ratio (x) = 0.22396 0.30209
# Poissons Ratio (y) = 0.32053 0.55492
# Poissons Ratio (z) = 0.34279 0.43997
#
# Static dielectric constant tensor:
#      x y z
#    x 3.514950 0.000000 0.186990 
#    y 0.000000 3.669870 0.000000 
#    z 0.186990 0.000000 3.765470 
# 
# 
# High freq. dielectric constant tensor:
#      x y z
#    x 1.736390 0.000000 0.007700 
#    y 0.000000 1.752350 0.000000 
#    z 0.007700 0.000000 1.744360 
# 
# From -- ./inp_files/308598.got.cif
#   From: 2010.06.25/outbox.cif.g09.slc.cpg/sg12_155_cif.got.tgz:308598.got - 2010.06.28 00:19:55.
