data_PCOD8106579
_publ_section_title
;
Structure prediction by ZEFSAII (Michael W. Deem and Ramdas Pophale) SiO2 
 PCOD8106579
Probable space group: C 2/M
;
_chemical_formula_sum "Si O2"
_cell_formula_units_Z 48
_cell_length_a 17.772253
_cell_length_b 14.177350
_cell_length_c 9.176009
_cell_angle_alpha 90.000000
_cell_angle_beta 87.411485
_cell_angle_gamma 90.000000
_cell_volume 2309.659810
_symmetry_space_group_name_H-M "C 2/M"
_symmetry_group_IT_number 12
_symmetry_cell_setting 'monoclinic'
loop_
_space_group_symop_operation_xyz
x,y,z
-x,y,-z
-x,-y,-z
x,-y,z
1/2+x,1/2+y,z
1/2-x,1/2+y,-z
1/2-x,1/2-y,-z
1/2+x,1/2-y,z
loop_
_atom_site_type_symbol
_atom_site_label
_atom_site_fract_x
_atom_site_fract_y
_atom_site_fract_z
Si Si1 0.959487 0.227604 0.651885
Si Si2 0.505770 0.895955 0.165809
Si Si3 0.656027 0.103594 0.677037
Si Si4 0.688719 0.207418 0.401829
Si Si5 0.054934 0.890210 0.859775
Si Si6 0.288967 0.275375 0.147622
O O1 0.871461 0.207106 0.626831
O O2 0.000000 0.255379 0.500000
O O3 0.945376 0.319275 0.754679
O O4 0.007729 0.145178 0.723664
O O5 0.425808 0.895743 0.248074
O O6 0.543260 0.000000 0.170029
O O7 0.500000 0.862068 0.000000
O O8 0.649549 0.126370 0.504271
O O9 0.704066 0.177520 0.765713
O O10 0.692745 0.000000 0.691911
O O11 0.750000 0.250000 0.500000
O O12 0.729295 0.165651 0.252261
O O13 0.131800 0.830868 0.875771
O O14 0.075462 0.000000 0.835765
O O15 0.000000 0.874885 0.000000
O O16 0.250000 0.250000 0.000000
#
# Coordination Sequence:
#
# PCOD8106579 Si02
#       6
#     8   8   8   8   8   8
#     4  12  21  39  67  93 124 167 215 269 320 382
#     4  10  21  36  60  93 126 159 206 261 314 380
#     4  10  21  40  61  90 128 168 209 257 321 389
#     4  10  22  40  59  90 130 168 208 262 325 385
#     4  11  25  45  67  94 127 170 224 274 319 384
#     4  11  23  41  67  97 130 169 214 271 330 388
#
# _framework density 20.782281000000001
#
# number of rings (size 3 to 8) (size 9 to 14) (size 15 to 20)
#    0.000    1.333    3.333    2.500    2.333    2.667 
#    0.000    5.000    0.000    0.000    0.000    0.000 
#    0.000    0.000    0.000    0.000    0.000    0.000 
#
# Total GULP energy -297324.249835 kJ/mol
# GULP energy per Si atom -12388.510410 kJ/mol
# Density = 2.073498 g / cm^3
# Si number density = 20.782281 Si / 1000 Ang^3
#
#
#
# Elastic Constant Matrix: (Units=GPa)
#
#
# Indices 1 2 3 4 5 6 
#
# 1 141.4185 41.9606 64.0009 0.0000 2.1471 0.0000
# 2 41.9606 115.6629 58.0383 0.0000 5.1528 0.0000
# 3 64.0009 58.0383 158.2786 0.0000 -10.0260 0.0000
# 4 0.0000 0.0000 0.0000 17.0070 0.0000 5.6835
# 5 2.1471 5.1528 -10.0260 0.0000 43.4540 0.0000
# 6 0.0000 0.0000 0.0000 5.6835 0.0000 8.4600
#
#
#
# Elastic Compliance Matrix: (Units=1/GPa)
#
#
# Indices 1 2 3 4 5 6 
#
# 1 0.008973 -0.001669 -0.003077 0.000000 -0.000955 0.000000
# 2 -0.001669 0.011114 -0.003530 0.000000 -0.002050 0.000000
# 3 -0.003077 -0.003530 0.009025 0.000000 0.002653 0.000000
# 4 0.000000 0.000000 0.000000 0.075822 0.000000 -0.050938
# 5 -0.000955 -0.002050 0.002653 0.000000 0.023915 0.000000
# 6 0.000000 0.000000 0.000000 -0.050938 0.000000 0.152425
#
#
# Mechanical properties :
#
#
# Convention : Reuss Voigt Hill
#
# Bulk Modulus (GPa) = 79.61954 82.59551 81.10752
# Shear Modulus (GPa) = 16.55554 30.54154 23.54854
#
# Velocity S-wave (km/s) = 2.82550 3.83769 3.36982
# Velocity P-wave (km/s) = 7.00279 7.71146 7.36565
#
# Compressibility (1/GPa) = 0.01255973
#
# Stress axis : x y z
#
# Youngs Moduli (GPa) = 111.44001 89.97583 110.80583
#
# Poissons Ratio (x) = 0.15015 0.34096
# Poissons Ratio (y) = 0.18597 0.39119
# Poissons Ratio (z) = 0.34291 0.31765
#
# Static dielectric constant tensor:
#      x y z
#    x 3.784500 0.000000 -0.239050 
#    y 0.000000 4.349300 0.000000 
#    z -0.239050 0.000000 4.498950 
# 
# 
# High freq. dielectric constant tensor:
#      x y z
#    x 1.820310 0.000000 -0.011190 
#    y 0.000000 1.788720 0.000000 
#    z -0.011190 0.000000 1.838490 
# 
# From -- ./inp_files/73620.got.cif
#   From: 2010.06.25/outbox.cif.g09.slc.cpg/sg12_37_cif.got.tgz:73620.got - 2010.06.28 00:19:55.
