data_PCOD8106012
_publ_section_title
;
Structure prediction by ZEFSAII (Michael W. Deem and Ramdas Pophale) SiO2 
 PCOD8106012
Probable space group: C 2/M
;
_chemical_formula_sum "Si O2"
_cell_formula_units_Z 48
_cell_length_a 10.137241
_cell_length_b 9.090233
_cell_length_c 28.405985
_cell_angle_alpha 90.000000
_cell_angle_beta 69.350147
_cell_angle_gamma 90.000000
_cell_volume 2449.434828
_symmetry_space_group_name_H-M "C 2/M"
_symmetry_group_IT_number 12
_symmetry_cell_setting 'monoclinic'
loop_
_space_group_symop_operation_xyz
x,y,z
-x,y,-z
-x,-y,-z
x,-y,z
1/2+x,1/2+y,z
1/2-x,1/2+y,-z
1/2-x,1/2-y,-z
1/2+x,1/2-y,z
loop_
_atom_site_type_symbol
_atom_site_label
_atom_site_fract_x
_atom_site_fract_y
_atom_site_fract_z
Si Si1 0.805768 0.169515 0.310580
Si Si2 0.017917 0.329273 0.633797
Si Si3 0.602594 0.671857 0.804094
Si Si4 0.715782 0.326963 0.142174
Si Si5 0.839875 0.327035 0.028145
Si Si6 0.394580 0.670293 0.470303
O O1 0.639042 0.195814 0.327177
O O2 0.875454 0.217405 0.252712
O O3 0.869781 0.271117 0.342835
O O4 0.839658 0.000000 0.318374
O O5 0.050293 0.500000 0.620373
O O6 0.032207 0.241792 0.583779
O O7 0.628195 0.500000 0.807880
O O8 0.447114 0.719989 0.839739
O O9 0.715524 0.754654 0.821240
O O10 0.732388 0.500000 0.145950
O O11 0.791229 0.269940 0.085359
O O12 0.816800 0.500000 0.026480
O O13 0.750000 0.250000 0.000000
O O14 0.000000 0.280158 0.000000
O O15 0.500000 0.691323 0.500000
O O16 0.363140 0.500000 0.463955
O O17 0.250000 0.750000 0.500000
#
# Coordination Sequence:
#
# PCOD8106012 Si02
#       6
#     8   8   8   8   8   8
#     4  10  22  39  58  83 115 148 185 231 278 329
#     4  11  23  38  59  86 114 148 188 228 276 331
#     4  10  21  37  57  82 111 145 186 229 277 333
#     4  10  21  36  55  81 111 144 185 232 280 333
#     4  10  21  36  54  79 110 144 185 231 280 335
#     4  11  24  41  62  88 117 151 190 231 278 330
#
# _framework density 19.596357000000001
#
# number of rings (size 3 to 8) (size 9 to 14) (size 15 to 20)
#    0.000    1.667    0.000    4.000    0.000    7.667 
#    0.000    0.000    0.000    0.000    0.000    0.000 
#    0.000    0.000    0.000    0.000    0.000    0.000 
#
# Total GULP energy -297751.029642 kJ/mol
# GULP energy per Si atom -12406.292902 kJ/mol
# Density = 1.955175 g / cm^3
# Si number density = 19.596357 Si / 1000 Ang^3
#
#
#
# Elastic Constant Matrix: (Units=GPa)
#
#
# Indices 1 2 3 4 5 6 
#
# 1 94.9137 52.3311 27.8013 0.0000 7.2404 0.0000
# 2 52.3311 79.9318 42.6059 0.0000 6.1208 0.0000
# 3 27.8013 42.6059 112.6244 0.0000 -3.5701 0.0000
# 4 0.0000 0.0000 0.0000 31.7637 0.0000 8.3162
# 5 7.2404 6.1208 -3.5701 0.0000 38.7406 0.0000
# 6 0.0000 0.0000 0.0000 8.3162 0.0000 36.6489
#
#
#
# Elastic Compliance Matrix: (Units=1/GPa)
#
#
# Indices 1 2 3 4 5 6 
#
# 1 0.016563 -0.010687 -0.000090 0.000000 -0.001415 0.000000
# 2 -0.010687 0.022929 -0.006105 0.000000 -0.002188 0.000000
# 3 -0.000090 -0.006105 0.011275 0.000000 0.002021 0.000000
# 4 0.000000 0.000000 0.000000 0.033471 0.000000 -0.007595
# 5 -0.001415 -0.002188 0.002021 0.000000 0.026609 0.000000
# 6 0.000000 0.000000 0.000000 -0.007595 0.000000 0.029009
#
#
# Mechanical properties :
#
#
# Convention : Reuss Voigt Hill
#
# Bulk Modulus (GPa) = 58.81876 59.21628 59.01752
# Shear Modulus (GPa) = 27.88790 32.41275 30.15032
#
# Velocity S-wave (km/s) = 3.77651 4.07138 3.92671
# Velocity P-wave (km/s) = 7.00688 7.23775 7.12325
#
# Compressibility (1/GPa) = 0.01700138
#
# Stress axis : x y z
#
# Youngs Moduli (GPa) = 60.37696 43.61242 88.69054
#
# Poissons Ratio (x) = 0.46608 0.00803
# Poissons Ratio (y) = 0.64524 0.54150
# Poissons Ratio (z) = 0.00546 0.26627
#
# Static dielectric constant tensor:
#      x y z
#    x 3.529660 0.000000 -0.125070 
#    y 0.000000 3.633080 0.000000 
#    z -0.125070 0.000000 3.881220 
# 
# 
# High freq. dielectric constant tensor:
#      x y z
#    x 1.775850 0.000000 -0.004230 
#    y 0.000000 1.761710 0.000000 
#    z -0.004230 0.000000 1.782660 
# 
# From -- ./inp_files/334622.got.cif
#   From: 2010.06.25/outbox.cif.g09.slc.cpg/sg12_168_cif.got.tgz:334622.got - 2010.06.28 00:19:55.
