data_PCOD8106142
_publ_section_title
;
Structure prediction by ZEFSAII (Michael W. Deem and Ramdas Pophale) SiO2 
 PCOD8106142
Probable space group: C 2/M
;
_chemical_formula_sum "Si O2"
_cell_formula_units_Z 48
_cell_length_a 9.942305
_cell_length_b 9.154234
_cell_length_c 26.794064
_cell_angle_alpha 90.000000
_cell_angle_beta 100.608919
_cell_angle_gamma 90.000000
_cell_volume 2396.955539
_symmetry_space_group_name_H-M "C 2/M"
_symmetry_group_IT_number 12
_symmetry_cell_setting 'monoclinic'
loop_
_space_group_symop_operation_xyz
x,y,z
-x,y,-z
-x,-y,-z
x,-y,z
1/2+x,1/2+y,z
1/2-x,1/2+y,-z
1/2-x,1/2-y,-z
1/2+x,1/2-y,z
loop_
_atom_site_type_symbol
_atom_site_label
_atom_site_fract_x
_atom_site_fract_y
_atom_site_fract_z
Si Si1 0.172487 0.169845 0.388603
Si Si2 0.152399 0.831127 0.274447
Si Si3 0.069145 0.169994 0.555232
Si Si4 0.342065 0.331081 0.114881
Si Si5 0.956986 0.331770 0.942365
Si Si6 0.894297 0.330887 0.217054
O O1 0.165437 0.228652 0.331612
O O2 0.288225 0.250127 0.427746
O O3 0.027600 0.202749 0.404295
O O4 0.209026 0.000000 0.391831
O O5 0.298741 0.809311 0.258591
O O6 0.041784 0.737178 0.237438
O O7 0.106048 0.000000 0.270602
O O8 0.000000 0.230020 0.500000
O O9 0.101310 0.000000 0.551771
O O10 0.372721 0.500000 0.127854
O O11 0.205070 0.309845 0.073489
O O12 0.469121 0.266092 0.093561
O O13 0.323567 0.248632 0.165788
O O14 0.999673 0.500000 0.936934
O O15 0.000000 0.277252 0.000000
O O16 0.914181 0.500000 0.204987
#
# Coordination Sequence:
#
# PCOD8106142 Si02
#       6
#     8   8   8   8   8   8
#     4  10  21  37  57  82 112 146 186 232 281 335
#     4  10  22  39  58  83 113 145 186 234 282 335
#     4  10  21  36  55  82 114 148 188 232 279 334
#     4  11  23  38  59  86 115 150 189 230 280 333
#     4  10  22  40  61  87 118 151 190 234 279 331
#     4  11  23  38  58  83 111 146 187 230 279 335
#
# _framework density 20.025403000000001
#
# number of rings (size 3 to 8) (size 9 to 14) (size 15 to 20)
#    0.000    1.667    0.000    4.000    0.000    7.333 
#    0.000    0.000    0.000    0.000    0.000    0.000 
#    0.000    0.000    0.000    0.000    0.000    0.000 
#
# Total GULP energy -297779.544660 kJ/mol
# GULP energy per Si atom -12407.481027 kJ/mol
# Density = 1.997982 g / cm^3
# Si number density = 20.025403 Si / 1000 Ang^3
#
#
#
# Elastic Constant Matrix: (Units=GPa)
#
#
# Indices 1 2 3 4 5 6 
#
# 1 61.8849 30.2398 1.3377 0.0000 6.9346 0.0000
# 2 30.2398 76.0701 25.9746 0.0000 2.3704 0.0000
# 3 1.3377 25.9746 94.4281 0.0000 1.5506 0.0000
# 4 0.0000 0.0000 0.0000 27.0596 0.0000 4.6803
# 5 6.9346 2.3704 1.5506 0.0000 38.4790 0.0000
# 6 0.0000 0.0000 0.0000 4.6803 0.0000 14.1235
#
#
#
# Elastic Compliance Matrix: (Units=1/GPa)
#
#
# Indices 1 2 3 4 5 6 
#
# 1 0.020851 -0.008944 0.002219 0.000000 -0.003296 0.000000
# 2 -0.008944 0.018365 -0.004936 0.000000 0.000679 0.000000
# 3 0.002219 -0.004936 0.011926 0.000000 -0.000576 0.000000
# 4 0.000000 0.000000 0.000000 0.039202 0.000000 -0.012991
# 5 -0.003296 0.000679 -0.000576 0.000000 0.026564 0.000000
# 6 0.000000 0.000000 0.000000 -0.012991 0.000000 0.075109
#
#
# Mechanical properties :
#
#
# Convention : Reuss Voigt Hill
#
# Bulk Modulus (GPa) = 35.94533 38.60970 37.27752
# Shear Modulus (GPa) = 22.26057 27.58780 24.92418
#
# Velocity S-wave (km/s) = 3.33771 3.71568 3.53176
# Velocity P-wave (km/s) = 5.73084 6.14253 5.94025
#
# Compressibility (1/GPa) = 0.02782002
#
# Stress axis : x y z
#
# Youngs Moduli (GPa) = 47.96007 54.45004 83.85081
#
# Poissons Ratio (x) = 0.48698 -0.18606
# Poissons Ratio (y) = 0.42894 0.41391
# Poissons Ratio (z) = -0.10642 0.26878
#
# Static dielectric constant tensor:
#      x y z
#    x 3.479350 0.000000 -0.018300 
#    y 0.000000 3.618860 0.000000 
#    z -0.018300 0.000000 3.851700 
# 
# 
# High freq. dielectric constant tensor:
#      x y z
#    x 1.786670 0.000000 -0.000870 
#    y 0.000000 1.778350 0.000000 
#    z -0.000870 0.000000 1.797020 
# 
# From -- ./inp_files/334660.got.cif
#   From: 2010.06.25/outbox.cif.g09.slc.cpg/sg12_168_cif.got.tgz:334660.got - 2010.06.28 00:19:55.
