data_PCOD8106564
_publ_section_title
;
Structure prediction by ZEFSAII (Michael W. Deem and Ramdas Pophale) SiO2 
 PCOD8106564
Probable space group: C 2/M
;
_chemical_formula_sum "Si O2"
_cell_formula_units_Z 60
_cell_length_a 18.189064
_cell_length_b 21.816039
_cell_length_c 8.272639
_cell_angle_alpha 90.000000
_cell_angle_beta 115.484753
_cell_angle_gamma 90.000000
_cell_volume 2963.286751
_symmetry_space_group_name_H-M "C 2/M"
_symmetry_group_IT_number 12
_symmetry_cell_setting 'monoclinic'
loop_
_space_group_symop_operation_xyz
x,y,z
-x,y,-z
-x,-y,-z
x,-y,z
1/2+x,1/2+y,z
1/2-x,1/2+y,-z
1/2-x,1/2-y,-z
1/2+x,1/2-y,z
loop_
_atom_site_type_symbol
_atom_site_label
_atom_site_fract_x
_atom_site_fract_y
_atom_site_fract_z
Si Si1 0.500000 0.172624 0.000000
Si Si2 0.453383 0.233431 0.627592
Si Si3 0.886587 0.567072 0.804681
Si Si4 0.249465 0.570439 0.836149
Si Si5 0.590445 0.110597 0.509973
Si Si6 0.080217 0.135052 0.472292
Si Si7 0.583390 0.571399 0.151899
Si Si8 0.784477 0.068369 0.234493
O O1 0.496595 0.215379 0.159323
O O2 0.575954 0.125103 0.064508
O O3 0.500000 0.238214 0.500000
O O4 0.389827 0.178376 0.543049
O O5 0.410249 0.299281 0.609621
O O6 0.910761 0.500000 0.904215
O O7 0.912468 0.564057 0.641882
O O8 0.789367 0.573602 0.710530
O O9 0.247510 0.500000 0.782734
O O10 0.164230 0.599231 0.700667
O O11 0.332774 0.600379 0.841590
O O12 0.249203 0.581269 0.025392
O O13 0.500000 0.107943 0.500000
O O14 0.081774 0.081688 0.341368
O O15 0.152748 0.122058 0.664991
O O16 0.000000 0.130690 0.500000
O O17 0.583332 0.500000 0.110002
O O18 0.500000 0.601131 0.000000
O O19 0.824304 0.000000 0.279295
#
# Coordination Sequence:
#
# PCOD8106564 Si02
#       8
#     4   8   8   8   8   8   8   8
#     4  10  21  40  62  88 119 164 204 248 304 360
#     4   9  22  40  61  85 121 160 210 255 296 356
#     4  10  21  36  60  91 123 155 198 246 303 365
#     4  10  21  37  58  88 124 157 197 247 303 371
#     4  10  21  38  59  86 125 165 202 247 302 361
#     4  11  22  39  62  84 117 155 205 251 306 360
#     4  10  21  37  60  88 117 151 195 249 310 369
#     4  10  22  38  58  89 125 156 194 250 310 369
#
# _framework density 20.247786999999999
#
# number of rings (size 3 to 8) (size 9 to 14) (size 15 to 20)
#    0.000    2.000    0.000    2.600    6.533    5.333 
#    0.000    6.667    0.000    0.400    0.000    0.000 
#    0.000    0.000    0.000    0.000    0.000    0.000 
#
# Total GULP energy -371658.867066 kJ/mol
# GULP energy per Si atom -12388.628902 kJ/mol
# Density = 2.020170 g / cm^3
# Si number density = 20.247787 Si / 1000 Ang^3
#
#
#
# Elastic Constant Matrix: (Units=GPa)
#
#
# Indices 1 2 3 4 5 6 
#
# 1 120.8333 36.5486 50.2522 0.0000 13.2175 0.0000
# 2 36.5486 81.3564 52.3512 0.0000 11.7762 0.0000
# 3 50.2522 52.3512 131.4173 0.0000 12.8607 0.0000
# 4 0.0000 0.0000 0.0000 45.2805 0.0000 9.6341
# 5 13.2175 11.7762 12.8607 0.0000 39.7819 0.0000
# 6 0.0000 0.0000 0.0000 9.6341 0.0000 20.0342
#
#
#
# Elastic Compliance Matrix: (Units=1/GPa)
#
#
# Indices 1 2 3 4 5 6 
#
# 1 0.010418 -0.002650 -0.002753 0.000000 -0.001787 0.000000
# 2 -0.002650 0.017522 -0.005727 0.000000 -0.002455 0.000000
# 3 -0.002753 -0.005727 0.011037 0.000000 -0.000958 0.000000
# 4 0.000000 0.000000 0.000000 0.024602 0.000000 -0.011830
# 5 -0.001787 -0.002455 -0.000958 0.000000 0.026767 0.000000
# 6 0.000000 0.000000 0.000000 -0.011830 0.000000 0.055604
#
#
# Mechanical properties :
#
#
# Convention : Reuss Voigt Hill
#
# Bulk Modulus (GPa) = 59.81576 67.99011 63.90294
# Shear Modulus (GPa) = 28.77169 33.98300 31.37735
#
# Velocity S-wave (km/s) = 3.77368 4.10122 3.94085
# Velocity P-wave (km/s) = 6.97091 7.48856 7.23437
#
# Compressibility (1/GPa) = 0.01671800
#
# Stress axis : x y z
#
# Youngs Moduli (GPa) = 95.98941 57.06990 90.60306
#
# Poissons Ratio (x) = 0.15123 0.24945
# Poissons Ratio (y) = 0.25436 0.51885
# Poissons Ratio (z) = 0.26428 0.32682
#
# Static dielectric constant tensor:
#      x y z
#    x 4.217690 0.000000 -0.206000 
#    y 0.000000 3.977410 0.000000 
#    z -0.206000 0.000000 3.752730 
# 
# 
# High freq. dielectric constant tensor:
#      x y z
#    x 1.785840 0.000000 -0.007690 
#    y 0.000000 1.778680 0.000000 
#    z -0.007690 0.000000 1.797570 
# 
# From -- ./inp_files/78043.got.cif
#   From: 2010.06.25/outbox.cif.g09.slc.cpg/sg12_40_cif.got.tgz:78043.got - 2010.06.28 00:19:55.
