data_PCOD8106237
_publ_section_title
;
Structure prediction by ZEFSAII (Michael W. Deem and Ramdas Pophale) SiO2 
 PCOD8106237
Probable space group: C 2/M
;
_chemical_formula_sum "Si O2"
_cell_formula_units_Z 52
_cell_length_a 13.395147
_cell_length_b 10.888263
_cell_length_c 16.266592
_cell_angle_alpha 90.000000
_cell_angle_beta 78.466299
_cell_angle_gamma 90.000000
_cell_volume 2324.573684
_symmetry_space_group_name_H-M "C 2/M"
_symmetry_group_IT_number 12
_symmetry_cell_setting 'monoclinic'
loop_
_space_group_symop_operation_xyz
x,y,z
-x,y,-z
-x,-y,-z
x,-y,z
1/2+x,1/2+y,z
1/2-x,1/2+y,-z
1/2-x,1/2-y,-z
1/2+x,1/2-y,z
loop_
_atom_site_type_symbol
_atom_site_label
_atom_site_fract_x
_atom_site_fract_y
_atom_site_fract_z
Si Si1 0.631642 0.226529 0.101415
Si Si2 0.669345 0.862762 0.359797
Si Si3 0.294727 0.364191 0.762807
Si Si4 0.922331 0.274080 0.201716
Si Si5 0.000000 0.730743 0.500000
Si Si6 0.604200 0.360970 0.630337
Si Si7 0.847282 0.865823 0.062976
O O1 0.665092 0.344081 0.151250
O O2 0.527728 0.164228 0.152953
O O3 0.723988 0.130440 0.087801
O O4 0.611862 0.270991 0.011650
O O5 0.660999 0.749639 0.297310
O O6 0.576723 0.856825 0.438443
O O7 0.774025 0.848135 0.392145
O O8 0.665914 0.000000 0.318498
O O9 0.331121 0.500000 0.726098
O O10 0.171223 0.369264 0.780889
O O11 0.943575 0.219109 0.288261
O O12 0.891756 0.164710 0.145031
O O13 0.063407 0.816975 0.549970
O O14 0.569127 0.500000 0.650404
O O15 0.886068 0.000000 0.032372
#
# Coordination Sequence:
#
# PCOD8106237 Si02
#       7
#     8   8   8   8   4   8   8
#     4  10  21  36  56  86 121 156 198 248 298 345
#     4  10  23  43  63  88 124 159 195 242 298 359
#     4  10  22  40  62  90 123 158 201 249 295 349
#     4  10  21  38  58  84 116 156 200 244 297 354
#     4  12  22  38  64  92 115 154 201 244 297 360
#     4  10  22  39  59  88 123 156 195 248 302 356
#     4  10  21  36  56  83 117 158 202 245 290 347
#
# _framework density 22.369693999999999
#
# number of rings (size 3 to 8) (size 9 to 14) (size 15 to 20)
#    0.000    1.846    0.000    3.231    0.000    9.846 
#    0.000   10.769    0.000    5.538    0.000    0.000 
#    0.000    0.000    0.000    0.000    0.000    0.000 
#
# Total GULP energy -322310.005099 kJ/mol
# GULP energy per Si atom -12396.538658 kJ/mol
# Density = 2.231878 g / cm^3
# Si number density = 22.369694 Si / 1000 Ang^3
#
#
#
# Elastic Constant Matrix: (Units=GPa)
#
#
# Indices 1 2 3 4 5 6 
#
# 1 67.2717 10.9571 33.4966 0.0000 -11.4304 0.0000
# 2 10.9571 105.3046 39.4353 0.0000 8.6842 0.0000
# 3 33.4966 39.4353 100.1702 0.0000 -2.7875 0.0000
# 4 0.0000 0.0000 0.0000 6.4455 0.0000 8.4029
# 5 -11.4304 8.6842 -2.7875 0.0000 56.1070 0.0000
# 6 0.0000 0.0000 0.0000 8.4029 0.0000 -1.4914
#
#
#
# Elastic Compliance Matrix: (Units=1/GPa)
#
#
# Indices 1 2 3 4 5 6 
#
# 1 0.018484 0.000083 -0.006118 0.000000 0.003449 0.000000
# 2 0.000083 0.011355 -0.004553 0.000000 -0.001967 0.000000
# 3 -0.006118 -0.004553 0.013825 0.000000 0.000145 0.000000
# 4 0.000000 0.000000 0.000000 0.018591 0.000000 0.104746
# 5 0.003449 -0.001967 0.000145 0.000000 0.018837 0.000000
# 6 0.000000 0.000000 0.000000 0.104746 0.000000 -0.080346
#
#
# Mechanical properties :
#
#
# Convention : Reuss Voigt Hill
#
# Bulk Modulus (GPa) = 44.46559 48.94716 46.70638
# Shear Modulus (GPa) = 169.97352 24.80273 97.38812
#
# Velocity S-wave (km/s) = 8.72633 3.33342 6.60532
# Velocity P-wave (km/s) = 11.02055 6.06169 8.89372
#
# Compressibility (1/GPa) = 0.02248930
#
# Stress axis : x y z
#
# Youngs Moduli (GPa) = 54.10164 88.06896 72.33189
#
# Poissons Ratio (x) = -0.00734 0.44251
# Poissons Ratio (y) = -0.00451 0.32931
# Poissons Ratio (z) = 0.33098 0.40096
#
# Static dielectric constant tensor:
#      x y z
#    x 4.267030 0.000000 -0.099010 
#    y 0.000000 3.620930 0.000000 
#    z -0.099010 0.000000 3.998720 
# 
# 
# High freq. dielectric constant tensor:
#      x y z
#    x 1.901900 0.000000 -0.004080 
#    y 0.000000 1.852970 0.000000 
#    z -0.004080 0.000000 1.878530 
# 
# From -- ./inp_files/213338.got.cif
#   From: 2010.06.25/outbox.cif.g09.slc.cpg/sg12_107_cif.got.tgz:213338.got - 2010.06.28 00:19:55.
