data_PCOD8106170
_publ_section_title
;
Structure prediction by ZEFSAII (Michael W. Deem and Ramdas Pophale) SiO2 
 PCOD8106170
Probable space group: C 2/M
;
_chemical_formula_sum "Si O2"
_cell_formula_units_Z 64
_cell_length_a 29.443773
_cell_length_b 17.087451
_cell_length_c 21.956055
_cell_angle_alpha 90.000000
_cell_angle_beta 18.320494
_cell_angle_gamma 90.000000
_cell_volume 3472.271658
_symmetry_space_group_name_H-M "C 2/M"
_symmetry_group_IT_number 12
_symmetry_cell_setting 'monoclinic'
loop_
_space_group_symop_operation_xyz
x,y,z
-x,y,-z
-x,-y,-z
x,-y,z
1/2+x,1/2+y,z
1/2-x,1/2+y,-z
1/2-x,1/2-y,-z
1/2+x,1/2-y,z
loop_
_atom_site_type_symbol
_atom_site_label
_atom_site_fract_x
_atom_site_fract_y
_atom_site_fract_z
Si Si1 0.827924 0.910517 0.372216
Si Si2 0.912753 0.720662 0.794467
Si Si3 0.673779 0.678147 0.498112
Si Si4 0.651352 0.167520 0.939419
Si Si5 0.638540 0.591064 0.421067
Si Si6 0.497020 0.087240 0.239326
Si Si7 0.450865 0.712338 0.130650
Si Si8 0.575079 0.719122 0.345303
O O1 0.812558 0.866050 0.455666
O O2 0.674234 0.909527 0.534034
O O3 0.939032 0.866664 0.185776
O O4 0.880316 0.000000 0.316045
O O5 0.923471 0.634567 0.808401
O O6 0.958746 0.719130 0.664970
O O7 0.018951 0.778205 0.696547
O O8 0.750000 0.750000 0.000000
O O9 0.684395 0.615034 0.430710
O O10 0.799698 0.741478 0.327511
O O11 0.732545 0.110695 0.789387
O O12 0.756022 0.205116 0.857398
O O13 0.531208 0.118665 0.128200
O O14 0.580004 0.236596 0.992748
O O15 0.603966 0.500000 0.463329
O O16 0.494141 0.635269 0.583698
O O17 0.557610 0.000000 0.168191
O O18 0.500000 0.689814 0.000000
O O19 0.500000 0.755854 0.500000
#
# Coordination Sequence:
#
# PCOD8106170 Si02
#       8
#     8   8   8   8   8   8   8   8
#     4  11  24  40  61  86 118 155 195 249 297 342
#     4  11  21  38  60  85 113 154 197 238 287 352
#     4  11  21  40  59  88 117 154 197 237 295 354
#     4  11  20  36  57  87 116 154 191 231 286 355
#     4  10  21  36  55  84 125 155 184 235 292 352
#     4  11  22  36  58  87 116 149 194 246 294 343
#     4  12  23  39  63  87 117 155 201 239 293 356
#     4   9  21  35  56  81 112 151 193 231 279 342
#
# _framework density 18.431737999999999
#
# number of rings (size 3 to 8) (size 9 to 14) (size 15 to 20)
#    0.000    1.250    5.000    1.875    0.000    3.000 
#    0.000    1.250    0.000    0.375    0.000    0.000 
#    0.000    0.000    0.000    0.000    0.000    0.000 
#
# Total GULP energy -396831.331295 kJ/mol
# GULP energy per Si atom -12400.979103 kJ/mol
# Density = 1.838979 g / cm^3
# Si number density = 18.431738 Si / 1000 Ang^3
#
#
#
# Elastic Constant Matrix: (Units=GPa)
#
#
# Indices 1 2 3 4 5 6 
#
# 1 115.3109 52.0424 28.2270 0.0002 15.6208 -0.0001
# 2 52.0424 77.4193 24.3521 -0.0066 14.3366 0.0033
# 3 28.2270 24.3521 62.0301 -0.0005 -1.0769 -0.0031
# 4 0.0002 -0.0066 -0.0005 25.2104 -0.0025 4.0183
# 5 15.6208 14.3366 -1.0769 -0.0025 35.5519 0.0029
# 6 -0.0001 0.0033 -0.0031 4.0183 0.0029 21.7109
#
#
#
# Elastic Compliance Matrix: (Units=1/GPa)
#
#
# Indices 1 2 3 4 5 6 
#
# 1 0.013134 -0.007292 -0.003165 -0.000003 -0.002926 0.000002
# 2 -0.007292 0.020248 -0.004720 0.000005 -0.005104 -0.000004
# 3 -0.003165 -0.004720 0.019482 -0.000001 0.003884 0.000003
# 4 -0.000003 0.000005 -0.000001 0.040872 0.000002 -0.007565
# 5 -0.002926 -0.005104 0.003884 0.000002 0.031590 -0.000003
# 6 0.000002 -0.000004 0.000003 -0.007565 -0.000003 0.047460
#
#
# Mechanical properties :
#
#
# Convention : Reuss Voigt Hill
#
# Bulk Modulus (GPa) = 44.42167 51.55591 47.98879
# Shear Modulus (GPa) = 23.73701 26.50390 25.12045
#
# Velocity S-wave (km/s) = 3.59253 3.79614 3.69574
# Velocity P-wave (km/s) = 6.43128 6.87359 6.65611
#
# Compressibility (1/GPa) = 0.02251153
#
# Stress axis : x y z
#
# Youngs Moduli (GPa) = 76.13680 49.38771 51.33010
#
# Poissons Ratio (x) = 0.36011 0.16246
# Poissons Ratio (y) = 0.55516 0.24226
# Poissons Ratio (z) = 0.24097 0.23309
#
# Static dielectric constant tensor:
#      x y z
#    x 3.667610 0.000000 0.108690 
#    y 0.000000 3.314230 0.000000 
#    z 0.108690 0.000000 3.495820 
# 
# 
# High freq. dielectric constant tensor:
#      x y z
#    x 1.730120 0.000000 0.002550 
#    y 0.000000 1.694620 0.000000 
#    z 0.002550 0.000000 1.719890 
# 
# From -- ./inp_files/328611.got.cif
#   From: 2010.06.25/outbox.cif.g09.slc.cpg/sg12_165_cif.got.tgz:328611.got - 2010.06.28 00:19:55.
