data_PCOD8106999
_publ_section_title
;
Structure prediction by ZEFSAII (Michael W. Deem and Ramdas Pophale) SiO2 
 PCOD8106999
Probable space group: C 2/M
;
_chemical_formula_sum "Si O2"
_cell_formula_units_Z 40
_cell_length_a 29.807869
_cell_length_b 8.794391
_cell_length_c 14.933709
_cell_angle_alpha 90.000000
_cell_angle_beta 149.608397
_cell_angle_gamma 90.000000
_cell_volume 1980.502410
_symmetry_space_group_name_H-M "C 2/M"
_symmetry_group_IT_number 12
_symmetry_cell_setting 'monoclinic'
loop_
_space_group_symop_operation_xyz
x,y,z
-x,y,-z
-x,-y,-z
x,-y,z
1/2+x,1/2+y,z
1/2-x,1/2+y,-z
1/2-x,1/2-y,-z
1/2+x,1/2-y,z
loop_
_atom_site_type_symbol
_atom_site_label
_atom_site_fract_x
_atom_site_fract_y
_atom_site_fract_z
Si Si1 0.282299 0.180253 0.284649
Si Si2 0.501149 0.675522 0.104099
Si Si3 0.891382 0.320724 0.065252
Si Si4 0.526469 0.180949 0.448289
Si Si5 0.298531 0.676256 0.500398
O O1 0.376017 0.242394 0.408948
O O2 0.264484 0.240884 0.353336
O O3 0.280111 0.000000 0.281832
O O4 0.204509 0.243197 0.086852
O O5 0.471296 0.500000 0.057936
O O6 0.431415 0.776351 0.038112
O O7 0.596963 0.701307 0.311452
O O8 0.500000 0.732542 0.000000
O O9 0.879744 0.500000 0.050927
O O10 0.955391 0.258328 0.253853
O O11 0.500000 0.245110 0.500000
O O12 0.526835 0.000000 0.448722
O O13 0.273221 0.500000 0.451744
O O14 0.250000 0.750000 0.500000
#
# Coordination Sequence:
#
# PCOD8106999 Si02
#       5
#     8   8   8   8   8
#     4  11  22  39  62  88 123 164 204 251 308 362
#     4  10  21  37  57  84 120 160 199 246 302 361
#     4  11  22  38  62  91 121 158 205 255 302 363
#     4   9  20  40  64  89 121 162 205 252 310 370
#     4  11  22  36  58  88 125 163 204 250 300 363
#
# _framework density 20.196894
#
# number of rings (size 3 to 8) (size 9 to 14) (size 15 to 20)
#    0.000    1.600    2.000    3.000    0.000    3.600 
#    0.000    0.000    0.000    8.400    0.000    0.000 
#    0.000    0.000    0.000    0.000    0.000    0.000 
#
# Total GULP energy -248102.552694 kJ/mol
# GULP energy per Si atom -12405.127635 kJ/mol
# Density = 2.015093 g / cm^3
# Si number density = 20.196894 Si / 1000 Ang^3
#
#
#
# Elastic Constant Matrix: (Units=GPa)
#
#
# Indices 1 2 3 4 5 6 
#
# 1 137.9563 33.0199 71.0955 0.0000 -0.6901 0.0000
# 2 33.0199 74.0608 45.2867 0.0000 7.2385 0.0000
# 3 71.0955 45.2867 159.7364 0.0000 7.2397 0.0000
# 4 0.0000 0.0000 0.0000 30.2277 0.0000 4.9638
# 5 -0.6901 7.2385 7.2397 0.0000 31.9309 0.0000
# 6 0.0000 0.0000 0.0000 4.9638 0.0000 19.2773
#
#
#
# Elastic Compliance Matrix: (Units=1/GPa)
#
#
# Indices 1 2 3 4 5 6 
#
# 1 0.009727 -0.002176 -0.003783 0.000000 0.001561 0.000000
# 2 -0.002176 0.017051 -0.003727 0.000000 -0.003067 0.000000
# 3 -0.003783 -0.003727 0.009059 0.000000 -0.001291 0.000000
# 4 0.000000 0.000000 0.000000 0.034543 0.000000 -0.008895
# 5 0.001561 -0.003067 -0.001291 0.000000 0.032339 0.000000
# 6 0.000000 0.000000 0.000000 -0.008895 0.000000 0.054165
#
#
# Mechanical properties :
#
#
# Convention : Reuss Voigt Hill
#
# Bulk Modulus (GPa) = 60.73231 74.50643 67.61937
# Shear Modulus (GPa) = 27.51118 31.11061 29.31090
#
# Velocity S-wave (km/s) = 3.69473 3.92901 3.81367
# Velocity P-wave (km/s) = 6.95247 7.58636 7.27632
#
# Compressibility (1/GPa) = 0.01646570
#
# Stress axis : x y z
#
# Youngs Moduli (GPa) = 102.80738 58.64707 110.38580
#
# Poissons Ratio (x) = 0.12762 0.41760
# Poissons Ratio (y) = 0.22371 0.41137
# Poissons Ratio (z) = 0.38893 0.21856
#
# Static dielectric constant tensor:
#      x y z
#    x 3.699010 0.000000 0.067530 
#    y 0.000000 3.461560 0.000000 
#    z 0.067530 0.000000 4.025240 
# 
# 
# High freq. dielectric constant tensor:
#      x y z
#    x 1.786130 0.000000 0.004530 
#    y 0.000000 1.771910 0.000000 
#    z 0.004530 0.000000 1.807420 
# 
# From -- ./inp_files/211193.got.cif
#   From: 2010.06.25/outbox.cif.g09.slc.cpg/sg12_106_cif.got.tgz:211193.got - 2010.06.28 00:19:55.
