data_PCOD8106417
_publ_section_title
;
Structure prediction by ZEFSAII (Michael W. Deem and Ramdas Pophale) SiO2 
 PCOD8106417
Probable space group: C 2/M
;
_chemical_formula_sum "Si O2"
_cell_formula_units_Z 64
_cell_length_a 30.064315
_cell_length_b 8.798185
_cell_length_c 14.728127
_cell_angle_alpha 90.000000
_cell_angle_beta 51.533282
_cell_angle_gamma 90.000000
_cell_volume 3050.259868
_symmetry_space_group_name_H-M "C 2/M"
_symmetry_group_IT_number 12
_symmetry_cell_setting 'monoclinic'
loop_
_space_group_symop_operation_xyz
x,y,z
-x,y,-z
-x,-y,-z
x,-y,z
1/2+x,1/2+y,z
1/2-x,1/2+y,-z
1/2-x,1/2-y,-z
1/2+x,1/2-y,z
loop_
_atom_site_type_symbol
_atom_site_label
_atom_site_fract_x
_atom_site_fract_y
_atom_site_fract_z
Si Si1 0.807456 0.669276 0.948422
Si Si2 0.154215 0.329809 0.299960
Si Si3 0.387555 0.178830 0.004914
Si Si4 0.490076 0.823640 0.751486
Si Si5 0.287440 0.320019 0.619941
Si Si6 0.380945 0.180496 0.368999
Si Si7 0.946669 0.835745 0.627971
Si Si8 0.835333 0.179943 0.246693
O O1 0.792139 0.500000 0.997089
O O2 0.843046 0.675029 0.811752
O O3 0.750000 0.750000 0.000000
O O4 0.844283 0.741749 0.982630
O O5 0.159880 0.500000 0.332018
O O6 0.201406 0.224927 0.289089
O O7 0.091397 0.264767 0.392823
O O8 0.373698 0.271921 0.112762
O O9 0.378407 0.000000 0.035093
O O10 0.452202 0.210329 0.889911
O O11 0.555130 0.774084 0.683970
O O12 0.462273 0.737814 0.703447
O O13 0.486141 0.000000 0.732395
O O14 0.290798 0.500000 0.600761
O O15 0.336321 0.236160 0.500835
O O16 0.225359 0.262956 0.671957
O O17 0.369604 0.269787 0.291185
O O18 0.374691 0.000000 0.362594
O O19 0.000000 0.866455 0.500000
O O20 0.917461 0.000000 0.685454
O O21 0.825378 0.000000 0.258472
#
# Coordination Sequence:
#
# PCOD8106417 Si02
#       8
#     8   8   8   8   8   8   8   8
#     4  10  21  36  58  86 122 160 204 253 302 362
#     4  11  22  39  61  90 124 164 210 251 304 375
#     4  10  21  42  65  91 127 170 216 266 318 378
#     4  10  22  42  67  93 126 169 218 265 318 384
#     4  12  25  43  66  96 132 168 211 269 327 388
#     4  11  24  44  70  97 125 167 215 269 329 387
#     4  11  23  37  57  89 128 168 210 257 311 369
#     4  12  26  44  66  95 128 168 215 268 327 389
#
# _framework density 20.981819000000002
#
# number of rings (size 3 to 8) (size 9 to 14) (size 15 to 20)
#    0.000    1.125    1.250    5.250    0.000    8.500 
#    0.000    2.500    0.000    0.000    0.000    0.000 
#    0.000    0.000    0.000    0.000    0.000    0.000 
#
# Total GULP energy -396741.516030 kJ/mol
# GULP energy per Si atom -12398.172376 kJ/mol
# Density = 2.093406 g / cm^3
# Si number density = 20.981819 Si / 1000 Ang^3
#
#
#
# Elastic Constant Matrix: (Units=GPa)
#
#
# Indices 1 2 3 4 5 6 
#
# 1 91.7258 31.5394 22.8217 0.0001 -1.5554 0.0002
# 2 31.5394 89.7554 31.3630 0.0002 -0.9681 0.0006
# 3 22.8217 31.3630 81.3052 0.0000 -7.5210 0.0000
# 4 0.0001 0.0002 0.0000 24.8021 -0.0001 -0.7557
# 5 -1.5554 -0.9681 -7.5210 -0.0001 37.3700 0.0000
# 6 0.0002 0.0006 0.0000 -0.7557 0.0000 33.1506
#
#
#
# Elastic Compliance Matrix: (Units=1/GPa)
#
#
# Indices 1 2 3 4 5 6 
#
# 1 0.012712 -0.003722 -0.002132 0.000000 0.000004 0.000000
# 2 -0.003722 0.013984 -0.004412 0.000000 -0.000681 0.000000
# 3 -0.002132 -0.004412 0.014858 0.000000 0.002787 0.000000
# 4 0.000000 0.000000 0.000000 0.040347 0.000000 0.000920
# 5 0.000004 -0.000681 0.002787 0.000000 0.027303 0.000000
# 6 0.000000 0.000000 0.000000 0.000920 0.000000 0.030186
#
#
# Mechanical properties :
#
#
# Convention : Reuss Voigt Hill
#
# Bulk Modulus (GPa) = 47.57208 48.24827 47.91018
# Shear Modulus (GPa) = 29.95261 30.86867 30.41064
#
# Velocity S-wave (km/s) = 3.78239 3.83980 3.81120
# Velocity P-wave (km/s) = 6.46510 6.53482 6.50006
#
# Compressibility (1/GPa) = 0.02102073
#
# Stress axis : x y z
#
# Youngs Moduli (GPa) = 78.66337 71.51166 67.30510
#
# Poissons Ratio (x) = 0.26616 0.14351
# Poissons Ratio (y) = 0.29278 0.29698
# Poissons Ratio (z) = 0.16773 0.31554
#
# Static dielectric constant tensor:
#      x y z
#    x 3.190780 0.000000 -0.062670 
#    y 0.000000 3.917740 0.000000 
#    z -0.062670 0.000000 3.899400 
# 
# 
# High freq. dielectric constant tensor:
#      x y z
#    x 1.830740 0.000000 -0.002380 
#    y 0.000000 1.825650 0.000000 
#    z -0.002380 0.000000 1.829180 
# 
# From -- ./inp_files/249759.got.cif
#   From: 2010.06.25/outbox.cif.g09.slc.cpg/sg12_125_cif.got.tgz:249759.got - 2010.06.28 00:19:55.
