data_PCOD8106084
_publ_section_title
;
Structure prediction by ZEFSAII (Michael W. Deem and Ramdas Pophale) SiO2 
 PCOD8106084
Probable space group: C 2/M
;
_chemical_formula_sum "Si O2"
_cell_formula_units_Z 48
_cell_length_a 10.136279
_cell_length_b 9.538640
_cell_length_c 26.851149
_cell_angle_alpha 90.000000
_cell_angle_beta 100.521389
_cell_angle_gamma 90.000000
_cell_volume 2552.489310
_symmetry_space_group_name_H-M "C 2/M"
_symmetry_group_IT_number 12
_symmetry_cell_setting 'monoclinic'
loop_
_space_group_symop_operation_xyz
x,y,z
-x,y,-z
-x,-y,-z
x,-y,z
1/2+x,1/2+y,z
1/2-x,1/2+y,-z
1/2-x,1/2-y,-z
1/2+x,1/2-y,z
loop_
_atom_site_type_symbol
_atom_site_label
_atom_site_fract_x
_atom_site_fract_y
_atom_site_fract_z
Si Si1 0.679891 0.163933 0.142923
Si Si2 0.930655 0.339314 0.191401
Si Si3 0.648726 0.836627 0.026059
Si Si4 0.149269 0.836884 0.526291
Si Si5 0.513352 0.839396 0.691362
Si Si6 0.716887 0.663927 0.642852
O O1 0.799884 0.245471 0.177136
O O2 0.541148 0.209821 0.159097
O O3 0.670911 0.204743 0.084692
O O4 0.705836 0.000000 0.152861
O O5 0.889052 0.500000 0.179082
O O6 0.993511 0.318405 0.250051
O O7 0.674813 0.000000 0.018275
O O8 0.500000 0.793428 0.000000
O O9 0.750000 0.750000 0.000000
O O10 0.250000 0.750000 0.500000
O O11 0.167411 0.793776 0.584762
O O12 0.000000 0.796804 0.500000
O O13 0.180200 0.000000 0.520031
O O14 0.630428 0.745272 0.677312
O O15 0.371487 0.790942 0.658916
O O16 0.543721 0.000000 0.679263
O O17 0.698666 0.500000 0.652361
#
# Coordination Sequence:
#
# PCOD8106084 Si02
#       6
#     8   8   8   8   8   8
#     4  10  21  37  57  81 109 142 179 219 266 318
#     4  10  21  37  56  79 108 140 177 222 267 315
#     4  10  21  37  57  81 109 142 179 219 265 316
#     4  10  21  36  55  81 110 141 179 221 267 319
#     4  10  21  36  55  80 107 139 180 221 265 317
#     4  10  21  37  56  79 109 143 179 221 267 317
#
# _framework density 18.805171999999999
#
# number of rings (size 3 to 8) (size 9 to 14) (size 15 to 20)
#    0.000    2.000    0.000    3.000    0.000    6.667 
#    0.000    0.000    0.000    0.000    0.000    0.000 
#    0.000    0.000    0.000    0.000    0.000    0.000 
#
# Total GULP energy -297742.570039 kJ/mol
# GULP energy per Si atom -12405.940418 kJ/mol
# Density = 1.876237 g / cm^3
# Si number density = 18.805172 Si / 1000 Ang^3
#
#
#
# Elastic Constant Matrix: (Units=GPa)
#
#
# Indices 1 2 3 4 5 6 
#
# 1 106.3217 50.4207 33.7287 0.0000 -3.3191 0.0000
# 2 50.4207 52.5742 31.1360 0.0000 -8.5435 0.0000
# 3 33.7287 31.1360 78.5804 0.0000 -1.9404 0.0000
# 4 0.0000 0.0000 0.0000 32.3376 0.0000 -4.4611
# 5 -3.3191 -8.5435 -1.9404 0.0000 43.7129 0.0000
# 6 0.0000 0.0000 0.0000 -4.4611 0.0000 36.5717
#
#
#
# Elastic Compliance Matrix: (Units=1/GPa)
#
#
# Indices 1 2 3 4 5 6 
#
# 1 0.017483 -0.016475 -0.001024 0.000000 -0.001938 0.000000
# 2 -0.016475 0.041264 -0.009120 0.000000 0.006409 0.000000
# 3 -0.001024 -0.009120 0.016751 0.000000 -0.001117 0.000000
# 4 0.000000 0.000000 0.000000 0.031453 0.000000 0.003837
# 5 -0.001938 0.006409 -0.001117 0.000000 0.023932 0.000000
# 6 0.000000 0.000000 0.000000 0.003837 0.000000 0.027812
#
#
# Mechanical properties :
#
#
# Convention : Reuss Voigt Hill
#
# Bulk Modulus (GPa) = 44.92476 52.00524 48.46500
# Shear Modulus (GPa) = 22.79430 30.67050 26.73240
#
# Velocity S-wave (km/s) = 3.48534 4.04290 3.77443
# Velocity P-wave (km/s) = 6.33548 7.03620 6.69501
#
# Compressibility (1/GPa) = 0.02225944
#
# Stress axis : x y z
#
# Youngs Moduli (GPa) = 57.19941 24.23437 59.69646
#
# Poissons Ratio (x) = 0.39926 0.06112
# Poissons Ratio (y) = 0.94237 0.54444
# Poissons Ratio (z) = 0.05857 0.22102
#
# Static dielectric constant tensor:
#      x y z
#    x 3.417780 0.000000 0.052280 
#    y 0.000000 2.215260 0.000000 
#    z 0.052280 0.000000 3.590050 
# 
# 
# High freq. dielectric constant tensor:
#      x y z
#    x 1.740230 0.000000 0.003510 
#    y 0.000000 1.724080 0.000000 
#    z 0.003510 0.000000 1.748320 
# 
# From -- ./inp_files/331990.got.cif
#   From: 2010.06.25/outbox.cif.g09.slc.cpg/sg12_166_cif.got.tgz:331990.got - 2010.06.28 00:19:55.
