data_PCOD8106410
_publ_section_title
;
Structure prediction by ZEFSAII (Michael W. Deem and Ramdas Pophale) SiO2 
 PCOD8106410
Probable space group: C 2/M
;
_chemical_formula_sum "Si O2"
_cell_formula_units_Z 40
_cell_length_a 21.089775
_cell_length_b 9.064465
_cell_length_c 10.524350
_cell_angle_alpha 90.000000
_cell_angle_beta 105.505559
_cell_angle_gamma 90.000000
_cell_volume 1938.689393
_symmetry_space_group_name_H-M "C 2/M"
_symmetry_group_IT_number 12
_symmetry_cell_setting 'monoclinic'
loop_
_space_group_symop_operation_xyz
x,y,z
-x,y,-z
-x,-y,-z
x,-y,z
1/2+x,1/2+y,z
1/2-x,1/2+y,-z
1/2-x,1/2-y,-z
1/2+x,1/2-y,z
loop_
_atom_site_type_symbol
_atom_site_label
_atom_site_fract_x
_atom_site_fract_y
_atom_site_fract_z
Si Si1 0.247852 0.163046 0.811836
Si Si2 0.547163 0.174533 0.413776
Si Si3 0.693817 0.175570 0.553311
Si Si4 0.845636 0.837570 0.005211
Si Si5 0.527064 0.827085 0.876590
O O1 0.203093 0.267080 0.700852
O O2 0.212569 0.142968 0.926298
O O3 0.259909 0.000000 0.757085
O O4 0.319068 0.239789 0.872645
O O5 0.500000 0.240245 0.500000
O O6 0.621998 0.230440 0.469121
O O7 0.522077 0.225214 0.261338
O O8 0.546095 0.000000 0.424376
O O9 0.750000 0.250000 0.500000
O O10 0.700364 0.000000 0.552119
O O11 0.905270 0.757919 0.107797
O O12 0.866725 0.000000 0.966809
O O13 0.541272 0.000000 0.874439
O O14 0.500000 0.782637 0.000000
#
# Coordination Sequence:
#
# PCOD8106410 Si02
#       5
#     8   8   8   8   8
#     4  10  21  38  60  85 117 155 198 245 297 361
#     4   9  19  37  60  85 116 158 204 245 292 358
#     4  11  23  38  60  89 123 159 201 250 304 362
#     4  10  21  37  59  88 118 152 194 246 304 359
#     4  10  21  36  58  86 116 155 200 245 296 357
#
# _framework density 20.632494000000001
#
# number of rings (size 3 to 8) (size 9 to 14) (size 15 to 20)
#    0.000    2.000    0.000    3.000    2.800    4.400 
#    0.000    2.000    0.000    5.400    0.000    0.000 
#    0.000    0.000    0.000    0.000    0.000    0.000 
#
# Total GULP energy -247981.014718 kJ/mol
# GULP energy per Si atom -12399.050736 kJ/mol
# Density = 2.058553 g / cm^3
# Si number density = 20.632494 Si / 1000 Ang^3
#
#
#
# Elastic Constant Matrix: (Units=GPa)
#
#
# Indices 1 2 3 4 5 6 
#
# 1 114.4868 42.3870 61.6850 0.0000 27.1585 0.0000
# 2 42.3870 96.8446 50.1150 0.0000 17.5762 0.0000
# 3 61.6850 50.1150 151.4724 0.0000 31.2207 0.0000
# 4 0.0000 0.0000 0.0000 26.8701 0.0000 2.0740
# 5 27.1585 17.5762 31.2207 0.0000 45.0876 0.0000
# 6 0.0000 0.0000 0.0000 2.0740 0.0000 26.8651
#
#
#
# Elastic Compliance Matrix: (Units=1/GPa)
#
#
# Indices 1 2 3 4 5 6 
#
# 1 0.012616 -0.003081 -0.003266 0.000000 -0.004137 0.000000
# 2 -0.003081 0.013426 -0.002906 0.000000 -0.001366 0.000000
# 3 -0.003266 -0.002906 0.009628 0.000000 -0.003567 0.000000
# 4 0.000000 0.000000 0.000000 0.037439 0.000000 -0.002890
# 5 -0.004137 -0.001366 -0.003567 0.000000 0.027674 0.000000
# 6 0.000000 0.000000 0.000000 -0.002890 0.000000 0.037446
#
#
# Mechanical properties :
#
#
# Convention : Reuss Voigt Hill
#
# Bulk Modulus (GPa) = 58.25658 74.57529 66.41594
# Shear Modulus (GPa) = 30.77747 33.67235 32.22491
#
# Velocity S-wave (km/s) = 3.86644 4.04419 3.95632
# Velocity P-wave (km/s) = 6.94472 7.61777 7.28902
#
# Compressibility (1/GPa) = 0.01716544
#
# Stress axis : x y z
#
# Youngs Moduli (GPa) = 79.26244 74.48291 103.85909
#
# Poissons Ratio (x) = 0.22949 0.33917
# Poissons Ratio (y) = 0.24422 0.30179
# Poissons Ratio (z) = 0.25885 0.21643
#
# Static dielectric constant tensor:
#      x y z
#    x 3.654510 0.000000 0.175400 
#    y 0.000000 3.847140 0.000000 
#    z 0.175400 0.000000 3.947600 
# 
# 
# High freq. dielectric constant tensor:
#      x y z
#    x 1.801550 0.000000 0.012180 
#    y 0.000000 1.794250 0.000000 
#    z 0.012180 0.000000 1.814390 
# 
# From -- ./inp_files/162740.got.cif
#   From: 2010.06.25/outbox.cif.g09.slc.cpg/sg12_82_cif.got.tgz:162740.got - 2010.06.28 00:19:55.
