data_PCOD8106079
_publ_section_title
;
Structure prediction by ZEFSAII (Michael W. Deem and Ramdas Pophale) SiO2 
 PCOD8106079
Probable space group: C 2/M
;
_chemical_formula_sum "Si O2"
_cell_formula_units_Z 44
_cell_length_a 16.447518
_cell_length_b 23.542115
_cell_length_c 6.653353
_cell_angle_alpha 90.000000
_cell_angle_beta 59.406506
_cell_angle_gamma 90.000000
_cell_volume 2217.627418
_symmetry_space_group_name_H-M "C 2/M"
_symmetry_group_IT_number 12
_symmetry_cell_setting 'monoclinic'
loop_
_space_group_symop_operation_xyz
x,y,z
-x,y,-z
-x,-y,-z
x,-y,z
1/2+x,1/2+y,z
1/2-x,1/2+y,-z
1/2-x,1/2-y,-z
1/2+x,1/2-y,z
loop_
_atom_site_type_symbol
_atom_site_label
_atom_site_fract_x
_atom_site_fract_y
_atom_site_fract_z
Si Si1 0.000000 0.814089 0.000000
Si Si2 0.389753 0.142779 0.587647
Si Si3 0.907052 0.869393 0.738220
Si Si4 0.773814 0.562702 0.008103
Si Si5 0.402774 0.937396 0.215505
Si Si6 0.904898 0.766343 0.495011
O O1 0.928688 0.776331 0.228338
O O2 0.064200 0.851046 0.071223
O O3 0.500000 0.141619 0.500000
O O4 0.330173 0.114183 0.837214
O O5 0.367042 0.106035 0.423572
O O6 0.350566 0.206545 0.591901
O O7 0.854198 0.819471 0.671801
O O8 0.000000 0.889378 0.500000
O O9 0.836611 0.922114 0.844008
O O10 0.783532 0.500000 0.891229
O O11 0.815960 0.557630 0.175109
O O12 0.424387 0.000000 0.281129
O O13 0.500000 0.913546 0.000000
O O14 0.000000 0.760572 0.500000
#
# Coordination Sequence:
#
# PCOD8106079 Si02
#       6
#     4   8   8   8   8   8
#     4   8  16  36  61  80 109 148 182 230 290 336
#     4  11  21  34  57  86 116 151 188 231 275 337
#     4   9  20  40  60  83 113 146 189 239 286 333
#     4  11  24  39  57  83 116 152 192 235 280 333
#     4  10  21  36  55  79 114 157 191 225 272 328
#     4   8  18  33  57  86 113 146 185 230 282 340
#
# _framework density 19.841024999999998
#
# number of rings (size 3 to 8) (size 9 to 14) (size 15 to 20)
#    0.000    2.727    1.818    0.545    1.273    6.182 
#    0.000    2.273    0.000    0.000    0.000    0.000 
#    0.000    0.000    0.000    0.000    0.000    0.000 
#
# Total GULP energy -272565.340825 kJ/mol
# GULP energy per Si atom -12389.333674 kJ/mol
# Density = 1.979587 g / cm^3
# Si number density = 19.841025 Si / 1000 Ang^3
#
#
#
# Elastic Constant Matrix: (Units=GPa)
#
#
# Indices 1 2 3 4 5 6 
#
# 1 68.6342 32.7835 33.4865 0.0000 -2.0487 0.0000
# 2 32.7835 85.6358 28.5156 0.0000 -0.8398 0.0000
# 3 33.4865 28.5156 83.7825 0.0000 13.6472 0.0000
# 4 0.0000 0.0000 0.0000 35.7767 0.0000 -8.4319
# 5 -2.0487 -0.8398 13.6472 0.0000 30.8393 0.0000
# 6 0.0000 0.0000 0.0000 -8.4319 0.0000 22.8892
#
#
#
# Elastic Compliance Matrix: (Units=1/GPa)
#
#
# Indices 1 2 3 4 5 6 
#
# 1 0.020847 -0.005554 -0.007159 0.000000 0.004402 0.000000
# 2 -0.005554 0.014834 -0.003055 0.000000 0.001387 0.000000
# 3 -0.007159 -0.003055 0.017165 0.000000 -0.008155 0.000000
# 4 0.000000 0.000000 0.000000 0.030609 0.000000 0.011276
# 5 0.004402 0.001387 -0.008155 0.000000 0.036365 0.000000
# 6 0.000000 0.000000 0.000000 0.011276 0.000000 0.047842
#
#
# Mechanical properties :
#
#
# Convention : Reuss Voigt Hill
#
# Bulk Modulus (GPa) = 46.92436 47.51374 47.21905
# Shear Modulus (GPa) = 24.23636 27.45218 25.84427
#
# Velocity S-wave (km/s) = 3.49883 3.72372 3.61302
# Velocity P-wave (km/s) = 6.32644 6.51823 6.42305
#
# Compressibility (1/GPa) = 0.02131089
#
# Stress axis : x y z
#
# Youngs Moduli (GPa) = 47.96855 67.41096 58.25778
#
# Poissons Ratio (x) = 0.37438 0.41706
# Poissons Ratio (y) = 0.26640 0.17798
# Poissons Ratio (z) = 0.34340 0.20595
#
# Static dielectric constant tensor:
#      x y z
#    x 3.378630 0.000000 0.132630 
#    y 0.000000 4.310810 0.000000 
#    z 0.132630 0.000000 3.655100 
# 
# 
# High freq. dielectric constant tensor:
#      x y z
#    x 1.750160 0.000000 0.012740 
#    y 0.000000 1.777690 0.000000 
#    z 0.012740 0.000000 1.767520 
# 
# From -- ./inp_files/16809.got.cif
#   From: 2010.06.25/outbox.cif.g09.slc.cpg/sg12_9_cif.got.tgz:16809.got - 2010.06.28 00:19:55.
