data_PCOD8106339
_publ_section_title
;
Structure prediction by ZEFSAII (Michael W. Deem and Ramdas Pophale) SiO2 
 PCOD8106339
Probable space group: C 2/M
;
_chemical_formula_sum "Si O2"
_cell_formula_units_Z 56
_cell_length_a 20.924114
_cell_length_b 16.198192
_cell_length_c 8.814727
_cell_angle_alpha 90.000000
_cell_angle_beta 88.864289
_cell_angle_gamma 90.000000
_cell_volume 2987.013338
_symmetry_space_group_name_H-M "C 2/M"
_symmetry_group_IT_number 12
_symmetry_cell_setting 'monoclinic'
loop_
_space_group_symop_operation_xyz
x,y,z
-x,y,-z
-x,-y,-z
x,-y,z
1/2+x,1/2+y,z
1/2-x,1/2+y,-z
1/2-x,1/2-y,-z
1/2+x,1/2-y,z
loop_
_atom_site_type_symbol
_atom_site_label
_atom_site_fract_x
_atom_site_fract_y
_atom_site_fract_z
Si Si1 0.805582 0.407332 0.603240
Si Si2 0.889054 0.283542 0.768938
Si Si3 0.680097 0.261464 0.933767
Si Si4 0.621950 0.844371 0.684496
Si Si5 0.497795 0.091905 0.823613
Si Si6 0.166523 0.906316 0.706476
Si Si7 0.926670 0.810191 0.488299
O O1 0.823077 0.500000 0.655323
O O2 0.830631 0.342267 0.724768
O O3 0.833862 0.392435 0.435640
O O4 0.729629 0.394910 0.601206
O O5 0.952972 0.338758 0.752143
O O6 0.896536 0.205713 0.656102
O O7 0.874637 0.247756 0.935629
O O8 0.669443 0.190240 0.810203
O O9 0.670449 0.350686 0.857458
O O10 0.750000 0.250000 0.000000
O O11 0.569680 0.905597 0.756492
O O12 0.581349 0.772581 0.607998
O O13 0.470648 0.000000 0.790712
O O14 0.500000 0.110009 0.000000
O O15 0.108582 0.883914 0.597354
O O16 0.157806 0.000000 0.763313
O O17 0.000000 0.835930 0.500000
#
# Coordination Sequence:
#
# PCOD8106339 Si02
#       7
#     8   8   8   8   8   8   8
#     4  10  21  37  56  84 121 153 189 238 288 340
#     4  11  21  36  59  86 115 154 199 232 284 348
#     4  11  22  38  61  85 114 156 194 240 286 352
#     4  10  21  36  57  86 118 157 197 229 283 346
#     4  11  21  34  53  86 126 159 187 232 289 346
#     4  10  23  42  61  85 117 151 192 248 302 341
#     4  10  21  37  62  85 110 152 197 246 288 343
#
# _framework density 18.747824000000001
#
# number of rings (size 3 to 8) (size 9 to 14) (size 15 to 20)
#    0.000    1.571    4.286    0.857    2.000    2.000 
#    0.000    4.286    0.000    0.857    0.000    0.000 
#    0.000    0.000    0.000    0.000    0.000    0.000 
#
# Total GULP energy -347245.888242 kJ/mol
# GULP energy per Si atom -12401.638866 kJ/mol
# Density = 1.870515 g / cm^3
# Si number density = 18.747824 Si / 1000 Ang^3
#
#
#
# Elastic Constant Matrix: (Units=GPa)
#
#
# Indices 1 2 3 4 5 6 
#
# 1 117.5138 47.5921 42.5735 0.0000 6.1826 0.0000
# 2 47.5921 96.0779 43.9474 0.0000 0.4756 0.0000
# 3 42.5735 43.9474 109.6751 0.0000 -8.0560 0.0000
# 4 0.0000 0.0000 0.0000 17.7836 0.0000 -2.1556
# 5 6.1826 0.4756 -8.0560 0.0000 33.4527 0.0000
# 6 0.0000 0.0000 0.0000 -2.1556 0.0000 20.1995
#
#
#
# Elastic Compliance Matrix: (Units=1/GPa)
#
#
# Indices 1 2 3 4 5 6 
#
# 1 0.011466 -0.004331 -0.002918 0.000000 -0.002760 0.000000
# 2 -0.004331 0.014448 -0.004138 0.000000 -0.000401 0.000000
# 3 -0.002918 -0.004138 0.012168 0.000000 0.003528 0.000000
# 4 0.000000 0.000000 0.000000 0.056969 0.000000 0.006080
# 5 -0.002760 -0.000401 0.003528 0.000000 0.031258 0.000000
# 6 0.000000 0.000000 0.000000 0.006080 0.000000 0.050155
#
#
# Mechanical properties :
#
#
# Convention : Reuss Voigt Hill
#
# Bulk Modulus (GPa) = 65.32499 65.72144 65.52321
# Shear Modulus (GPa) = 24.46888 26.89742 25.68315
#
# Velocity S-wave (km/s) = 3.61662 3.79185 3.70527
# Velocity P-wave (km/s) = 7.23599 7.36902 7.30281
#
# Compressibility (1/GPa) = 0.01530808
#
# Stress axis : x y z
#
# Youngs Moduli (GPa) = 87.21288 69.21199 82.18451
#
# Poissons Ratio (x) = 0.29978 0.23982
# Poissons Ratio (y) = 0.37775 0.34005
# Poissons Ratio (z) = 0.25450 0.28638
#
# Static dielectric constant tensor:
#      x y z
#    x 3.475530 0.000000 0.022330 
#    y 0.000000 3.343110 0.000000 
#    z 0.022330 0.000000 3.515400 
# 
# 
# High freq. dielectric constant tensor:
#      x y z
#    x 1.733630 0.000000 -0.001620 
#    y 0.000000 1.714380 0.000000 
#    z -0.001620 0.000000 1.731880 
# 
# From -- ./inp_files/86311.got.cif
#   From: 2010.06.25/outbox.cif.g09.slc.cpg/sg12_44_cif.got.tgz:86311.got - 2010.06.28 00:19:55.
