data_PCOD8106260
_publ_section_title
;
Structure prediction by ZEFSAII (Michael W. Deem and Ramdas Pophale) SiO2 
 PCOD8106260
Probable space group: C 2/M
;
_chemical_formula_sum "Si O2"
_cell_formula_units_Z 56
_cell_length_a 33.057165
_cell_length_b 9.037515
_cell_length_c 22.000766
_cell_angle_alpha 90.000000
_cell_angle_beta 24.997618
_cell_angle_gamma 90.000000
_cell_volume 2777.550579
_symmetry_space_group_name_H-M "C 2/M"
_symmetry_group_IT_number 12
_symmetry_cell_setting 'monoclinic'
loop_
_space_group_symop_operation_xyz
x,y,z
-x,y,-z
-x,-y,-z
x,-y,z
1/2+x,1/2+y,z
1/2-x,1/2+y,-z
1/2-x,1/2-y,-z
1/2+x,1/2-y,z
loop_
_atom_site_type_symbol
_atom_site_label
_atom_site_fract_x
_atom_site_fract_y
_atom_site_fract_z
Si Si1 0.719234 0.170680 0.820505
Si Si2 0.383800 0.830680 0.278361
Si Si3 0.710397 0.169082 0.463834
Si Si4 0.729831 0.327975 0.932329
Si Si5 0.549073 0.673733 0.996564
Si Si6 0.111708 0.170820 0.210734
Si Si7 0.892632 0.830904 0.501870
O O1 0.702733 0.243401 0.908151
O O2 0.828934 0.189173 0.649241
O O3 0.689587 0.000000 0.865301
O O4 0.652756 0.250595 0.860811
O O5 0.349282 0.813111 0.393730
O O6 0.306936 0.764349 0.335789
O O7 0.481874 0.738970 0.141056
O O8 0.401552 0.000000 0.235963
O O9 0.643777 0.223516 0.500707
O O10 0.741031 0.000000 0.410614
O O11 0.739592 0.500000 0.903932
O O12 0.830779 0.270997 0.820351
O O13 0.645893 0.296565 0.095373
O O14 0.561096 0.500000 0.988898
O O15 0.500000 0.716473 0.000000
O O16 0.001075 0.213598 0.369447
O O17 0.130920 0.000000 0.201203
O O18 0.887706 0.000000 0.485020
#
# Coordination Sequence:
#
# PCOD8106260 Si02
#       7
#     8   8   8   8   8   8   8
#     4  11  24  40  60  87 122 160 201 248 297 359
#     4  10  21  37  57  83 113 154 199 243 298 356
#     4  10  21  36  56  85 118 151 194 248 298 349
#     4  10  21  39  63  92 121 154 197 247 300 356
#     4  11  24  40  59  84 117 157 201 250 300 350
#     4   9  20  40  64  89 118 156 198 243 299 359
#     4  10  22  39  60  86 117 159 200 243 297 354
#
# _framework density 20.161648
#
# number of rings (size 3 to 8) (size 9 to 14) (size 15 to 20)
#    0.000    1.857    0.000    3.000    2.000    8.000 
#    0.000    2.857    0.000    0.000    0.000    0.000 
#    0.000    0.000    0.000    0.000    0.000    0.000 
#
# Total GULP energy -347355.987322 kJ/mol
# GULP energy per Si atom -12405.570976 kJ/mol
# Density = 2.011576 g / cm^3
# Si number density = 20.161648 Si / 1000 Ang^3
#
#
#
# Elastic Constant Matrix: (Units=GPa)
#
#
# Indices 1 2 3 4 5 6 
#
# 1 95.4045 57.4162 34.8532 0.0002 -3.5030 0.0009
# 2 57.4162 108.8882 45.1931 -0.0188 2.1584 0.0018
# 3 34.8532 45.1931 112.1970 -0.0139 -18.9787 -0.0006
# 4 0.0002 -0.0188 -0.0139 25.5820 0.0014 -5.5890
# 5 -3.5030 2.1584 -18.9787 0.0014 19.1051 0.0001
# 6 0.0009 0.0018 -0.0006 -5.5890 0.0001 39.1992
#
#
#
# Elastic Compliance Matrix: (Units=1/GPa)
#
#
# Indices 1 2 3 4 5 6 
#
# 1 0.015755 -0.007800 -0.001340 -0.000007 0.002439 -0.000001
# 2 -0.007800 0.015676 -0.005328 0.000009 -0.008494 0.000001
# 3 -0.001340 -0.005328 0.013866 0.000003 0.014130 0.000001
# 4 -0.000007 0.000009 0.000003 0.040347 -0.000002 0.005753
# 5 0.002439 -0.008494 0.014130 -0.000002 0.067786 0.000000
# 6 -0.000001 0.000001 0.000001 0.005753 0.000000 0.026331
#
#
# Mechanical properties :
#
#
# Convention : Reuss Voigt Hill
#
# Bulk Modulus (GPa) = 61.12142 65.71273 63.41707
# Shear Modulus (GPa) = 23.34821 28.71240 26.03030
#
# Velocity S-wave (km/s) = 3.40671 3.77783 3.59706
# Velocity P-wave (km/s) = 6.77168 7.18979 6.98386
#
# Compressibility (1/GPa) = 0.01636088
#
# Stress axis : x y z
#
# Youngs Moduli (GPa) = 63.47341 63.79062 72.12102
#
# Poissons Ratio (x) = 0.49754 0.09663
# Poissons Ratio (y) = 0.49507 0.38429
# Poissons Ratio (z) = 0.08504 0.33990
#
# Static dielectric constant tensor:
#      x y z
#    x 3.476350 0.000000 -0.019840 
#    y 0.000000 3.755430 0.000020 
#    z -0.019840 0.000020 3.786350 
# 
# 
# High freq. dielectric constant tensor:
#      x y z
#    x 1.778970 0.000000 0.000640 
#    y 0.000000 1.796280 0.000000 
#    z 0.000640 0.000000 1.796750 
# 
# From -- ./inp_files/329559.got.cif
#   From: 2010.06.25/outbox.cif.g09.slc.cpg/sg12_165_cif.got.tgz:329559.got - 2010.06.28 00:19:55.
