data_PCOD8106266
_publ_section_title
;
Structure prediction by ZEFSAII (Michael W. Deem and Ramdas Pophale) SiO2 
 PCOD8106266
Probable space group: C 2/M
;
_chemical_formula_sum "Si O2"
_cell_formula_units_Z 40
_cell_length_a 8.864255
_cell_length_b 28.227340
_cell_length_c 15.081620
_cell_angle_alpha 90.000000
_cell_angle_beta 149.633094
_cell_angle_gamma 90.000000
_cell_volume 1907.707738
_symmetry_space_group_name_H-M "C 2/M"
_symmetry_group_IT_number 12
_symmetry_cell_setting 'monoclinic'
loop_
_space_group_symop_operation_xyz
x,y,z
-x,y,-z
-x,-y,-z
x,-y,z
1/2+x,1/2+y,z
1/2-x,1/2+y,-z
1/2-x,1/2-y,-z
1/2+x,1/2-y,z
loop_
_atom_site_type_symbol
_atom_site_label
_atom_site_fract_x
_atom_site_fract_y
_atom_site_fract_z
Si Si1 0.669528 0.787829 0.316473
Si Si2 0.788256 0.613558 0.308295
Si Si3 0.158408 0.396304 0.319073
Si Si4 0.655785 0.712380 0.173403
Si Si5 0.691937 0.944090 0.013819
O O1 0.656799 0.842631 0.281074
O O2 0.528034 0.756641 0.164685
O O3 0.501252 0.778784 0.323643
O O4 0.000000 0.769136 0.500000
O O5 0.627467 0.664449 0.215724
O O6 0.000000 0.613945 0.500000
O O7 0.993954 0.600140 0.329487
O O8 0.525830 0.575948 0.187594
O O9 0.500000 0.414316 0.500000
O O10 0.977908 0.429239 0.161115
O O11 0.500000 0.705248 0.000000
O O12 0.724142 0.000000 0.031353
O O13 0.500000 0.925742 0.000000
#
# Coordination Sequence:
#
# PCOD8106266 Si02
#       5
#     8   8   8   8   8
#     4  10  21  36  56  85 121 159 200 242 293 355
#     4  11  23  41  64  90 124 165 208 253 303 360
#     4  10  22  41  64  94 126 162 205 250 303 364
#     4  11  22  37  57  87 122 159 204 248 297 354
#     4  11  25  44  66  93 122 155 200 254 313 373
#
# _framework density 20.967573000000002
#
# number of rings (size 3 to 8) (size 9 to 14) (size 15 to 20)
#    0.000    1.400    0.000    6.000    0.000    8.000 
#    0.000    0.000    0.000    0.000    0.000    0.000 
#    0.000    0.000    0.000    0.000    0.000    0.000 
#
# Total GULP energy -248039.811260 kJ/mol
# GULP energy per Si atom -12401.990563 kJ/mol
# Density = 2.091985 g / cm^3
# Si number density = 20.967573 Si / 1000 Ang^3
#
#
#
# Elastic Constant Matrix: (Units=GPa)
#
#
# Indices 1 2 3 4 5 6 
#
# 1 115.2721 49.9750 40.2661 0.0000 -10.0578 0.0000
# 2 49.9750 89.6365 46.3307 0.0000 -6.9388 0.0000
# 3 40.2661 46.3307 124.3011 0.0000 -20.6449 0.0000
# 4 0.0000 0.0000 0.0000 21.8006 0.0000 9.6305
# 5 -10.0578 -6.9388 -20.6449 0.0000 35.5542 0.0000
# 6 0.0000 0.0000 0.0000 9.6305 0.0000 8.1038
#
#
#
# Elastic Compliance Matrix: (Units=1/GPa)
#
#
# Indices 1 2 3 4 5 6 
#
# 1 0.011779 -0.005706 -0.001461 0.000000 0.001370 0.000000
# 2 -0.005706 0.016585 -0.004498 0.000000 -0.000989 0.000000
# 3 -0.001461 -0.004498 0.011046 0.000000 0.005123 0.000000
# 4 0.000000 0.000000 0.000000 0.096564 0.000000 -0.114756
# 5 0.001370 -0.000989 0.005123 0.000000 0.031295 0.000000
# 6 0.000000 0.000000 0.000000 -0.114756 0.000000 0.259774
#
#
# Mechanical properties :
#
#
# Convention : Reuss Voigt Hill
#
# Bulk Modulus (GPa) = 62.18859 66.92814 64.55837
# Shear Modulus (GPa) = 10.97133 25.93425 18.45279
#
# Velocity S-wave (km/s) = 2.28995 3.52074 2.96980
# Velocity P-wave (km/s) = 6.05934 6.96538 6.52810
#
# Compressibility (1/GPa) = 0.01608012
#
# Stress axis : x y z
#
# Youngs Moduli (GPa) = 84.89866 60.29369 90.53305
#
# Poissons Ratio (x) = 0.34401 0.13231
# Poissons Ratio (y) = 0.48440 0.40721
# Poissons Ratio (z) = 0.12407 0.27119
#
# Static dielectric constant tensor:
#      x y z
#    x 4.404360 0.000000 0.344390 
#    y 0.000000 3.673070 0.000000 
#    z 0.344390 0.000000 3.918670 
# 
# 
# High freq. dielectric constant tensor:
#      x y z
#    x 1.835390 0.000000 0.010100 
#    y 0.000000 1.812030 0.000000 
#    z 0.010100 0.000000 1.836300 
# 
# From -- ./inp_files/41449.got.cif
#   From: 2010.06.25/outbox.cif.g09.slc.cpg/sg12_21_cif.got.tgz:41449.got - 2010.06.28 00:19:55.
