data_PCOD8106489
_publ_section_title
;
Structure prediction by ZEFSAII (Michael W. Deem and Ramdas Pophale) SiO2 
 PCOD8106489
Probable space group: C 2/M
;
_chemical_formula_sum "Si O2"
_cell_formula_units_Z 40
_cell_length_a 21.109250
_cell_length_b 8.696618
_cell_length_c 22.047747
_cell_angle_alpha 90.000000
_cell_angle_beta 28.213680
_cell_angle_gamma 90.000000
_cell_volume 1913.503298
_symmetry_space_group_name_H-M "C 2/M"
_symmetry_group_IT_number 12
_symmetry_cell_setting 'monoclinic'
loop_
_space_group_symop_operation_xyz
x,y,z
-x,y,-z
-x,-y,-z
x,-y,z
1/2+x,1/2+y,z
1/2-x,1/2+y,-z
1/2-x,1/2-y,-z
1/2+x,1/2-y,z
loop_
_atom_site_type_symbol
_atom_site_label
_atom_site_fract_x
_atom_site_fract_y
_atom_site_fract_z
Si Si1 0.297007 0.317399 0.669225
Si Si2 0.614997 0.681611 0.086244
Si Si3 0.398200 0.317904 0.365661
Si Si4 0.003351 0.681860 0.927798
Si Si5 0.009538 0.817545 0.395672
O O1 0.301310 0.500000 0.665893
O O2 0.387785 0.250412 0.538890
O O3 0.352010 0.262186 0.689268
O O4 0.147772 0.261297 0.782642
O O5 0.627416 0.500000 0.078781
O O6 0.481059 0.736792 0.236259
O O7 0.603844 0.737273 0.025806
O O8 0.750000 0.750000 0.000000
O O9 0.381442 0.500000 0.380331
O O10 0.250000 0.250000 0.500000
O O11 0.491923 0.258184 0.342193
O O12 0.979217 0.500000 0.944436
O O13 0.000000 0.738211 0.000000
O O14 0.001974 0.000000 0.402483
#
# Coordination Sequence:
#
# PCOD8106489 Si02
#       5
#     8   8   8   8   8
#     4   8  14  26  48  79 109 139 181 236 293 344
#     4  11  25  42  61  88 125 167 208 254 307 368
#     4  10  21  36  59  86 117 156 200 249 304 365
#     4  10  21  36  60  87 114 154 203 253 304 363
#     4   8  14  26  48  77 107 139 182 236 288 344
#
# _framework density 20.904067000000001
#
# number of rings (size 3 to 8) (size 9 to 14) (size 15 to 20)
#    0.000    2.600    0.000    3.000    2.800    3.600 
#    0.000    0.000    0.000    0.000    0.000    5.600 
#    0.000    0.000    0.000    0.000    0.000    0.000 
#
# Total GULP energy -247780.342894 kJ/mol
# GULP energy per Si atom -12389.017145 kJ/mol
# Density = 2.085649 g / cm^3
# Si number density = 20.904067 Si / 1000 Ang^3
#
#
#
# Elastic Constant Matrix: (Units=GPa)
#
#
# Indices 1 2 3 4 5 6 
#
# 1 170.6608 34.1194 49.1968 0.0001 -0.6799 0.0000
# 2 34.1194 39.3174 30.2713 -0.0001 0.2771 0.0005
# 3 49.1968 30.2713 85.9918 0.0010 -5.6468 0.0002
# 4 0.0001 -0.0001 0.0010 21.6289 -0.0001 -3.6872
# 5 -0.6799 0.2771 -5.6468 -0.0001 34.5461 -0.0002
# 6 0.0000 0.0005 0.0002 -3.6872 -0.0002 26.8786
#
#
#
# Elastic Compliance Matrix: (Units=1/GPa)
#
#
# Indices 1 2 3 4 5 6 
#
# 1 0.007540 -0.004399 -0.002783 0.000000 -0.000271 0.000000
# 2 -0.004399 0.037640 -0.010876 0.000001 -0.002166 -0.000001
# 3 -0.002783 -0.010876 0.017237 -0.000001 0.002850 0.000000
# 4 0.000000 0.000001 -0.000001 0.047342 0.000000 0.006494
# 5 -0.000271 -0.002166 0.002850 0.000000 0.029425 0.000000
# 6 0.000000 -0.000001 0.000000 0.006494 0.000000 0.038095
#
#
# Mechanical properties :
#
#
# Convention : Reuss Voigt Hill
#
# Bulk Modulus (GPa) = 38.02036 58.12724 48.07380
# Shear Modulus (GPa) = 22.50613 28.76956 25.63784
#
# Velocity S-wave (km/s) = 3.28478 3.71383 3.50587
# Velocity P-wave (km/s) = 5.71085 6.80126 6.27977
#
# Compressibility (1/GPa) = 0.02630169
#
# Stress axis : x y z
#
# Youngs Moduli (GPa) = 132.62229 26.56745 58.01426
#
# Poissons Ratio (x) = 0.11686 0.16147
# Poissons Ratio (y) = 0.58335 0.63097
# Poissons Ratio (z) = 0.36912 0.28895
#
# Static dielectric constant tensor:
#      x y z
#    x 4.232790 0.000000 0.004990 
#    y 0.000000 3.183850 0.000000 
#    z 0.004990 0.000000 4.125530 
# 
# 
# High freq. dielectric constant tensor:
#      x y z
#    x 1.841170 0.000000 -0.003860 
#    y 0.000000 1.758670 0.000000 
#    z -0.003860 0.000000 1.819820 
# 
# From -- ./inp_files/345805.got.cif
#   From: 2010.06.25/outbox.cif.g09.slc.cpg/sg12_173_cif.got.tgz:345805.got - 2010.06.28 00:19:55.
