data_PCOD8106974
_publ_section_title
;
Structure prediction by ZEFSAII (Michael W. Deem and Ramdas Pophale) SiO2 
 PCOD8106974
Probable space group: C 2/M
;
_chemical_formula_sum "Si O2"
_cell_formula_units_Z 64
_cell_length_a 20.668338
_cell_length_b 23.503089
_cell_length_c 16.842425
_cell_angle_alpha 90.000000
_cell_angle_beta 23.439794
_cell_angle_gamma 90.000000
_cell_volume 3254.496079
_symmetry_space_group_name_H-M "C 2/M"
_symmetry_group_IT_number 12
_symmetry_cell_setting 'monoclinic'
loop_
_space_group_symop_operation_xyz
x,y,z
-x,y,-z
-x,-y,-z
x,-y,z
1/2+x,1/2+y,z
1/2-x,1/2+y,-z
1/2-x,1/2-y,-z
1/2+x,1/2-y,z
loop_
_atom_site_type_symbol
_atom_site_label
_atom_site_fract_x
_atom_site_fract_y
_atom_site_fract_z
Si Si1 0.086462 0.609526 0.570622
Si Si2 0.263994 0.815961 0.461430
Si Si3 0.843143 0.782728 0.722771
Si Si4 0.907139 0.839730 0.811221
Si Si5 0.182226 0.935164 0.817442
Si Si6 0.044157 0.641173 0.036873
Si Si7 0.178290 0.564715 0.017252
Si Si8 0.304249 0.840071 0.798382
O O1 0.189355 0.649476 0.512638
O O2 0.208611 0.569917 0.384158
O O3 0.956333 0.570194 0.762363
O O4 0.987578 0.648836 0.620878
O O5 0.250000 0.750000 0.500000
O O6 0.399441 0.824197 0.241762
O O7 0.098187 0.841640 0.613018
O O8 0.865541 0.792174 0.792113
O O9 0.813271 0.716579 0.735437
O O10 0.000000 0.806109 0.500000
O O11 0.690279 0.815411 0.860564
O O12 0.842526 0.900765 0.852827
O O13 0.814342 0.824349 0.995895
O O14 0.239511 0.893946 0.822839
O O15 0.192807 0.000000 0.837000
O O16 0.000000 0.918289 0.000000
O O17 0.097941 0.586635 0.026703
O O18 0.000000 0.617876 0.000000
O O19 0.231526 0.500000 0.946796
#
# Coordination Sequence:
#
# PCOD8106974 Si02
#       8
#     8   8   8   8   8   8   8   8
#     4  10  21  37  57  84 113 148 194 235 281 336
#     4  11  21  37  60  86 119 154 186 230 287 345
#     4  11  21  36  58  84 116 150 186 230 280 339
#     4  10  21  37  58  85 117 147 187 234 281 339
#     4  11  24  39  55  80 114 150 193 241 283 333
#     4  10  22  37  57  87 117 147 187 235 285 337
#     4   9  20  39  61  81 109 151 193 235 284 338
#     4  11  22  37  58  84 112 150 191 229 281 337
#
# _framework density 19.665102999999998
#
# number of rings (size 3 to 8) (size 9 to 14) (size 15 to 20)
#    0.000    1.625    0.000    5.625    0.000    4.750 
#    0.000    3.125    0.000   12.750    0.000    0.000 
#    0.000    0.000    0.000    0.000    0.000    0.000 
#
# Total GULP energy -396895.511960 kJ/mol
# GULP energy per Si atom -12402.984749 kJ/mol
# Density = 1.962034 g / cm^3
# Si number density = 19.665103 Si / 1000 Ang^3
#
#
#
# Elastic Constant Matrix: (Units=GPa)
#
#
# Indices 1 2 3 4 5 6 
#
# 1 113.7146 43.9377 45.0149 -0.0364 -9.0781 0.0171
# 2 43.9377 120.4692 44.2557 -0.0520 -8.1978 0.0294
# 3 45.0149 44.2557 136.7547 -0.0893 -9.1690 0.0407
# 4 -0.0364 -0.0520 -0.0893 16.0797 0.0333 1.3340
# 5 -9.0781 -8.1978 -9.1690 0.0333 39.1564 -0.0219
# 6 0.0171 0.0294 0.0407 1.3340 -0.0219 21.4030
#
#
#
# Elastic Compliance Matrix: (Units=1/GPa)
#
#
# Indices 1 2 3 4 5 6 
#
# 1 0.011085 -0.003001 -0.002588 -0.000002 0.001336 0.000002
# 2 -0.003001 0.010297 -0.002282 0.000013 0.000926 -0.000007
# 3 -0.002588 -0.002282 0.008971 0.000036 0.001023 -0.000013
# 4 -0.000002 0.000013 0.000036 0.062514 -0.000045 -0.003896
# 5 0.001336 0.000926 0.001023 -0.000045 0.026282 0.000025
# 6 0.000002 -0.000007 -0.000013 -0.003896 0.000025 0.046965
#
#
# Mechanical properties :
#
#
# Convention : Reuss Voigt Hill
#
# Bulk Modulus (GPa) = 68.44550 70.81722 69.63136
# Shear Modulus (GPa) = 26.77715 31.17650 28.97682
#
# Velocity S-wave (km/s) = 3.69407 3.98599 3.84280
# Velocity P-wave (km/s) = 7.28533 7.56796 7.42799
#
# Compressibility (1/GPa) = 0.01461016
#
# Stress axis : x y z
#
# Youngs Moduli (GPa) = 90.21490 97.11674 111.46547
#
# Poissons Ratio (x) = 0.29147 0.28846
# Poissons Ratio (y) = 0.27076 0.25439
# Poissons Ratio (z) = 0.23347 0.22164
#
# Static dielectric constant tensor:
#      x y z
#    x 3.648850 -0.000020 0.005320 
#    y -0.000020 3.381710 0.000290 
#    z 0.005320 0.000290 3.757080 
# 
# 
# High freq. dielectric constant tensor:
#      x y z
#    x 1.772740 -0.000010 -0.000560 
#    y -0.000010 1.756800 0.000020 
#    z -0.000560 0.000020 1.780000 
# 
# From -- ./inp_files/286433.got.cif
#   From: 2010.06.25/outbox.cif.g09.slc.cpg/sg12_144_cif.got.tgz:286433.got - 2010.06.28 00:19:55.
