data_PCOD8106941
_publ_section_title
;
Structure prediction by ZEFSAII (Michael W. Deem and Ramdas Pophale) SiO2 
 PCOD8106941
Probable space group: C 2/M
;
_chemical_formula_sum "Si O2"
_cell_formula_units_Z 48
_cell_length_a 18.188109
_cell_length_b 14.222851
_cell_length_c 9.507875
_cell_angle_alpha 90.000000
_cell_angle_beta 82.770260
_cell_angle_gamma 90.000000
_cell_volume 2440.006706
_symmetry_space_group_name_H-M "C 2/M"
_symmetry_group_IT_number 12
_symmetry_cell_setting 'monoclinic'
loop_
_space_group_symop_operation_xyz
x,y,z
-x,y,-z
-x,-y,-z
x,-y,z
1/2+x,1/2+y,z
1/2-x,1/2+y,-z
1/2-x,1/2-y,-z
1/2+x,1/2-y,z
loop_
_atom_site_type_symbol
_atom_site_label
_atom_site_fract_x
_atom_site_fract_y
_atom_site_fract_z
Si Si1 0.002134 0.742915 0.660366
Si Si2 0.223962 0.109264 0.911239
Si Si3 0.057980 0.891121 0.864044
Si Si4 0.161901 0.286122 0.315359
Si Si5 0.235886 0.894483 0.231594
Si Si6 0.630247 0.106705 0.601310
O O1 0.035551 0.829947 0.736136
O O2 0.052419 0.650689 0.666120
O O3 0.000000 0.776722 0.500000
O O4 0.920601 0.710556 0.730151
O O5 0.139838 0.137531 0.895117
O O6 0.280083 0.166766 0.802520
O O7 0.238027 0.000000 0.879224
O O8 0.240280 0.135834 0.068174
O O9 0.054516 0.000000 0.820692
O O10 0.000000 0.868540 0.000000
O O11 0.182498 0.176121 0.328988
O O12 0.167031 0.335761 0.464970
O O13 0.317764 0.889166 0.275361
O O14 0.202832 0.000000 0.254230
O O15 0.617015 0.000000 0.554412
#
# Coordination Sequence:
#
# PCOD8106941 Si02
#       6
#     8   8   8   8   8   8
#     4  10  23  38  56  83 114 151 188 229 280 331
#     4  10  21  37  59  86 113 145 187 232 278 330
#     4  10  21  39  61  84 115 151 185 226 278 336
#     4  11  21  36  59  84 111 148 189 232 277 330
#     4  10  21  37  57  83 114 145 182 232 284 331
#     4  10  22  40  59  80 112 151 189 231 279 331
#
# _framework density 19.672077999999999
#
# number of rings (size 3 to 8) (size 9 to 14) (size 15 to 20)
#    0.000    1.833    0.000    3.500    0.000    8.667 
#    0.000    5.833    0.000    3.500    0.000    0.000 
#    0.000    0.000    0.000    0.000    0.000    0.000 
#
# Total GULP energy -297668.472940 kJ/mol
# GULP energy per Si atom -12402.853039 kJ/mol
# Density = 1.962730 g / cm^3
# Si number density = 19.672078 Si / 1000 Ang^3
#
#
#
# Elastic Constant Matrix: (Units=GPa)
#
#
# Indices 1 2 3 4 5 6 
#
# 1 160.1576 73.9362 73.2738 0.0000 -5.0245 0.0000
# 2 73.9362 105.3712 59.5266 0.0000 -5.6753 0.0000
# 3 73.2738 59.5266 95.8566 0.0000 14.1787 0.0000
# 4 0.0000 0.0000 0.0000 30.4999 0.0000 -1.3253
# 5 -5.0245 -5.6753 14.1787 0.0000 35.4281 0.0000
# 6 0.0000 0.0000 0.0000 -1.3253 0.0000 27.3750
#
#
#
# Elastic Compliance Matrix: (Units=1/GPa)
#
#
# Indices 1 2 3 4 5 6 
#
# 1 0.011220 -0.003891 -0.006700 0.000000 0.003649 0.000000
# 2 -0.003891 0.017449 -0.008708 0.000000 0.005728 0.000000
# 3 -0.006700 -0.008708 0.022649 0.000000 -0.011410 0.000000
# 4 0.000000 0.000000 0.000000 0.032856 0.000000 0.001591
# 5 0.003649 0.005728 -0.011410 0.000000 0.034228 0.000000
# 6 0.000000 0.000000 0.000000 0.001591 0.000000 0.036607
#
#
# Mechanical properties :
#
#
# Convention : Reuss Voigt Hill
#
# Bulk Modulus (GPa) = 78.62407 86.09540 82.35974
# Shear Modulus (GPa) = 25.27191 28.97052 27.12122
#
# Velocity S-wave (km/s) = 3.58810 3.84170 3.71707
# Velocity P-wave (km/s) = 7.56440 7.97111 7.77041
#
# Compressibility (1/GPa) = 0.01271875
#
# Stress axis : x y z
#
# Youngs Moduli (GPa) = 89.12587 57.31060 44.15111
#
# Poissons Ratio (x) = 0.22301 0.29582
# Poissons Ratio (y) = 0.34681 0.38449
# Poissons Ratio (z) = 0.59715 0.49909
#
# Static dielectric constant tensor:
#      x y z
#    x 3.743270 0.000000 0.095530 
#    y 0.000000 3.790060 0.000000 
#    z 0.095530 0.000000 3.514780 
# 
# 
# High freq. dielectric constant tensor:
#      x y z
#    x 1.777190 0.000000 0.009430 
#    y 0.000000 1.779380 0.000000 
#    z 0.009430 0.000000 1.761040 
# 
# From -- ./inp_files/73649.got.cif
#   From: 2010.06.25/outbox.cif.g09.slc.cpg/sg12_37_cif.got.tgz:73649.got - 2010.06.28 00:19:55.
