data_PCOD8106840
_publ_section_title
;
Structure prediction by ZEFSAII (Michael W. Deem and Ramdas Pophale) SiO2 
 PCOD8106840
Probable space group: C 2/M
;
_chemical_formula_sum "Si O2"
_cell_formula_units_Z 40
_cell_length_a 5.223135
_cell_length_b 24.562302
_cell_length_c 13.130996
_cell_angle_alpha 90.000000
_cell_angle_beta 89.193504
_cell_angle_gamma 90.000000
_cell_volume 1684.437732
_symmetry_space_group_name_H-M "C 2/M"
_symmetry_group_IT_number 12
_symmetry_cell_setting 'monoclinic'
loop_
_space_group_symop_operation_xyz
x,y,z
-x,y,-z
-x,-y,-z
x,-y,z
1/2+x,1/2+y,z
1/2-x,1/2+y,-z
1/2-x,1/2-y,-z
1/2+x,1/2-y,z
loop_
_atom_site_type_symbol
_atom_site_label
_atom_site_fract_x
_atom_site_fract_y
_atom_site_fract_z
Si Si1 0.392983 0.061085 0.726396
Si Si2 0.416228 0.625212 0.712303
Si Si3 0.747057 0.938723 0.043464
Si Si4 0.007277 0.214975 0.118544
Si Si5 0.264473 0.727261 0.613918
O O1 0.680642 0.083857 0.731943
O O2 0.256954 0.060055 0.836255
O O3 0.177217 0.096452 0.667865
O O4 0.410258 0.000000 0.680930
O O5 0.477591 0.660111 0.813403
O O6 0.319649 0.663250 0.619637
O O7 0.745185 0.000000 0.996949
O O8 0.500000 0.906895 0.000000
O O9 0.000000 0.908634 0.000000
O O10 0.750464 0.248149 0.145426
O O11 0.000000 0.197684 0.000000
O O12 0.250000 0.750000 0.500000
O O13 0.497531 0.758144 0.671182
#
# Coordination Sequence:
#
# PCOD8106840 Si02
#       5
#     8   8   8   8   8
#     4  11  24  38  54  84 123 166 216 258 297 356
#     4  12  22  37  62  88 121 165 206 252 313 368
#     4   9  17  31  49  68 100 150 206 263 302 319
#     4  10  21  37  56  82 119 159 201 252 310 374
#     4  10  21  39  65  99 126 145 184 252 322 382
#
# _framework density 23.746797000000001
#
# number of rings (size 3 to 8) (size 9 to 14) (size 15 to 20)
#    0.000    1.600    0.000    5.400    0.000    5.600 
#    0.000    0.000    0.000    0.600    0.000   56.000 
#    0.000    0.000    0.000    0.000    0.000    0.000 
#
# Total GULP energy -247837.800044 kJ/mol
# GULP energy per Si atom -12391.890002 kJ/mol
# Density = 2.369275 g / cm^3
# Si number density = 23.746797 Si / 1000 Ang^3
#
#
#
# Elastic Constant Matrix: (Units=GPa)
#
#
# Indices 1 2 3 4 5 6 
#
# 1 225.4237 64.8041 13.3030 0.0000 3.9479 0.0000
# 2 64.8041 146.6236 21.0398 0.0000 11.2664 0.0000
# 3 13.3030 21.0398 45.6155 0.0000 10.4181 0.0000
# 4 0.0000 0.0000 0.0000 18.3061 0.0000 4.4647
# 5 3.9479 11.2664 10.4181 0.0000 17.4380 0.0000
# 6 0.0000 0.0000 0.0000 4.4647 0.0000 44.7524
#
#
#
# Elastic Compliance Matrix: (Units=1/GPa)
#
#
# Indices 1 2 3 4 5 6 
#
# 1 0.005098 -0.002215 -0.000612 0.000000 0.000642 0.000000
# 2 -0.002215 0.008417 -0.002442 0.000000 -0.003478 0.000000
# 3 -0.000612 -0.002442 0.026443 0.000000 -0.014082 0.000000
# 4 0.000000 0.000000 0.000000 0.055989 0.000000 -0.005586
# 5 0.000642 -0.003478 -0.014082 0.000000 0.067860 0.000000
# 6 0.000000 0.000000 0.000000 -0.005586 0.000000 0.022902
#
#
# Mechanical properties :
#
#
# Convention : Reuss Voigt Hill
#
# Bulk Modulus (GPa) = 33.98978 68.43961 51.21470
# Shear Modulus (GPa) = 24.14844 37.33370 30.74107
#
# Velocity S-wave (km/s) = 3.19237 3.96935 3.60187
# Velocity P-wave (km/s) = 5.28515 7.06334 6.23793
#
# Compressibility (1/GPa) = 0.02942061
#
# Stress axis : x y z
#
# Youngs Moduli (GPa) = 196.17130 118.81288 37.81673
#
# Poissons Ratio (x) = 0.26312 0.02314
# Poissons Ratio (y) = 0.43443 0.09235
# Poissons Ratio (z) = 0.12003 0.29014
#
# Static dielectric constant tensor:
#      x y z
#    x -14.841390 0.000000 3.151060 
#    y 0.000000 4.401780 0.000000 
#    z 3.151060 0.000000 3.570690 
# 
# 
# High freq. dielectric constant tensor:
#      x y z
#    x 1.981190 0.000000 0.002050 
#    y 0.000000 1.932780 0.000000 
#    z 0.002050 0.000000 1.904810 
# 
# From -- ./inp_files/191469.got.cif
#   From: 2010.06.25/outbox.cif.g09.slc.cpg/sg12_96_cif.got.tgz:191469.got - 2010.06.28 00:19:55.
