data_PCOD8106577
_publ_section_title
;
Structure prediction by ZEFSAII (Michael W. Deem and Ramdas Pophale) SiO2 
 PCOD8106577
Probable space group: C 2/M
;
_chemical_formula_sum "Si O2"
_cell_formula_units_Z 48
_cell_length_a 18.079664
_cell_length_b 18.998445
_cell_length_c 12.059346
_cell_angle_alpha 90.000000
_cell_angle_beta 33.968821
_cell_angle_gamma 90.000000
_cell_volume 2314.425655
_symmetry_space_group_name_H-M "C 2/M"
_symmetry_group_IT_number 12
_symmetry_cell_setting 'monoclinic'
loop_
_space_group_symop_operation_xyz
x,y,z
-x,y,-z
-x,-y,-z
x,-y,z
1/2+x,1/2+y,z
1/2-x,1/2+y,-z
1/2-x,1/2-y,-z
1/2+x,1/2-y,z
loop_
_atom_site_type_symbol
_atom_site_label
_atom_site_fract_x
_atom_site_fract_y
_atom_site_fract_z
Si Si1 0.849779 0.169671 0.915184
Si Si2 0.559182 0.202275 0.308982
Si Si3 0.845107 0.918658 0.708666
Si Si4 0.139196 0.583010 0.782589
Si Si5 0.872986 0.416447 0.455771
Si Si6 0.370214 0.422604 0.090239
O O1 0.956777 0.231148 0.754788
O O2 0.802392 0.125678 0.867671
O O3 0.715494 0.198496 0.135695
O O4 0.913692 0.121702 0.929793
O O5 0.500000 0.223624 0.500000
O O6 0.499399 0.129438 0.336277
O O7 0.761970 0.890352 0.705626
O O8 0.000000 0.906989 0.500000
O O9 0.811278 0.000000 0.772985
O O10 0.131643 0.500000 0.801123
O O11 0.163457 0.604631 0.624869
O O12 0.000000 0.615332 0.000000
O O13 0.906341 0.500000 0.424161
O O14 0.751539 0.393145 0.685180
O O15 0.329282 0.500000 0.099191
O O16 0.500000 0.426765 0.000000
#
# Coordination Sequence:
#
# PCOD8106577 Si02
#       6
#     8   8   8   8   8   8
#     4  11  23  40  63  87 127 166 204 257 312 378
#     4  11  23  42  61  90 124 163 212 255 316 378
#     4  10  21  36  60  93 124 162 209 254 311 377
#     4   9  18  34  57  89 125 155 196 256 315 366
#     4  10  21  39  66  95 124 159 207 266 316 369
#     4  10  22  40  65  95 126 161 205 258 314 369
#
# _framework density 20.739485999999999
#
# number of rings (size 3 to 8) (size 9 to 14) (size 15 to 20)
#    0.000    1.833    1.667    2.000    2.333    3.000 
#    0.000    5.000    0.000    0.000    0.000    0.000 
#    0.000    0.000    0.000    0.000    0.000    0.000 
#
# Total GULP energy -297509.263786 kJ/mol
# GULP energy per Si atom -12396.219324 kJ/mol
# Density = 2.069228 g / cm^3
# Si number density = 20.739486 Si / 1000 Ang^3
#
#
#
# Elastic Constant Matrix: (Units=GPa)
#
#
# Indices 1 2 3 4 5 6 
#
# 1 108.8720 48.2442 48.3005 0.0002 11.9847 0.0013
# 2 48.2442 88.2174 52.6700 0.0001 13.3395 0.0009
# 3 48.3005 52.6700 112.9803 -0.0001 13.4094 0.0007
# 4 0.0002 0.0001 -0.0001 20.8684 -0.0001 -3.3077
# 5 11.9847 13.3395 13.4094 -0.0001 39.0876 -0.0009
# 6 0.0013 0.0009 0.0007 -3.3077 -0.0009 0.4128
#
#
#
# Elastic Compliance Matrix: (Units=1/GPa)
#
#
# Indices 1 2 3 4 5 6 
#
# 1 0.012901 -0.005081 -0.003005 0.000015 -0.001191 0.000095
# 2 -0.005081 0.018046 -0.005936 0.000012 -0.002564 0.000079
# 3 -0.003005 -0.005936 0.013086 0.000002 -0.001542 0.000010
# 4 0.000015 0.000012 0.000002 -0.177403 -0.000042 -1.421580
# 5 -0.001191 -0.002564 -0.001542 -0.000042 0.027353 -0.000264
# 6 0.000095 0.000079 0.000010 -1.421580 -0.000264 -8.968880
#
#
# Mechanical properties :
#
#
# Convention : Reuss Voigt Hill
#
# Bulk Modulus (GPa) = 62.54571 67.61101 65.07836
# Shear Modulus (GPa) = -0.55300 22.79740 11.12220
#
# Velocity S-wave (km/s) = -0.51694 3.31906 2.31829
# Velocity P-wave (km/s) = 5.46507 6.88179 6.21394
#
# Compressibility (1/GPa) = 0.01598831
#
# Stress axis : x y z
#
# Youngs Moduli (GPa) = 77.51359 55.41278 76.41476
#
# Poissons Ratio (x) = 0.28155 0.22966
# Poissons Ratio (y) = 0.39384 0.45364
# Poissons Ratio (z) = 0.23296 0.32896
#
# Static dielectric constant tensor:
#      x y z
#    x 3.709510 0.000000 0.150600 
#    y 0.000000 3.853880 0.000000 
#    z 0.150600 0.000000 3.953000 
# 
# 
# High freq. dielectric constant tensor:
#      x y z
#    x 1.804930 0.000000 0.008910 
#    y 0.000000 1.795550 0.000000 
#    z 0.008910 0.000000 1.825330 
# 
# From -- ./inp_files/159112.got.cif
#   From: 2010.06.25/outbox.cif.g09.slc.cpg/sg12_80_cif.got.tgz:159112.got - 2010.06.28 00:19:55.
