data_PCOD8106961
_publ_section_title
;
Structure prediction by ZEFSAII (Michael W. Deem and Ramdas Pophale) SiO2 
 PCOD8106961
Probable space group: C 2/M
;
_chemical_formula_sum "Si O2"
_cell_formula_units_Z 64
_cell_length_a 12.054557
_cell_length_b 16.782004
_cell_length_c 19.467412
_cell_angle_alpha 90.000000
_cell_angle_beta 52.367527
_cell_angle_gamma 90.000000
_cell_volume 3118.872413
_symmetry_space_group_name_H-M "C 2/M"
_symmetry_group_IT_number 12
_symmetry_cell_setting 'monoclinic'
loop_
_space_group_symop_operation_xyz
x,y,z
-x,y,-z
-x,-y,-z
x,-y,z
1/2+x,1/2+y,z
1/2-x,1/2+y,-z
1/2-x,1/2-y,-z
1/2+x,1/2-y,z
loop_
_atom_site_type_symbol
_atom_site_label
_atom_site_fract_x
_atom_site_fract_y
_atom_site_fract_z
Si Si1 0.180782 0.594952 0.090282
Si Si2 0.884855 0.406728 0.250080
Si Si3 0.845779 0.907694 0.155884
Si Si4 0.155309 0.161245 0.598738
Si Si5 0.124422 0.656829 0.596208
Si Si6 0.134594 0.906851 0.255365
Si Si7 0.134717 0.905007 0.102453
Si Si8 0.152641 0.592724 0.357645
O O1 0.176093 0.500000 0.098970
O O2 0.289540 0.629452 0.105839
O O3 0.026617 0.630555 0.163725
O O4 0.233790 0.620921 0.994645
O O5 0.886438 0.500000 0.236298
O O6 0.874438 0.393675 0.335009
O O7 0.751415 0.367961 0.261334
O O8 0.726522 0.894292 0.257153
O O9 0.992060 0.868208 0.124201
O O10 0.876206 0.000000 0.132612
O O11 0.101492 0.251459 0.624367
O O12 0.227017 0.144994 0.498049
O O13 0.266232 0.143605 0.616448
O O14 0.019987 0.105950 0.656407
O O15 0.004446 0.625792 0.589910
O O16 0.152594 0.869425 0.172255
O O17 0.160572 0.000000 0.240794
O O18 0.122177 0.000000 0.111448
O O19 0.150606 0.500000 0.380137
#
# Coordination Sequence:
#
# PCOD8106961 Si02
#       8
#     8   8   8   8   8   8   8   8
#     4   9  16  28  50  82 117 149 186 239 297 348
#     4  10  21  37  57  83 116 155 196 238 290 354
#     4   9  15  27  51  84 117 146 184 242 301 343
#     4  11  25  41  60  86 118 154 196 247 305 362
#     4  11  25  41  60  86 118 154 196 247 305 362
#     4  10  21  37  57  83 116 155 196 238 290 354
#     4   9  16  28  50  82 117 149 186 239 297 348
#     4  11  21  39  67  94 120 155 204 257 303 352
#
# _framework density 20.520237000000002
#
# number of rings (size 3 to 8) (size 9 to 14) (size 15 to 20)
#    0.000    2.000    2.500    1.500    1.750    5.000 
#    0.000    3.750    0.000    0.750    0.000    0.000 
#    0.000    0.000    0.000    0.000    0.000    0.000 
#
# Total GULP energy -396760.071375 kJ/mol
# GULP energy per Si atom -12398.752230 kJ/mol
# Density = 2.047353 g / cm^3
# Si number density = 20.520237 Si / 1000 Ang^3
#
#
#
# Elastic Constant Matrix: (Units=GPa)
#
#
# Indices 1 2 3 4 5 6 
#
# 1 147.5768 10.4149 53.4671 0.0000 -10.8296 0.0000
# 2 10.4149 28.8183 13.6119 0.0001 1.9538 0.0000
# 3 53.4671 13.6119 100.1677 0.0004 -12.5220 -0.0002
# 4 0.0000 0.0001 0.0004 -1.5547 -0.0001 6.3388
# 5 -10.8296 1.9538 -12.5220 -0.0001 20.8609 0.0000
# 6 0.0000 0.0000 -0.0002 6.3388 0.0000 15.4485
#
#
#
# Elastic Compliance Matrix: (Units=1/GPa)
#
#
# Indices 1 2 3 4 5 6 
#
# 1 0.008506 -0.001274 -0.004109 -0.000001 0.002069 0.000000
# 2 -0.001274 0.038248 -0.005458 0.000000 -0.007520 0.000000
# 3 -0.004109 -0.005458 0.013747 0.000001 0.006630 0.000000
# 4 -0.000001 0.000000 0.000001 -0.240638 -0.000001 0.098739
# 5 0.002069 -0.007520 0.006630 -0.000001 0.053695 0.000000
# 6 0.000000 0.000000 0.000000 0.098739 0.000000 0.024217
#
#
# Mechanical properties :
#
#
# Convention : Reuss Voigt Hill
#
# Bulk Modulus (GPa) = 25.75925 47.95007 36.85466
# Shear Modulus (GPa) = -73.95966 20.22220 -26.86873
#
# Velocity S-wave (km/s) = -6.01004 3.14263 -3.62246
# Velocity P-wave (km/s) = 5.96493 6.04865 0.70914
#
# Compressibility (1/GPa) = 0.03882100
#
# Stress axis : x y z
#
# Youngs Moduli (GPa) = 117.55738 26.14500 72.74360
#
# Poissons Ratio (x) = 0.03330 0.29889
# Poissons Ratio (y) = 0.14974 0.39701
# Poissons Ratio (z) = 0.48302 0.14269
#
# Static dielectric constant tensor:
#      x y z
#    x 4.050740 0.000000 -0.035820 
#    y 0.000000 3.229700 0.000000 
#    z -0.035820 0.000000 3.839360 
# 
# 
# High freq. dielectric constant tensor:
#      x y z
#    x 1.811470 0.000000 -0.001070 
#    y 0.000000 1.748330 0.000000 
#    z -0.001070 0.000000 1.816780 
# 
# From -- ./inp_files/306197.got.cif
#   From: 2010.06.25/outbox.cif.g09.slc.cpg/sg12_154_cif.got.tgz:306197.got - 2010.06.28 00:19:55.
