data_PCOD8106394
_publ_section_title
;
Structure prediction by ZEFSAII (Michael W. Deem and Ramdas Pophale) SiO2 
 PCOD8106394
Probable space group: C 2/M
;
_chemical_formula_sum "Si O2"
_cell_formula_units_Z 56
_cell_length_a 18.605329
_cell_length_b 9.359610
_cell_length_c 18.228022
_cell_angle_alpha 90.000000
_cell_angle_beta 68.536012
_cell_angle_gamma 90.000000
_cell_volume 2954.064531
_symmetry_space_group_name_H-M "C 2/M"
_symmetry_group_IT_number 12
_symmetry_cell_setting 'monoclinic'
loop_
_space_group_symop_operation_xyz
x,y,z
-x,y,-z
-x,-y,-z
x,-y,z
1/2+x,1/2+y,z
1/2-x,1/2+y,-z
1/2-x,1/2-y,-z
1/2+x,1/2-y,z
loop_
_atom_site_type_symbol
_atom_site_label
_atom_site_fract_x
_atom_site_fract_y
_atom_site_fract_z
Si Si1 0.078969 0.166980 0.011287
Si Si2 0.931280 0.659288 0.469980
Si Si3 0.789677 0.836439 0.549323
Si Si4 0.819091 0.336539 0.271522
Si Si5 0.029678 0.331029 0.705153
Si Si6 0.612133 0.168836 0.146226
Si Si7 0.777768 0.167540 0.143928
O O1 0.151322 0.210787 0.934241
O O2 0.080275 0.000000 0.030050
O O3 0.084545 0.254984 0.083268
O O4 0.000000 0.209690 0.000000
O O5 0.895134 0.500000 0.470611
O O6 0.872483 0.765782 0.531321
O O7 0.959023 0.726403 0.381852
O O8 0.000000 0.644516 0.500000
O O9 0.750000 0.750000 0.500000
O O10 0.741432 0.822179 0.640820
O O11 0.799307 0.000000 0.521791
O O12 0.827312 0.500000 0.242332
O O13 0.901621 0.274470 0.267830
O O14 0.787136 0.244092 0.217386
O O15 0.034836 0.500000 0.700447
O O16 0.946735 0.282566 0.767483
O O17 0.698111 0.218546 0.135927
O O18 0.608613 0.000000 0.134001
O O19 0.775543 0.000000 0.160372
#
# Coordination Sequence:
#
# PCOD8106394 Si02
#       7
#     8   8   8   8   8   8   8
#     4  10  21  38  58  82 116 149 180 225 278 332
#     4  10  21  37  60  84 113 155 195 237 294 346
#     4  11  22  38  59  84 116 152 195 244 290 342
#     4  10  21  37  57  80 111 147 185 232 282 335
#     4   9  18  36  55  79 112 143 185 235 277 328
#     4  10  21  36  58  84 111 145 186 231 273 327
#     4  10  22  37  56  85 114 143 185 231 276 333
#
# _framework density 18.956932999999999
#
# number of rings (size 3 to 8) (size 9 to 14) (size 15 to 20)
#    0.000    2.000    1.429    1.714    2.000    2.857 
#    0.000    0.714    0.000    0.000    0.000    0.000 
#    0.000    0.000    0.000    0.000    0.000    0.000 
#
# Total GULP energy -347232.793154 kJ/mol
# GULP energy per Si atom -12401.171184 kJ/mol
# Density = 1.891379 g / cm^3
# Si number density = 18.956933 Si / 1000 Ang^3
#
#
#
# Elastic Constant Matrix: (Units=GPa)
#
#
# Indices 1 2 3 4 5 6 
#
# 1 141.2586 36.6064 58.5438 0.0000 -10.2314 0.0000
# 2 36.6064 55.0366 37.0544 0.0000 -3.5220 0.0000
# 3 58.5438 37.0544 86.4229 0.0000 -3.0427 0.0000
# 4 0.0000 0.0000 0.0000 32.2507 0.0000 8.0701
# 5 -10.2314 -3.5220 -3.0427 0.0000 39.2962 0.0000
# 6 0.0000 0.0000 0.0000 8.0701 0.0000 13.2816
#
#
#
# Elastic Compliance Matrix: (Units=1/GPa)
#
#
# Indices 1 2 3 4 5 6 
#
# 1 0.010334 -0.002924 -0.005676 0.000000 0.001989 0.000000
# 2 -0.002924 0.026453 -0.009330 0.000000 0.000887 0.000000
# 3 -0.005676 -0.009330 0.019388 0.000000 -0.000813 0.000000
# 4 0.000000 0.000000 0.000000 0.036567 0.000000 -0.022219
# 5 0.001989 0.000887 -0.000813 0.000000 0.025982 0.000000
# 6 0.000000 0.000000 0.000000 -0.022219 0.000000 0.088792
#
#
# Mechanical properties :
#
#
# Convention : Reuss Voigt Hill
#
# Bulk Modulus (GPa) = 49.22769 60.79194 55.00981
# Shear Modulus (GPa) = 19.98822 26.99993 23.49407
#
# Velocity S-wave (km/s) = 3.25068 3.77805 3.52424
# Velocity P-wave (km/s) = 6.33354 7.15330 6.75586
#
# Compressibility (1/GPa) = 0.02031377
#
# Stress axis : x y z
#
# Youngs Moduli (GPa) = 96.77199 37.80304 51.57904
#
# Poissons Ratio (x) = 0.11054 0.29278
# Poissons Ratio (y) = 0.28298 0.48122
# Poissons Ratio (z) = 0.54930 0.35269
#
# Static dielectric constant tensor:
#      x y z
#    x 3.685580 0.000000 -0.166900 
#    y 0.000000 2.935470 0.000000 
#    z -0.166900 0.000000 3.480130 
# 
# 
# High freq. dielectric constant tensor:
#      x y z
#    x 1.751040 0.000000 -0.004970 
#    y 0.000000 1.717660 0.000000 
#    z -0.004970 0.000000 1.745880 
# 
# From -- ./inp_files/275103.got.cif
#   From: 2010.06.25/outbox.cif.g09.slc.cpg/sg12_138_cif.got.tgz:275103.got - 2010.06.28 00:19:55.
