data_PCOD8106483
_publ_section_title
;
Structure prediction by ZEFSAII (Michael W. Deem and Ramdas Pophale) SiO2 
 PCOD8106483
Probable space group: C 2/M
;
_chemical_formula_sum "Si O2"
_cell_formula_units_Z 48
_cell_length_a 17.135383
_cell_length_b 27.080272
_cell_length_c 17.868387
_cell_angle_alpha 90.000000
_cell_angle_beta 163.651769
_cell_angle_gamma 90.000000
_cell_volume 2333.841417
_symmetry_space_group_name_H-M "C 2/M"
_symmetry_group_IT_number 12
_symmetry_cell_setting 'monoclinic'
loop_
_space_group_symop_operation_xyz
x,y,z
-x,y,-z
-x,-y,-z
x,-y,z
1/2+x,1/2+y,z
1/2-x,1/2+y,-z
1/2-x,1/2-y,-z
1/2+x,1/2-y,z
loop_
_atom_site_type_symbol
_atom_site_label
_atom_site_fract_x
_atom_site_fract_y
_atom_site_fract_z
Si Si1 0.702128 0.664340 0.750599
Si Si2 0.886240 0.556928 0.471264
Si Si3 0.834257 0.855657 0.114735
Si Si4 0.773890 0.056691 0.955839
Si Si5 0.888592 0.697261 0.610887
Si Si6 0.197515 0.718791 0.746776
O O1 0.500000 0.644841 0.500000
O O2 0.630575 0.640361 0.764025
O O3 0.683458 0.722745 0.742984
O O4 0.000000 0.646010 0.000000
O O5 0.980545 0.500000 0.557241
O O6 0.000000 0.582610 0.500000
O O7 0.034762 0.578914 0.681820
O O8 0.558557 0.563010 0.172607
O O9 0.130391 0.838264 0.354656
O O10 0.771387 0.910583 0.027950
O O11 0.577852 0.819423 0.855909
O O12 0.723895 0.000000 0.934293
O O13 0.750000 0.750000 0.500000
O O14 0.098377 0.696036 0.733898
O O15 0.000000 0.699518 0.500000
O O16 0.500000 0.700586 0.000000
#
# Coordination Sequence:
#
# PCOD8106483 Si02
#       6
#     8   8   8   8   8   8
#     4  10  21  36  59  85 112 149 199 244 284 354
#     4   9  17  33  58  84 111 151 200 242 285 342
#     4  12  24  39  62  90 119 157 201 244 300 356
#     4  10  21  38  59  87 118 154 199 248 295 344
#     4  12  24  39  61  89 121 157 195 247 293 354
#     4  10  21  37  57  81 117 159 192 233 288 345
#
# _framework density 20.566951
#
# number of rings (size 3 to 8) (size 9 to 14) (size 15 to 20)
#    0.000    1.500    1.667    4.000    4.667    2.000 
#    0.000    8.333    0.000    1.000    0.000    0.000 
#    0.000    0.000    0.000    0.000    0.000    0.000 
#
# Total GULP energy -297621.405809 kJ/mol
# GULP energy per Si atom -12400.891909 kJ/mol
# Density = 2.052014 g / cm^3
# Si number density = 20.566951 Si / 1000 Ang^3
#
#
#
# Elastic Constant Matrix: (Units=GPa)
#
#
# Indices 1 2 3 4 5 6 
#
# 1 127.2448 39.2079 46.5904 -0.0037 -10.1997 -0.0146
# 2 39.2079 62.0893 32.6152 0.0055 -5.5591 -0.0057
# 3 46.5904 32.6152 149.2075 0.0283 -6.6729 -0.0299
# 4 -0.0037 0.0055 0.0283 22.5669 0.0193 -2.2910
# 5 -10.1997 -5.5591 -6.6729 0.0193 41.8571 -0.0174
# 6 -0.0146 -0.0057 -0.0299 -2.2910 -0.0174 18.3707
#
#
#
# Elastic Compliance Matrix: (Units=1/GPa)
#
#
# Indices 1 2 3 4 5 6 
#
# 1 0.010361 -0.005360 -0.001997 0.000005 0.001495 0.000005
# 2 -0.005360 0.021103 -0.002893 -0.000004 0.001035 -0.000002
# 3 -0.001997 -0.002893 0.007976 -0.000009 0.000401 0.000010
# 4 0.000005 -0.000004 -0.000009 0.044881 -0.000019 0.005597
# 5 0.001495 0.001035 0.000401 -0.000019 0.024456 0.000023
# 6 0.000005 -0.000002 0.000010 0.005597 0.000023 0.055133
#
#
# Mechanical properties :
#
#
# Convention : Reuss Voigt Hill
#
# Bulk Modulus (GPa) = 52.79710 63.92984 58.36347
# Shear Modulus (GPa) = 26.21594 31.23414 28.72504
#
# Velocity S-wave (km/s) = 3.57412 3.90122 3.74125
# Velocity P-wave (km/s) = 6.53904 7.17245 6.86305
#
# Compressibility (1/GPa) = 0.01894043
#
# Stress axis : x y z
#
# Youngs Moduli (GPa) = 96.51141 47.38661 125.37822
#
# Poissons Ratio (x) = 0.25400 0.25036
# Poissons Ratio (y) = 0.51733 0.36270
# Poissons Ratio (z) = 0.19272 0.13708
#
# Static dielectric constant tensor:
#      x y z
#    x 3.646070 -0.000030 -0.033600 
#    y -0.000030 3.436180 -0.000050 
#    z -0.033600 -0.000050 4.047720 
# 
# 
# High freq. dielectric constant tensor:
#      x y z
#    x 1.798060 0.000000 -0.000040 
#    y 0.000000 1.769860 0.000000 
#    z -0.000040 0.000000 1.829460 
# 
# From -- ./inp_files/12396.got.cif
#   From: 2010.06.25/outbox.cif.g09.slc.cpg/sg12_7_cif.got.tgz:12396.got - 2010.06.28 00:19:55.
