data_PCOD8106932
_publ_section_title
;
Structure prediction by ZEFSAII (Michael W. Deem and Ramdas Pophale) SiO2 
 PCOD8106932
Probable space group: C 2/M
;
_chemical_formula_sum "Si O2"
_cell_formula_units_Z 40
_cell_length_a 13.337239
_cell_length_b 28.659404
_cell_length_c 13.059449
_cell_angle_alpha 90.000000
_cell_angle_beta 21.696904
_cell_angle_gamma 90.000000
_cell_volume 1845.454494
_symmetry_space_group_name_H-M "C 2/M"
_symmetry_group_IT_number 12
_symmetry_cell_setting 'monoclinic'
loop_
_space_group_symop_operation_xyz
x,y,z
-x,y,-z
-x,-y,-z
x,-y,z
1/2+x,1/2+y,z
1/2-x,1/2+y,-z
1/2-x,1/2-y,-z
1/2+x,1/2-y,z
loop_
_atom_site_type_symbol
_atom_site_label
_atom_site_fract_x
_atom_site_fract_y
_atom_site_fract_z
Si Si1 0.430818 0.400746 0.769621
Si Si2 0.571119 0.946444 0.817076
Si Si3 0.980662 0.836781 0.896349
Si Si4 0.986829 0.717746 0.393322
Si Si5 0.215845 0.185611 0.213440
O O1 0.684995 0.415771 0.459497
O O2 0.529902 0.385776 0.789618
O O3 0.259296 0.356863 0.888188
O O4 0.203607 0.441372 0.989811
O O5 0.665960 0.000000 0.726525
O O6 0.500000 0.929475 0.000000
O O7 0.178100 0.796500 0.660537
O O8 0.000000 0.845414 0.000000
O O9 0.682198 0.818579 0.150961
O O10 0.086013 0.770217 0.275995
O O11 0.000000 0.708786 0.500000
O O12 0.000000 0.168321 0.500000
O O13 0.500000 0.198946 0.000000
#
# Coordination Sequence:
#
# PCOD8106932 Si02
#       5
#     8   8   8   8   8
#     4  12  23  37  62  90 116 151 196 242 287 344
#     4  11  24  43  65  89 118 147 179 230 302 374
#     4  10  21  37  57  82 117 160 203 238 274 326
#     4   9  18  34  53  76 115 163 199 234 281 326
#     4  11  21  34  54  83 120 155 194 243 288 336
#
# _framework density 21.674878
#
# number of rings (size 3 to 8) (size 9 to 14) (size 15 to 20)
#    0.000    1.400    0.000    8.400    0.000    3.200 
#    0.000    0.000    0.000    7.200    0.000    0.000 
#    0.000    0.000    0.000    0.000    0.000    0.000 
#
# Total GULP energy -247805.045521 kJ/mol
# GULP energy per Si atom -12390.252276 kJ/mol
# Density = 2.162555 g / cm^3
# Si number density = 21.674878 Si / 1000 Ang^3
#
#
#
# Elastic Constant Matrix: (Units=GPa)
#
#
# Indices 1 2 3 4 5 6 
#
# 1 70.8396 43.2067 39.8525 -0.0019 -0.3379 0.0026
# 2 43.2067 83.2056 43.1351 -0.0027 10.8469 -0.0136
# 3 39.8525 43.1351 126.4604 0.0292 -8.7546 0.0670
# 4 -0.0019 -0.0027 0.0292 34.4006 -0.0022 -7.1648
# 5 -0.3379 10.8469 -8.7546 -0.0022 24.9040 -0.0052
# 6 0.0026 -0.0136 0.0670 -7.1648 -0.0052 23.4311
#
#
#
# Elastic Compliance Matrix: (Units=1/GPa)
#
#
# Indices 1 2 3 4 5 6 
#
# 1 0.022278 -0.010377 -0.003226 0.000004 0.003688 0.000003
# 2 -0.010377 0.021330 -0.004775 0.000010 -0.011110 0.000028
# 3 -0.003226 -0.004775 0.010961 -0.000017 0.005889 -0.000038
# 4 0.000004 0.000010 -0.000017 0.031047 -0.000006 0.009494
# 5 0.003688 -0.011110 0.005889 -0.000006 0.047113 -0.000015
# 6 0.000003 0.000028 -0.000038 0.009494 -0.000015 0.045581
#
#
# Mechanical properties :
#
#
# Convention : Reuss Voigt Hill
#
# Bulk Modulus (GPa) = 56.13522 59.21046 57.67284
# Shear Modulus (GPa) = 22.62420 26.83456 24.72938
#
# Velocity S-wave (km/s) = 3.23429 3.52241 3.38142
# Velocity P-wave (km/s) = 6.31684 6.62722 6.47389
#
# Compressibility (1/GPa) = 0.01781413
#
# Stress axis : x y z
#
# Youngs Moduli (GPa) = 44.88781 46.88143 91.23649
#
# Poissons Ratio (x) = 0.48648 0.29431
# Poissons Ratio (y) = 0.46579 0.43563
# Poissons Ratio (z) = 0.14480 0.22385
#
# Static dielectric constant tensor:
#      x y z
#    x 3.948720 0.000140 -0.261830 
#    y 0.000140 3.807090 -0.000200 
#    z -0.261830 -0.000200 4.561520 
# 
# 
# High freq. dielectric constant tensor:
#      x y z
#    x 1.830720 0.000000 -0.000250 
#    y 0.000000 1.829390 0.000000 
#    z -0.000250 0.000000 1.875940 
# 
# From -- ./inp_files/219034.got.cif
#   From: 2010.06.25/outbox.cif.g09.slc.cpg/sg12_110_cif.got.tgz:219034.got - 2010.06.28 00:19:55.
