data_PCOD8106639
_publ_section_title
;
Structure prediction by ZEFSAII (Michael W. Deem and Ramdas Pophale) SiO2 
 PCOD8106639
Probable space group: C 2/M
;
_chemical_formula_sum "Si O2"
_cell_formula_units_Z 56
_cell_length_a 14.086806
_cell_length_b 18.589916
_cell_length_c 11.545974
_cell_angle_alpha 90.000000
_cell_angle_beta 72.653539
_cell_angle_gamma 90.000000
_cell_volume 2886.059436
_symmetry_space_group_name_H-M "C 2/M"
_symmetry_group_IT_number 12
_symmetry_cell_setting 'monoclinic'
loop_
_space_group_symop_operation_xyz
x,y,z
-x,y,-z
-x,-y,-z
x,-y,z
1/2+x,1/2+y,z
1/2-x,1/2+y,-z
1/2-x,1/2-y,-z
1/2+x,1/2-y,z
loop_
_atom_site_type_symbol
_atom_site_label
_atom_site_fract_x
_atom_site_fract_y
_atom_site_fract_z
Si Si1 0.614751 0.166410 0.450271
Si Si2 0.654086 0.696023 0.881852
Si Si3 0.956490 0.221261 0.844586
Si Si4 0.680422 0.082342 0.653469
Si Si5 0.305781 0.296830 0.705313
Si Si6 0.993546 0.382705 0.864992
Si Si7 0.185772 0.420473 0.208297
O O1 0.500000 0.185438 0.500000
O O2 0.651630 0.126339 0.550363
O O3 0.672425 0.241822 0.408545
O O4 0.631748 0.112828 0.338214
O O5 0.558813 0.678925 0.834450
O O6 0.715651 0.764098 0.813252
O O7 0.718977 0.624611 0.865070
O O8 0.620370 0.716591 0.022171
O O9 0.904408 0.192192 0.747621
O O10 0.985935 0.303589 0.813379
O O11 0.774971 0.124342 0.672516
O O12 0.589947 0.079019 0.776935
O O13 0.711130 0.000000 0.613037
O O14 0.893977 0.425235 0.866454
O O15 0.000000 0.380365 0.000000
O O16 0.223835 0.500000 0.224273
#
# Coordination Sequence:
#
# PCOD8106639 Si02
#       7
#     8   8   8   8   8   8   8
#     4  11  22  41  66  89 115 160 208 259 298 350
#     4  10  21  36  63  89 121 163 203 250 292 356
#     4  11  19  38  62  91 120 157 211 251 290 349
#     4  12  25  40  59  92 130 159 193 249 318 367
#     4  11  22  38  63  91 120 156 211 245 298 360
#     4  12  22  37  62  93 126 157 198 255 309 361
#     4  11  24  40  60  90 125 164 204 247 310 366
#
# _framework density 19.403618999999999
#
# number of rings (size 3 to 8) (size 9 to 14) (size 15 to 20)
#    0.000    0.857    7.143    1.714    2.000    1.714 
#    0.000    2.143    0.000    0.429    0.000    0.000 
#    0.000    0.000    0.000    0.000    0.000    0.000 
#
# Total GULP energy -347247.767294 kJ/mol
# GULP energy per Si atom -12401.705975 kJ/mol
# Density = 1.935946 g / cm^3
# Si number density = 19.403619 Si / 1000 Ang^3
#
#
#
# Elastic Constant Matrix: (Units=GPa)
#
#
# Indices 1 2 3 4 5 6 
#
# 1 100.1881 46.6242 29.3176 0.0000 20.2296 0.0000
# 2 46.6242 119.8061 27.4629 0.0000 -1.2897 0.0000
# 3 29.3176 27.4629 53.2745 0.0000 15.1708 0.0000
# 4 0.0000 0.0000 0.0000 -208.6190 0.0000 -150.6032
# 5 20.2296 -1.2897 15.1708 0.0000 32.2622 0.0000
# 6 0.0000 0.0000 0.0000 -150.6032 0.0000 -82.0567
#
#
#
# Elastic Compliance Matrix: (Units=1/GPa)
#
#
# Indices 1 2 3 4 5 6 
#
# 1 0.014968 -0.005158 -0.003287 0.000000 -0.008046 0.000000
# 2 -0.005158 0.011517 -0.004792 0.000000 0.005948 0.000000
# 3 -0.003287 -0.004792 0.025999 0.000000 -0.010356 0.000000
# 4 0.000000 0.000000 0.000000 0.014751 0.000000 -0.027074
# 5 -0.008046 0.005948 -0.010356 0.000000 0.041149 0.000000
# 6 0.000000 0.000000 0.000000 -0.027074 0.000000 0.037503
#
#
# Mechanical properties :
#
#
# Convention : Reuss Voigt Hill
#
# Bulk Modulus (GPa) = 38.44744 53.34201 45.89473
# Shear Modulus (GPa) = 27.61964 -40.35843 -6.36940
#
# Velocity S-wave (km/s) = 3.77693 -4.56559 -1.81376
# Velocity P-wave (km/s) = 6.23521 0.49229 4.39519
#
# Compressibility (1/GPa) = 0.02600953
#
# Stress axis : x y z
#
# Youngs Moduli (GPa) = 66.80835 86.83028 38.46332
#
# Poissons Ratio (x) = 0.44789 0.12642
# Poissons Ratio (y) = 0.34462 0.18432
# Poissons Ratio (z) = 0.21959 0.41609
#
# Static dielectric constant tensor:
#      x y z
#    x 3.770650 0.000000 0.075180 
#    y 0.000000 3.464950 0.000000 
#    z 0.075180 0.000000 3.584200 
# 
# 
# High freq. dielectric constant tensor:
#      x y z
#    x 1.761540 0.000000 0.006080 
#    y 0.000000 1.737790 0.000000 
#    z 0.006080 0.000000 1.758280 
# 
# From -- ./inp_files/145459.got.cif
#   From: 2010.06.25/outbox.cif.g09.slc.cpg/sg12_73_cif.got.tgz:145459.got - 2010.06.28 00:19:55.
