data_PCOD8106046
_publ_section_title
;
Structure prediction by ZEFSAII (Michael W. Deem and Ramdas Pophale) SiO2 
 PCOD8106046
Probable space group: C 2/M
;
_chemical_formula_sum "Si O2"
_cell_formula_units_Z 56
_cell_length_a 18.114504
_cell_length_b 11.189787
_cell_length_c 15.076616
_cell_angle_alpha 90.000000
_cell_angle_beta 106.771839
_cell_angle_gamma 90.000000
_cell_volume 2925.994016
_symmetry_space_group_name_H-M "C 2/M"
_symmetry_group_IT_number 12
_symmetry_cell_setting 'monoclinic'
loop_
_space_group_symop_operation_xyz
x,y,z
-x,y,-z
-x,-y,-z
x,-y,z
1/2+x,1/2+y,z
1/2-x,1/2+y,-z
1/2-x,1/2-y,-z
1/2+x,1/2-y,z
loop_
_atom_site_type_symbol
_atom_site_label
_atom_site_fract_x
_atom_site_fract_y
_atom_site_fract_z
Si Si1 0.305021 0.788324 0.143421
Si Si2 0.652637 0.633117 0.008870
Si Si3 0.469489 0.136187 0.223020
Si Si4 0.211249 0.631130 0.236397
Si Si5 0.793495 0.362244 0.559642
Si Si6 0.965742 0.364322 0.575372
Si Si7 0.942890 0.305894 0.910149
O O1 0.235476 0.870451 0.085958
O O2 0.377042 0.869439 0.195723
O O3 0.275790 0.717349 0.219334
O O4 0.336925 0.701260 0.079096
O O5 0.626138 0.500000 0.978042
O O6 0.586473 0.687606 0.049295
O O7 0.501537 0.196220 0.324162
O O8 0.503422 0.219904 0.156586
O O9 0.500426 0.000000 0.219647
O O10 0.247585 0.500000 0.246111
O O11 0.194007 0.667125 0.331994
O O12 0.133622 0.625740 0.149227
O O13 0.758905 0.500000 0.535484
O O14 0.750000 0.250000 0.500000
O O15 0.874484 0.359500 0.538600
O O16 0.996868 0.500000 0.588137
O O17 0.000000 0.298775 0.500000
O O18 0.000000 0.375775 0.000000
#
# Coordination Sequence:
#
# PCOD8106046 Si02
#       7
#     8   8   8   8   8   8   8
#     4  10  21  36  54  83 107 145 196 231 279 339
#     4  10  21  38  53  74 114 153 189 233 278 336
#     4  11  21  36  57  84 114 143 189 245 288 336
#     4  10  21  38  59  82 116 154 191 238 286 347
#     4  10  21  39  62  89 119 154 195 243 299 359
#     4   9  19  36  60  87 112 143 185 242 300 343
#     4  11  21  37  55  85 112 148 193 235 283 344
#
# _framework density 19.138794999999998
#
# number of rings (size 3 to 8) (size 9 to 14) (size 15 to 20)
#    0.000    1.857    2.857    1.286    2.000    1.429 
#    0.000    2.857    0.000    2.143    0.000    0.000 
#    0.000    0.000    0.000    0.000    0.000    0.000 
#
# Total GULP energy -346888.840168 kJ/mol
# GULP energy per Si atom -12388.887149 kJ/mol
# Density = 1.909523 g / cm^3
# Si number density = 19.138795 Si / 1000 Ang^3
#
#
#
# Elastic Constant Matrix: (Units=GPa)
#
#
# Indices 1 2 3 4 5 6 
#
# 1 114.2797 24.8357 41.6605 0.0000 -18.0595 0.0000
# 2 24.8357 73.8693 33.4110 0.0000 -5.5736 0.0000
# 3 41.6605 33.4110 118.6532 0.0000 -15.8880 0.0000
# 4 0.0000 0.0000 0.0000 2.7729 0.0000 13.1042
# 5 -18.0595 -5.5736 -15.8880 0.0000 37.2788 0.0000
# 6 0.0000 0.0000 0.0000 13.1042 0.0000 5.7577
#
#
#
# Elastic Compliance Matrix: (Units=1/GPa)
#
#
# Indices 1 2 3 4 5 6 
#
# 1 0.010786 -0.002129 -0.002684 0.000000 0.003763 0.000000
# 2 -0.002129 0.015942 -0.003776 0.000000 -0.000257 0.000000
# 3 -0.002684 -0.003776 0.010800 0.000000 0.002738 0.000000
# 4 0.000000 0.000000 0.000000 -0.036966 0.000000 0.084134
# 5 0.003763 -0.000257 0.002738 0.000000 0.029777 0.000000
# 6 0.000000 0.000000 0.000000 0.084134 0.000000 -0.017803
#
#
# Mechanical properties :
#
#
# Convention : Reuss Voigt Hill
#
# Bulk Modulus (GPa) = 49.13747 56.29074 52.71411
# Shear Modulus (GPa) = 137.00289 22.95487 79.97888
#
# Velocity S-wave (km/s) = 8.46990 3.46698 6.47144
# Velocity P-wave (km/s) = 11.01737 6.74554 9.13468
#
# Compressibility (1/GPa) = 0.02035107
#
# Stress axis : x y z
#
# Youngs Moduli (GPa) = 92.71150 62.72923 92.59121
#
# Poissons Ratio (x) = 0.13352 0.24850
# Poissons Ratio (y) = 0.19734 0.34962
# Poissons Ratio (z) = 0.24882 0.23686
#
# Static dielectric constant tensor:
#      x y z
#    x 3.628230 0.000000 -0.112070 
#    y 0.000000 3.170740 0.000000 
#    z -0.112070 0.000000 3.700390 
# 
# 
# High freq. dielectric constant tensor:
#      x y z
#    x 1.757300 0.000000 -0.009470 
#    y 0.000000 1.703770 0.000000 
#    z -0.009470 0.000000 1.748060 
# 
# From -- ./inp_files/223119.got.cif
#   From: 2010.06.25/outbox.cif.g09.slc.cpg/sg12_112_cif.got.tgz:223119.got - 2010.06.28 00:19:55.
