data_PCOD8106051
_publ_section_title
;
Structure prediction by ZEFSAII (Michael W. Deem and Ramdas Pophale) SiO2 
 PCOD8106051
Probable space group: C 2/M
;
_chemical_formula_sum "Si O2"
_cell_formula_units_Z 56
_cell_length_a 18.416171
_cell_length_b 19.166230
_cell_length_c 21.164118
_cell_angle_alpha 90.000000
_cell_angle_beta 159.651786
_cell_angle_gamma 90.000000
_cell_volume 2597.597270
_symmetry_space_group_name_H-M "C 2/M"
_symmetry_group_IT_number 12
_symmetry_cell_setting 'monoclinic'
loop_
_space_group_symop_operation_xyz
x,y,z
-x,y,-z
-x,-y,-z
x,-y,z
1/2+x,1/2+y,z
1/2-x,1/2+y,-z
1/2-x,1/2-y,-z
1/2+x,1/2-y,z
loop_
_atom_site_type_symbol
_atom_site_label
_atom_site_fract_x
_atom_site_fract_y
_atom_site_fract_z
Si Si1 0.453764 0.667087 0.282294
Si Si2 0.695267 0.163469 0.340051
Si Si3 0.038643 0.417057 0.957596
Si Si4 0.190566 0.081834 0.109788
Si Si5 0.402512 0.074536 0.487166
Si Si6 0.891490 0.813469 0.721085
Si Si7 0.182776 0.309339 0.880338
O O1 0.580038 0.641344 0.447610
O O2 0.260557 0.614164 0.117171
O O3 0.626125 0.662730 0.366562
O O4 0.372667 0.747939 0.215169
O O5 0.734757 0.245461 0.359026
O O6 0.513981 0.156744 0.244966
O O7 0.640850 0.118924 0.232708
O O8 0.035159 0.500000 0.942777
O O9 0.000000 0.399411 0.000000
O O10 0.414604 0.105541 0.320394
O O11 0.178906 0.129140 0.038618
O O12 0.183912 0.000000 0.087595
O O13 0.000000 0.101397 0.000000
O O14 0.500000 0.060280 0.500000
O O15 0.201915 0.123507 0.314911
O O16 0.324308 0.000000 0.450389
O O17 0.133449 0.787409 0.920796
#
# Coordination Sequence:
#
# PCOD8106051 Si02
#       7
#     8   8   8   8   8   8   8
#     4  11  22  42  69  96 127 164 211 267 329 391
#     4  11  22  43  68  96 128 163 213 271 331 388
#     4  11  26  48  68  93 130 167 216 281 339 396
#     4  10  21  36  54  84 127 172 212 254 309 379
#     4  10  21  37  54  84 130 171 209 252 303 369
#     4  11  20  39  65  94 130 167 211 265 317 376
#     4  11  20  38  66  93 130 169 209 270 323 377
#
# _framework density 21.558384
#
# number of rings (size 3 to 8) (size 9 to 14) (size 15 to 20)
#    0.000    1.286    2.857    5.143    0.000    4.571 
#    5.143    1.429    0.000    0.000    0.000    0.000 
#    0.000    0.000    0.000    0.000    0.000    0.000 
#
# Total GULP energy -346879.612731 kJ/mol
# GULP energy per Si atom -12388.557598 kJ/mol
# Density = 2.150932 g / cm^3
# Si number density = 21.558384 Si / 1000 Ang^3
#
#
#
# Elastic Constant Matrix: (Units=GPa)
#
#
# Indices 1 2 3 4 5 6 
#
# 1 71.4496 53.1793 20.2806 0.0533 -4.9365 -0.0152
# 2 53.1793 115.6901 40.7815 0.1414 6.8894 -0.0287
# 3 20.2806 40.7815 121.8041 0.3315 -15.2657 -0.0249
# 4 0.0533 0.1414 0.3315 30.4268 0.0912 7.6358
# 5 -4.9365 6.8894 -15.2657 0.0912 35.9159 -0.0433
# 6 -0.0152 -0.0287 -0.0249 7.6358 -0.0433 35.0697
#
#
#
# Elastic Compliance Matrix: (Units=1/GPa)
#
#
# Indices 1 2 3 4 5 6 
#
# 1 0.022177 -0.010711 0.000563 -0.000014 0.005342 0.000011
# 2 -0.010711 0.015398 -0.004148 0.000012 -0.006189 -0.000005
# 3 0.000563 -0.004148 0.010156 -0.000117 0.005190 0.000036
# 4 -0.000014 0.000012 -0.000117 0.034767 -0.000151 -0.007570
# 5 0.005342 -0.006189 0.005190 -0.000151 0.031971 0.000073
# 6 0.000011 -0.000005 0.000036 -0.007570 0.000073 0.030163
#
#
# Mechanical properties :
#
#
# Convention : Reuss Voigt Hill
#
# Bulk Modulus (GPa) = 52.24691 59.71406 55.98048
# Shear Modulus (GPa) = 27.83934 33.26264 30.55099
#
# Velocity S-wave (km/s) = 3.59743 3.93225 3.76856
# Velocity P-wave (km/s) = 6.44539 6.95526 6.70517
#
# Compressibility (1/GPa) = 0.01913989
#
# Stress axis : x y z
#
# Youngs Moduli (GPa) = 45.09165 64.94436 98.46770
#
# Poissons Ratio (x) = 0.69560 -0.05545
# Poissons Ratio (y) = 0.48296 0.40841
# Poissons Ratio (z) = -0.02539 0.26937
#
# Static dielectric constant tensor:
#      x y z
#    x 3.574490 -0.000400 0.126440 
#    y -0.000400 3.836910 -0.000120 
#    z 0.126440 -0.000120 3.048120 
# 
# 
# High freq. dielectric constant tensor:
#      x y z
#    x 1.827920 -0.000020 -0.007150 
#    y -0.000020 1.844360 -0.000070 
#    z -0.007150 -0.000070 1.865480 
# 
# From -- ./inp_files/318053.got.cif
#   From: 2010.06.25/outbox.cif.g09.slc.cpg/sg12_160_cif.got.tgz:318053.got - 2010.06.28 00:19:55.
