data_PCOD8106110
_publ_section_title
;
Structure prediction by ZEFSAII (Michael W. Deem and Ramdas Pophale) SiO2 
 PCOD8106110
Probable space group: C 2/M
;
_chemical_formula_sum "Si O2"
_cell_formula_units_Z 44
_cell_length_a 13.629948
_cell_length_b 10.450688
_cell_length_c 29.496730
_cell_angle_alpha 90.000000
_cell_angle_beta 30.658571
_cell_angle_gamma 90.000000
_cell_volume 2142.475645
_symmetry_space_group_name_H-M "C 2/M"
_symmetry_group_IT_number 12
_symmetry_cell_setting 'monoclinic'
loop_
_space_group_symop_operation_xyz
x,y,z
-x,y,-z
-x,-y,-z
x,-y,z
1/2+x,1/2+y,z
1/2-x,1/2+y,-z
1/2-x,1/2-y,-z
1/2+x,1/2-y,z
loop_
_atom_site_type_symbol
_atom_site_label
_atom_site_fract_x
_atom_site_fract_y
_atom_site_fract_z
Si Si1 0.194438 0.139741 0.678751
Si Si2 0.686245 0.853691 0.562910
Si Si3 0.800554 0.146417 0.094203
Si Si4 0.000000 0.752415 0.500000
Si Si5 0.871068 0.762989 0.747777
Si Si6 0.591005 0.855621 0.788491
O O1 0.405071 0.156624 0.573944
O O2 0.181523 0.254719 0.718675
O O3 0.030622 0.141913 0.704948
O O4 0.183315 0.000000 0.706844
O O5 0.750000 0.750000 0.500000
O O6 0.839865 0.845039 0.542351
O O7 0.474820 0.824250 0.668077
O O8 0.686227 0.000000 0.543884
O O9 0.720965 0.185236 0.174633
O O10 0.639581 0.170253 0.118960
O O11 0.851374 0.000000 0.079450
O O12 0.000000 0.217740 0.000000
O O13 0.692542 0.839990 0.796699
O O14 0.628504 0.000000 0.755550
#
# Coordination Sequence:
#
# PCOD8106110 Si02
#       6
#     8   8   8   4   8   8
#     4  10  21  36  55  81 112 147 191 238 281 330
#     4  11  24  39  57  84 116 152 194 236 279 333
#     4   9  19  37  60  86 115 147 186 232 283 341
#     4  10  22  36  56  78 110 152 192 234 284 334
#     4  10  21  36  58  83 115 150 188 233 284 335
#     4  10  21  37  58  83 113 149 186 227 281 340
#
# _framework density 20.536989999999999
#
# number of rings (size 3 to 8) (size 9 to 14) (size 15 to 20)
#    0.000    2.000    0.000    2.727    0.000   14.545 
#    0.000    0.000    0.000   13.636    0.000    0.000 
#    0.000    0.000    0.000    0.000    0.000    0.000 
#
# Total GULP energy -272608.854712 kJ/mol
# GULP energy per Si atom -12391.311578 kJ/mol
# Density = 2.049025 g / cm^3
# Si number density = 20.536990 Si / 1000 Ang^3
#
#
#
# Elastic Constant Matrix: (Units=GPa)
#
#
# Indices 1 2 3 4 5 6 
#
# 1 96.0262 40.5237 34.8862 0.0002 -20.3372 0.0000
# 2 40.5237 85.4316 25.1134 0.0014 -12.8129 -0.0002
# 3 34.8862 25.1134 136.8792 0.0022 -17.4554 -0.0003
# 4 0.0002 0.0014 0.0022 19.7815 -0.0006 3.3607
# 5 -20.3372 -12.8129 -17.4554 -0.0006 28.1972 0.0002
# 6 0.0000 -0.0002 -0.0003 3.3607 0.0002 20.9794
#
#
#
# Elastic Compliance Matrix: (Units=1/GPa)
#
#
# Indices 1 2 3 4 5 6 
#
# 1 0.014905 -0.005448 -0.001894 0.000001 0.007102 0.000000
# 2 -0.005448 0.014934 -0.001072 -0.000001 0.002193 0.000000
# 3 -0.001894 -0.001072 0.008413 -0.000001 0.003355 0.000000
# 4 0.000001 -0.000001 -0.000001 0.051967 0.000001 -0.008325
# 5 0.007102 0.002193 0.003355 0.000001 0.043661 0.000000
# 6 0.000000 0.000000 0.000000 -0.008325 0.000000 0.048999
#
#
# Mechanical properties :
#
#
# Convention : Reuss Voigt Hill
#
# Bulk Modulus (GPa) = 46.67531 57.70930 52.19230
# Shear Modulus (GPa) = 24.17251 28.31253 26.24252
#
# Velocity S-wave (km/s) = 3.43450 3.71699 3.57853
# Velocity P-wave (km/s) = 6.20520 6.82514 6.52254
#
# Compressibility (1/GPa) = 0.02142461
#
# Stress axis : x y z
#
# Youngs Moduli (GPa) = 67.09084 66.96343 118.86645
#
# Poissons Ratio (x) = 0.36484 0.22508
# Poissons Ratio (y) = 0.36553 0.12738
# Poissons Ratio (z) = 0.12704 0.07176
#
# Static dielectric constant tensor:
#      x y z
#    x 4.059350 0.000000 -0.361260 
#    y 0.000000 3.564930 0.000000 
#    z -0.361260 0.000000 3.826790 
# 
# 
# High freq. dielectric constant tensor:
#      x y z
#    x 1.815750 0.000000 -0.023020 
#    y 0.000000 1.791040 0.000000 
#    z -0.023020 0.000000 1.790080 
# 
# From -- ./inp_files/375864.got.cif
#   From: 2010.06.25/outbox.cif.g09.slc.cpg/sg12_188_cif.got.tgz:375864.got - 2010.06.28 00:19:55.
