data_PCOD8106351
_publ_section_title
;
Structure prediction by ZEFSAII (Michael W. Deem and Ramdas Pophale) SiO2 
 PCOD8106351
Probable space group: C 2/M
;
_chemical_formula_sum "Si O2"
_cell_formula_units_Z 56
_cell_length_a 24.675795
_cell_length_b 8.973629
_cell_length_c 13.774559
_cell_angle_alpha 90.000000
_cell_angle_beta 74.280758
_cell_angle_gamma 90.000000
_cell_volume 2936.048278
_symmetry_space_group_name_H-M "C 2/M"
_symmetry_group_IT_number 12
_symmetry_cell_setting 'monoclinic'
loop_
_space_group_symop_operation_xyz
x,y,z
-x,y,-z
-x,-y,-z
x,-y,z
1/2+x,1/2+y,z
1/2-x,1/2+y,-z
1/2-x,1/2-y,-z
1/2+x,1/2-y,z
loop_
_atom_site_type_symbol
_atom_site_label
_atom_site_fract_x
_atom_site_fract_y
_atom_site_fract_z
Si Si1 0.082790 0.330996 0.008838
Si Si2 0.688056 0.827187 0.432552
Si Si3 0.376690 0.175860 0.728979
Si Si4 0.317013 0.673434 0.365826
Si Si5 0.083806 0.324962 0.785785
Si Si6 0.025894 0.823794 0.212545
Si Si7 0.805271 0.332146 0.942093
O O1 0.062405 0.500000 0.041343
O O2 0.070523 0.287691 0.904301
O O3 0.049640 0.220683 0.095488
O O4 0.149569 0.318377 0.993441
O O5 0.646387 0.784009 0.365622
O O6 0.669534 0.727726 0.532016
O O7 0.752195 0.792484 0.370260
O O8 0.682099 0.000000 0.464279
O O9 0.435533 0.259391 0.719306
O O10 0.331647 0.234154 0.830232
O O11 0.386752 0.000000 0.738166
O O12 0.331101 0.500000 0.351665
O O13 0.355155 0.761573 0.270999
O O14 0.083218 0.500000 0.765798
O O15 0.036304 0.244838 0.743972
O O16 0.022811 0.000000 0.223062
O O17 0.786992 0.500000 0.931026
O O18 0.750000 0.250000 0.000000
#
# Coordination Sequence:
#
# PCOD8106351 Si02
#       7
#     8   8   8   8   8   8   8
#     4   9  20  37  54  75 108 150 189 222 267 327
#     4   9  19  38  61  82 110 148 183 220 275 335
#     4   9  19  37  58  77 106 149 187 219 268 332
#     4  10  21  36  57  87 116 140 177 232 278 322
#     4  11  22  37  58  80 109 150 189 226 271 328
#     4  11  22  36  55  83 113 143 183 233 278 322
#     4   9  18  31  48  75 109 141 177 220 262 314
#
# _framework density 19.073256000000001
#
# number of rings (size 3 to 8) (size 9 to 14) (size 15 to 20)
#    0.000    2.286    0.000    3.429    2.000    6.286 
#    0.000    0.714    0.000    4.286    0.000    0.000 
#    0.000    0.000    0.000    0.000    0.000    0.000 
#
# Total GULP energy -347251.833377 kJ/mol
# GULP energy per Si atom -12401.851192 kJ/mol
# Density = 1.902984 g / cm^3
# Si number density = 19.073256 Si / 1000 Ang^3
#
#
#
# Elastic Constant Matrix: (Units=GPa)
#
#
# Indices 1 2 3 4 5 6 
#
# 1 82.4030 39.6575 27.0698 0.0000 13.8126 0.0000
# 2 39.6575 91.7429 32.5065 0.0000 5.3045 0.0000
# 3 27.0698 32.5065 49.6596 0.0000 15.6917 0.0000
# 4 0.0000 0.0000 0.0000 31.3109 0.0000 -5.5049
# 5 13.8126 5.3045 15.6917 0.0000 30.2403 0.0000
# 6 0.0000 0.0000 0.0000 -5.5049 0.0000 30.0641
#
#
#
# Elastic Compliance Matrix: (Units=1/GPa)
#
#
# Indices 1 2 3 4 5 6 
#
# 1 0.016961 -0.005607 -0.004112 0.000000 -0.004630 0.000000
# 2 -0.005607 0.016244 -0.008954 0.000000 0.004358 0.000000
# 3 -0.004112 -0.008954 0.032475 0.000000 -0.013402 0.000000
# 4 0.000000 0.000000 0.000000 0.033000 0.000000 0.006042
# 5 -0.004630 0.004358 -0.013402 0.000000 0.041373 0.000000
# 6 0.000000 0.000000 0.000000 0.006042 0.000000 0.034369
#
#
# Mechanical properties :
#
#
# Convention : Reuss Voigt Hill
#
# Bulk Modulus (GPa) = 35.29385 46.91922 41.10654
# Shear Modulus (GPa) = 22.60269 26.62785 24.61527
#
# Velocity S-wave (km/s) = 3.44618 3.74047 3.59634
# Velocity P-wave (km/s) = 5.86340 6.58086 6.23246
#
# Compressibility (1/GPa) = 0.02833354
#
# Stress axis : x y z
#
# Youngs Moduli (GPa) = 58.95952 61.56006 30.79306
#
# Poissons Ratio (x) = 0.34515 0.12663
# Poissons Ratio (y) = 0.33057 0.27572
# Poissons Ratio (z) = 0.24247 0.55121
#
# Static dielectric constant tensor:
#      x y z
#    x 3.614100 0.000000 0.113310 
#    y 0.000000 3.409980 0.000000 
#    z 0.113310 0.000000 3.367820 
# 
# 
# High freq. dielectric constant tensor:
#      x y z
#    x 1.751540 0.000000 0.005100 
#    y 0.000000 1.737370 0.000000 
#    z 0.005100 0.000000 1.724170 
# 
# From -- ./inp_files/180653.got.cif
#   From: 2010.06.25/outbox.cif.g09.slc.cpg/sg12_91_cif.got.tgz:180653.got - 2010.06.28 00:19:55.
