data_PCOD8106311
_publ_section_title
;
Structure prediction by ZEFSAII (Michael W. Deem and Ramdas Pophale) SiO2 
 PCOD8106311
Probable space group: C 2/M
;
_chemical_formula_sum "Si O2"
_cell_formula_units_Z 56
_cell_length_a 22.299360
_cell_length_b 9.138813
_cell_length_c 13.682703
_cell_angle_alpha 90.000000
_cell_angle_beta 95.996165
_cell_angle_gamma 90.000000
_cell_volume 2773.138071
_symmetry_space_group_name_H-M "C 2/M"
_symmetry_group_IT_number 12
_symmetry_cell_setting 'monoclinic'
loop_
_space_group_symop_operation_xyz
x,y,z
-x,y,-z
-x,-y,-z
x,-y,z
1/2+x,1/2+y,z
1/2-x,1/2+y,-z
1/2-x,1/2-y,-z
1/2+x,1/2-y,z
loop_
_atom_site_type_symbol
_atom_site_label
_atom_site_fract_x
_atom_site_fract_y
_atom_site_fract_z
Si Si1 0.494338 0.330751 0.386282
Si Si2 0.389084 0.335373 0.229565
Si Si3 0.733022 0.832152 0.790412
Si Si4 0.436318 0.332451 0.028941
Si Si5 0.713097 0.668323 0.412327
Si Si6 0.897218 0.329836 0.681294
Si Si7 0.344495 0.170232 0.882877
O O1 0.500000 0.283334 0.500000
O O2 0.513091 0.500000 0.375537
O O3 0.426555 0.303817 0.335187
O O4 0.536285 0.228237 0.327782
O O5 0.362607 0.500000 0.228365
O O6 0.334652 0.223579 0.208990
O O7 0.434581 0.318230 0.145800
O O8 0.751432 0.811295 0.681849
O O9 0.778475 0.742805 0.867241
O O10 0.735678 0.000000 0.823742
O O11 0.428441 0.500000 0.992956
O O12 0.500000 0.270362 0.000000
O O13 0.381215 0.238770 0.978013
O O14 0.704756 0.500000 0.440102
O O15 0.750000 0.750000 0.500000
O O16 0.647664 0.741361 0.396391
O O17 0.892156 0.500000 0.654799
O O18 0.881815 0.298613 0.791020
O O19 0.335126 0.000000 0.901121
#
# Coordination Sequence:
#
# PCOD8106311 Si02
#       7
#     8   8   8   8   8   8   8
#     4  10  22  39  59  85 115 155 199 240 293 353
#     4  10  22  39  59  86 121 156 194 243 297 352
#     4  10  22  39  59  85 118 156 197 240 292 352
#     4  10  21  38  62  89 118 156 198 242 292 349
#     4  10  21  36  57  84 113 150 195 243 291 345
#     4  10  21  37  57  84 115 149 190 239 294 348
#     4  10  21  38  61  88 118 153 194 243 296 348
#
# _framework density 20.193729000000001
#
# number of rings (size 3 to 8) (size 9 to 14) (size 15 to 20)
#    0.000    2.000    0.000    2.571    2.000    6.857 
#    0.000    0.000    0.000    0.000    0.000    0.000 
#    0.000    0.000    0.000    0.000    0.000    0.000 
#
# Total GULP energy -347341.534390 kJ/mol
# GULP energy per Si atom -12405.054800 kJ/mol
# Density = 2.014777 g / cm^3
# Si number density = 20.193729 Si / 1000 Ang^3
#
#
#
# Elastic Constant Matrix: (Units=GPa)
#
#
# Indices 1 2 3 4 5 6 
#
# 1 106.8751 45.3337 34.2612 0.0000 8.9759 0.0000
# 2 45.3337 101.8006 39.0116 0.0000 8.6096 0.0000
# 3 34.2612 39.0116 77.8011 0.0000 23.1013 0.0000
# 4 0.0000 0.0000 0.0000 29.4211 0.0000 2.4286
# 5 8.9759 8.6096 23.1013 0.0000 33.3385 0.0000
# 6 0.0000 0.0000 0.0000 2.4286 0.0000 41.5022
#
#
#
# Elastic Compliance Matrix: (Units=1/GPa)
#
#
# Indices 1 2 3 4 5 6 
#
# 1 0.012173 -0.004164 -0.003297 0.000000 0.000083 0.000000
# 2 -0.004164 0.013634 -0.005401 0.000000 0.001343 0.000000
# 3 -0.003297 -0.005401 0.020568 0.000000 -0.011969 0.000000
# 4 0.000000 0.000000 0.000000 0.034154 0.000000 -0.001999
# 5 0.000083 0.001343 -0.011969 0.000000 0.037920 0.000000
# 6 0.000000 0.000000 0.000000 -0.001999 0.000000 0.024212
#
#
# Mechanical properties :
#
#
# Convention : Reuss Voigt Hill
#
# Bulk Modulus (GPa) = 48.42830 58.18777 53.30804
# Shear Modulus (GPa) = 28.52741 32.04370 30.28555
#
# Velocity S-wave (km/s) = 3.76265 3.98781 3.87686
# Velocity P-wave (km/s) = 6.55062 7.07678 6.81878
#
# Compressibility (1/GPa) = 0.02064908
#
# Stress axis : x y z
#
# Youngs Moduli (GPa) = 82.14784 73.34646 48.62002
#
# Poissons Ratio (x) = 0.30545 0.16030
# Poissons Ratio (y) = 0.34210 0.26261
# Poissons Ratio (z) = 0.27085 0.39617
#
# Static dielectric constant tensor:
#      x y z
#    x 3.490750 0.000000 0.476080 
#    y 0.000000 3.677240 0.000000 
#    z 0.476080 0.000000 2.566470 
# 
# 
# High freq. dielectric constant tensor:
#      x y z
#    x 1.789670 0.000000 0.007100 
#    y 0.000000 1.791170 0.000000 
#    z 0.007100 0.000000 1.788380 
# 
# From -- ./inp_files/230928.got.cif
#   From: 2010.06.25/outbox.cif.g09.slc.cpg/sg12_116_cif.got.tgz:230928.got - 2010.06.28 00:19:55.
