data_PCOD8106204
_publ_section_title
;
Structure prediction by ZEFSAII (Michael W. Deem and Ramdas Pophale) SiO2 
 PCOD8106204
Probable space group: C 2/M
;
_chemical_formula_sum "Si O2"
_cell_formula_units_Z 64
_cell_length_a 16.019684
_cell_length_b 9.271044
_cell_length_c 26.883215
_cell_angle_alpha 90.000000
_cell_angle_beta 125.978529
_cell_angle_gamma 90.000000
_cell_volume 3231.019905
_symmetry_space_group_name_H-M "C 2/M"
_symmetry_group_IT_number 12
_symmetry_cell_setting 'monoclinic'
loop_
_space_group_symop_operation_xyz
x,y,z
-x,y,-z
-x,-y,-z
x,-y,z
1/2+x,1/2+y,z
1/2-x,1/2+y,-z
1/2-x,1/2-y,-z
1/2+x,1/2-y,z
loop_
_atom_site_type_symbol
_atom_site_label
_atom_site_fract_x
_atom_site_fract_y
_atom_site_fract_z
Si Si1 0.664558 0.334857 0.258959
Si Si2 0.505163 0.829931 0.853586
Si Si3 0.581200 0.169907 0.070339
Si Si4 0.829693 0.160900 0.497811
Si Si5 0.458042 0.662023 0.372643
Si Si6 0.361220 0.164894 0.262585
Si Si7 0.181644 0.333239 0.605303
Si Si8 0.792220 0.334467 0.128852
O O1 0.632195 0.500000 0.240093
O O2 0.564761 0.238034 0.214322
O O3 0.752370 0.292548 0.249802
O O4 0.705573 0.309876 0.330135
O O5 0.465719 0.773441 0.893595
O O6 0.625937 0.789094 0.885937
O O7 0.492404 0.000000 0.844996
O O8 0.689783 0.239103 0.092838
O O9 0.599091 0.000000 0.078900
O O10 0.500000 0.214132 0.000000
O O11 0.750000 0.250000 0.500000
O O12 0.845532 0.235272 0.450820
O O13 0.927670 0.155634 0.567304
O O14 0.789482 0.000000 0.473402
O O15 0.409908 0.500000 0.359110
O O16 0.449564 0.723891 0.313340
O O17 0.399776 0.785060 0.382508
O O18 0.353661 0.187796 0.201435
O O19 0.390345 0.000000 0.286166
O O20 0.165172 0.500000 0.585162
O O21 0.757488 0.500000 0.110192
#
# Coordination Sequence:
#
# PCOD8106204 Si02
#       8
#     8   8   8   8   8   8   8   8
#     4   9  18  34  56  82 112 145 185 235 286 344
#     4  10  21  36  58  87 118 154 196 243 292 346
#     4  10  22  40  60  86 122 158 194 240 292 347
#     4  11  24  39  54  76 109 148 191 242 294 350
#     4  10  21  36  56  82 110 143 189 237 283 345
#     4   9  18  34  56  81 110 145 186 235 290 345
#     4  10  21  37  58  83 111 146 188 237 290 347
#     4  10  21  38  59  86 118 152 197 244 288 345
#
# _framework density 19.807987000000001
#
# number of rings (size 3 to 8) (size 9 to 14) (size 15 to 20)
#    0.000    2.125    1.250    2.250    0.000    8.750 
#    0.000    2.500    0.000    0.000    0.000    0.000 
#    0.000    0.000    0.000    0.000    0.000    0.000 
#
# Total GULP energy -396641.009428 kJ/mol
# GULP energy per Si atom -12395.031545 kJ/mol
# Density = 1.976290 g / cm^3
# Si number density = 19.807987 Si / 1000 Ang^3
#
#
#
# Elastic Constant Matrix: (Units=GPa)
#
#
# Indices 1 2 3 4 5 6 
#
# 1 83.8234 38.5430 39.4107 0.0000 14.5166 0.0000
# 2 38.5430 98.4106 56.0603 0.0000 10.2739 0.0000
# 3 39.4107 56.0603 97.2624 0.0000 8.9354 0.0000
# 4 0.0000 0.0000 0.0000 33.3494 0.0000 5.3267
# 5 14.5166 10.2739 8.9354 0.0000 16.5097 0.0000
# 6 0.0000 0.0000 0.0000 5.3267 0.0000 26.8479
#
#
#
# Elastic Compliance Matrix: (Units=1/GPa)
#
#
# Indices 1 2 3 4 5 6 
#
# 1 0.017256 -0.003286 -0.004096 0.000000 -0.010911 0.000000
# 2 -0.003286 0.016148 -0.007701 0.000000 -0.002991 0.000000
# 3 -0.004096 -0.007701 0.016425 0.000000 -0.000496 0.000000
# 4 0.000000 0.000000 0.000000 0.030967 0.000000 -0.006144
# 5 -0.010911 -0.002991 -0.000496 0.000000 0.072295 0.000000
# 6 0.000000 0.000000 0.000000 -0.006144 0.000000 0.038466
#
#
# Mechanical properties :
#
#
# Convention : Reuss Voigt Hill
#
# Bulk Modulus (GPa) = 50.85533 60.83605 55.84569
# Shear Modulus (GPa) = 21.90326 25.04021 23.47174
#
# Velocity S-wave (km/s) = 3.32893 3.55934 3.44606
# Velocity P-wave (km/s) = 6.36440 6.90445 6.63992
#
# Compressibility (1/GPa) = 0.01966362
#
# Stress axis : x y z
#
# Youngs Moduli (GPa) = 57.95044 61.92828 60.88181
#
# Poissons Ratio (x) = 0.20351 0.24935
# Poissons Ratio (y) = 0.19044 0.46884
# Poissons Ratio (z) = 0.23735 0.47690
#
# Static dielectric constant tensor:
#      x y z
#    x 3.441350 0.000000 -0.047310 
#    y 0.000000 3.759490 0.000000 
#    z -0.047310 0.000000 3.451050 
# 
# 
# High freq. dielectric constant tensor:
#      x y z
#    x 1.760110 0.000000 -0.006380 
#    y 0.000000 1.774590 0.000000 
#    z -0.006380 0.000000 1.774190 
# 
# From -- ./inp_files/375565.got.cif
#   From: 2010.06.25/outbox.cif.g09.slc.cpg/sg12_188_cif.got.tgz:375565.got - 2010.06.28 00:19:55.
