data_PCOD8106198
_publ_section_title
;
Structure prediction by ZEFSAII (Michael W. Deem and Ramdas Pophale) SiO2 
 PCOD8106198
Probable space group: C 2/M
;
_chemical_formula_sum "Si O2"
_cell_formula_units_Z 56
_cell_length_a 27.913113
_cell_length_b 9.692568
_cell_length_c 16.407873
_cell_angle_alpha 90.000000
_cell_angle_beta 138.037290
_cell_angle_gamma 90.000000
_cell_volume 2968.220686
_symmetry_space_group_name_H-M "C 2/M"
_symmetry_group_IT_number 12
_symmetry_cell_setting 'monoclinic'
loop_
_space_group_symop_operation_xyz
x,y,z
-x,y,-z
-x,-y,-z
x,-y,z
1/2+x,1/2+y,z
1/2-x,1/2+y,-z
1/2-x,1/2-y,-z
1/2+x,1/2-y,z
loop_
_atom_site_type_symbol
_atom_site_label
_atom_site_fract_x
_atom_site_fract_y
_atom_site_fract_z
Si Si1 0.157867 0.659565 0.549110
Si Si2 0.922460 0.657955 0.712586
Si Si3 0.041132 0.157112 0.473404
Si Si4 0.082457 0.341373 0.111139
Si Si5 0.794584 0.160039 0.992842
Si Si6 0.958629 0.156879 0.204449
Si Si7 0.800246 0.841481 0.816375
O O1 0.141868 0.500000 0.547164
O O2 0.138685 0.697901 0.431037
O O3 0.110374 0.749042 0.549907
O O4 0.240297 0.694671 0.672842
O O5 0.946652 0.500000 0.731592
O O6 0.890286 0.681764 0.761633
O O7 0.993817 0.748792 0.794326
O O8 0.000000 0.212017 0.500000
O O9 0.986103 0.172290 0.330472
O O10 0.067415 0.000000 0.517786
O O11 0.091196 0.500000 0.095470
O O12 0.129921 0.250243 0.110801
O O13 0.000000 0.295455 0.000000
O O14 0.768654 0.186332 0.867027
O O15 0.785908 0.000000 0.006590
O O16 0.750000 0.250000 0.000000
O O17 0.877098 0.207066 0.100851
O O18 0.964829 0.000000 0.180569
O O19 0.824688 0.000000 0.840247
#
# Coordination Sequence:
#
# PCOD8106198 Si02
#       7
#     8   8   8   8   8   8   8
#     4   9  19  35  52  74 107 141 173 213 259 310
#     4   9  18  34  55  78 105 137 173 214 260 310
#     4   9  18  31  50  75 101 132 173 219 261 306
#     4  10  21  36  56  82 108 136 176 221 263 311
#     4  10  22  37  53  75 104 138 175 216 261 311
#     4   9  18  33  51  74 102 132 171 216 260 308
#     4  10  22  38  54  78 110 140 175 218 261 313
#
# _framework density 18.866522
#
# number of rings (size 3 to 8) (size 9 to 14) (size 15 to 20)
#    0.000    2.571    0.000    0.857    2.000    3.429 
#    0.000    0.000    0.000    0.000    0.000    0.000 
#    0.000    0.000    0.000    0.000    0.000    0.000 
#
# Total GULP energy -347215.057641 kJ/mol
# GULP energy per Si atom -12400.537773 kJ/mol
# Density = 1.882358 g / cm^3
# Si number density = 18.866522 Si / 1000 Ang^3
#
#
#
# Elastic Constant Matrix: (Units=GPa)
#
#
# Indices 1 2 3 4 5 6 
#
# 1 92.4261 50.2652 36.9437 0.0000 -0.5641 0.0000
# 2 50.2652 67.3835 39.0853 0.0000 8.4573 0.0000
# 3 36.9437 39.0853 93.0382 0.0000 9.6657 0.0000
# 4 0.0000 0.0000 0.0000 25.1912 0.0000 6.4843
# 5 -0.5641 8.4573 9.6657 0.0000 21.8303 0.0000
# 6 0.0000 0.0000 0.0000 6.4843 0.0000 36.3834
#
#
#
# Elastic Compliance Matrix: (Units=1/GPa)
#
#
# Indices 1 2 3 4 5 6 
#
# 1 0.019459 -0.013874 -0.002630 0.000000 0.007042 0.000000
# 2 -0.013874 0.029878 -0.006083 0.000000 -0.009240 0.000000
# 3 -0.002630 -0.006083 0.014790 0.000000 -0.004260 0.000000
# 4 0.000000 0.000000 0.000000 0.041605 0.000000 -0.007415
# 5 0.007042 -0.009240 -0.004260 0.000000 0.051456 0.000000
# 6 0.000000 0.000000 0.000000 -0.007415 0.000000 0.028807
#
#
# Mechanical properties :
#
#
# Convention : Reuss Voigt Hill
#
# Bulk Modulus (GPa) = 52.75874 56.15955 54.45914
# Shear Modulus (GPa) = 21.05398 25.11790 23.08594
#
# Velocity S-wave (km/s) = 3.34420 3.65272 3.50186
# Velocity P-wave (km/s) = 6.55259 6.90081 6.72896
#
# Compressibility (1/GPa) = 0.01895421
#
# Stress axis : x y z
#
# Youngs Moduli (GPa) = 51.39073 33.46999 67.61119
#
# Poissons Ratio (x) = 0.46435 0.17781
# Poissons Ratio (y) = 0.71298 0.41125
# Poissons Ratio (z) = 0.13515 0.20358
#
# Static dielectric constant tensor:
#      x y z
#    x 3.308700 0.000000 -0.175290 
#    y 0.000000 3.479810 0.000000 
#    z -0.175290 0.000000 3.620760 
# 
# 
# High freq. dielectric constant tensor:
#      x y z
#    x 1.720510 0.000000 -0.013470 
#    y 0.000000 1.729080 0.000000 
#    z -0.013470 0.000000 1.743440 
# 
# From -- ./inp_files/288202.got.cif
#   From: 2010.06.25/outbox.cif.g09.slc.cpg/sg12_145_cif.got.tgz:288202.got - 2010.06.28 00:19:55.
