data_PCOD8106636
_publ_section_title
;
Structure prediction by ZEFSAII (Michael W. Deem and Ramdas Pophale) SiO2 
 PCOD8106636
Probable space group: C 2/M
;
_chemical_formula_sum "Si O2"
_cell_formula_units_Z 56
_cell_length_a 21.188112
_cell_length_b 16.629403
_cell_length_c 18.140206
_cell_angle_alpha 90.000000
_cell_angle_beta 23.938929
_cell_angle_gamma 90.000000
_cell_volume 2593.481926
_symmetry_space_group_name_H-M "C 2/M"
_symmetry_group_IT_number 12
_symmetry_cell_setting 'monoclinic'
loop_
_space_group_symop_operation_xyz
x,y,z
-x,y,-z
-x,-y,-z
x,-y,z
1/2+x,1/2+y,z
1/2-x,1/2+y,-z
1/2-x,1/2-y,-z
1/2+x,1/2-y,z
loop_
_atom_site_type_symbol
_atom_site_label
_atom_site_fract_x
_atom_site_fract_y
_atom_site_fract_z
Si Si1 0.634573 0.789382 0.678344
Si Si2 0.857812 0.672005 0.869849
Si Si3 0.146499 0.819272 0.800674
Si Si4 0.462946 0.905716 0.454177
Si Si5 0.172368 0.341549 0.845596
Si Si6 0.652315 0.409050 0.463857
Si Si7 0.807589 0.091261 0.840045
O O1 0.750000 0.750000 0.500000
O O2 0.498839 0.823726 0.774851
O O3 0.579183 0.724786 0.799151
O O4 0.721317 0.863141 0.623436
O O5 0.921784 0.650188 0.719360
O O6 0.750000 0.750000 0.000000
O O7 0.754315 0.597416 0.009938
O O8 0.281646 0.882070 0.635258
O O9 0.217753 0.750329 0.777752
O O10 0.000000 0.861077 0.000000
O O11 0.500000 0.890075 0.500000
O O12 0.483321 0.000000 0.411935
O O13 0.295152 0.402462 0.677135
O O14 0.191061 0.356561 0.912622
O O15 0.000000 0.361134 0.000000
O O16 0.647941 0.500000 0.496646
O O17 0.480644 0.370622 0.654004
O O18 0.810785 0.000000 0.809332
#
# Coordination Sequence:
#
# PCOD8106636 Si02
#       7
#     8   8   8   8   8   8   8
#     4  11  22  42  63  98 127 164 223 280 338 403
#     4  12  26  43  72  99 130 175 223 281 345 402
#     4  10  22  41  69  97 132 171 225 276 329 397
#     4  11  27  48  69  98 137 181 229 280 335 403
#     4  10  21  36  62  97 134 176 221 268 323 399
#     4  10  22  38  59  90 133 176 213 263 330 405
#     4  11  23  39  61  97 137 174 217 272 339 404
#
# _framework density 21.592592
#
# number of rings (size 3 to 8) (size 9 to 14) (size 15 to 20)
#    0.000    1.286    1.429    4.714    6.000    4.857 
#    0.000    0.000    0.000    0.000    0.000    0.000 
#    0.000    0.000    0.000    0.000    0.000    0.000 
#
# Total GULP energy -346979.959246 kJ/mol
# GULP energy per Si atom -12392.141402 kJ/mol
# Density = 2.154345 g / cm^3
# Si number density = 21.592592 Si / 1000 Ang^3
#
#
#
# Elastic Constant Matrix: (Units=GPa)
#
#
# Indices 1 2 3 4 5 6 
#
# 1 97.5947 31.3458 46.3169 -0.0020 10.2127 0.0011
# 2 31.3458 75.8487 41.1711 -0.0071 5.2522 0.0026
# 3 46.3169 41.1711 158.4923 -0.0043 18.4366 0.0010
# 4 -0.0020 -0.0071 -0.0043 31.0121 0.0044 4.2759
# 5 10.2127 5.2522 18.4366 0.0044 46.1425 -0.0019
# 6 0.0011 0.0026 0.0010 4.2759 -0.0019 26.3258
#
#
#
# Elastic Compliance Matrix: (Units=1/GPa)
#
#
# Indices 1 2 3 4 5 6 
#
# 1 0.012848 -0.003799 -0.002609 0.000000 -0.001369 0.000000
# 2 -0.003799 0.016473 -0.003197 0.000003 0.000243 -0.000002
# 3 -0.002609 -0.003197 0.008173 0.000001 -0.002324 0.000000
# 4 0.000000 0.000003 0.000001 0.032984 -0.000004 -0.005357
# 5 -0.001369 0.000243 -0.002324 -0.000004 0.022876 0.000002
# 6 0.000000 -0.000002 0.000000 -0.005357 0.000002 0.038856
#
#
# Mechanical properties :
#
#
# Convention : Reuss Voigt Hill
#
# Bulk Modulus (GPa) = 54.69268 63.28926 58.99097
# Shear Modulus (GPa) = 31.74344 34.90286 33.32315
#
# Velocity S-wave (km/s) = 3.83836 4.02484 3.93271
# Velocity P-wave (km/s) = 6.71032 7.13957 6.92827
#
# Compressibility (1/GPa) = 0.01828398
#
# Stress axis : x y z
#
# Youngs Moduli (GPa) = 77.83431 60.70643 122.35953
#
# Poissons Ratio (x) = 0.23062 0.31918
# Poissons Ratio (y) = 0.29568 0.39121
# Poissons Ratio (z) = 0.20303 0.19409
#
# Static dielectric constant tensor:
#      x y z
#    x 3.972460 0.000000 0.315800 
#    y 0.000000 3.668740 0.000030 
#    z 0.315800 0.000030 4.241640 
# 
# 
# High freq. dielectric constant tensor:
#      x y z
#    x 1.843310 0.000000 0.012320 
#    y 0.000000 1.828380 0.000000 
#    z 0.012320 0.000000 1.875370 
# 
# From -- ./inp_files/325982.got.cif
#   From: 2010.06.25/outbox.cif.g09.slc.cpg/sg12_163_cif.got.tgz:325982.got - 2010.06.28 00:19:55.
