data_PCOD8106263
_publ_section_title
;
Structure prediction by ZEFSAII (Michael W. Deem and Ramdas Pophale) SiO2 
 PCOD8106263
Probable space group: C 2/M
;
_chemical_formula_sum "Si O2"
_cell_formula_units_Z 56
_cell_length_a 26.584531
_cell_length_b 9.114290
_cell_length_c 19.735655
_cell_angle_alpha 90.000000
_cell_angle_beta 35.350821
_cell_angle_gamma 90.000000
_cell_volume 2766.736426
_symmetry_space_group_name_H-M "C 2/M"
_symmetry_group_IT_number 12
_symmetry_cell_setting 'monoclinic'
loop_
_space_group_symop_operation_xyz
x,y,z
-x,y,-z
-x,-y,-z
x,-y,z
1/2+x,1/2+y,z
1/2-x,1/2+y,-z
1/2-x,1/2-y,-z
1/2+x,1/2-y,z
loop_
_atom_site_type_symbol
_atom_site_label
_atom_site_fract_x
_atom_site_fract_y
_atom_site_fract_z
Si Si1 0.530137 0.166931 0.295083
Si Si2 0.440447 0.668693 0.506281
Si Si3 0.246355 0.667006 0.697010
Si Si4 0.344871 0.831749 0.067872
Si Si5 0.483421 0.169345 0.195474
Si Si6 0.273782 0.829901 0.905541
Si Si7 0.196905 0.825703 0.618359
O O1 0.460050 0.262088 0.411870
O O2 0.528072 0.206609 0.218039
O O3 0.625093 0.198539 0.220913
O O4 0.502419 0.000000 0.336215
O O5 0.500000 0.741510 0.500000
O O6 0.466009 0.500000 0.472281
O O7 0.338609 0.691997 0.633322
O O8 0.240238 0.500000 0.675949
O O9 0.170708 0.695933 0.835203
O O10 0.238022 0.779648 0.644701
O O11 0.280927 0.728050 0.096996
O O12 0.323619 0.000000 0.071474
O O13 0.445266 0.796507 0.940774
O O14 0.402657 0.275427 0.273018
O O15 0.452505 0.000000 0.225761
O O16 0.253829 0.000000 0.937882
O O17 0.250000 0.750000 0.000000
O O18 0.250000 0.750000 0.500000
O O19 0.202887 0.000000 0.603439
#
# Coordination Sequence:
#
# PCOD8106263 Si02
#       7
#     8   8   8   8   8   8   8
#     4  10  21  36  56  85 119 156 200 248 298 356
#     4  10  21  37  58  87 119 154 199 246 294 354
#     4  10  22  41  65  91 123 163 202 245 306 366
#     4  10  21  40  64  91 125 163 203 248 302 369
#     4  10  21  40  63  89 122 157 200 248 304 366
#     4  11  21  35  56  86 124 164 207 250 301 360
#     4  12  26  44  66  91 120 155 203 256 308 362
#
# _framework density 20.240452999999999
#
# number of rings (size 3 to 8) (size 9 to 14) (size 15 to 20)
#    0.000    1.571    1.429    3.429    0.000    7.714 
#    0.000    2.857    0.000    0.000    0.000    0.000 
#    0.000    0.000    0.000    0.000    0.000    0.000 
#
# Total GULP energy -347300.613940 kJ/mol
# GULP energy per Si atom -12403.593355 kJ/mol
# Density = 2.019439 g / cm^3
# Si number density = 20.240453 Si / 1000 Ang^3
#
#
#
# Elastic Constant Matrix: (Units=GPa)
#
#
# Indices 1 2 3 4 5 6 
#
# 1 99.3882 49.6974 46.4115 -0.0014 -4.6713 -0.0003
# 2 49.6974 101.8655 58.0971 -0.0111 -3.0113 0.0061
# 3 46.4115 58.0971 146.8388 -0.0074 4.8792 0.0029
# 4 -0.0014 -0.0111 -0.0074 31.5137 0.0033 0.3171
# 5 -4.6713 -3.0113 4.8792 0.0033 29.2133 -0.0006
# 6 -0.0003 0.0061 0.0029 0.3171 -0.0006 36.9876
#
#
#
# Elastic Compliance Matrix: (Units=1/GPa)
#
#
# Indices 1 2 3 4 5 6 
#
# 1 0.013958 -0.005416 -0.002338 -0.000002 0.002064 0.000001
# 2 -0.005416 0.014915 -0.004235 0.000004 0.001379 -0.000002
# 3 -0.002338 -0.004235 0.009303 0.000001 -0.002364 0.000000
# 4 -0.000002 0.000004 0.000001 0.031735 -0.000004 -0.000272
# 5 0.002064 0.001379 -0.002364 -0.000004 0.035098 0.000001
# 6 0.000001 -0.000002 0.000000 -0.000272 0.000001 0.027038
#
#
# Mechanical properties :
#
#
# Convention : Reuss Voigt Hill
#
# Bulk Modulus (GPa) = 70.42457 72.94494 71.68475
# Shear Modulus (GPa) = 31.10253 32.46870 31.78561
#
# Velocity S-wave (km/s) = 3.92427 4.00953 3.96713
# Velocity P-wave (km/s) = 7.44330 7.58634 7.51516
#
# Compressibility (1/GPa) = 0.01419959
#
# Stress axis : x y z
#
# Youngs Moduli (GPa) = 71.64271 67.04532 107.48801
#
# Poissons Ratio (x) = 0.36309 0.25127
# Poissons Ratio (y) = 0.38798 0.45525
# Poissons Ratio (z) = 0.16748 0.28396
#
# Static dielectric constant tensor:
#      x y z
#    x 3.929570 0.000010 -0.187120 
#    y 0.000010 3.683700 0.000000 
#    z -0.187120 0.000000 3.849540 
# 
# 
# High freq. dielectric constant tensor:
#      x y z
#    x 1.788310 0.000000 -0.002770 
#    y 0.000000 1.781630 0.000000 
#    z -0.002770 0.000000 1.803410 
# 
# From -- ./inp_files/292418.got.cif
#   From: 2010.06.25/outbox.cif.g09.slc.cpg/sg12_147_cif.got.tgz:292418.got - 2010.06.28 00:19:55.
