data_PCOD8106477
_publ_section_title
;
Structure prediction by ZEFSAII (Michael W. Deem and Ramdas Pophale) SiO2 
 PCOD8106477
Probable space group: C 2/M
;
_chemical_formula_sum "Si O2"
_cell_formula_units_Z 64
_cell_length_a 15.401826
_cell_length_b 18.949920
_cell_length_c 13.598681
_cell_angle_alpha 90.000000
_cell_angle_beta 121.805278
_cell_angle_gamma 90.000000
_cell_volume 3372.994767
_symmetry_space_group_name_H-M "C 2/M"
_symmetry_group_IT_number 12
_symmetry_cell_setting 'monoclinic'
loop_
_space_group_symop_operation_xyz
x,y,z
-x,y,-z
-x,-y,-z
x,-y,z
1/2+x,1/2+y,z
1/2-x,1/2+y,-z
1/2-x,1/2-y,-z
1/2+x,1/2-y,z
loop_
_atom_site_type_symbol
_atom_site_label
_atom_site_fract_x
_atom_site_fract_y
_atom_site_fract_z
Si Si1 0.647624 0.306371 0.031872
Si Si2 0.545136 0.155936 0.238295
Si Si3 0.580758 0.918026 0.463889
Si Si4 0.829070 0.648595 0.023454
Si Si5 0.387202 0.582921 0.437504
Si Si6 0.063538 0.813770 0.190286
Si Si7 0.792734 0.581721 0.800683
Si Si8 0.186711 0.918401 0.394675
O O1 0.666928 0.224929 0.022400
O O2 0.639934 0.310723 0.144126
O O3 0.741416 0.354882 0.053694
O O4 0.548183 0.334577 0.915596
O O5 0.561464 0.129696 0.357960
O O6 0.557246 0.240291 0.245181
O O7 0.622272 0.124621 0.205962
O O8 0.434479 0.129280 0.138144
O O9 0.500000 0.896496 0.500000
O O10 0.696687 0.903493 0.569536
O O11 0.567948 0.000000 0.427034
O O12 0.802615 0.592685 0.922854
O O13 0.500000 0.618875 0.500000
O O14 0.402299 0.500000 0.442294
O O15 0.318811 0.607851 0.303852
O O16 0.326210 0.604307 0.499472
O O17 0.104729 0.874226 0.285279
O O18 0.808077 0.500000 0.783973
O O19 0.158421 0.000000 0.362083
#
# Coordination Sequence:
#
# PCOD8106477 Si02
#       8
#     8   8   8   8   8   8   8   8
#     4   9  20  40  57  81 113 152 188 231 297 339
#     4  11  21  38  60  86 116 153 194 237 287 345
#     4  10  22  40  60  84 120 159 193 237 293 343
#     4  10  21  36  59  83 114 152 190 234 284 346
#     4   9  19  36  57  81 116 153 185 233 296 345
#     4  10  21  38  62  83 112 152 192 236 286 347
#     4  11  21  36  59  89 119 149 190 239 289 344
#     4  10  21  39  61  84 112 153 194 237 293 346
#
# _framework density 18.974238
#
# number of rings (size 3 to 8) (size 9 to 14) (size 15 to 20)
#    0.000    2.000    2.500    0.750    3.500    2.000 
#    0.000    2.500    0.000    0.000    0.000    0.000 
#    0.000    0.000    0.000    0.000    0.000    0.000 
#
# Total GULP energy -396810.464687 kJ/mol
# GULP energy per Si atom -12400.327021 kJ/mol
# Density = 1.893105 g / cm^3
# Si number density = 18.974238 Si / 1000 Ang^3
#
#
#
# Elastic Constant Matrix: (Units=GPa)
#
#
# Indices 1 2 3 4 5 6 
#
# 1 118.3213 19.7535 33.4919 0.0000 10.8119 0.0000
# 2 19.7535 49.3535 43.7834 0.0000 2.5734 0.0000
# 3 33.4919 43.7834 105.7683 0.0000 5.4756 0.0000
# 4 0.0000 0.0000 0.0000 36.3973 0.0000 -0.7373
# 5 10.8119 2.5734 5.4756 0.0000 31.2870 0.0000
# 6 0.0000 0.0000 0.0000 -0.7373 0.0000 18.3590
#
#
#
# Elastic Compliance Matrix: (Units=1/GPa)
#
#
# Indices 1 2 3 4 5 6 
#
# 1 0.009617 -0.001786 -0.002161 0.000000 -0.002798 0.000000
# 2 -0.001786 0.032356 -0.012839 0.000000 0.000203 0.000000
# 3 -0.002161 -0.012839 0.015501 0.000000 -0.000910 0.000000
# 4 0.000000 0.000000 0.000000 0.027497 0.000000 0.001104
# 5 -0.002798 0.000203 -0.000910 0.000000 0.033072 0.000000
# 6 0.000000 0.000000 0.000000 0.001104 0.000000 0.054513
#
#
# Mechanical properties :
#
#
# Convention : Reuss Voigt Hill
#
# Bulk Modulus (GPa) = 41.83770 51.94452 46.89111
# Shear Modulus (GPa) = 23.35400 28.96961 26.16181
#
# Velocity S-wave (km/s) = 3.51212 3.91165 3.71726
# Velocity P-wave (km/s) = 6.20840 6.91644 6.57196
#
# Compressibility (1/GPa) = 0.02390189
#
# Stress axis : x y z
#
# Youngs Moduli (GPa) = 103.98070 30.90590 64.51277
#
# Poissons Ratio (x) = 0.05520 0.13942
# Poissons Ratio (y) = 0.18573 0.82828
# Poissons Ratio (z) = 0.22471 0.39680
#
# Static dielectric constant tensor:
#      x y z
#    x 3.841940 0.000000 0.086930 
#    y 0.000000 3.203350 0.000000 
#    z 0.086930 0.000000 3.492340 
# 
# 
# High freq. dielectric constant tensor:
#      x y z
#    x 1.751500 0.000000 0.006720 
#    y 0.000000 1.711340 0.000000 
#    z 0.006720 0.000000 1.741330 
# 
# From -- ./inp_files/216384.got.cif
#   From: 2010.06.25/outbox.cif.g09.slc.cpg/sg12_109_cif.got.tgz:216384.got - 2010.06.28 00:19:55.
