data_PCOD8106146
_publ_section_title
;
Structure prediction by ZEFSAII (Michael W. Deem and Ramdas Pophale) SiO2 
 PCOD8106146
Probable space group: C 2/M
;
_chemical_formula_sum "Si O2"
_cell_formula_units_Z 48
_cell_length_a 13.232354
_cell_length_b 21.815390
_cell_length_c 11.623598
_cell_angle_alpha 90.000000
_cell_angle_beta 143.453698
_cell_angle_gamma 90.000000
_cell_volume 1998.030760
_symmetry_space_group_name_H-M "C 2/M"
_symmetry_group_IT_number 12
_symmetry_cell_setting 'monoclinic'
loop_
_space_group_symop_operation_xyz
x,y,z
-x,y,-z
-x,-y,-z
x,-y,z
1/2+x,1/2+y,z
1/2-x,1/2+y,-z
1/2-x,1/2-y,-z
1/2+x,1/2-y,z
loop_
_atom_site_type_symbol
_atom_site_label
_atom_site_fract_x
_atom_site_fract_y
_atom_site_fract_z
Si Si1 0.640574 0.929726 0.877927
Si Si2 0.558199 0.691414 0.308303
Si Si3 0.690469 0.891029 0.165621
Si Si4 0.325761 0.661557 0.911169
Si Si5 0.719351 0.263543 0.662729
Si Si6 0.255763 0.569872 0.462157
O O1 0.719291 0.899665 0.835144
O O2 0.442288 0.913269 0.703433
O O3 0.672044 0.000000 0.888481
O O4 0.748941 0.908464 0.090251
O O5 0.549336 0.713308 0.436145
O O6 0.655575 0.743304 0.325113
O O7 0.642421 0.622802 0.376220
O O8 0.373121 0.688076 0.081321
O O9 0.696113 0.818196 0.188918
O O10 0.798782 0.924911 0.364707
O O11 0.500000 0.916191 0.000000
O O12 0.195443 0.706840 0.727068
O O13 0.500000 0.650339 0.000000
O O14 0.297776 0.500000 0.542751
#
# Coordination Sequence:
#
# PCOD8106146 Si02
#       6
#     8   8   8   8   8   8
#     4  10  21  36  55  82 114 149 192 235 277 331
#     4   9  18  35  60  85 113 148 186 231 280 335
#     4   9  16  31  57  82 107 141 180 231 287 333
#     4  10  21  38  58  81 112 152 189 226 279 337
#     4   9  18  35  57  83 115 145 183 230 284 339
#     4   9  18  34  56  82 111 145 187 235 284 329
#
# _framework density 24.023654000000001
#
# number of rings (size 3 to 8) (size 9 to 14) (size 15 to 20)
#    0.000    2.667    0.000    2.000    0.000    5.000 
#    0.000   10.833    0.000   13.000    0.000    0.000 
#    0.000    0.000    0.000    0.000    0.000    0.000 
#
# Total GULP energy -297336.261311 kJ/mol
# GULP energy per Si atom -12389.010888 kJ/mol
# Density = 2.396897 g / cm^3
# Si number density = 24.023654 Si / 1000 Ang^3
#
#
#
# Elastic Constant Matrix: (Units=GPa)
#
#
# Indices 1 2 3 4 5 6 
#
# 1 50.7600 44.5609 30.0980 0.0000 -7.8284 0.0000
# 2 44.5609 147.5300 47.6936 0.0000 -17.7182 0.0000
# 3 30.0980 47.6936 99.0896 0.0000 -27.6227 0.0000
# 4 0.0000 0.0000 0.0000 32.0148 0.0000 -12.2875
# 5 -7.8284 -17.7182 -27.6227 0.0000 18.1835 0.0000
# 6 0.0000 0.0000 0.0000 -12.2875 0.0000 40.1562
#
#
#
# Elastic Compliance Matrix: (Units=1/GPa)
#
#
# Indices 1 2 3 4 5 6 
#
# 1 0.029325 -0.007244 -0.006711 0.000000 -0.004628 0.000000
# 2 -0.007244 0.009939 -0.001306 0.000000 0.004581 0.000000
# 3 -0.006711 -0.001306 0.020118 0.000000 0.026400 0.000000
# 4 0.000000 0.000000 0.000000 0.035392 0.000000 0.010830
# 5 -0.004628 0.004581 0.026400 0.000000 0.097571 0.000000
# 6 0.000000 0.000000 0.000000 0.010830 0.000000 0.028217
#
#
# Mechanical properties :
#
#
# Convention : Reuss Voigt Hill
#
# Bulk Modulus (GPa) = 34.64965 60.23160 47.44062
# Shear Modulus (GPa) = 19.17881 29.73937 24.45909
#
# Velocity S-wave (km/s) = 2.82854 3.52223 3.19427
# Velocity P-wave (km/s) = 5.01218 6.45505 5.77882
#
# Compressibility (1/GPa) = 0.02886032
#
# Stress axis : x y z
#
# Youngs Moduli (GPa) = 34.10037 100.61592 49.70574
#
# Poissons Ratio (x) = 0.72885 0.33357
# Poissons Ratio (y) = 0.24702 0.06493
# Poissons Ratio (z) = 0.22884 0.13143
#
# Static dielectric constant tensor:
#      x y z
#    x 4.112460 0.000000 -0.343770 
#    y 0.000000 4.261020 0.000000 
#    z -0.343770 0.000000 4.626060 
# 
# 
# High freq. dielectric constant tensor:
#      x y z
#    x 1.935720 0.000000 -0.017770 
#    y 0.000000 1.952330 0.000000 
#    z -0.017770 0.000000 1.951570 
# 
# From -- ./inp_files/147936.got.cif
#   From: 2010.06.25/outbox.cif.g09.slc.cpg/sg12_74_cif.got.tgz:147936.got - 2010.06.28 00:19:55.
