data_PCOD8106898
_publ_section_title
;
Structure prediction by ZEFSAII (Michael W. Deem and Ramdas Pophale) SiO2 
 PCOD8106898
Probable space group: C 2/M
;
_chemical_formula_sum "Si O2"
_cell_formula_units_Z 64
_cell_length_a 32.572338
_cell_length_b 8.781145
_cell_length_c 24.866837
_cell_angle_alpha 90.000000
_cell_angle_beta 153.464459
_cell_angle_gamma 90.000000
_cell_volume 3177.517653
_symmetry_space_group_name_H-M "C 2/M"
_symmetry_group_IT_number 12
_symmetry_cell_setting 'monoclinic'
loop_
_space_group_symop_operation_xyz
x,y,z
-x,y,-z
-x,-y,-z
x,-y,z
1/2+x,1/2+y,z
1/2-x,1/2+y,-z
1/2-x,1/2-y,-z
1/2+x,1/2-y,z
loop_
_atom_site_type_symbol
_atom_site_label
_atom_site_fract_x
_atom_site_fract_y
_atom_site_fract_z
Si Si1 0.364075 0.818769 0.483976
Si Si2 0.434816 0.825551 0.972268
Si Si3 0.979382 0.176489 0.828164
Si Si4 0.728954 0.321421 0.418273
Si Si5 0.224283 0.176310 0.722361
Si Si6 0.430953 0.180274 0.258159
Si Si7 0.885974 0.678874 0.087650
Si Si8 0.784419 0.680506 0.172430
O O1 0.296111 0.755259 0.450793
O O2 0.335586 0.759102 0.392486
O O3 0.466031 0.754668 0.615487
O O4 0.361096 0.000000 0.479076
O O5 0.330632 0.798551 0.832150
O O6 0.450858 0.000000 0.009535
O O7 0.500000 0.779754 0.000000
O O8 0.456592 0.712810 0.046186
O O9 0.874973 0.220770 0.719865
O O10 0.013893 0.277204 0.818356
O O11 0.988768 0.000000 0.824104
O O12 0.743662 0.500000 0.440854
O O13 0.750000 0.250000 0.500000
O O14 0.200354 0.246014 0.751948
O O15 0.198038 0.000000 0.692765
O O16 0.384524 0.233119 0.147825
O O17 0.367835 0.239416 0.232799
O O18 0.436737 0.000000 0.265201
O O19 0.868324 0.500000 0.060669
O O20 0.810600 0.768867 0.965486
O O21 0.784182 0.500000 0.177968
#
# Coordination Sequence:
#
# PCOD8106898 Si02
#       8
#     8   8   8   8   8   8   8   8
#     4  10  21  41  63  85 117 160 205 246 292 351
#     4  10  21  37  57  81 112 152 195 238 291 350
#     4  11  22  35  55  87 120 152 194 240 292 350
#     4  10  22  38  59  88 121 159 201 245 293 349
#     4  11  23  39  59  87 121 156 198 246 298 354
#     4   9  21  39  62  88 115 155 203 245 297 360
#     4  11  21  38  62  89 121 156 196 246 301 360
#     4  11  22  39  62  89 119 154 197 248 302 357
#
# _framework density 20.141508000000002
#
# number of rings (size 3 to 8) (size 9 to 14) (size 15 to 20)
#    0.000    1.625    1.250    3.375    0.000    3.750 
#    0.000    6.875    0.000    0.000    0.000    0.000 
#    0.000    0.000    0.000    0.000    0.000    0.000 
#
# Total GULP energy -396917.125522 kJ/mol
# GULP energy per Si atom -12403.660173 kJ/mol
# Density = 2.009567 g / cm^3
# Si number density = 20.141508 Si / 1000 Ang^3
#
#
#
# Elastic Constant Matrix: (Units=GPa)
#
#
# Indices 1 2 3 4 5 6 
#
# 1 156.7807 20.0914 50.5009 0.0000 0.7666 0.0000
# 2 20.0914 29.7494 17.2473 0.0000 2.4315 0.0000
# 3 50.5009 17.2473 98.0166 0.0000 -4.6701 0.0000
# 4 0.0000 0.0000 0.0000 24.3206 0.0000 -2.3403
# 5 0.7666 2.4315 -4.6701 0.0000 40.6981 0.0000
# 6 0.0000 0.0000 0.0000 -2.3403 0.0000 25.4640
#
#
#
# Elastic Compliance Matrix: (Units=1/GPa)
#
#
# Indices 1 2 3 4 5 6 
#
# 1 0.007938 -0.003286 -0.003529 0.000000 -0.000358 0.000000
# 2 -0.003286 0.039163 -0.005336 0.000000 -0.002890 0.000000
# 3 -0.003529 -0.005336 0.013049 0.000000 0.001883 0.000000
# 4 0.000000 0.000000 0.000000 0.041484 0.000000 0.003813
# 5 -0.000358 -0.002890 0.001883 0.000000 0.024967 0.000000
# 6 0.000000 0.000000 0.000000 0.003813 0.000000 0.039622
#
#
# Mechanical properties :
#
#
# Convention : Reuss Voigt Hill
#
# Bulk Modulus (GPa) = 27.89487 51.13621 39.51554
# Shear Modulus (GPa) = 24.69466 31.21033 27.95250
#
# Velocity S-wave (km/s) = 3.50531 3.94071 3.72937
# Velocity P-wave (km/s) = 5.50113 6.79332 6.18108
#
# Compressibility (1/GPa) = 0.03584889
#
# Stress axis : x y z
#
# Youngs Moduli (GPa) = 125.97978 25.53431 76.63390
#
# Poissons Ratio (x) = 0.08390 0.27041
# Poissons Ratio (y) = 0.41395 0.40892
# Poissons Ratio (z) = 0.44454 0.13625
#
# Static dielectric constant tensor:
#      x y z
#    x 4.025110 0.000000 0.211020 
#    y 0.000000 3.490980 0.000000 
#    z 0.211020 0.000000 3.846220 
# 
# 
# High freq. dielectric constant tensor:
#      x y z
#    x 1.802960 0.000000 0.003140 
#    y 0.000000 1.772750 0.000000 
#    z 0.003140 0.000000 1.790720 
# 
# From -- ./inp_files/353460.got.cif
#   From: 2010.06.25/outbox.cif.g09.slc.cpg/sg12_177_cif.got.tgz:353460.got - 2010.06.28 00:19:55.
