data_PCOD8106544
_publ_section_title
;
Structure prediction by ZEFSAII (Michael W. Deem and Ramdas Pophale) SiO2 
 PCOD8106544
Probable space group: C 2/M
;
_chemical_formula_sum "Si O2"
_cell_formula_units_Z 44
_cell_length_a 8.898224
_cell_length_b 27.882202
_cell_length_c 9.852860
_cell_angle_alpha 90.000000
_cell_angle_beta 113.957616
_cell_angle_gamma 90.000000
_cell_volume 2233.910514
_symmetry_space_group_name_H-M "C 2/M"
_symmetry_group_IT_number 12
_symmetry_cell_setting 'monoclinic'
loop_
_space_group_symop_operation_xyz
x,y,z
-x,y,-z
-x,-y,-z
x,-y,z
1/2+x,1/2+y,z
1/2-x,1/2+y,-z
1/2-x,1/2-y,-z
1/2+x,1/2-y,z
loop_
_atom_site_type_symbol
_atom_site_label
_atom_site_fract_x
_atom_site_fract_y
_atom_site_fract_z
Si Si1 0.240743 0.782495 0.327677
Si Si2 0.866929 0.500000 0.760136
Si Si3 0.038400 0.126943 0.296761
Si Si4 0.500000 0.423525 0.000000
Si Si5 0.254907 0.101417 0.618431
Si Si6 0.259825 0.000000 0.022627
Si Si7 0.435754 0.195990 0.667766
O O1 0.086815 0.817627 0.298648
O O2 0.365538 0.797687 0.251809
O O3 0.359681 0.783577 0.500969
O O4 0.159339 0.730765 0.260126
O O5 0.817360 0.547596 0.661285
O O6 0.061032 0.500000 0.847891
O O7 0.767837 0.500000 0.863561
O O8 0.035230 0.107272 0.144795
O O9 0.173473 0.100437 0.439856
O O10 0.864956 0.119900 0.307010
O O11 0.335711 0.453616 0.962467
O O12 0.404060 0.139454 0.677651
#
# Coordination Sequence:
#
# PCOD8106544 Si02
#       7
#     8   4   8   4   8   4   8
#     4   9  17  31  55  86 118 153 186 239 288 356
#     4  11  22  41  60  88 115 155 200 244 286 352
#     4  10  21  36  60  85 121 153 196 238 300 342
#     4  11  22  42  58  84 114 160 194 245 288 362
#     4  10  21  37  59  89 117 156 197 248 287 340
#     4  10  24  40  61  79 115 160 202 232 298 349
#     4   9  17  31  55  86 120 147 192 236 299 340
#
# _framework density 19.696403
#
# number of rings (size 3 to 8) (size 9 to 14) (size 15 to 20)
#    0.000    2.182    1.818    1.091    2.545    7.273 
#    0.000    0.909    0.000    6.545    0.000    0.000 
#    0.000    0.000    0.000    0.000    0.000    0.000 
#
# Total GULP energy -272617.632729 kJ/mol
# GULP energy per Si atom -12391.710579 kJ/mol
# Density = 1.965157 g / cm^3
# Si number density = 19.696403 Si / 1000 Ang^3
#
#
#
# Elastic Constant Matrix: (Units=GPa)
#
#
# Indices 1 2 3 4 5 6 
#
# 1 94.2909 47.6206 22.3932 0.0000 -15.4521 0.0000
# 2 47.6206 142.2950 31.2233 0.0000 -2.0733 0.0000
# 3 22.3932 31.2233 89.9582 0.0000 -10.2922 0.0000
# 4 0.0000 0.0000 0.0000 -2.6118 0.0000 12.5927
# 5 -15.4521 -2.0733 -10.2922 0.0000 12.6769 0.0000
# 6 0.0000 0.0000 0.0000 12.5927 0.0000 -11.3943
#
#
#
# Elastic Compliance Matrix: (Units=1/GPa)
#
#
# Indices 1 2 3 4 5 6 
#
# 1 0.016359 -0.005176 -0.000101 0.000000 0.019012 0.000000
# 2 -0.005176 0.009256 -0.002726 0.000000 -0.007008 0.000000
# 3 -0.000101 -0.002726 0.013254 0.000000 0.010192 0.000000
# 4 0.000000 0.000000 0.000000 0.088454 0.000000 0.097757
# 5 0.019012 -0.007008 0.010192 0.000000 0.109186 0.000000
# 6 0.000000 0.000000 0.000000 0.097757 0.000000 0.020276
#
#
# Mechanical properties :
#
#
# Convention : Reuss Voigt Hill
#
# Bulk Modulus (GPa) = 43.73738 58.77981 51.25859
# Shear Modulus (GPa) = 17.83103 14.75461 16.29282
#
# Velocity S-wave (km/s) = 3.01207 2.73994 2.87922
# Velocity P-wave (km/s) = 5.86095 6.31802 6.09377
#
# Compressibility (1/GPa) = 0.02286374
#
# Stress axis : x y z
#
# Youngs Moduli (GPa) = 61.12902 108.04079 75.45144
#
# Poissons Ratio (x) = 0.55917 0.00759
# Poissons Ratio (y) = 0.31638 0.20568
# Poissons Ratio (z) = 0.00615 0.29452
#
# Static dielectric constant tensor:
#      x y z
#    x 3.975870 0.000000 -0.191300 
#    y 0.000000 3.604190 0.000000 
#    z -0.191300 0.000000 3.254000 
# 
# 
# High freq. dielectric constant tensor:
#      x y z
#    x 1.783690 0.000000 -0.010270 
#    y 0.000000 1.774070 0.000000 
#    z -0.010270 0.000000 1.723210 
# 
# From -- ./inp_files/41753.got.cif
#   From: 2010.06.25/outbox.cif.g09.slc.cpg/sg12_21_cif.got.tgz:41753.got - 2010.06.28 00:19:55.
