data_PCOD8106851
_publ_section_title
;
Structure prediction by ZEFSAII (Michael W. Deem and Ramdas Pophale) SiO2 
 PCOD8106851
Probable space group: C 2/M
;
_chemical_formula_sum "Si O2"
_cell_formula_units_Z 32
_cell_length_a 14.066350
_cell_length_b 27.833595
_cell_length_c 11.626243
_cell_angle_alpha 90.000000
_cell_angle_beta 159.123159
_cell_angle_gamma 90.000000
_cell_volume 1622.107053
_symmetry_space_group_name_H-M "C 2/M"
_symmetry_group_IT_number 12
_symmetry_cell_setting 'monoclinic'
loop_
_space_group_symop_operation_xyz
x,y,z
-x,y,-z
-x,-y,-z
x,-y,z
1/2+x,1/2+y,z
1/2-x,1/2+y,-z
1/2-x,1/2-y,-z
1/2+x,1/2-y,z
loop_
_atom_site_type_symbol
_atom_site_label
_atom_site_fract_x
_atom_site_fract_y
_atom_site_fract_z
Si Si1 0.251240 0.760971 0.364923
Si Si2 0.869431 0.645361 0.596584
Si Si3 0.698738 0.054331 0.621328
Si Si4 0.961026 0.170345 0.332730
O O1 0.250000 0.750000 0.500000
O O2 0.286938 0.818813 0.397781
O O3 0.497903 0.728036 0.602439
O O4 0.000000 0.746101 0.000000
O O5 0.865204 0.590177 0.554279
O O6 0.679050 0.649602 0.491359
O O7 0.166639 0.660675 0.959756
O O8 0.500000 0.066194 0.500000
O O9 0.654914 0.000000 0.527177
O O10 0.000000 0.062633 0.000000
O O11 0.000000 0.144514 0.500000
#
# Coordination Sequence:
#
# PCOD8106851 Si02
#       4
#     8   8   8   8
#     4  10  21  37  56  84 119 156 197 239 287 346
#     4  11  22  37  59  85 113 153 196 238 287 350
#     4  10  21  38  60  87 116 145 183 238 300 353
#     4  11  22  38  56  81 117 156 195 236 287 342
#
# _framework density 19.727428
#
# number of rings (size 3 to 8) (size 9 to 14) (size 15 to 20)
#    0.000    1.500    0.000    6.750    0.000    5.000 
#    0.000    0.000    0.000    4.500    0.000    0.000 
#    0.000    0.000    0.000    0.000    0.000    0.000 
#
# Total GULP energy -198229.578566 kJ/mol
# GULP energy per Si atom -12389.348660 kJ/mol
# Density = 1.968253 g / cm^3
# Si number density = 19.727428 Si / 1000 Ang^3
#
#
#
# Elastic Constant Matrix: (Units=GPa)
#
#
# Indices 1 2 3 4 5 6 
#
# 1 127.6292 63.6136 68.9883 -0.0031 13.9188 -0.0039
# 2 63.6136 136.4558 46.7808 0.0014 -3.8018 0.0018
# 3 68.9883 46.7808 142.0534 0.0137 8.5364 -0.0114
# 4 -0.0031 0.0014 0.0137 14.3603 -0.0028 11.4685
# 5 13.9188 -3.8018 8.5364 -0.0028 42.0498 -0.0054
# 6 -0.0039 0.0018 -0.0114 11.4685 -0.0054 20.1584
#
#
#
# Elastic Compliance Matrix: (Units=1/GPa)
#
#
# Indices 1 2 3 4 5 6 
#
# 1 0.013019 -0.004606 -0.004578 0.000014 -0.003797 -0.000008
# 2 -0.004606 0.009963 -0.001205 0.000002 0.002670 -0.000003
# 3 -0.004578 -0.001205 0.009693 -0.000025 -0.000561 0.000019
# 4 0.000014 0.000002 -0.000025 0.127621 0.000000 -0.072606
# 5 -0.003797 0.002670 -0.000561 0.000000 0.025393 0.000005
# 6 -0.000008 -0.000003 0.000019 -0.072606 0.000005 0.090914
#
#
# Mechanical properties :
#
#
# Convention : Reuss Voigt Hill
#
# Bulk Modulus (GPa) = 84.04113 84.98931 84.51522
# Shear Modulus (GPa) = 16.59215 30.43075 23.51145
#
# Velocity S-wave (km/s) = 2.90327 3.93181 3.45601
# Velocity P-wave (km/s) = 7.34386 7.98670 7.67202
#
# Compressibility (1/GPa) = 0.01189894
#
# Stress axis : x y z
#
# Youngs Moduli (GPa) = 76.80808 100.37247 103.16357
#
# Poissons Ratio (x) = 0.46230 0.47228
# Poissons Ratio (y) = 0.35376 0.12427
# Poissons Ratio (z) = 0.35163 0.12091
#
# Static dielectric constant tensor:
#      x y z
#    x 3.629560 0.000040 -0.066190 
#    y 0.000040 3.908220 0.000010 
#    z -0.066190 0.000010 3.596750 
# 
# 
# High freq. dielectric constant tensor:
#      x y z
#    x 1.778060 0.000000 0.009340 
#    y 0.000000 1.752960 0.000000 
#    z 0.009340 0.000000 1.778640 
# 
# From -- ./inp_files/3529.got.cif
#   From: 2010.06.25/outbox.cif.g09.slc.cpg/sg12_2_cif.got.tgz:3529.got - 2010.06.28 00:19:55.
