data_PCOD8106647
_publ_section_title
;
Structure prediction by ZEFSAII (Michael W. Deem and Ramdas Pophale) SiO2 
 PCOD8106647
Probable space group: C 2/M
;
_chemical_formula_sum "Si O2"
_cell_formula_units_Z 36
_cell_length_a 7.496096
_cell_length_b 22.209834
_cell_length_c 17.251935
_cell_angle_alpha 90.000000
_cell_angle_beta 138.781830
_cell_angle_gamma 90.000000
_cell_volume 1892.588744
_symmetry_space_group_name_H-M "C 2/M"
_symmetry_group_IT_number 12
_symmetry_cell_setting 'monoclinic'
loop_
_space_group_symop_operation_xyz
x,y,z
-x,y,-z
-x,-y,-z
x,-y,z
1/2+x,1/2+y,z
1/2-x,1/2+y,-z
1/2-x,1/2-y,-z
1/2+x,1/2-y,z
loop_
_atom_site_type_symbol
_atom_site_label
_atom_site_fract_x
_atom_site_fract_y
_atom_site_fract_z
Si Si1 0.907042 0.325572 0.242818
Si Si2 0.060264 0.066927 0.155760
Si Si3 0.774372 0.194005 0.221482
Si Si4 0.185784 0.630664 0.630984
Si Si5 0.000000 0.616551 0.000000
O O1 0.161677 0.321771 0.269681
O O2 0.708611 0.381279 0.152761
O O3 0.734115 0.263999 0.186618
O O4 0.999499 0.337576 0.362597
O O5 0.157307 0.074394 0.277731
O O6 0.737730 0.074480 0.044773
O O7 0.137534 0.000000 0.151494
O O8 0.609359 0.157915 0.104033
O O9 0.092233 0.178431 0.326650
O O10 0.000000 0.608012 0.500000
#
# Coordination Sequence:
#
# PCOD8106647 Si02
#       5
#     8   8   8   8   4
#     4  10  21  37  57  85 115 148 181 237 274 330
#     4   9  20  39  56  84 112 146 192 226 275 329
#     4  11  20  39  55  89 114 143 189 224 290 329
#     4   9  21  38  58  86 110 151 183 230 283 326
#     4  10  21  36  64  82 111 150 180 236 278 336
#
# _framework density 19.021564999999999
#
# number of rings (size 3 to 8) (size 9 to 14) (size 15 to 20)
#    1.333    0.889    2.222    0.333    0.000    6.667 
#    0.000    6.667    0.000    1.333    0.000    0.000 
#    0.000    0.000    0.000    0.000    0.000    0.000 
#
# Total GULP energy -222994.703206 kJ/mol
# GULP energy per Si atom -12388.594623 kJ/mol
# Density = 1.897827 g / cm^3
# Si number density = 19.021565 Si / 1000 Ang^3
#
#
#
# Elastic Constant Matrix: (Units=GPa)
#
#
# Indices 1 2 3 4 5 6 
#
# 1 113.4842 10.6704 7.6438 0.0000 -0.4494 0.0000
# 2 10.6704 116.3395 4.0633 0.0000 10.9905 0.0000
# 3 7.6438 4.0633 76.4750 0.0003 -3.8230 0.0000
# 4 0.0000 0.0000 0.0003 9.0055 0.0001 3.7813
# 5 -0.4494 10.9905 -3.8230 0.0001 19.1972 0.0000
# 6 0.0000 0.0000 0.0000 3.7813 0.0000 19.7835
#
#
#
# Elastic Compliance Matrix: (Units=1/GPa)
#
#
# Indices 1 2 3 4 5 6 
#
# 1 0.008948 -0.000842 -0.000823 0.000000 0.000527 0.000000
# 2 -0.000842 0.009209 -0.000676 0.000000 -0.005427 0.000000
# 3 -0.000823 -0.000676 0.013346 0.000000 0.003026 0.000000
# 4 0.000000 0.000000 0.000000 0.120733 -0.000001 -0.023076
# 5 0.000527 -0.005427 0.003026 -0.000001 0.055813 0.000000
# 6 0.000000 0.000000 0.000000 -0.023076 0.000000 0.054958
#
#
# Mechanical properties :
#
#
# Convention : Reuss Voigt Hill
#
# Bulk Modulus (GPa) = 37.28554 39.00595 38.14574
# Shear Modulus (GPa) = 18.07470 28.52531 23.30000
#
# Velocity S-wave (km/s) = 3.08591 3.87671 3.50369
# Velocity P-wave (km/s) = 5.68695 6.37096 6.03865
#
# Compressibility (1/GPa) = 0.02682005
#
# Stress axis : x y z
#
# Youngs Moduli (GPa) = 111.75066 108.58915 74.93074
#
# Poissons Ratio (x) = 0.09141 0.06169
# Poissons Ratio (y) = 0.09407 0.05069
# Poissons Ratio (z) = 0.09201 0.07345
#
# Static dielectric constant tensor:
#      x y z
#    x 3.470710 0.000000 0.040240 
#    y 0.000000 3.342210 0.000000 
#    z 0.040240 0.000000 3.185960 
# 
# 
# High freq. dielectric constant tensor:
#      x y z
#    x 1.738730 0.000000 0.000060 
#    y 0.000000 1.732020 0.000000 
#    z 0.000060 0.000000 1.712810 
# 
# From -- ./inp_files/301874.got.cif
#   From: 2010.06.25/outbox.cif.g09.slc.cpg/sg12_151_cif.got.tgz:301874.got - 2010.06.28 00:19:55.
