data_PCOD8106572
_publ_section_title
;
Structure prediction by ZEFSAII (Michael W. Deem and Ramdas Pophale) SiO2 
 PCOD8106572
Probable space group: C 2/M
;
_chemical_formula_sum "Si O2"
_cell_formula_units_Z 56
_cell_length_a 26.227924
_cell_length_b 14.042074
_cell_length_c 11.770249
_cell_angle_alpha 90.000000
_cell_angle_beta 40.732265
_cell_angle_gamma 90.000000
_cell_volume 2828.642955
_symmetry_space_group_name_H-M "C 2/M"
_symmetry_group_IT_number 12
_symmetry_cell_setting 'monoclinic'
loop_
_space_group_symop_operation_xyz
x,y,z
-x,y,-z
-x,-y,-z
x,-y,z
1/2+x,1/2+y,z
1/2-x,1/2+y,-z
1/2-x,1/2-y,-z
1/2+x,1/2-y,z
loop_
_atom_site_type_symbol
_atom_site_label
_atom_site_fract_x
_atom_site_fract_y
_atom_site_fract_z
Si Si1 0.798489 0.287206 0.779973
Si Si2 0.711248 0.108407 0.993668
Si Si3 0.006612 0.108026 0.364633
Si Si4 0.684569 0.105424 0.792028
Si Si5 0.908957 0.773208 0.155422
Si Si6 0.139635 0.113369 0.974074
Si Si7 0.359761 0.675739 0.489694
O O1 0.784441 0.181442 0.858362
O O2 0.719026 0.333190 0.868200
O O3 0.854684 0.272275 0.576140
O O4 0.835693 0.356549 0.813742
O O5 0.658573 0.114611 0.968854
O O6 0.741968 0.000000 0.959318
O O7 0.000000 0.159317 0.500000
O O8 0.925666 0.109521 0.432826
O O9 0.031243 0.000000 0.344447
O O10 0.075305 0.153140 0.171835
O O11 0.636103 0.177175 0.798870
O O12 0.777205 0.122317 0.629590
O O13 0.666554 0.000000 0.776439
O O14 0.887759 0.858757 0.106289
O O15 0.881875 0.800396 0.325427
O O16 0.000000 0.751056 0.000000
O O17 0.150712 0.000000 0.959243
#
# Coordination Sequence:
#
# PCOD8106572 Si02
#       7
#     8   8   8   8   8   8   8
#     4  10  21  36  60  92 122 154 201 248 301 357
#     4   9  18  34  59  88 119 152 191 243 300 355
#     4  10  23  38  59  92 126 160 196 238 302 370
#     4  10  22  39  64  89 115 157 208 252 296 350
#     4  12  24  43  61  84 122 161 207 250 300 362
#     4  11  23  40  61  90 127 161 196 244 306 365
#     4  11  22  39  61  88 124 157 200 251 299 357
#
# _framework density 19.797478999999999
#
# number of rings (size 3 to 8) (size 9 to 14) (size 15 to 20)
#    0.000    1.571    4.286    1.286    6.000    2.286 
#    0.000    0.714    0.000    0.000    0.000    3.000 
#    0.000    0.000    0.000    0.000    0.000    0.000 
#
# Total GULP energy -347025.328887 kJ/mol
# GULP energy per Si atom -12393.761746 kJ/mol
# Density = 1.975242 g / cm^3
# Si number density = 19.797479 Si / 1000 Ang^3
#
#
#
# Elastic Constant Matrix: (Units=GPa)
#
#
# Indices 1 2 3 4 5 6 
#
# 1 81.2155 25.3550 32.2300 0.0000 26.2384 0.0000
# 2 25.3550 93.5217 21.3749 0.0000 14.5248 0.0000
# 3 32.2300 21.3749 104.6214 0.0000 35.2536 0.0000
# 4 0.0000 0.0000 0.0000 19.8559 0.0000 0.7899
# 5 26.2384 14.5248 35.2536 0.0000 43.3200 0.0000
# 6 0.0000 0.0000 0.0000 0.7899 0.0000 28.0110
#
#
#
# Elastic Compliance Matrix: (Units=1/GPa)
#
#
# Indices 1 2 3 4 5 6 
#
# 1 0.016359 -0.002841 -0.001986 0.000000 -0.007340 0.000000
# 2 -0.002841 0.011929 -0.001094 0.000000 -0.001388 0.000000
# 3 -0.001986 -0.001094 0.013592 0.000000 -0.009491 0.000000
# 4 0.000000 0.000000 0.000000 0.050419 0.000000 -0.001422
# 5 -0.007340 -0.001388 -0.009491 0.000000 0.035719 0.000000
# 6 0.000000 0.000000 0.000000 -0.001422 0.000000 0.035740
#
#
# Mechanical properties :
#
#
# Convention : Reuss Voigt Hill
#
# Bulk Modulus (GPa) = 33.29207 48.58648 40.93927
# Shear Modulus (GPa) = 26.93766 31.59730 29.26748
#
# Velocity S-wave (km/s) = 3.69272 3.99936 3.84909
# Velocity P-wave (km/s) = 5.91898 6.77655 6.36223
#
# Compressibility (1/GPa) = 0.03003718
#
# Stress axis : x y z
#
# Youngs Moduli (GPa) = 61.12701 83.83148 73.57386
#
# Poissons Ratio (x) = 0.23820 0.14611
# Poissons Ratio (y) = 0.17369 0.08049
# Poissons Ratio (z) = 0.12140 0.09171
#
# Static dielectric constant tensor:
#      x y z
#    x 3.634400 0.000000 0.273460 
#    y 0.000000 3.648160 0.000000 
#    z 0.273460 0.000000 3.496920 
# 
# 
# High freq. dielectric constant tensor:
#      x y z
#    x 1.776000 0.000000 0.028020 
#    y 0.000000 1.762630 0.000000 
#    z 0.028020 0.000000 1.760600 
# 
# From -- ./inp_files/183448.got.cif
#   From: 2010.06.25/outbox.cif.g09.slc.cpg/sg12_92_cif.got.tgz:183448.got - 2010.06.28 00:19:55.
