data_PCOD8106397
_publ_section_title
;
Structure prediction by ZEFSAII (Michael W. Deem and Ramdas Pophale) SiO2 
 PCOD8106397
Probable space group: C 2/M
;
_chemical_formula_sum "Si O2"
_cell_formula_units_Z 64
_cell_length_a 22.518269
_cell_length_b 14.775132
_cell_length_c 9.373735
_cell_angle_alpha 90.000000
_cell_angle_beta 91.732859
_cell_angle_gamma 90.000000
_cell_volume 3117.312837
_symmetry_space_group_name_H-M "C 2/M"
_symmetry_group_IT_number 12
_symmetry_cell_setting 'monoclinic'
loop_
_space_group_symop_operation_xyz
x,y,z
-x,y,-z
-x,-y,-z
x,-y,z
1/2+x,1/2+y,z
1/2-x,1/2+y,-z
1/2-x,1/2-y,-z
1/2+x,1/2-y,z
loop_
_atom_site_type_symbol
_atom_site_label
_atom_site_fract_x
_atom_site_fract_y
_atom_site_fract_z
Si Si1 0.357308 0.785883 0.690109
Si Si2 0.432506 0.789902 0.946062
Si Si3 0.652547 0.638809 0.752847
Si Si4 0.180359 0.896235 0.435178
Si Si5 0.161892 0.340146 0.849943
Si Si6 0.682363 0.900727 0.556033
Si Si7 0.726033 0.899065 0.117188
Si Si8 0.569903 0.597030 0.981124
O O1 0.418046 0.814543 0.780254
O O2 0.350815 0.676864 0.671840
O O3 0.359115 0.831139 0.534108
O O4 0.302341 0.829236 0.772177
O O5 0.500000 0.797130 0.000000
O O6 0.396314 0.852028 0.054362
O O7 0.404655 0.687725 0.945048
O O8 0.651107 0.610622 0.588660
O O9 0.664604 0.744612 0.771428
O O10 0.704682 0.589290 0.843891
O O11 0.589598 0.606151 0.816058
O O12 0.249398 0.868888 0.448492
O O13 0.172118 0.000000 0.377893
O O14 0.160968 0.409515 0.718423
O O15 0.218375 0.359458 0.956138
O O16 0.676395 0.000000 0.485727
O O17 0.697265 0.000000 0.124528
O O18 0.593336 0.500000 0.044122
O O19 0.500000 0.600103 0.000000
#
# Coordination Sequence:
#
# PCOD8106397 Si02
#       8
#     8   8   8   8   8   8   8   8
#     4  11  21  37  59  85 119 156 198 239 293 356
#     4   9  21  40  61  81 107 151 200 248 302 348
#     4  11  19  34  55  83 120 161 196 235 287 350
#     4  11  22  35  56  88 128 162 193 232 288 361
#     4  10  21  36  58  84 117 150 194 247 297 347
#     4  11  21  36  58  86 123 160 191 233 293 359
#     4  11  21  34  55  87 122 159 195 237 294 355
#     4   9  18  33  55  80 109 146 193 241 284 335
#
# _framework density 20.530503
#
# number of rings (size 3 to 8) (size 9 to 14) (size 15 to 20)
#    0.000    1.625    2.500    3.375    0.000    2.500 
#    0.000    1.875    0.000   14.250    0.000    5.250 
#    0.000    0.000    0.000    0.000    0.000    0.000 
#
# Total GULP energy -396448.346653 kJ/mol
# GULP energy per Si atom -12389.010833 kJ/mol
# Density = 2.048377 g / cm^3
# Si number density = 20.530503 Si / 1000 Ang^3
#
#
#
# Elastic Constant Matrix: (Units=GPa)
#
#
# Indices 1 2 3 4 5 6 
#
# 1 92.3201 22.0129 53.1459 0.0000 1.3073 0.0000
# 2 22.0129 82.2848 24.3737 0.0000 -1.0992 0.0000
# 3 53.1459 24.3737 131.9368 0.0000 1.4653 0.0000
# 4 0.0000 0.0000 0.0000 20.1140 0.0000 -4.6420
# 5 1.3073 -1.0992 1.4653 0.0000 28.7958 0.0000
# 6 0.0000 0.0000 0.0000 -4.6420 0.0000 5.1546
#
#
#
# Elastic Compliance Matrix: (Units=1/GPa)
#
#
# Indices 1 2 3 4 5 6 
#
# 1 0.014499 -0.002281 -0.005414 0.000000 -0.000470 0.000000
# 2 -0.002281 0.013226 -0.001532 0.000000 0.000686 0.000000
# 3 -0.005414 -0.001532 0.010047 0.000000 -0.000324 0.000000
# 4 0.000000 0.000000 0.000000 0.062761 0.000000 0.056519
# 5 -0.000470 0.000686 -0.000324 0.000000 0.034791 0.000000
# 6 0.000000 0.000000 0.000000 0.056519 0.000000 0.244899
#
#
# Mechanical properties :
#
#
# Convention : Reuss Voigt Hill
#
# Bulk Modulus (GPa) = 51.76625 56.17855 53.97240
# Shear Modulus (GPa) = 12.34215 24.61350 18.47783
#
# Velocity S-wave (km/s) = 2.45452 3.46623 3.00328
# Velocity P-wave (km/s) = 5.77078 6.59110 6.19453
#
# Compressibility (1/GPa) = 0.01931761
#
# Stress axis : x y z
#
# Youngs Moduli (GPa) = 68.97014 75.60739 99.53503
#
# Poissons Ratio (x) = 0.17250 0.53885
# Poissons Ratio (y) = 0.15735 0.15249
# Poissons Ratio (z) = 0.37338 0.11583
#
# Static dielectric constant tensor:
#      x y z
#    x 3.336590 0.000000 -0.085810 
#    y 0.000000 4.119330 0.000000 
#    z -0.085810 0.000000 3.713630 
# 
# 
# High freq. dielectric constant tensor:
#      x y z
#    x 1.757120 0.000000 -0.010050 
#    y 0.000000 1.821150 0.000000 
#    z -0.010050 0.000000 1.802060 
# 
# From -- ./inp_files/96901.got.cif
#   From: 2010.06.25/outbox.cif.g09.slc.cpg/sg12_49_cif.got.tgz:96901.got - 2010.06.28 00:19:55.
