data_PCOD8106241
_publ_section_title
;
Structure prediction by ZEFSAII (Michael W. Deem and Ramdas Pophale) SiO2 
 PCOD8106241
Probable space group: C 2/M
;
_chemical_formula_sum "Si O2"
_cell_formula_units_Z 32
_cell_length_a 26.005373
_cell_length_b 9.965880
_cell_length_c 18.369923
_cell_angle_alpha 90.000000
_cell_angle_beta 19.471141
_cell_angle_gamma 90.000000
_cell_volume 1586.949529
_symmetry_space_group_name_H-M "C 2/M"
_symmetry_group_IT_number 12
_symmetry_cell_setting 'monoclinic'
loop_
_space_group_symop_operation_xyz
x,y,z
-x,y,-z
-x,-y,-z
x,-y,z
1/2+x,1/2+y,z
1/2-x,1/2+y,-z
1/2-x,1/2-y,-z
1/2+x,1/2-y,z
loop_
_atom_site_type_symbol
_atom_site_label
_atom_site_fract_x
_atom_site_fract_y
_atom_site_fract_z
Si Si1 0.897174 0.000000 0.955652
Si Si2 0.500000 0.778404 0.500000
Si Si3 0.127471 0.500000 0.225303
Si Si4 0.166982 0.000000 0.685792
Si Si5 0.319501 0.213586 0.110997
Si Si6 0.000000 0.778404 0.000000
Si Si7 0.970277 0.500000 0.809445
O O1 0.816801 0.000000 0.983137
O O2 0.831529 0.126591 0.086942
O O3 0.083322 0.000000 0.716617
O O4 0.636937 0.681682 0.347450
O O5 0.556696 0.867783 0.356479
O O6 0.094075 0.500000 0.185511
O O7 0.346754 0.000000 0.432832
O O8 0.116953 0.132217 0.796222
O O9 0.394289 0.181682 0.090098
O O10 0.411780 0.133846 0.926441
#
# Coordination Sequence:
#
# PCOD8106241 Si02
#       7
#     4   4   4   4   8   4   4
#     4   8  18  35  56  77 102 138 188 222 258 317
#     4   9  18  37  62  78 102 148 196 220 258 330
#     4   9  18  36  60  82 104 143 189 229 263 322
#     4   9  18  36  60  82 104 143 189 229 263 322
#     4  10  21  36  56  84 111 144 185 228 270 324
#     4   9  18  37  62  78 102 148 196 220 258 330
#     4  12  24  33  52  89 124 138 168 232 292 317
#
# _framework density 20.164470999999999
#
# number of rings (size 3 to 8) (size 9 to 14) (size 15 to 20)
#    0.000    2.500    0.000    3.000    0.000   11.000 
#    0.000    2.500    0.000    6.000    0.000    0.000 
#    0.000    0.000    0.000    0.000    0.000    0.000 
#
# Total GULP energy -198235.223990 kJ/mol
# GULP energy per Si atom -12389.701499 kJ/mol
# Density = 2.011858 g / cm^3
# Si number density = 20.164471 Si / 1000 Ang^3
#
#
#
# Elastic Constant Matrix: (Units=GPa)
#
#
# Indices 1 2 3 4 5 6 
#
# 1 196.3412 32.2631 104.5937 0.0000 -42.3803 0.0000
# 2 32.2631 51.4369 33.0428 0.0000 2.0789 0.0000
# 3 104.5937 33.0428 165.1156 0.0000 -40.8692 0.0000
# 4 0.0000 0.0000 0.0000 -0.2199 0.0000 12.4141
# 5 -42.3803 2.0789 -40.8692 0.0000 41.9538 0.0000
# 6 0.0000 0.0000 0.0000 12.4141 0.0000 -4.8758
#
#
#
# Elastic Compliance Matrix: (Units=1/GPa)
#
#
# Indices 1 2 3 4 5 6 
#
# 1 0.008705 -0.003490 -0.003422 0.000000 0.005634 0.000000
# 2 -0.003490 0.025484 -0.005369 0.000000 -0.010018 0.000000
# 3 -0.003422 -0.005369 0.011212 0.000000 0.007732 0.000000
# 4 0.000000 0.000000 0.000000 0.031860 0.000000 0.081118
# 5 0.005634 -0.010018 0.007732 0.000000 0.037555 0.000000
# 6 0.000000 0.000000 0.000000 0.081118 0.000000 0.001437
#
#
# Mechanical properties :
#
#
# Convention : Reuss Voigt Hill
#
# Bulk Modulus (GPa) = 47.98327 83.63255 65.80791
# Shear Modulus (GPa) = 33.83847 23.57124 28.70486
#
# Velocity S-wave (km/s) = 4.10093 3.42270 3.77707
# Velocity P-wave (km/s) = 6.80229 7.56208 7.19223
#
# Compressibility (1/GPa) = 0.02084060
#
# Stress axis : x y z
#
# Youngs Moduli (GPa) = 114.87022 39.24008 89.19017
#
# Poissons Ratio (x) = 0.13695 0.30518
# Poissons Ratio (y) = 0.40090 0.47885
# Poissons Ratio (z) = 0.39305 0.21067
#
# Static dielectric constant tensor:
#      x y z
#    x 4.051710 0.000000 -0.692870 
#    y 0.000000 3.404110 0.000000 
#    z -0.692870 0.000000 3.791830 
# 
# 
# High freq. dielectric constant tensor:
#      x y z
#    x 1.793890 0.000000 -0.043030 
#    y 0.000000 1.760370 0.000000 
#    z -0.043030 0.000000 1.777750 
# 
# From -- ./inp_files/175026.got.cif
#   From: 2010.06.25/outbox.cif.g09.slc.cpg/sg12_88_cif.got.tgz:175026.got - 2010.06.28 00:19:55.
