data_PCOD8106098
_publ_section_title
;
Structure prediction by ZEFSAII (Michael W. Deem and Ramdas Pophale) SiO2 
 PCOD8106098
Probable space group: C 2/M
;
_chemical_formula_sum "Si O2"
_cell_formula_units_Z 56
_cell_length_a 10.154387
_cell_length_b 9.263538
_cell_length_c 33.320236
_cell_angle_alpha 90.000000
_cell_angle_beta 112.221667
_cell_angle_gamma 90.000000
_cell_volume 2901.495460
_symmetry_space_group_name_H-M "C 2/M"
_symmetry_group_IT_number 12
_symmetry_cell_setting 'monoclinic'
loop_
_space_group_symop_operation_xyz
x,y,z
-x,y,-z
-x,-y,-z
x,-y,z
1/2+x,1/2+y,z
1/2-x,1/2+y,-z
1/2-x,1/2-y,-z
1/2+x,1/2-y,z
loop_
_atom_site_type_symbol
_atom_site_label
_atom_site_fract_x
_atom_site_fract_y
_atom_site_fract_z
Si Si1 0.799017 0.834045 0.308361
Si Si2 0.684486 0.830135 0.833075
Si Si3 0.395191 0.331544 0.022572
Si Si4 0.491891 0.668005 0.122150
Si Si5 0.476854 0.170214 0.264948
Si Si6 0.418720 0.665154 0.408618
Si Si7 0.297003 0.169848 0.545297
O O1 0.640115 0.780818 0.279988
O O2 0.825116 0.809985 0.358343
O O3 0.910533 0.741368 0.296451
O O4 0.818989 0.000000 0.298324
O O5 0.619278 0.755381 0.864307
O O6 0.604624 0.775674 0.784044
O O7 0.848676 0.785217 0.847861
O O8 0.667413 0.000000 0.837329
O O9 0.363654 0.500000 0.015008
O O10 0.466456 0.292194 0.073035
O O11 0.500000 0.277417 0.000000
O O12 0.250000 0.250000 0.000000
O O13 0.467133 0.500000 0.127636
O O14 0.463937 0.000000 0.269170
O O15 0.472777 0.500000 0.417768
O O16 0.552198 0.771111 0.422498
O O17 0.320703 0.704280 0.434972
O O18 0.250000 0.250000 0.500000
O O19 0.310422 0.000000 0.538680
#
# Coordination Sequence:
#
# PCOD8106098 Si02
#       7
#     8   8   8   8   8   8   8
#     4  10  21  37  57  82 112 146 184 226 273 324
#     4  10  21  37  57  81 111 146 182 224 274 325
#     4  10  21  37  56  79 109 143 180 225 275 327
#     4  10  21  36  55  81 110 142 183 227 272 326
#     4  10  21  37  57  83 113 145 184 227 272 325
#     4  10  22  39  57  81 114 148 184 228 275 324
#     4  11  23  39  60  85 114 148 186 229 276 327
#
# _framework density 19.300391999999999
#
# number of rings (size 3 to 8) (size 9 to 14) (size 15 to 20)
#    0.000    1.857    0.000    3.429    0.000    8.286 
#    0.000    0.000    0.000    0.000    0.000    0.000 
#    0.000    0.000    0.000    0.000    0.000    0.000 
#
# Total GULP energy -347366.009072 kJ/mol
# GULP energy per Si atom -12405.928895 kJ/mol
# Density = 1.925646 g / cm^3
# Si number density = 19.300392 Si / 1000 Ang^3
#
#
#
# Elastic Constant Matrix: (Units=GPa)
#
#
# Indices 1 2 3 4 5 6 
#
# 1 95.2321 40.4491 19.6294 0.0000 0.1673 0.0000
# 2 40.4491 51.2374 25.4299 0.0000 -2.3699 0.0000
# 3 19.6294 25.4299 81.4193 0.0000 1.3863 0.0000
# 4 0.0000 0.0000 0.0000 32.2294 0.0000 -1.4296
# 5 0.1673 -2.3699 1.3863 0.0000 44.3805 0.0000
# 6 0.0000 0.0000 0.0000 -1.4296 0.0000 37.4643
#
#
#
# Elastic Compliance Matrix: (Units=1/GPa)
#
#
# Indices 1 2 3 4 5 6 
#
# 1 0.015822 -0.012590 0.000130 0.000000 -0.000736 0.000000
# 2 -0.012590 0.033210 -0.007372 0.000000 0.002051 0.000000
# 3 0.000130 -0.007372 0.014568 0.000000 -0.000849 0.000000
# 4 0.000000 0.000000 0.000000 0.031080 0.000000 0.001186
# 5 -0.000736 0.002051 -0.000849 0.000000 0.022671 0.000000
# 6 0.000000 0.000000 0.000000 0.001186 0.000000 0.026737
#
#
# Mechanical properties :
#
#
# Convention : Reuss Voigt Hill
#
# Bulk Modulus (GPa) = 41.77731 44.32288 43.05009
# Shear Modulus (GPa) = 26.07826 32.30687 29.19256
#
# Velocity S-wave (km/s) = 3.67982 4.09577 3.89335
# Velocity P-wave (km/s) = 6.30457 6.73659 6.52416
#
# Compressibility (1/GPa) = 0.02393644
#
# Stress axis : x y z
#
# Youngs Moduli (GPa) = 63.20132 30.11186 68.64467
#
# Poissons Ratio (x) = 0.37909 -0.00892
# Poissons Ratio (y) = 0.79567 0.50606
# Poissons Ratio (z) = -0.00822 0.22199
#
# Static dielectric constant tensor:
#      x y z
#    x 3.598250 0.000000 0.067020 
#    y 0.000000 3.504100 0.000000 
#    z 0.067020 0.000000 3.692360 
# 
# 
# High freq. dielectric constant tensor:
#      x y z
#    x 1.762430 0.000000 0.002230 
#    y 0.000000 1.744440 0.000000 
#    z 0.002230 0.000000 1.769570 
# 
# From -- ./inp_files/373629.got.cif
#   From: 2010.06.25/outbox.cif.g09.slc.cpg/sg12_187_cif.got.tgz:373629.got - 2010.06.28 00:19:55.
