data_PCOD8106422
_publ_section_title
;
Structure prediction by ZEFSAII (Michael W. Deem and Ramdas Pophale) SiO2 
 PCOD8106422
Probable space group: C 2/M
;
_chemical_formula_sum "Si O2"
_cell_formula_units_Z 64
_cell_length_a 19.499548
_cell_length_b 8.907273
_cell_length_c 30.418360
_cell_angle_alpha 90.000000
_cell_angle_beta 38.451112
_cell_angle_gamma 90.000000
_cell_volume 3285.401102
_symmetry_space_group_name_H-M "C 2/M"
_symmetry_group_IT_number 12
_symmetry_cell_setting 'monoclinic'
loop_
_space_group_symop_operation_xyz
x,y,z
-x,y,-z
-x,-y,-z
x,-y,z
1/2+x,1/2+y,z
1/2-x,1/2+y,-z
1/2-x,1/2-y,-z
1/2+x,1/2-y,z
loop_
_atom_site_type_symbol
_atom_site_label
_atom_site_fract_x
_atom_site_fract_y
_atom_site_fract_z
Si Si1 0.252204 0.670911 0.285770
Si Si2 0.960974 0.171875 0.634354
Si Si3 0.044090 0.322561 0.271045
Si Si4 0.664899 0.670685 0.657912
Si Si5 0.301195 0.327352 0.516602
Si Si6 0.669952 0.678865 0.004253
Si Si7 0.921300 0.178265 0.127691
Si Si8 0.278995 0.321752 0.119080
O O1 0.220369 0.500000 0.288948
O O2 0.144097 0.773037 0.340071
O O3 0.303582 0.679337 0.307559
O O4 0.340536 0.736133 0.206659
O O5 0.978703 0.273936 0.667921
O O6 0.066840 0.189441 0.549878
O O7 0.945155 0.000000 0.657021
O O8 0.036512 0.500000 0.271326
O O9 0.952447 0.250918 0.286029
O O10 0.162451 0.262124 0.195747
O O11 0.654298 0.500000 0.646585
O O12 0.757914 0.751149 0.582498
O O13 0.264046 0.500000 0.535119
O O14 0.250000 0.250000 0.500000
O O15 0.678813 0.500000 0.003133
O O16 0.703684 0.738155 0.938935
O O17 0.750000 0.750000 0.000000
O O18 0.544928 0.737013 0.074775
O O19 0.875374 0.236545 0.103556
O O20 0.924116 0.000000 0.126051
O O21 0.280623 0.500000 0.117944
#
# Coordination Sequence:
#
# PCOD8106422 Si02
#       8
#     8   8   8   8   8   8   8   8
#     4  10  22  40  61  86 118 157 199 241 295 356
#     4  11  23  39  61  89 118 149 195 250 297 350
#     4  11  21  36  61  87 117 156 199 246 295 352
#     4  11  24  39  58  88 122 154 198 247 295 354
#     4  11  23  39  61  86 117 156 197 245 299 354
#     4  10  21  36  58  87 119 154 191 238 291 343
#     4   9  17  35  61  84 110 151 198 240 282 338
#     4   9  18  34  59  88 112 147 202 244 279 341
#
# _framework density 19.480118999999998
#
# number of rings (size 3 to 8) (size 9 to 14) (size 15 to 20)
#    0.000    1.750    2.500    1.875    1.750    4.500 
#    0.000    3.750    0.000    0.750    0.000    0.000 
#    0.000    0.000    0.000    0.000    0.000    0.000 
#
# Total GULP energy -396862.197517 kJ/mol
# GULP energy per Si atom -12401.943672 kJ/mol
# Density = 1.943578 g / cm^3
# Si number density = 19.480119 Si / 1000 Ang^3
#
#
#
# Elastic Constant Matrix: (Units=GPa)
#
#
# Indices 1 2 3 4 5 6 
#
# 1 129.6489 41.3261 67.7865 -0.0075 -11.2514 0.0064
# 2 41.3261 75.1693 38.7386 -0.0038 -8.2947 0.0137
# 3 67.7865 38.7386 125.8897 -0.0034 -11.6537 -0.0010
# 4 -0.0075 -0.0038 -0.0034 22.0049 0.0038 -4.6311
# 5 -11.2514 -8.2947 -11.6537 0.0038 39.9351 -0.0046
# 6 0.0064 0.0137 -0.0010 -4.6311 -0.0046 31.3722
#
#
#
# Elastic Compliance Matrix: (Units=1/GPa)
#
#
# Indices 1 2 3 4 5 6 
#
# 1 0.011599 -0.003676 -0.005018 0.000002 0.001040 0.000000
# 2 -0.003676 0.017119 -0.003140 0.000000 0.001604 -0.000007
# 3 -0.005018 -0.003140 0.011738 0.000000 0.001359 0.000003
# 4 0.000002 0.000000 0.000000 0.046902 -0.000003 0.006924
# 5 0.001040 0.001604 0.001359 -0.000003 0.026063 0.000003
# 6 0.000000 -0.000007 0.000003 0.006924 0.000003 0.032897
#
#
# Mechanical properties :
#
#
# Convention : Reuss Voigt Hill
#
# Bulk Modulus (GPa) = 59.56783 69.60112 64.58447
# Shear Modulus (GPa) = 28.47667 30.85290 29.66478
#
# Velocity S-wave (km/s) = 3.82754 3.98403 3.90657
# Velocity P-wave (km/s) = 7.08368 7.54786 7.31945
#
# Compressibility (1/GPa) = 0.01678759
#
# Stress axis : x y z
#
# Youngs Moduli (GPa) = 86.21604 58.41296 85.19631
#
# Poissons Ratio (x) = 0.21472 0.42752
# Poissons Ratio (y) = 0.31692 0.26753
# Poissons Ratio (z) = 0.43264 0.18343
#
# Static dielectric constant tensor:
#      x y z
#    x 3.293030 -0.003130 1.248190 
#    y -0.003130 3.499390 0.014250 
#    z 1.248190 0.014250 -2.594100 
# 
# 
# High freq. dielectric constant tensor:
#      x y z
#    x 1.765130 0.000000 -0.005990 
#    y 0.000000 1.735660 0.000000 
#    z -0.005990 0.000000 1.772290 
# 
# From -- ./inp_files/378017.got.cif
#   From: 2010.06.25/outbox.cif.g09.slc.cpg/sg12_190_cif.got.tgz:378017.got - 2010.06.28 00:19:55.
