data_PCOD8106332
_publ_section_title
;
Structure prediction by ZEFSAII (Michael W. Deem and Ramdas Pophale) SiO2 
 PCOD8106332
Probable space group: C 2/M
;
_chemical_formula_sum "Si O2"
_cell_formula_units_Z 48
_cell_length_a 22.463817
_cell_length_b 9.130192
_cell_length_c 22.703253
_cell_angle_alpha 90.000000
_cell_angle_beta 30.789269
_cell_angle_gamma 90.000000
_cell_volume 2383.534230
_symmetry_space_group_name_H-M "C 2/M"
_symmetry_group_IT_number 12
_symmetry_cell_setting 'monoclinic'
loop_
_space_group_symop_operation_xyz
x,y,z
-x,y,-z
-x,-y,-z
x,-y,z
1/2+x,1/2+y,z
1/2-x,1/2+y,-z
1/2-x,1/2-y,-z
1/2+x,1/2-y,z
loop_
_atom_site_type_symbol
_atom_site_label
_atom_site_fract_x
_atom_site_fract_y
_atom_site_fract_z
Si Si1 0.334062 0.172033 0.758171
Si Si2 0.388042 0.328975 0.131221
Si Si3 0.413380 0.336417 0.329337
Si Si4 0.436488 0.330457 0.442520
Si Si5 0.812067 0.330723 0.309176
Si Si6 0.180144 0.834553 0.108132
O O1 0.229961 0.208451 0.802455
O O2 0.454514 0.233737 0.628329
O O3 0.304125 0.251698 0.843991
O O4 0.346581 0.000000 0.758878
O O5 0.402398 0.500000 0.131025
O O6 0.383440 0.252430 0.198395
O O7 0.500000 0.270322 0.000000
O O8 0.361805 0.500000 0.364831
O O9 0.397488 0.282485 0.410030
O O10 0.347727 0.224445 0.343163
O O11 0.548466 0.336006 0.198256
O O12 0.476737 0.500000 0.406604
O O13 0.327437 0.306452 0.578906
O O14 0.844161 0.500000 0.277337
O O15 0.227420 0.000000 0.075089
O O16 0.250000 0.750000 0.000000
#
# Coordination Sequence:
#
# PCOD8106332 Si02
#       6
#     8   8   8   8   8   8
#     4  10  21  38  61  86 112 150 200 245 287 344
#     4  10  24  44  61  80 114 158 198 240 294 351
#     4   9  19  36  57  83 119 158 190 229 289 350
#     4   9  20  39  60  87 122 155 187 237 301 351
#     4  11  23  37  59  90 119 152 197 243 291 346
#     4  10  21  36  57  85 118 155 192 237 292 345
#
# _framework density 20.138162999999999
#
# number of rings (size 3 to 8) (size 9 to 14) (size 15 to 20)
#    0.000    2.167    0.000    3.000    2.333    7.000 
#    0.000    3.333    0.000    0.000    0.000    0.000 
#    0.000    0.000    0.000    0.000    0.000    0.000 
#
# Total GULP energy -297644.804419 kJ/mol
# GULP energy per Si atom -12401.866851 kJ/mol
# Density = 2.009233 g / cm^3
# Si number density = 20.138163 Si / 1000 Ang^3
#
#
#
# Elastic Constant Matrix: (Units=GPa)
#
#
# Indices 1 2 3 4 5 6 
#
# 1 65.3071 41.3135 25.8886 0.0001 -11.9637 0.0000
# 2 41.3135 86.3650 39.3499 0.0007 -6.6891 -0.0003
# 3 25.8886 39.3499 109.8327 0.0008 3.3741 -0.0006
# 4 0.0001 0.0007 0.0008 35.9199 -0.0003 -1.1275
# 5 -11.9637 -6.6891 3.3741 -0.0003 17.0608 0.0002
# 6 0.0000 -0.0003 -0.0006 -1.1275 0.0002 29.8616
#
#
#
# Elastic Compliance Matrix: (Units=1/GPa)
#
#
# Indices 1 2 3 4 5 6 
#
# 1 0.025204 -0.009589 -0.002951 0.000000 0.014498 0.000000
# 2 -0.009589 0.018228 -0.004309 0.000000 0.001275 0.000000
# 3 -0.002951 -0.004309 0.011530 0.000000 -0.006039 0.000000
# 4 0.000000 0.000000 0.000000 0.027873 0.000001 0.001052
# 5 0.014498 0.001275 -0.006039 0.000001 0.070474 -0.000001
# 6 0.000000 0.000000 0.000000 0.001052 -0.000001 0.033528
#
#
# Mechanical properties :
#
#
# Convention : Reuss Voigt Hill
#
# Bulk Modulus (GPa) = 47.02996 52.73430 49.88213
# Shear Modulus (GPa) = 21.96612 26.89865 24.43238
#
# Velocity S-wave (km/s) = 3.30626 3.65870 3.48694
# Velocity P-wave (km/s) = 6.16275 6.64012 6.40588
#
# Compressibility (1/GPa) = 0.02126304
#
# Stress axis : x y z
#
# Youngs Moduli (GPa) = 39.67604 54.86017 86.73237
#
# Poissons Ratio (x) = 0.52608 0.25591
# Poissons Ratio (y) = 0.38047 0.37377
# Poissons Ratio (z) = 0.11707 0.23642
#
# Static dielectric constant tensor:
#      x y z
#    x 3.509530 0.000000 0.055380 
#    y 0.000000 3.675250 0.000000 
#    z 0.055380 0.000000 4.182760 
# 
# 
# High freq. dielectric constant tensor:
#      x y z
#    x 1.774300 0.000000 -0.001860 
#    y 0.000000 1.789170 0.000000 
#    z -0.001860 0.000000 1.796770 
# 
# From -- ./inp_files/172903.got.cif
#   From: 2010.06.25/outbox.cif.g09.slc.cpg/sg12_87_cif.got.tgz:172903.got - 2010.06.28 00:19:55.
