data_PCOD8106342
_publ_section_title
;
Structure prediction by ZEFSAII (Michael W. Deem and Ramdas Pophale) SiO2 
 PCOD8106342
Probable space group: C 2/M
;
_chemical_formula_sum "Si O2"
_cell_formula_units_Z 48
_cell_length_a 9.885594
_cell_length_b 9.877452
_cell_length_c 25.728339
_cell_angle_alpha 90.000000
_cell_angle_beta 86.548230
_cell_angle_gamma 90.000000
_cell_volume 2507.672685
_symmetry_space_group_name_H-M "C 2/M"
_symmetry_group_IT_number 12
_symmetry_cell_setting 'monoclinic'
loop_
_space_group_symop_operation_xyz
x,y,z
-x,y,-z
-x,-y,-z
x,-y,z
1/2+x,1/2+y,z
1/2-x,1/2+y,-z
1/2-x,1/2-y,-z
1/2+x,1/2-y,z
loop_
_atom_site_type_symbol
_atom_site_label
_atom_site_fract_x
_atom_site_fract_y
_atom_site_fract_z
Si Si1 0.284968 0.767103 0.377914
Si Si2 0.853773 0.844622 0.026924
Si Si3 0.311879 0.500000 0.549738
Si Si4 0.464097 0.156339 0.801730
Si Si5 0.173981 0.843798 0.853049
Si Si6 0.373529 0.500000 0.432785
Si Si7 0.551640 0.154576 0.316870
O O1 0.335138 0.628005 0.400019
O O2 0.396228 0.827001 0.336543
O O3 0.146945 0.750729 0.348828
O O4 0.260718 0.867890 0.426129
O O5 0.857707 0.805061 0.087109
O O6 0.808057 0.000000 0.020569
O O7 0.750000 0.750000 0.000000
O O8 0.000000 0.817561 0.000000
O O9 0.289466 0.500000 0.488398
O O10 0.468425 0.500000 0.560067
O O11 0.331717 0.184818 0.839192
O O12 0.585401 0.249934 0.818125
O O13 0.431096 0.195758 0.743372
O O14 0.509992 0.000000 0.804988
O O15 0.137865 0.000000 0.841880
O O16 0.596854 0.000000 0.324528
#
# Coordination Sequence:
#
# PCOD8106342 Si02
#       7
#     8   8   4   8   8   4   8
#     4  12  22  42  62  88 117 156 187 243 289 343
#     4  10  21  36  57  86 119 155 195 242 289 346
#     4  11  24  41  61  93 121 149 197 237 283 353
#     4  10  22  39  58  84 113 155 192 243 287 348
#     4  10  21  39  58  85 120 151 197 243 292 342
#     4  11  24  41  63  89 121 155 189 237 293 342
#     4  11  23  39  61  86 119 147 196 238 293 345
#
# _framework density 19.141254
#
# number of rings (size 3 to 8) (size 9 to 14) (size 15 to 20)
#    0.000    1.333    3.333    2.500    0.000    1.667 
#    3.000    0.833    0.000    0.000    0.000    0.000 
#    0.000    0.000    0.000    0.000    0.000    0.000 
#
# Total GULP energy -297749.592928 kJ/mol
# GULP energy per Si atom -12406.233039 kJ/mol
# Density = 1.909769 g / cm^3
# Si number density = 19.141254 Si / 1000 Ang^3
#
#
#
# Elastic Constant Matrix: (Units=GPa)
#
#
# Indices 1 2 3 4 5 6 
#
# 1 64.6656 19.5119 14.7879 0.0000 1.8296 0.0000
# 2 19.5119 72.7192 25.7399 0.0000 13.1654 0.0000
# 3 14.7879 25.7399 98.1964 0.0000 -11.0386 0.0000
# 4 0.0000 0.0000 0.0000 124.5567 0.0000 88.3989
# 5 1.8296 13.1654 -11.0386 0.0000 33.9020 0.0000
# 6 0.0000 0.0000 0.0000 88.3989 0.0000 119.4333
#
#
#
# Elastic Compliance Matrix: (Units=1/GPa)
#
#
# Indices 1 2 3 4 5 6 
#
# 1 0.017027 -0.004081 -0.001474 0.000000 0.000186 0.000000
# 2 -0.004081 0.018197 -0.005112 0.000000 -0.008511 0.000000
# 3 -0.001474 -0.005112 0.012433 0.000000 0.006113 0.000000
# 4 0.000000 0.000000 0.000000 0.016912 0.000000 -0.012518
# 5 0.000186 -0.008511 0.006113 0.000000 0.034782 0.000000
# 6 0.000000 0.000000 0.000000 -0.012518 0.000000 0.017638
#
#
# Mechanical properties :
#
#
# Convention : Reuss Voigt Hill
#
# Bulk Modulus (GPa) = 37.98832 39.51783 38.75308
# Shear Modulus (GPa) = 33.99123 67.28118 50.63620
#
# Velocity S-wave (km/s) = 4.21861 5.93516 5.14892
# Velocity P-wave (km/s) = 6.60441 8.22547 7.45911
#
# Compressibility (1/GPa) = 0.02632388
#
# Stress axis : x y z
#
# Youngs Moduli (GPa) = 58.72947 54.95482 80.43264
#
# Poissons Ratio (x) = 0.22426 0.11853
# Poissons Ratio (y) = 0.23966 0.41117
# Poissons Ratio (z) = 0.08655 0.28093
#
# Static dielectric constant tensor:
#      x y z
#    x 3.402270 0.000000 -0.130880 
#    y 0.000000 3.509060 0.000000 
#    z -0.130880 0.000000 3.676410 
# 
# 
# High freq. dielectric constant tensor:
#      x y z
#    x 1.745210 0.000000 -0.009380 
#    y 0.000000 1.750060 0.000000 
#    z -0.009380 0.000000 1.761790 
# 
# From -- ./inp_files/334794.got.cif
#   From: 2010.06.25/outbox.cif.g09.slc.cpg/sg12_168_cif.got.tgz:334794.got - 2010.06.28 00:19:55.
