data_PCOD8106936
_publ_section_title
;
Structure prediction by ZEFSAII (Michael W. Deem and Ramdas Pophale) SiO2 
 PCOD8106936
Probable space group: C 2/M
;
_chemical_formula_sum "Si O2"
_cell_formula_units_Z 48
_cell_length_a 18.656089
_cell_length_b 8.930127
_cell_length_c 31.604367
_cell_angle_alpha 90.000000
_cell_angle_beta 28.639239
_cell_angle_gamma 90.000000
_cell_volume 2523.634476
_symmetry_space_group_name_H-M "C 2/M"
_symmetry_group_IT_number 12
_symmetry_cell_setting 'monoclinic'
loop_
_space_group_symop_operation_xyz
x,y,z
-x,y,-z
-x,-y,-z
x,-y,z
1/2+x,1/2+y,z
1/2-x,1/2+y,-z
1/2-x,1/2-y,-z
1/2+x,1/2-y,z
loop_
_atom_site_type_symbol
_atom_site_label
_atom_site_fract_x
_atom_site_fract_y
_atom_site_fract_z
Si Si1 0.890652 0.678665 0.272307
Si Si2 0.419334 0.826228 0.586169
Si Si3 0.447937 0.326826 0.736327
Si Si4 0.907180 0.174612 0.427710
Si Si5 0.821320 0.667820 0.924212
Si Si6 0.166595 0.829207 0.917068
O O1 0.885378 0.500000 0.278224
O O2 0.737506 0.741806 0.333820
O O3 0.929645 0.740220 0.298743
O O4 0.019140 0.734394 0.173261
O O5 0.500000 0.803603 0.500000
O O6 0.520976 0.753836 0.569288
O O7 0.393002 0.000000 0.610069
O O8 0.456176 0.500000 0.744848
O O9 0.485242 0.301597 0.668044
O O10 0.280202 0.267304 0.830106
O O11 0.750000 0.250000 0.500000
O O12 0.883354 0.000000 0.449976
O O13 0.847551 0.500000 0.925684
O O14 0.706472 0.678804 0.945398
O O15 0.750000 0.750000 0.000000
O O16 0.173082 0.000000 0.896994
O O17 0.000000 0.762301 0.000000
#
# Coordination Sequence:
#
# PCOD8106936 Si02
#       6
#     8   8   8   8   8   8
#     4  10  21  38  59  83 112 147 187 229 277 332
#     4  11  24  40  59  85 114 145 185 230 275 328
#     4  10  21  37  57  83 113 145 186 232 276 327
#     4  11  24  40  59  85 115 147 185 228 275 330
#     4   9  19  34  53  79 109 142 181 225 272 325
#     4   9  19  36  56  79 108 144 187 230 274 327
#
# _framework density 19.020187
#
# number of rings (size 3 to 8) (size 9 to 14) (size 15 to 20)
#    0.000    2.000    0.000    4.000    0.000   13.000 
#    0.000    3.333    0.000    0.000    0.000    0.000 
#    0.000    0.000    0.000    0.000    0.000    0.000 
#
# Total GULP energy -297650.523660 kJ/mol
# GULP energy per Si atom -12402.105152 kJ/mol
# Density = 1.897690 g / cm^3
# Si number density = 19.020187 Si / 1000 Ang^3
#
#
#
# Elastic Constant Matrix: (Units=GPa)
#
#
# Indices 1 2 3 4 5 6 
#
# 1 113.5235 61.8621 64.0492 -0.0041 -14.8587 -0.0205
# 2 61.8621 113.4184 59.1212 0.0033 2.6240 -0.0084
# 3 64.0492 59.1212 105.6294 -0.0051 -12.3114 0.0022
# 4 -0.0041 0.0033 -0.0051 35.2221 -0.0001 -3.9898
# 5 -14.8587 2.6240 -12.3114 -0.0001 42.1271 0.0049
# 6 -0.0205 -0.0084 0.0022 -3.9898 0.0049 31.8458
#
#
#
# Elastic Compliance Matrix: (Units=1/GPa)
#
#
# Indices 1 2 3 4 5 6 
#
# 1 0.015751 -0.005595 -0.005933 0.000003 0.004170 0.000009
# 2 -0.005595 0.014791 -0.005408 -0.000003 -0.004475 0.000001
# 3 -0.005933 -0.005408 0.016447 0.000001 0.003051 -0.000007
# 4 0.000003 -0.000003 0.000001 0.028800 0.000001 0.003608
# 5 0.004170 -0.004475 0.003051 0.000001 0.026379 -0.000003
# 6 0.000009 0.000001 -0.000007 0.003608 -0.000003 0.031853
#
#
# Mechanical properties :
#
#
# Convention : Reuss Voigt Hill
#
# Bulk Modulus (GPa) = 76.23449 78.07071 77.15260
# Shear Modulus (GPa) = 29.02523 31.67493 30.35008
#
# Velocity S-wave (km/s) = 3.91067 4.08528 3.99893
# Velocity P-wave (km/s) = 7.78196 7.96166 7.87232
#
# Compressibility (1/GPa) = 0.01311742
#
# Stress axis : x y z
#
# Youngs Moduli (GPa) = 63.48935 67.60973 60.80153
#
# Poissons Ratio (x) = 0.37825 0.36075
# Poissons Ratio (y) = 0.35520 0.32879
# Poissons Ratio (z) = 0.37669 0.36561
#
# Static dielectric constant tensor:
#      x y z
#    x 3.337830 -0.000040 -0.018780 
#    y -0.000040 3.645180 0.000030 
#    z -0.018780 0.000030 3.650400 
# 
# 
# High freq. dielectric constant tensor:
#      x y z
#    x 1.739510 0.000000 -0.003920 
#    y 0.000000 1.747810 0.000000 
#    z -0.003920 0.000000 1.751380 
# 
# From -- ./inp_files/274043.got.cif
#   From: 2010.06.25/outbox.cif.g09.slc.cpg/sg12_138_cif.got.tgz:274043.got - 2010.06.28 00:19:55.
