data_PCOD8106560
_publ_section_title
;
Structure prediction by ZEFSAII (Michael W. Deem and Ramdas Pophale) SiO2 
 PCOD8106560
Probable space group: C 2/M
;
_chemical_formula_sum "Si O2"
_cell_formula_units_Z 36
_cell_length_a 24.797147
_cell_length_b 11.142839
_cell_length_c 8.722240
_cell_angle_alpha 90.000000
_cell_angle_beta 56.639421
_cell_angle_gamma 90.000000
_cell_volume 2012.935334
_symmetry_space_group_name_H-M "C 2/M"
_symmetry_group_IT_number 12
_symmetry_cell_setting 'monoclinic'
loop_
_space_group_symop_operation_xyz
x,y,z
-x,y,-z
-x,-y,-z
x,-y,z
1/2+x,1/2+y,z
1/2-x,1/2+y,-z
1/2-x,1/2-y,-z
1/2+x,1/2-y,z
loop_
_atom_site_type_symbol
_atom_site_label
_atom_site_fract_x
_atom_site_fract_y
_atom_site_fract_z
Si Si1 0.693231 0.000000 0.272813
Si Si2 0.889122 0.132982 0.534766
Si Si3 0.184646 0.305223 0.542485
Si Si4 0.282365 0.500000 0.846969
Si Si5 0.571698 0.000000 0.240861
Si Si6 0.839964 0.500000 0.179730
Si Si7 0.000000 0.705356 0.500000
O O1 0.698177 0.881917 0.368330
O O2 0.625707 0.000000 0.288908
O O3 0.753582 0.000000 0.061872
O O4 0.865095 0.198884 0.418657
O O5 0.827936 0.117481 0.748000
O O6 0.944380 0.209827 0.525409
O O7 0.915305 0.000000 0.448174
O O8 0.250000 0.250000 0.500000
O O9 0.153163 0.383413 0.725515
O O10 0.227412 0.500000 0.803934
O O11 0.527929 0.119139 0.323452
O O12 0.600329 0.000000 0.027680
#
# Coordination Sequence:
#
# PCOD8106560 Si02
#       7
#     4   8   8   4   4   4   4
#     4  10  21  36  60  91 117 146 196 246 297 331
#     4  10  21  37  58  84 116 158 194 231 286 344
#     4  11  20  36  59  88 123 154 180 239 307 353
#     4   9  20  36  57  94 112 146 199 240 288 339
#     4  10  22  38  63  92 107 152 202 245 284 332
#     4  10  21  37  60  93 119 142 192 248 301 341
#     4  11  21  40  62  82 115 155 200 240 278 341
#
# _framework density 17.884329999999999
#
# number of rings (size 3 to 8) (size 9 to 14) (size 15 to 20)
#    0.667    1.111    4.444    0.333    1.556    2.667 
#    0.000    2.222    0.000    1.333    0.000    0.000 
#    0.000    0.000    0.000    0.000    0.000    0.000 
#
# Total GULP energy -223142.951935 kJ/mol
# GULP energy per Si atom -12396.830663 kJ/mol
# Density = 1.784362 g / cm^3
# Si number density = 17.884330 Si / 1000 Ang^3
#
#
#
# Elastic Constant Matrix: (Units=GPa)
#
#
# Indices 1 2 3 4 5 6 
#
# 1 77.4430 54.2047 52.8913 0.0000 -5.5517 0.0000
# 2 54.2047 146.7568 64.6484 0.0000 -0.7627 0.0000
# 3 52.8913 64.6484 138.0802 0.0000 -1.6193 0.0000
# 4 0.0000 0.0000 0.0000 10.7600 0.0000 -0.9289
# 5 -5.5517 -0.7627 -1.6193 0.0000 27.0860 0.0000
# 6 0.0000 0.0000 0.0000 -0.9289 0.0000 49.6516
#
#
#
# Elastic Compliance Matrix: (Units=1/GPa)
#
#
# Indices 1 2 3 4 5 6 
#
# 1 0.020473 -0.005174 -0.005376 0.000000 0.003729 0.000000
# 2 -0.005174 0.009892 -0.002661 0.000000 -0.000941 0.000000
# 3 -0.005376 -0.002661 0.010541 0.000000 -0.000547 0.000000
# 4 0.000000 0.000000 0.000000 0.093087 0.000000 0.001741
# 5 0.003729 -0.000941 -0.000547 0.000000 0.037625 0.000000
# 6 0.000000 0.000000 0.000000 0.001741 0.000000 0.020173
#
#
# Mechanical properties :
#
#
# Convention : Reuss Voigt Hill
#
# Bulk Modulus (GPa) = 69.03848 78.41875 73.72862
# Shear Modulus (GPa) = 22.41743 30.20188 26.30966
#
# Velocity S-wave (km/s) = 3.54428 4.11388 3.83965
# Velocity P-wave (km/s) = 7.44552 8.15526 7.80846
#
# Compressibility (1/GPa) = 0.01448467
#
# Stress axis : x y z
#
# Youngs Moduli (GPa) = 48.84413 101.08957 94.87080
#
# Poissons Ratio (x) = 0.52306 0.51002
# Poissons Ratio (y) = 0.25273 0.25241
# Poissons Ratio (z) = 0.26258 0.26895
#
# Static dielectric constant tensor:
#      x y z
#    x 217.453670 0.000000 86.050170 
#    y 0.000000 4.081530 0.000000 
#    z 86.050170 0.000000 37.771590 
# 
# 
# High freq. dielectric constant tensor:
#      x y z
#    x 1.698330 0.000000 0.000800 
#    y 0.000000 1.707860 0.000000 
#    z 0.000800 0.000000 1.669510 
# 
# From -- ./inp_files/82793.got.cif
#   From: 2010.06.25/outbox.cif.g09.slc.cpg/sg12_42_cif.got.tgz:82793.got - 2010.06.28 00:19:55.
