data_PCOD8106113
_publ_section_title
;
Structure prediction by ZEFSAII (Michael W. Deem and Ramdas Pophale) SiO2 
 PCOD8106113
Probable space group: C 2/M
;
_chemical_formula_sum "Si O2"
_cell_formula_units_Z 56
_cell_length_a 20.185074
_cell_length_b 9.151453
_cell_length_c 28.746806
_cell_angle_alpha 90.000000
_cell_angle_beta 147.502871
_cell_angle_gamma 90.000000
_cell_volume 2852.938177
_symmetry_space_group_name_H-M "C 2/M"
_symmetry_group_IT_number 12
_symmetry_cell_setting 'monoclinic'
loop_
_space_group_symop_operation_xyz
x,y,z
-x,y,-z
-x,-y,-z
x,-y,z
1/2+x,1/2+y,z
1/2-x,1/2+y,-z
1/2-x,1/2-y,-z
1/2+x,1/2-y,z
loop_
_atom_site_type_symbol
_atom_site_label
_atom_site_fract_x
_atom_site_fract_y
_atom_site_fract_z
Si Si1 0.207126 0.331989 0.544639
Si Si2 0.437665 0.332468 0.615453
Si Si3 0.060451 0.172226 0.888609
Si Si4 0.141563 0.171516 0.593762
Si Si5 0.723339 0.830710 0.916296
Si Si6 0.175392 0.333496 0.784094
Si Si7 0.710354 0.668888 0.244338
O O1 0.173389 0.500000 0.533594
O O2 0.334716 0.313374 0.593577
O O3 0.095493 0.260125 0.449787
O O4 0.224224 0.248600 0.603319
O O5 0.451280 0.500000 0.607727
O O6 0.563294 0.276496 0.711539
O O7 0.105973 0.244685 0.867593
O O8 0.923820 0.228105 0.820262
O O9 0.060469 0.000000 0.881474
O O10 0.150977 0.220215 0.984165
O O11 0.183073 0.236682 0.667802
O O12 0.000000 0.210360 0.500000
O O13 0.166317 0.000000 0.607812
O O14 0.739304 0.796945 0.871127
O O15 0.698021 0.000000 0.910707
O O16 0.125352 0.500000 0.753928
O O17 0.275789 0.310438 0.802950
O O18 0.726792 0.500000 0.268307
#
# Coordination Sequence:
#
# PCOD8106113 Si02
#       7
#     8   8   8   8   8   8   8
#     4  10  21  37  57  80 107 146 190 234 283 336
#     4  10  21  36  55  81 113 145 185 234 284 336
#     4   9  19  37  59  84 115 148 188 235 283 339
#     4  11  24  39  56  80 112 150 191 236 285 335
#     4   9  19  36  59  86 114 148 188 234 286 337
#     4  10  21  36  56  83 114 150 189 233 283 336
#     4  10  22  38  57  83 115 152 193 236 284 339
#
# _framework density 19.628886999999999
#
# number of rings (size 3 to 8) (size 9 to 14) (size 15 to 20)
#    0.000    2.143    0.000    2.143    2.000    7.429 
#    0.000    2.857    0.000    0.000    0.000    6.000 
#    0.000    0.000    0.000    0.000    0.000    0.000 
#
# Total GULP energy -347317.966441 kJ/mol
# GULP energy per Si atom -12404.213087 kJ/mol
# Density = 1.958421 g / cm^3
# Si number density = 19.628887 Si / 1000 Ang^3
#
#
#
# Elastic Constant Matrix: (Units=GPa)
#
#
# Indices 1 2 3 4 5 6 
#
# 1 113.6031 50.6240 56.1719 0.0000 -15.1364 -0.0001
# 2 50.6240 75.7763 38.7595 0.0000 3.0796 0.0002
# 3 56.1719 38.7595 93.6426 0.0002 2.3205 0.0000
# 4 0.0000 0.0000 0.0002 28.0326 0.0000 1.2360
# 5 -15.1364 3.0796 2.3205 0.0000 32.1827 0.0000
# 6 -0.0001 0.0002 0.0000 1.2360 0.0000 26.8828
#
#
#
# Elastic Compliance Matrix: (Units=1/GPa)
#
#
# Indices 1 2 3 4 5 6 
#
# 1 0.017298 -0.008262 -0.007191 0.000000 0.009445 0.000000
# 2 -0.008262 0.020727 -0.003484 0.000000 -0.005618 0.000000
# 3 -0.007191 -0.003484 0.016539 0.000000 -0.004241 0.000000
# 4 0.000000 0.000000 0.000000 0.035745 0.000000 -0.001643
# 5 0.009445 -0.005618 -0.004241 0.000000 0.036358 0.000000
# 6 0.000000 0.000000 0.000000 -0.001643 0.000000 0.037274
#
#
# Mechanical properties :
#
#
# Convention : Reuss Voigt Hill
#
# Bulk Modulus (GPa) = 59.91200 63.79255 61.85228
# Shear Modulus (GPa) = 24.11044 26.58407 25.34726
#
# Velocity S-wave (km/s) = 3.50853 3.68412 3.59740
# Velocity P-wave (km/s) = 6.85578 7.11807 6.98815
#
# Compressibility (1/GPa) = 0.01669115
#
# Stress axis : x y z
#
# Youngs Moduli (GPa) = 57.80869 48.24680 60.46230
#
# Poissons Ratio (x) = 0.39863 0.43477
# Poissons Ratio (y) = 0.47764 0.21062
# Poissons Ratio (z) = 0.41569 0.16807
#
# Static dielectric constant tensor:
#      x y z
#    x 3.674060 0.000000 -0.073840 
#    y 0.000000 3.569740 0.000000 
#    z -0.073840 0.000000 3.530390 
# 
# 
# High freq. dielectric constant tensor:
#      x y z
#    x 1.773220 0.000000 -0.005650 
#    y 0.000000 1.763070 0.000000 
#    z -0.005650 0.000000 1.756990 
# 
# From -- ./inp_files/380740.got.cif
#   From: 2010.06.25/outbox.cif.g09.slc.cpg/sg12_191_cif.got.tgz:380740.got - 2010.06.28 00:19:55.
