data_PCOD8106604
_publ_section_title
;
Structure prediction by ZEFSAII (Michael W. Deem and Ramdas Pophale) SiO2 
 PCOD8106604
Probable space group: C 2/M
;
_chemical_formula_sum "Si O2"
_cell_formula_units_Z 44
_cell_length_a 23.125419
_cell_length_b 12.005478
_cell_length_c 10.899106
_cell_angle_alpha 90.000000
_cell_angle_beta 129.199800
_cell_angle_gamma 90.000000
_cell_volume 2344.940207
_symmetry_space_group_name_H-M "C 2/M"
_symmetry_group_IT_number 12
_symmetry_cell_setting 'monoclinic'
loop_
_space_group_symop_operation_xyz
x,y,z
-x,y,-z
-x,-y,-z
x,-y,z
1/2+x,1/2+y,z
1/2-x,1/2+y,-z
1/2-x,1/2-y,-z
1/2+x,1/2-y,z
loop_
_atom_site_type_symbol
_atom_site_label
_atom_site_fract_x
_atom_site_fract_y
_atom_site_fract_z
Si Si1 0.236514 0.284972 0.846232
Si Si2 0.633689 0.708555 0.365745
Si Si3 0.914434 0.000000 0.342655
Si Si4 0.083515 0.235002 0.559751
Si Si5 0.665985 0.500000 0.025302
Si Si6 0.217410 0.368420 0.312558
Si Si7 0.420211 0.500000 0.843321
O O1 0.148272 0.312594 0.704167
O O2 0.281144 0.396413 0.896714
O O3 0.270401 0.191593 0.801099
O O4 0.250000 0.250000 0.000000
O O5 0.584410 0.752389 0.414721
O O6 0.710650 0.650598 0.507346
O O7 0.647807 0.811558 0.291592
O O8 0.586061 0.611841 0.242543
O O9 0.883092 0.887927 0.361711
O O10 0.000000 0.000000 0.500000
O O11 0.893675 0.000000 0.168929
O O12 0.000000 0.258435 0.500000
O O13 0.630979 0.500000 0.109531
O O14 0.201620 0.500000 0.272612
O O15 0.500000 0.500000 0.000000
#
# Coordination Sequence:
#
# PCOD8106604 Si02
#       7
#     8   8   4   8   4   8   4
#     4  11  23  37  62  92 123 164 206 259 308 365
#     4  10  21  38  59  92 119 160 207 253 308 374
#     4  10  21  36  61  89 126 160 194 249 314 374
#     4  10  22  38  61  88 122 164 209 250 310 375
#     4  12  24  42  59  97 132 153 211 264 303 368
#     4  10  21  39  65  87 121 161 209 254 307 376
#     4  12  25  36  60  95 129 157 195 264 321 362
#
# _framework density 18.763804
#
# number of rings (size 3 to 8) (size 9 to 14) (size 15 to 20)
#    0.000    1.455    4.545    0.545   10.182    0.000 
#    0.000    0.455    0.000    0.545    0.000    0.000 
#    0.000    0.000    0.000    0.000    0.000    0.000 
#
# Total GULP energy -272568.755917 kJ/mol
# GULP energy per Si atom -12389.488905 kJ/mol
# Density = 1.872110 g / cm^3
# Si number density = 18.763804 Si / 1000 Ang^3
#
#
#
# Elastic Constant Matrix: (Units=GPa)
#
#
# Indices 1 2 3 4 5 6 
#
# 1 144.6084 41.2464 61.5324 0.0000 -7.9977 0.0000
# 2 41.2464 112.3058 50.8860 0.0000 -1.5391 0.0000
# 3 61.5324 50.8860 130.1062 0.0000 -5.7031 0.0000
# 4 0.0000 0.0000 0.0000 26.2914 0.0000 -9.2419
# 5 -7.9977 -1.5391 -5.7031 0.0000 31.9628 0.0000
# 6 0.0000 0.0000 0.0000 -9.2419 0.0000 21.5768
#
#
#
# Elastic Compliance Matrix: (Units=1/GPa)
#
#
# Indices 1 2 3 4 5 6 
#
# 1 0.008978 -0.001681 -0.003521 0.000000 0.001537 0.000000
# 2 -0.001681 0.011138 -0.003584 0.000000 -0.000524 0.000000
# 3 -0.003521 -0.003584 0.010792 0.000000 0.000872 0.000000
# 4 0.000000 0.000000 0.000000 0.044777 0.000000 0.019179
# 5 0.001537 -0.000524 0.000872 0.000000 0.031801 0.000000
# 6 0.000000 0.000000 0.000000 0.019179 0.000000 0.054561
#
#
# Mechanical properties :
#
#
# Convention : Reuss Voigt Hill
#
# Bulk Modulus (GPa) = 74.99070 77.15001 76.07036
# Shear Modulus (GPa) = 27.16424 31.52323 29.34374
#
# Velocity S-wave (km/s) = 3.80898 4.10323 3.95884
# Velocity P-wave (km/s) = 7.70694 7.97837 7.84383
#
# Compressibility (1/GPa) = 0.01333499
#
# Stress axis : x y z
#
# Youngs Moduli (GPa) = 111.38345 89.77873 92.66528
#
# Poissons Ratio (x) = 0.15090 0.32630
# Poissons Ratio (y) = 0.18721 0.33215
# Poissons Ratio (z) = 0.39221 0.32181
#
# Static dielectric constant tensor:
#      x y z
#    x 3.617170 0.000000 -0.129320 
#    y 0.000000 3.665810 0.000000 
#    z -0.129320 0.000000 3.564770 
# 
# 
# High freq. dielectric constant tensor:
#      x y z
#    x 1.740380 0.000000 -0.014520 
#    y 0.000000 1.717740 0.000000 
#    z -0.014520 0.000000 1.726910 
# 
# From -- ./inp_files/175437.got.cif
#   From: 2010.06.25/outbox.cif.g09.slc.cpg/sg12_88_cif.got.tgz:175437.got - 2010.06.28 00:19:55.
