data_PCOD8106960
_publ_section_title
;
Structure prediction by ZEFSAII (Michael W. Deem and Ramdas Pophale) SiO2 
 PCOD8106960
Probable space group: C 2/M
;
_chemical_formula_sum "Si O2"
_cell_formula_units_Z 64
_cell_length_a 29.353640
_cell_length_b 8.751696
_cell_length_c 14.488393
_cell_angle_alpha 90.000000
_cell_angle_beta 61.020221
_cell_angle_gamma 90.000000
_cell_volume 3255.956460
_symmetry_space_group_name_H-M "C 2/M"
_symmetry_group_IT_number 12
_symmetry_cell_setting 'monoclinic'
loop_
_space_group_symop_operation_xyz
x,y,z
-x,y,-z
-x,-y,-z
x,-y,z
1/2+x,1/2+y,z
1/2-x,1/2+y,-z
1/2-x,1/2-y,-z
1/2+x,1/2-y,z
loop_
_atom_site_type_symbol
_atom_site_label
_atom_site_fract_x
_atom_site_fract_y
_atom_site_fract_z
Si Si1 0.112073 0.175048 0.496183
Si Si2 0.418085 0.824604 0.837695
Si Si3 0.882005 0.321289 0.216247
Si Si4 0.249615 0.820146 0.101876
Si Si5 0.645857 0.321273 0.940802
Si Si6 0.037194 0.321602 0.708014
Si Si7 0.852546 0.324941 0.722642
Si Si8 0.195033 0.176428 0.572173
O O1 0.060014 0.228891 0.599314
O O2 0.120627 0.277686 0.398557
O O3 0.161344 0.197993 0.513682
O O4 0.105193 0.000000 0.473065
O O5 0.477836 0.772225 0.780132
O O6 0.396210 0.801886 0.757080
O O7 0.412280 0.000000 0.876389
O O8 0.386226 0.715684 0.936138
O O9 0.878009 0.500000 0.201008
O O10 0.887471 0.234874 0.113958
O O11 0.932349 0.279244 0.228031
O O12 0.829990 0.265838 0.318011
O O13 0.298475 0.761862 0.112737
O O14 0.197535 0.778326 0.207845
O O15 0.253669 0.000000 0.086808
O O16 0.250000 0.750000 0.000000
O O17 0.655845 0.500000 0.925242
O O18 0.042899 0.500000 0.679638
O O19 0.834053 0.500000 0.735649
O O20 0.250000 0.250000 0.500000
O O21 0.200707 0.000000 0.594324
#
# Coordination Sequence:
#
# PCOD8106960 Si02
#       8
#     8   8   8   8   8   8   8   8
#     4  10  22  39  59  86 122 159 198 249 304 356
#     4  10  22  41  64  89 119 157 205 255 301 356
#     4  10  21  39  62  87 119 156 199 250 303 358
#     4  12  24  41  63  88 123 160 200 248 302 357
#     4  12  25  40  61  90 123 161 203 246 301 364
#     4   9  20  41  66  89 117 158 204 252 305 358
#     4  11  23  39  62  90 122 161 204 248 298 357
#     4  10  21  37  57  83 116 154 199 246 299 361
#
# _framework density 19.656282000000001
#
# number of rings (size 3 to 8) (size 9 to 14) (size 15 to 20)
#    0.000    1.500    1.250    3.750    1.750    4.000 
#    0.000    5.000    0.000    0.000    0.000    0.000 
#    0.000    0.000    0.000    0.000    0.000    0.000 
#
# Total GULP energy -397016.032060 kJ/mol
# GULP energy per Si atom -12406.751002 kJ/mol
# Density = 1.961154 g / cm^3
# Si number density = 19.656282 Si / 1000 Ang^3
#
#
#
# Elastic Constant Matrix: (Units=GPa)
#
#
# Indices 1 2 3 4 5 6 
#
# 1 95.5875 45.7519 46.1888 0.0000 -11.3365 0.0000
# 2 45.7519 119.6550 41.8134 0.0000 4.0551 0.0000
# 3 46.1888 41.8134 65.5040 0.0000 9.7397 0.0000
# 4 0.0000 0.0000 0.0000 38.9808 0.0000 1.9923
# 5 -11.3365 4.0551 9.7397 0.0000 38.2507 0.0000
# 6 0.0000 0.0000 0.0000 1.9923 0.0000 28.1100
#
#
#
# Elastic Compliance Matrix: (Units=1/GPa)
#
#
# Indices 1 2 3 4 5 6 
#
# 1 0.019408 -0.003177 -0.013056 0.000000 0.009413 0.000000
# 2 -0.003177 0.011292 -0.004832 0.000000 -0.000908 0.000000
# 3 -0.013056 -0.004832 0.029161 0.000000 -0.010782 0.000000
# 4 0.000000 0.000000 0.000000 0.025747 0.000000 -0.001825
# 5 0.009413 -0.000908 -0.010782 0.000000 0.031775 0.000000
# 6 0.000000 0.000000 0.000000 -0.001825 0.000000 0.035704
#
#
# Mechanical properties :
#
#
# Convention : Reuss Voigt Hill
#
# Bulk Modulus (GPa) = 56.40865 60.91719 58.66292
# Shear Modulus (GPa) = 24.85983 30.86780 27.86381
#
# Velocity S-wave (km/s) = 3.56016 3.96710 3.76912
# Velocity P-wave (km/s) = 6.75718 7.21404 6.98934
#
# Compressibility (1/GPa) = 0.01772778
#
# Stress axis : x y z
#
# Youngs Moduli (GPa) = 51.52565 88.56044 34.29273
#
# Poissons Ratio (x) = 0.28138 0.44774
# Poissons Ratio (y) = 0.16371 0.16572
# Poissons Ratio (z) = 0.67274 0.42796
#
# Static dielectric constant tensor:
#      x y z
#    x 3.790910 0.000000 0.001450 
#    y 0.000000 3.690940 0.000000 
#    z 0.001450 0.000000 3.535900 
# 
# 
# High freq. dielectric constant tensor:
#      x y z
#    x 1.770930 0.000000 0.001810 
#    y 0.000000 1.775680 0.000000 
#    z 0.001810 0.000000 1.769090 
# 
# From -- ./inp_files/249669.got.cif
#   From: 2010.06.25/outbox.cif.g09.slc.cpg/sg12_125_cif.got.tgz:249669.got - 2010.06.28 00:19:55.
