data_PCOD8106096
_publ_section_title
;
Structure prediction by ZEFSAII (Michael W. Deem and Ramdas Pophale) SiO2 
 PCOD8106096
Probable space group: C 2/M
;
_chemical_formula_sum "Si O2"
_cell_formula_units_Z 64
_cell_length_a 29.447637
_cell_length_b 9.258386
_cell_length_c 25.018849
_cell_angle_alpha 90.000000
_cell_angle_beta 151.101109
_cell_angle_gamma 90.000000
_cell_volume 3296.391585
_symmetry_space_group_name_H-M "C 2/M"
_symmetry_group_IT_number 12
_symmetry_cell_setting 'monoclinic'
loop_
_space_group_symop_operation_xyz
x,y,z
-x,y,-z
-x,-y,-z
x,-y,z
1/2+x,1/2+y,z
1/2-x,1/2+y,-z
1/2-x,1/2-y,-z
1/2+x,1/2-y,z
loop_
_atom_site_type_symbol
_atom_site_label
_atom_site_fract_x
_atom_site_fract_y
_atom_site_fract_z
Si Si1 0.985133 0.336757 0.260238
Si Si2 0.917178 0.331538 0.308298
Si Si3 0.358875 0.666207 0.738205
Si Si4 0.546562 0.330931 0.876116
Si Si5 0.709482 0.669488 0.124850
Si Si6 0.780975 0.330327 0.759725
Si Si7 0.336448 0.837971 0.500543
Si Si8 0.586170 0.666879 0.515057
O O1 0.955711 0.500000 0.216641
O O2 0.099933 0.320650 0.380511
O O3 0.942566 0.289582 0.273571
O O4 0.941459 0.238043 0.169631
O O5 0.928353 0.500000 0.329942
O O6 0.811772 0.279686 0.210833
O O7 0.988880 0.253524 0.423811
O O8 0.372931 0.500000 0.770587
O O9 0.453583 0.729199 0.809850
O O10 0.333474 0.758715 0.763873
O O11 0.275839 0.678092 0.607622
O O12 0.536776 0.500000 0.857186
O O13 0.637322 0.289606 0.003892
O O14 0.706168 0.500000 0.134872
O O15 0.678708 0.757873 0.145373
O O16 0.803360 0.500000 0.782037
O O17 0.667913 0.301549 0.642752
O O18 0.368991 0.713212 0.494599
O O19 0.357957 0.000000 0.498995
O O20 0.559111 0.500000 0.485821
#
# Coordination Sequence:
#
# PCOD8106096 Si02
#       8
#     8   8   8   8   8   8   8   8
#     4   9  18  33  53  77 105 136 171 214 263 311
#     4   9  19  36  56  77 104 140 177 210 253 314
#     4   9  18  35  57  78 105 141 175 210 256 310
#     4  10  22  37  53  77 105 136 181 225 256 298
#     4  10  22  39  55  73 102 141 183 220 254 303
#     4  10  21  36  55  81 109 135 168 214 266 314
#     4   8  15  30  52  77 105 137 171 205 250 316
#     4   9  17  30  51  80 109 132 161 210 265 312
#
# _framework density 19.415168999999999
#
# number of rings (size 3 to 8) (size 9 to 14) (size 15 to 20)
#    0.000    2.750    0.000    1.500    0.000    7.000 
#    0.000    5.000    0.000    0.000    0.000    0.000 
#    0.000    0.000    0.000    0.000    0.000    0.000 
#
# Total GULP energy -396609.770188 kJ/mol
# GULP energy per Si atom -12394.055318 kJ/mol
# Density = 1.937098 g / cm^3
# Si number density = 19.415169 Si / 1000 Ang^3
#
#
#
# Elastic Constant Matrix: (Units=GPa)
#
#
# Indices 1 2 3 4 5 6 
#
# 1 43.7666 16.2355 13.7763 0.0000 -0.8624 0.0000
# 2 16.2355 48.8262 24.8557 0.0000 -10.2425 0.0000
# 3 13.7763 24.8557 72.2897 0.0000 -2.9588 0.0000
# 4 0.0000 0.0000 0.0000 30.0624 0.0000 -6.2267
# 5 -0.8624 -10.2425 -2.9588 0.0000 34.6979 0.0000
# 6 0.0000 0.0000 0.0000 -6.2267 0.0000 18.5184
#
#
#
# Elastic Compliance Matrix: (Units=1/GPa)
#
#
# Indices 1 2 3 4 5 6 
#
# 1 0.026532 -0.008011 -0.002380 0.000000 -0.001908 0.000000
# 2 -0.008011 0.028861 -0.008084 0.000000 0.007631 0.000000
# 3 -0.002380 -0.008084 0.017026 0.000000 -0.000994 0.000000
# 4 0.000000 0.000000 0.000000 0.035754 0.000000 0.012022
# 5 -0.001908 0.007631 -0.000994 0.000000 0.030941 0.000000
# 6 0.000000 0.000000 0.000000 0.012022 0.000000 0.058043
#
#
# Mechanical properties :
#
#
# Convention : Reuss Voigt Hill
#
# Bulk Modulus (GPa) = 28.19452 30.51306 29.35379
# Shear Modulus (GPa) = 20.33109 23.99008 22.16059
#
# Velocity S-wave (km/s) = 3.23952 3.51898 3.38214
# Velocity P-wave (km/s) = 5.34285 5.67989 5.51395
#
# Compressibility (1/GPa) = 0.03546789
#
# Stress axis : x y z
#
# Youngs Moduli (GPa) = 37.69078 34.64905 58.73460
#
# Poissons Ratio (x) = 0.27758 0.13978
# Poissons Ratio (y) = 0.30194 0.47483
# Poissons Ratio (z) = 0.08970 0.28011
#
# Static dielectric constant tensor:
#      x y z
#    x 3.246630 0.000000 0.182240 
#    y 0.000000 3.422590 0.000000 
#    z 0.182240 0.000000 3.775200 
# 
# 
# High freq. dielectric constant tensor:
#      x y z
#    x 1.730800 0.000000 0.008300 
#    y 0.000000 1.749030 0.000000 
#    z 0.008300 0.000000 1.762810 
# 
# From -- ./inp_files/353484.got.cif
#   From: 2010.06.25/outbox.cif.g09.slc.cpg/sg12_177_cif.got.tgz:353484.got - 2010.06.28 00:19:55.
