data_PCOD8106943
_publ_section_title
;
Structure prediction by ZEFSAII (Michael W. Deem and Ramdas Pophale) SiO2 
 PCOD8106943
Probable space group: C 2/M
;
_chemical_formula_sum "Si O2"
_cell_formula_units_Z 56
_cell_length_a 23.790649
_cell_length_b 9.125886
_cell_length_c 15.772109
_cell_angle_alpha 90.000000
_cell_angle_beta 121.497094
_cell_angle_gamma 90.000000
_cell_volume 2919.781703
_symmetry_space_group_name_H-M "C 2/M"
_symmetry_group_IT_number 12
_symmetry_cell_setting 'monoclinic'
loop_
_space_group_symop_operation_xyz
x,y,z
-x,y,-z
-x,-y,-z
x,-y,z
1/2+x,1/2+y,z
1/2-x,1/2+y,-z
1/2-x,1/2-y,-z
1/2+x,1/2-y,z
loop_
_atom_site_type_symbol
_atom_site_label
_atom_site_fract_x
_atom_site_fract_y
_atom_site_fract_z
Si Si1 0.153539 0.170071 0.468415
Si Si2 0.447776 0.826648 0.026709
Si Si3 0.469909 0.829656 0.567247
Si Si4 0.567620 0.172216 0.795593
Si Si5 0.812742 0.327765 0.846999
Si Si6 0.793562 0.827098 0.104627
Si Si7 0.797723 0.670970 0.648342
O O1 0.096705 0.237939 0.480944
O O2 0.153647 0.245462 0.376657
O O3 0.221745 0.202966 0.569018
O O4 0.140165 0.000000 0.445427
O O5 0.463751 0.784767 0.137259
O O6 0.448364 0.000000 0.017455
O O7 0.500000 0.759457 0.000000
O O8 0.375104 0.762754 0.947793
O O9 0.500000 0.791026 0.500000
O O10 0.517926 0.782273 0.681820
O O11 0.452599 0.000000 0.560924
O O12 0.634136 0.261096 0.832792
O O13 0.584459 0.000000 0.806063
O O14 0.821986 0.500000 0.847439
O O15 0.743385 0.291584 0.836405
O O16 0.812166 0.262527 0.752141
O O17 0.797241 0.000000 0.089190
O O18 0.750000 0.750000 0.000000
O O19 0.814287 0.500000 0.654191
#
# Coordination Sequence:
#
# PCOD8106943 Si02
#       7
#     8   8   8   8   8   8   8
#     4  10  21  37  57  83 114 146 188 237 286 340
#     4   9  17  30  53  83 109 138 181 227 270 326
#     4  10  23  40  58  82 114 154 196 237 285 342
#     4  10  21  38  58  82 111 147 191 235 281 336
#     4   9  18  32  54  82 109 141 186 229 271 334
#     4  11  21  36  58  83 115 148 185 230 278 332
#     4   9  19  36  59  83 109 146 188 233 285 338
#
# _framework density 19.179516
#
# number of rings (size 3 to 8) (size 9 to 14) (size 15 to 20)
#    0.000    2.286    1.429    0.857    4.000    1.429 
#    0.000    1.429    0.000    0.429    0.000    0.000 
#    0.000    0.000    0.000    0.000    0.000    0.000 
#
# Total GULP energy -347167.152436 kJ/mol
# GULP energy per Si atom -12398.826873 kJ/mol
# Density = 1.913586 g / cm^3
# Si number density = 19.179516 Si / 1000 Ang^3
#
#
#
# Elastic Constant Matrix: (Units=GPa)
#
#
# Indices 1 2 3 4 5 6 
#
# 1 132.4683 42.3249 50.8735 0.0000 -12.3337 0.0000
# 2 42.3249 51.2741 28.6230 0.0000 -0.1195 0.0000
# 3 50.8735 28.6230 121.2224 0.0000 -26.8556 0.0000
# 4 0.0000 0.0000 0.0000 17.2806 0.0000 2.8148
# 5 -12.3337 -0.1195 -26.8556 0.0000 29.4528 0.0000
# 6 0.0000 0.0000 0.0000 2.8148 0.0000 34.6337
#
#
#
# Elastic Compliance Matrix: (Units=1/GPa)
#
#
# Indices 1 2 3 4 5 6 
#
# 1 0.011206 -0.007998 -0.002233 0.000000 0.002624 0.000000
# 2 -0.007998 0.029035 -0.005282 0.000000 -0.008048 0.000000
# 3 -0.002233 -0.005282 0.012809 0.000000 0.010723 0.000000
# 4 0.000000 0.000000 0.000000 0.058645 0.000000 -0.004766
# 5 0.002624 -0.008048 0.010723 0.000000 0.044796 0.000000
# 6 0.000000 0.000000 0.000000 -0.004766 0.000000 0.029261
#
#
# Mechanical properties :
#
#
# Convention : Reuss Voigt Hill
#
# Bulk Modulus (GPa) = 45.40440 60.95639 53.18040
# Shear Modulus (GPa) = 22.30948 28.48296 25.39622
#
# Velocity S-wave (km/s) = 3.41426 3.85784 3.64281
# Velocity P-wave (km/s) = 6.26639 7.18992 6.74398
#
# Compressibility (1/GPa) = 0.02202430
#
# Stress axis : x y z
#
# Youngs Moduli (GPa) = 89.23590 34.44157 78.06785
#
# Poissons Ratio (x) = 0.27545 0.17434
# Poissons Ratio (y) = 0.71367 0.41237
# Poissons Ratio (z) = 0.19928 0.18193
#
# Static dielectric constant tensor:
#      x y z
#    x 3.949790 0.000000 -0.071880 
#    y 0.000000 3.244560 0.000000 
#    z -0.071880 0.000000 3.794470 
# 
# 
# High freq. dielectric constant tensor:
#      x y z
#    x 1.757610 0.000000 -0.007830 
#    y 0.000000 1.711630 0.000000 
#    z -0.007830 0.000000 1.754240 
# 
# From -- ./inp_files/238878.got.cif
#   From: 2010.06.25/outbox.cif.g09.slc.cpg/sg12_120_cif.got.tgz:238878.got - 2010.06.28 00:19:55.
