data_PCOD8106679
_publ_section_title
;
Structure prediction by ZEFSAII (Michael W. Deem and Ramdas Pophale) SiO2 
 PCOD8106679
Probable space group: C 2/M
;
_chemical_formula_sum "Si O2"
_cell_formula_units_Z 64
_cell_length_a 19.853717
_cell_length_b 9.575845
_cell_length_c 23.508960
_cell_angle_alpha 90.000000
_cell_angle_beta 122.314201
_cell_angle_gamma 90.000000
_cell_volume 3777.248385
_symmetry_space_group_name_H-M "C 2/M"
_symmetry_group_IT_number 12
_symmetry_cell_setting 'monoclinic'
loop_
_space_group_symop_operation_xyz
x,y,z
-x,y,-z
-x,-y,-z
x,-y,z
1/2+x,1/2+y,z
1/2-x,1/2+y,-z
1/2-x,1/2-y,-z
1/2+x,1/2-y,z
loop_
_atom_site_type_symbol
_atom_site_label
_atom_site_fract_x
_atom_site_fract_y
_atom_site_fract_z
Si Si1 0.001100 0.839903 0.677644
Si Si2 0.327959 0.834702 0.050674
Si Si3 0.553758 0.340499 0.469399
Si Si4 0.079483 0.345742 0.798470
Si Si5 0.418858 0.155194 0.797826
Si Si6 0.790981 0.663561 0.468784
Si Si7 0.516692 0.833575 0.945006
Si Si8 0.653129 0.341773 0.321699
O O1 0.999802 0.805776 0.610066
O O2 0.914277 0.798611 0.662961
O O3 0.071886 0.754619 0.740424
O O4 0.020976 0.000000 0.698463
O O5 0.352046 0.796842 0.126601
O O6 0.397508 0.783436 0.039159
O O7 0.313035 0.000000 0.037740
O O8 0.250000 0.750000 0.000000
O O9 0.500000 0.322458 0.500000
O O10 0.586926 0.500000 0.479240
O O11 0.623896 0.229144 0.506281
O O12 0.099446 0.500000 0.784385
O O13 0.997185 0.348245 0.794973
O O14 0.444985 0.216928 0.871069
O O15 0.352026 0.250324 0.737957
O O16 0.382745 0.000000 0.787628
O O17 0.798671 0.500000 0.489310
O O18 0.750000 0.750000 0.500000
O O19 0.738915 0.680649 0.388445
O O20 0.515961 0.000000 0.944647
O O21 0.500000 0.771281 0.000000
O O22 0.640094 0.500000 0.296525
#
# Coordination Sequence:
#
# PCOD8106679 Si02
#       8
#     8   8   8   8   8   8   8   8
#     4   9  16  29  48  71  95 122 158 198 243 288
#     4   9  17  29  47  71  97 123 155 197 239 281
#     4  10  21  37  54  73 102 134 165 207 254 298
#     4   8  15  27  43  67  94 120 155 197 237 278
#     4   8  14  25  44  70  93 118 156 196 235 280
#     4  11  21  34  53  77 103 130 167 208 250 298
#     4   8  14  27  48  71  95 123 157 197 234 274
#     4   9  17  29  46  70  99 124 152 199 246 284
#
# _framework density 16.943549999999998
#
# number of rings (size 3 to 8) (size 9 to 14) (size 15 to 20)
#    0.000    3.000    1.250    1.875    0.000    2.250 
#    0.000    1.875    2.750    1.500    0.000    0.000 
#    0.000    0.000    0.000    0.000    0.000    0.000 
#
# Total GULP energy -396637.640213 kJ/mol
# GULP energy per Si atom -12394.926257 kJ/mol
# Density = 1.690499 g / cm^3
# Si number density = 16.943550 Si / 1000 Ang^3
#
#
#
# Elastic Constant Matrix: (Units=GPa)
#
#
# Indices 1 2 3 4 5 6 
#
# 1 53.2855 39.1717 52.4010 0.0000 -2.5216 0.0000
# 2 39.1717 86.2177 75.8651 0.0000 5.2409 0.0000
# 3 52.4010 75.8651 158.2616 0.0000 -3.8928 0.0000
# 4 0.0000 0.0000 0.0000 33.2229 0.0000 6.6947
# 5 -2.5216 5.2409 -3.8928 0.0000 25.0198 0.0000
# 6 0.0000 0.0000 0.0000 6.6947 0.0000 19.4288
#
#
#
# Elastic Compliance Matrix: (Units=1/GPa)
#
#
# Indices 1 2 3 4 5 6 
#
# 1 0.031710 -0.009551 -0.005815 0.000000 0.004292 0.000000
# 2 -0.009551 0.023786 -0.008419 0.000000 -0.007255 0.000000
# 3 -0.005815 -0.008419 0.012356 0.000000 0.003100 0.000000
# 4 0.000000 0.000000 0.000000 0.032346 0.000000 -0.011146
# 5 0.004292 -0.007255 0.003100 0.000000 0.042403 0.000000
# 6 0.000000 0.000000 0.000000 -0.011146 0.000000 0.055310
#
#
# Mechanical properties :
#
#
# Convention : Reuss Voigt Hill
#
# Bulk Modulus (GPa) = 49.30252 70.29339 59.79795
# Shear Modulus (GPa) = 19.82230 24.22278 22.02254
#
# Velocity S-wave (km/s) = 3.42409 3.78513 3.60913
# Velocity P-wave (km/s) = 6.69282 7.78972 7.26201
#
# Compressibility (1/GPa) = 0.02028294
#
# Stress axis : x y z
#
# Youngs Moduli (GPa) = 31.53611 42.04079 80.93225
#
# Poissons Ratio (x) = 0.40151 0.47066
# Poissons Ratio (y) = 0.30119 0.68134
# Poissons Ratio (z) = 0.18340 0.35393
#
# Static dielectric constant tensor:
#      x y z
#    x -5.381840 0.000000 -3.970140 
#    y 0.000000 3.237740 0.000000 
#    z -3.970140 0.000000 1.650070 
# 
# 
# High freq. dielectric constant tensor:
#      x y z
#    x 1.606830 0.000000 0.000150 
#    y 0.000000 1.643110 0.000000 
#    z 0.000150 0.000000 1.668190 
# 
# From -- ./inp_files/345595.got.cif
#   From: 2010.06.25/outbox.cif.g09.slc.cpg/sg12_173_cif.got.tgz:345595.got - 2010.06.28 00:19:55.
