data_PCOD8106005
_publ_section_title
;
Structure prediction by ZEFSAII (Michael W. Deem and Ramdas Pophale) SiO2 
 PCOD8106005
Probable space group: C 2/M
;
_chemical_formula_sum "Si O2"
_cell_formula_units_Z 40
_cell_length_a 10.067213
_cell_length_b 9.570956
_cell_length_c 22.176429
_cell_angle_alpha 90.000000
_cell_angle_beta 84.193565
_cell_angle_gamma 90.000000
_cell_volume 2125.799223
_symmetry_space_group_name_H-M "C 2/M"
_symmetry_group_IT_number 12
_symmetry_cell_setting 'monoclinic'
loop_
_space_group_symop_operation_xyz
x,y,z
-x,y,-z
-x,-y,-z
x,-y,z
1/2+x,1/2+y,z
1/2-x,1/2+y,-z
1/2-x,1/2-y,-z
1/2+x,1/2-y,z
loop_
_atom_site_type_symbol
_atom_site_label
_atom_site_fract_x
_atom_site_fract_y
_atom_site_fract_z
Si Si1 0.785925 0.161764 0.731807
Si Si2 0.983125 0.337739 0.931547
Si Si3 0.073566 0.162749 0.671237
Si Si4 0.729253 0.338389 0.129074
Si Si5 0.629872 0.662569 0.531648
O O1 0.664890 0.251786 0.712361
O O2 0.807446 0.197781 0.800683
O O3 0.919895 0.201730 0.690025
O O4 0.748500 0.000000 0.724627
O O5 0.946949 0.500000 0.926822
O O6 0.116768 0.299702 0.889059
O O7 0.861154 0.251531 0.910721
O O8 0.000000 0.294563 0.000000
O O9 0.106856 0.205377 0.601651
O O10 0.098917 0.000000 0.682341
O O11 0.702876 0.500000 0.115242
O O12 0.500000 0.702935 0.500000
O O13 0.664301 0.500000 0.523285
O O14 0.750000 0.750000 0.500000
#
# Coordination Sequence:
#
# PCOD8106005 Si02
#       5
#     8   8   8   8   8
#     4  10  21  37  56  79 108 140 176 220 266 313
#     4  10  21  36  54  79 110 142 178 220 265 314
#     4  10  21  36  55  80 107 138 177 217 262 316
#     4  10  21  36  55  80 107 139 180 220 263 316
#     4  10  21  37  56  79 108 140 175 217 263 312
#
# _framework density 18.816452999999999
#
# number of rings (size 3 to 8) (size 9 to 14) (size 15 to 20)
#    0.000    2.000    0.000    3.000    0.000    5.600 
#    0.000    0.000    0.000    0.000    0.000    0.000 
#    0.000    0.000    0.000    0.000    0.000    0.000 
#
# Total GULP energy -248117.229336 kJ/mol
# GULP energy per Si atom -12405.861467 kJ/mol
# Density = 1.877363 g / cm^3
# Si number density = 18.816453 Si / 1000 Ang^3
#
#
#
# Elastic Constant Matrix: (Units=GPa)
#
#
# Indices 1 2 3 4 5 6 
#
# 1 67.2124 40.8937 25.7336 0.0000 6.7833 0.0000
# 2 40.8937 54.5511 32.1292 0.0000 11.8325 0.0000
# 3 25.7336 32.1292 78.4217 0.0000 -5.2868 0.0000
# 4 0.0000 0.0000 0.0000 29.8043 0.0000 4.1451
# 5 6.7833 11.8325 -5.2868 0.0000 40.2713 0.0000
# 6 0.0000 0.0000 0.0000 4.1451 0.0000 14.8460
#
#
#
# Elastic Compliance Matrix: (Units=1/GPa)
#
#
# Indices 1 2 3 4 5 6 
#
# 1 0.027454 -0.020594 -0.000480 0.000000 0.001364 0.000000
# 2 -0.020594 0.042862 -0.011520 0.000000 -0.010637 0.000000
# 3 -0.000480 -0.011520 0.018022 0.000000 0.005831 0.000000
# 4 0.000000 0.000000 0.000000 0.034908 0.000000 -0.009746
# 5 0.001364 -0.010637 0.005831 0.000000 0.028493 0.000000
# 6 0.000000 0.000000 0.000000 -0.009746 0.000000 0.070079
#
#
# Mechanical properties :
#
#
# Convention : Reuss Voigt Hill
#
# Bulk Modulus (GPa) = 43.19502 44.18870 43.69186
# Shear Modulus (GPa) = 16.96522 23.74624 20.35573
#
# Velocity S-wave (km/s) = 3.00595 3.55631 3.29265
# Velocity P-wave (km/s) = 5.92060 6.35595 6.14213
#
# Compressibility (1/GPa) = 0.02315082
#
# Stress axis : x y z
#
# Youngs Moduli (GPa) = 36.42439 23.33094 55.48881
#
# Poissons Ratio (x) = 0.48048 0.02662
# Poissons Ratio (y) = 0.75012 0.63921
# Poissons Ratio (z) = 0.01747 0.26876
#
# Static dielectric constant tensor:
#      x y z
#    x 3.392220 0.000000 -0.163580 
#    y 0.000000 3.389060 0.000000 
#    z -0.163580 0.000000 3.624030 
# 
# 
# High freq. dielectric constant tensor:
#      x y z
#    x 1.739340 0.000000 -0.006930 
#    y 0.000000 1.725420 0.000000 
#    z -0.006930 0.000000 1.749400 
# 
# From -- ./inp_files/254603.got.cif
#   From: 2010.06.25/outbox.cif.g09.slc.cpg/sg12_128_cif.got.tgz:254603.got - 2010.06.28 00:19:55.
