data_PCOD8106940
_publ_section_title
;
Structure prediction by ZEFSAII (Michael W. Deem and Ramdas Pophale) SiO2 
 PCOD8106940
Probable space group: C 2/M
;
_chemical_formula_sum "Si O2"
_cell_formula_units_Z 40
_cell_length_a 14.354320
_cell_length_b 8.682127
_cell_length_c 26.065477
_cell_angle_alpha 90.000000
_cell_angle_beta 142.182539
_cell_angle_gamma 90.000000
_cell_volume 1991.772024
_symmetry_space_group_name_H-M "C 2/M"
_symmetry_group_IT_number 12
_symmetry_cell_setting 'monoclinic'
loop_
_space_group_symop_operation_xyz
x,y,z
-x,y,-z
-x,-y,-z
x,-y,z
1/2+x,1/2+y,z
1/2-x,1/2+y,-z
1/2-x,1/2-y,-z
1/2+x,1/2-y,z
loop_
_atom_site_type_symbol
_atom_site_label
_atom_site_fract_x
_atom_site_fract_y
_atom_site_fract_z
Si Si1 0.436779 0.322076 0.631848
Si Si2 0.253293 0.175519 0.919686
Si Si3 0.231921 0.678008 0.803407
Si Si4 0.977418 0.323733 0.107317
Si Si5 0.879451 0.820780 0.490249
O O1 0.466438 0.500000 0.656789
O O2 0.560957 0.221101 0.714742
O O3 0.273489 0.276358 0.583731
O O4 0.448012 0.287230 0.576158
O O5 0.262956 0.289402 0.876344
O O6 0.104428 0.213802 0.887871
O O7 0.241239 0.000000 0.894837
O O8 0.403899 0.199266 0.019205
O O9 0.261054 0.500000 0.805164
O O10 0.346723 0.776762 0.818412
O O11 0.962185 0.500000 0.118958
O O12 0.000000 0.766204 0.500000
O O13 0.839179 0.000000 0.466219
#
# Coordination Sequence:
#
# PCOD8106940 Si02
#       5
#     8   8   8   8   8
#     4  10  21  37  57  83 114 144 182 231 279 334
#     4  10  21  38  59  83 112 148 192 238 285 339
#     4  12  24  37  56  82 116 154 192 236 283 331
#     4  10  21  38  59  83 113 149 190 236 286 340
#     4   9  19  38  62  84 109 143 180 222 278 340
#
# _framework density 20.082619999999999
#
# number of rings (size 3 to 8) (size 9 to 14) (size 15 to 20)
#    0.000    1.800    0.000    4.200    0.000    7.600 
#    0.000    6.000    0.000    0.000    0.000    0.000 
#    0.000    0.000    0.000    0.000    0.000    0.000 
#
# Total GULP energy -248125.031126 kJ/mol
# GULP energy per Si atom -12406.251556 kJ/mol
# Density = 2.003691 g / cm^3
# Si number density = 20.082620 Si / 1000 Ang^3
#
#
#
# Elastic Constant Matrix: (Units=GPa)
#
#
# Indices 1 2 3 4 5 6 
#
# 1 84.7941 22.4938 29.6196 0.0000 16.8241 0.0000
# 2 22.4938 80.1893 34.2890 0.0000 2.5725 0.0000
# 3 29.6196 34.2890 65.0824 0.0000 19.8887 0.0000
# 4 0.0000 0.0000 0.0000 30.3940 0.0000 2.8349
# 5 16.8241 2.5725 19.8887 0.0000 18.7045 0.0000
# 6 0.0000 0.0000 0.0000 2.8349 0.0000 32.8823
#
#
#
# Elastic Compliance Matrix: (Units=1/GPa)
#
#
# Indices 1 2 3 4 5 6 
#
# 1 0.015598 -0.003207 -0.001861 0.000000 -0.011609 0.000000
# 2 -0.003207 0.018150 -0.012179 0.000000 0.013338 0.000000
# 3 -0.001861 -0.012179 0.032005 0.000000 -0.030682 0.000000
# 4 0.000000 0.000000 0.000000 0.033168 0.000000 -0.002859
# 5 -0.011609 0.013338 -0.030682 0.000000 0.094695 0.000000
# 6 0.000000 0.000000 0.000000 -0.002859 0.000000 0.030658
#
#
# Mechanical properties :
#
#
# Convention : Reuss Voigt Hill
#
# Bulk Modulus (GPa) = 31.99173 44.76341 38.37757
# Shear Modulus (GPa) = 18.57442 25.97371 22.27406
#
# Velocity S-wave (km/s) = 3.04452 3.60021 3.33396
# Velocity P-wave (km/s) = 5.32197 6.29444 5.82853
#
# Compressibility (1/GPa) = 0.03125808
#
# Stress axis : x y z
#
# Youngs Moduli (GPa) = 64.11241 55.09675 31.24523
#
# Poissons Ratio (x) = 0.17669 0.05816
# Poissons Ratio (y) = 0.20561 0.38053
# Poissons Ratio (z) = 0.11933 0.67102
#
# Static dielectric constant tensor:
#      x y z
#    x 3.640020 0.000000 0.067360 
#    y 0.000000 3.622040 0.000000 
#    z 0.067360 0.000000 3.552260 
# 
# 
# High freq. dielectric constant tensor:
#      x y z
#    x 1.785370 0.000000 0.009990 
#    y 0.000000 1.790350 0.000000 
#    z 0.009990 0.000000 1.778450 
# 
# From -- ./inp_files/211209.got.cif
#   From: 2010.06.25/outbox.cif.g09.slc.cpg/sg12_106_cif.got.tgz:211209.got - 2010.06.28 00:19:55.
