data_PCOD8106174
_publ_section_title
;
Structure prediction by ZEFSAII (Michael W. Deem and Ramdas Pophale) SiO2 
 PCOD8106174
Probable space group: C 2/M
;
_chemical_formula_sum "Si O2"
_cell_formula_units_Z 40
_cell_length_a 15.291548
_cell_length_b 18.013907
_cell_length_c 7.486221
_cell_angle_alpha 90.000000
_cell_angle_beta 97.280991
_cell_angle_gamma 90.000000
_cell_volume 2045.530233
_symmetry_space_group_name_H-M "C 2/M"
_symmetry_group_IT_number 12
_symmetry_cell_setting 'monoclinic'
loop_
_space_group_symop_operation_xyz
x,y,z
-x,y,-z
-x,-y,-z
x,-y,z
1/2+x,1/2+y,z
1/2-x,1/2+y,-z
1/2-x,1/2-y,-z
1/2+x,1/2-y,z
loop_
_atom_site_type_symbol
_atom_site_label
_atom_site_fract_x
_atom_site_fract_y
_atom_site_fract_z
Si Si1 0.764054 0.585324 0.481777
Si Si2 0.061488 0.081249 0.346089
Si Si3 0.688718 0.815006 0.196467
Si Si4 0.839825 0.695471 0.219562
Si Si5 0.482509 0.736498 0.794836
O O1 0.790379 0.500000 0.470916
O O2 0.660906 0.599140 0.427312
O O3 0.788904 0.610781 0.688526
O O4 0.819763 0.628184 0.346290
O O5 0.000000 0.078372 0.500000
O O6 0.024854 0.147226 0.214358
O O7 0.057019 0.000000 0.247890
O O8 0.771708 0.761388 0.228645
O O9 0.609122 0.774935 0.283182
O O10 0.665605 0.834957 0.985584
O O11 0.935663 0.729995 0.295982
O O12 0.500000 0.758964 0.000000
#
# Coordination Sequence:
#
# PCOD8106174 Si02
#       5
#     8   8   8   8   8
#     4  11  23  39  60  86 119 158 193 235 295 346
#     4  10  21  36  55  86 121 149 184 235 296 354
#     4  10  21  38  59  87 117 153 197 241 286 337
#     4  10  21  38  61  87 116 152 199 241 282 344
#     4  10  21  36  59  87 113 150 194 239 289 339
#
# _framework density 19.554831
#
# number of rings (size 3 to 8) (size 9 to 14) (size 15 to 20)
#    0.000    1.800    2.000    1.800    2.800    1.200 
#    0.000    2.000    0.000    3.600    0.000    0.000 
#    0.000    0.000    0.000    0.000    0.000    0.000 
#
# Total GULP energy -247929.850639 kJ/mol
# GULP energy per Si atom -12396.492532 kJ/mol
# Density = 1.951032 g / cm^3
# Si number density = 19.554831 Si / 1000 Ang^3
#
#
#
# Elastic Constant Matrix: (Units=GPa)
#
#
# Indices 1 2 3 4 5 6 
#
# 1 141.1359 51.9987 29.9600 0.0000 -17.4839 0.0000
# 2 51.9987 129.1094 51.0697 0.0000 -5.4704 0.0000
# 3 29.9600 51.0697 69.1776 0.0000 -8.7359 0.0000
# 4 0.0000 0.0000 0.0000 28.8132 0.0000 2.0964
# 5 -17.4839 -5.4704 -8.7359 0.0000 17.6680 0.0000
# 6 0.0000 0.0000 0.0000 2.0964 0.0000 33.4410
#
#
#
# Elastic Compliance Matrix: (Units=1/GPa)
#
#
# Indices 1 2 3 4 5 6 
#
# 1 0.009388 -0.003154 -0.000733 0.000000 0.007951 0.000000
# 2 -0.003154 0.012007 -0.007917 0.000000 -0.003318 0.000000
# 3 -0.000733 -0.007917 0.021563 0.000000 0.007485 0.000000
# 4 0.000000 0.000000 0.000000 0.034865 0.000000 -0.002186
# 5 0.007951 -0.003318 0.007485 0.000000 0.067141 0.000000
# 6 0.000000 0.000000 0.000000 -0.002186 0.000000 0.030040
#
#
# Mechanical properties :
#
#
# Convention : Reuss Voigt Hill
#
# Bulk Modulus (GPa) = 51.68188 67.27551 59.47870
# Shear Modulus (GPa) = 24.38280 29.74407 27.06344
#
# Velocity S-wave (km/s) = 3.53497 3.90431 3.72422
# Velocity P-wave (km/s) = 6.56871 7.40291 6.99825
#
# Compressibility (1/GPa) = 0.01934914
#
# Stress axis : x y z
#
# Youngs Moduli (GPa) = 106.51811 83.28755 46.37616
#
# Poissons Ratio (x) = 0.26270 0.03401
# Poissons Ratio (y) = 0.33597 0.36715
# Poissons Ratio (z) = 0.07811 0.65937
#
# Static dielectric constant tensor:
#      x y z
#    x 4.043770 0.000000 -0.066230 
#    y 0.000000 3.670890 0.000000 
#    z -0.066230 0.000000 3.457600 
# 
# 
# High freq. dielectric constant tensor:
#      x y z
#    x 1.779160 0.000000 -0.006680 
#    y 0.000000 1.752660 0.000000 
#    z -0.006680 0.000000 1.752440 
# 
# From -- ./inp_files/62233.got.cif
#   From: 2010.06.25/outbox.cif.g09.slc.cpg/sg12_32_cif.got.tgz:62233.got - 2010.06.28 00:19:55.
