data_PCOD8106099
_publ_section_title
;
Structure prediction by ZEFSAII (Michael W. Deem and Ramdas Pophale) SiO2 
 PCOD8106099
Probable space group: C 2/M
;
_chemical_formula_sum "Si O2"
_cell_formula_units_Z 64
_cell_length_a 14.661521
_cell_length_b 8.692015
_cell_length_c 33.863244
_cell_angle_alpha 90.000000
_cell_angle_beta 130.333847
_cell_angle_gamma 90.000000
_cell_volume 3289.622479
_symmetry_space_group_name_H-M "C 2/M"
_symmetry_group_IT_number 12
_symmetry_cell_setting 'monoclinic'
loop_
_space_group_symop_operation_xyz
x,y,z
-x,y,-z
-x,-y,-z
x,-y,z
1/2+x,1/2+y,z
1/2-x,1/2+y,-z
1/2-x,1/2-y,-z
1/2+x,1/2-y,z
loop_
_atom_site_type_symbol
_atom_site_label
_atom_site_fract_x
_atom_site_fract_y
_atom_site_fract_z
Si Si1 0.977775 0.677626 0.313768
Si Si2 0.164045 0.822004 0.877858
Si Si3 0.867857 0.179927 0.576198
Si Si4 0.962851 0.321739 0.872192
Si Si5 0.793098 0.177382 0.766057
Si Si6 0.403519 0.181926 0.504588
Si Si7 0.507721 0.675231 0.240697
Si Si8 0.087675 0.177359 0.060349
O O1 0.000331 0.500000 0.330090
O O2 0.840766 0.725934 0.282558
O O3 0.060208 0.780889 0.364404
O O4 0.009779 0.707756 0.277357
O O5 0.069716 0.781433 0.885349
O O6 0.278407 0.715144 0.915892
O O7 0.106368 0.790021 0.818864
O O8 0.199870 0.000000 0.892269
O O9 0.730904 0.237266 0.544062
O O10 0.932008 0.258912 0.556650
O O11 0.869446 0.000000 0.568901
O O12 0.992457 0.500000 0.874161
O O13 0.839198 0.280311 0.815353
O O14 0.949249 0.287568 0.914368
O O15 0.871385 0.206934 0.749329
O O16 0.800460 0.000000 0.781678
O O17 0.500000 0.249196 0.500000
O O18 0.413752 0.000000 0.507747
O O19 0.503557 0.500000 0.254952
O O20 0.079499 0.000000 0.071098
O O21 0.000000 0.214502 0.000000
#
# Coordination Sequence:
#
# PCOD8106099 Si02
#       8
#     8   8   8   8   8   8   8   8
#     4  11  22  35  54  80 113 149 181 221 271 323
#     4  10  21  39  62  85 112 147 187 232 279 334
#     4  10  21  36  55  81 111 141 178 226 272 318
#     4  11  22  37  60  86 113 147 185 229 281 337
#     4   9  20  38  57  78 109 149 187 223 268 326
#     4   9  19  38  61  80 103 141 184 223 269 325
#     4   9  19  36  56  79 107 141 181 222 267 319
#     4  11  24  40  58  82 112 146 186 233 284 337
#
# _framework density 19.455120000000001
#
# number of rings (size 3 to 8) (size 9 to 14) (size 15 to 20)
#    0.000    2.000    0.000    4.125    0.000    8.750 
#    0.000    5.000    0.000    0.000    0.000    0.000 
#    0.000    0.000    0.000    0.000    0.000    0.000 
#
# Total GULP energy -396938.452598 kJ/mol
# GULP energy per Si atom -12404.326644 kJ/mol
# Density = 1.941084 g / cm^3
# Si number density = 19.455120 Si / 1000 Ang^3
#
#
#
# Elastic Constant Matrix: (Units=GPa)
#
#
# Indices 1 2 3 4 5 6 
#
# 1 106.1590 24.8895 48.9083 0.0000 3.9742 0.0000
# 2 24.8895 40.3152 38.7688 0.0000 -10.0075 0.0000
# 3 48.9083 38.7688 83.8759 0.0000 28.5412 0.0000
# 4 0.0000 0.0000 0.0000 28.3515 0.0000 -5.8600
# 5 3.9742 -10.0075 28.5412 0.0000 -3.3213 0.0000
# 6 0.0000 0.0000 0.0000 -5.8600 0.0000 30.0438
#
#
#
# Elastic Compliance Matrix: (Units=1/GPa)
#
#
# Indices 1 2 3 4 5 6 
#
# 1 0.012458 -0.004857 -0.003841 0.000000 -0.003463 0.000000
# 2 -0.004857 0.017594 0.003750 0.000000 -0.026597 0.000000
# 3 -0.003841 0.003750 0.004546 0.000000 0.023166 0.000000
# 4 0.000000 0.000000 0.000000 0.036753 0.000000 0.007169
# 5 -0.003463 -0.026597 0.023166 0.000000 -0.026016 0.000000
# 6 0.000000 0.000000 0.000000 0.007169 0.000000 0.034683
#
#
# Mechanical properties :
#
#
# Convention : Reuss Voigt Hill
#
# Bulk Modulus (GPa) = 40.48154 50.60925 45.54539
# Shear Modulus (GPa) = 50.94408 18.86704 34.90556
#
# Velocity S-wave (km/s) = 5.12272 3.11750 4.24035
# Velocity P-wave (km/s) = 7.47279 6.24725 6.88733
#
# Compressibility (1/GPa) = 0.02470262
#
# Stress axis : x y z
#
# Youngs Moduli (GPa) = 80.27153 56.83624 219.99251
#
# Poissons Ratio (x) = 0.27607 0.84493
# Poissons Ratio (y) = 0.38990 -0.82506
# Poissons Ratio (z) = 0.30830 -0.21316
#
# Static dielectric constant tensor:
#      x y z
#    x 3.665550 0.000000 0.110930 
#    y 0.000000 3.519900 0.000000 
#    z 0.110930 0.000000 3.465370 
# 
# 
# High freq. dielectric constant tensor:
#      x y z
#    x 1.764810 0.000000 0.001370 
#    y 0.000000 1.758180 0.000000 
#    z 0.001370 0.000000 1.751890 
# 
# From -- ./inp_files/375553.got.cif
#   From: 2010.06.25/outbox.cif.g09.slc.cpg/sg12_188_cif.got.tgz:375553.got - 2010.06.28 00:19:55.
