data_PCOD8106201
_publ_section_title
;
Structure prediction by ZEFSAII (Michael W. Deem and Ramdas Pophale) SiO2 
 PCOD8106201
Probable space group: C 2/M
;
_chemical_formula_sum "Si O2"
_cell_formula_units_Z 48
_cell_length_a 30.367570
_cell_length_b 8.790598
_cell_length_c 9.385580
_cell_angle_alpha 90.000000
_cell_angle_beta 89.721803
_cell_angle_gamma 90.000000
_cell_volume 2505.442601
_symmetry_space_group_name_H-M "C 2/M"
_symmetry_group_IT_number 12
_symmetry_cell_setting 'monoclinic'
loop_
_space_group_symop_operation_xyz
x,y,z
-x,y,-z
-x,-y,-z
x,-y,z
1/2+x,1/2+y,z
1/2-x,1/2+y,-z
1/2-x,1/2-y,-z
1/2+x,1/2-y,z
loop_
_atom_site_type_symbol
_atom_site_label
_atom_site_fract_x
_atom_site_fract_y
_atom_site_fract_z
Si Si1 0.788407 0.679482 0.408090
Si Si2 0.040766 0.679431 0.089083
Si Si3 0.384441 0.673509 0.087655
Si Si4 0.120629 0.179072 0.588645
Si Si5 0.044178 0.677247 0.413233
Si Si6 0.715571 0.676109 0.895515
O O1 0.787030 0.500000 0.420677
O O2 0.750000 0.750000 0.500000
O O3 0.835202 0.738764 0.465356
O O4 0.780774 0.729896 0.247799
O O5 0.037354 0.500000 0.086698
O O6 0.037948 0.736409 0.251952
O O7 0.086813 0.726003 0.018806
O O8 0.000000 0.750132 0.000000
O O9 0.400110 0.500000 0.073692
O O10 0.391049 0.731127 0.250049
O O11 0.333685 0.691382 0.040915
O O12 0.082121 0.223273 0.482807
O O13 0.129450 0.000000 0.586150
O O14 0.057235 0.500000 0.418800
O O15 0.000000 0.709474 0.500000
O O16 0.727063 0.500000 0.866722
O O17 0.750000 0.750000 0.000000
#
# Coordination Sequence:
#
# PCOD8106201 Si02
#       6
#     8   8   8   8   8   8
#     4  11  22  38  60  85 114 150 190 235 287 340
#     4  10  21  36  56  82 109 141 183 228 274 328
#     4   9  20  37  56  79 109 144 182 226 274 327
#     4  10  21  38  58  82 112 146 187 232 281 338
#     4  10  21  37  57  82 112 147 188 232 280 335
#     4  10  21  38  58  84 116 151 192 234 281 338
#
# _framework density 19.158290999999998
#
# number of rings (size 3 to 8) (size 9 to 14) (size 15 to 20)
#    0.000    2.000    0.000    4.500    0.000    8.000 
#    0.000    3.333    0.000    0.000    0.000    0.000 
#    0.000    0.000    0.000    0.000    0.000    0.000 
#
# Total GULP energy -297672.140529 kJ/mol
# GULP energy per Si atom -12403.005855 kJ/mol
# Density = 1.911469 g / cm^3
# Si number density = 19.158291 Si / 1000 Ang^3
#
#
#
# Elastic Constant Matrix: (Units=GPa)
#
#
# Indices 1 2 3 4 5 6 
#
# 1 122.6263 47.7546 73.2445 0.0000 1.8658 0.0000
# 2 47.7546 85.9599 40.5080 0.0000 0.4880 0.0000
# 3 73.2445 40.5080 117.4407 0.0000 0.9706 0.0000
# 4 0.0000 0.0000 0.0000 32.4989 0.0000 0.0869
# 5 1.8658 0.4880 0.9706 0.0000 40.7974 0.0000
# 6 0.0000 0.0000 0.0000 0.0869 0.0000 37.3141
#
#
#
# Elastic Compliance Matrix: (Units=1/GPa)
#
#
# Indices 1 2 3 4 5 6 
#
# 1 0.014310 -0.004470 -0.007379 0.000000 -0.000425 0.000000
# 2 -0.004470 0.015288 -0.002486 0.000000 0.000081 0.000000
# 3 -0.007379 -0.002486 0.013974 0.000000 0.000035 0.000000
# 4 0.000000 0.000000 0.000000 0.030770 0.000000 -0.000072
# 5 -0.000425 0.000081 0.000035 0.000000 0.024529 0.000000
# 6 0.000000 0.000000 0.000000 -0.000072 0.000000 0.026800
#
#
# Mechanical properties :
#
#
# Convention : Reuss Voigt Hill
#
# Bulk Modulus (GPa) = 67.10772 72.11568 69.61170
# Shear Modulus (GPa) = 31.38573 33.09007 32.23790
#
# Velocity S-wave (km/s) = 4.05190 4.16046 4.10654
# Velocity P-wave (km/s) = 7.54948 7.79763 7.67455
#
# Compressibility (1/GPa) = 0.01490141
#
# Stress axis : x y z
#
# Youngs Moduli (GPa) = 69.88290 65.41268 71.55946
#
# Poissons Ratio (x) = 0.29238 0.52806
# Poissons Ratio (y) = 0.31236 0.17790
# Poissons Ratio (z) = 0.51569 0.16262
#
# Static dielectric constant tensor:
#      x y z
#    x 3.599480 0.000000 0.027720 
#    y 0.000000 3.463160 0.000000 
#    z 0.027720 0.000000 3.569920 
# 
# 
# High freq. dielectric constant tensor:
#      x y z
#    x 1.756060 0.000000 0.001560 
#    y 0.000000 1.746240 0.000000 
#    z 0.001560 0.000000 1.745880 
# 
# From -- ./inp_files/108721.got.cif
#   From: 2010.06.25/outbox.cif.g09.slc.cpg/sg12_55_cif.got.tgz:108721.got - 2010.06.28 00:19:55.
