data_PCOD8106275
_publ_section_title
;
Structure prediction by ZEFSAII (Michael W. Deem and Ramdas Pophale) SiO2 
 PCOD8106275
Probable space group: C 2/M
;
_chemical_formula_sum "Si O2"
_cell_formula_units_Z 36
_cell_length_a 9.628575
_cell_length_b 26.618338
_cell_length_c 10.983233
_cell_angle_alpha 90.000000
_cell_angle_beta 38.811077
_cell_angle_gamma 90.000000
_cell_volume 1764.292506
_symmetry_space_group_name_H-M "C 2/M"
_symmetry_group_IT_number 12
_symmetry_cell_setting 'monoclinic'
loop_
_space_group_symop_operation_xyz
x,y,z
-x,y,-z
-x,-y,-z
x,-y,z
1/2+x,1/2+y,z
1/2-x,1/2+y,-z
1/2-x,1/2-y,-z
1/2+x,1/2-y,z
loop_
_atom_site_type_symbol
_atom_site_label
_atom_site_fract_x
_atom_site_fract_y
_atom_site_fract_z
Si Si1 0.000000 0.369887 0.000000
Si Si2 0.193062 0.807897 0.034735
Si Si3 0.743689 0.057037 0.649989
Si Si4 0.240703 0.446416 0.377320
Si Si5 0.258049 0.844463 0.722785
O O1 0.810256 0.335602 0.068009
O O2 0.108017 0.405011 0.825294
O O3 0.276185 0.832048 0.852078
O O4 0.250000 0.750000 0.000000
O O5 0.924452 0.810872 0.223244
O O6 0.717073 0.074451 0.529716
O O7 0.000000 0.060829 0.500000
O O8 0.656368 0.000000 0.730027
O O9 0.378473 0.500000 0.276914
O O10 0.335510 0.401747 0.228668
O O11 0.000000 0.460501 0.500000
O O12 0.500000 0.836819 0.500000
#
# Coordination Sequence:
#
# PCOD8106275 Si02
#       5
#     4   8   8   8   8
#     4  12  21  36  62  86 118 160 193 234 302 356
#     4  11  25  42  59  86 120 151 198 257 293 334
#     4  10  21  36  56  87 123 154 189 234 285 351
#     4   9  17  33  58  86 116 148 186 233 280 338
#     4  10  21  42  65  86 116 156 197 237 292 352
#
# _framework density 20.404779999999999
#
# number of rings (size 3 to 8) (size 9 to 14) (size 15 to 20)
#    0.000    1.778    0.000    5.667    0.000    0.889 
#    0.000    8.889    0.000    0.000    0.000    0.000 
#    0.000    0.000    0.000    0.000    0.000    0.000 
#
# Total GULP energy -223038.416757 kJ/mol
# GULP energy per Si atom -12391.023153 kJ/mol
# Density = 2.035834 g / cm^3
# Si number density = 20.404780 Si / 1000 Ang^3
#
#
#
# Elastic Constant Matrix: (Units=GPa)
#
#
# Indices 1 2 3 4 5 6 
#
# 1 141.8540 46.8890 37.6843 0.0000 8.5962 0.0000
# 2 46.8890 164.4870 47.4346 0.0000 15.3665 0.0000
# 3 37.6843 47.4346 87.4834 0.0000 -2.5365 0.0000
# 4 0.0000 0.0000 0.0000 25.3350 0.0000 0.1380
# 5 8.5962 15.3665 -2.5365 0.0000 36.5599 0.0000
# 6 0.0000 0.0000 0.0000 0.1380 0.0000 35.0883
#
#
#
# Elastic Compliance Matrix: (Units=1/GPa)
#
#
# Indices 1 2 3 4 5 6 
#
# 1 0.008379 -0.001407 -0.002892 0.000000 -0.001579 0.000000
# 2 -0.001407 0.007865 -0.003752 0.000000 -0.003235 0.000000
# 3 -0.002892 -0.003752 0.014806 0.000000 0.003284 0.000000
# 4 0.000000 0.000000 0.000000 0.039472 0.000000 -0.000155
# 5 -0.001579 -0.003235 0.003284 0.000000 0.029311 0.000000
# 6 0.000000 0.000000 0.000000 -0.000155 0.000000 0.028500
#
#
# Mechanical properties :
#
#
# Convention : Reuss Voigt Hill
#
# Bulk Modulus (GPa) = 66.90162 73.09334 69.99748
# Shear Modulus (GPa) = 33.46320 36.85108 35.15714
#
# Velocity S-wave (km/s) = 4.05405 4.25432 4.15539
# Velocity P-wave (km/s) = 7.40082 7.74802 7.57641
#
# Compressibility (1/GPa) = 0.01494732
#
# Stress axis : x y z
#
# Youngs Moduli (GPa) = 119.35253 127.14832 67.53895
#
# Poissons Ratio (x) = 0.17888 0.19533
# Poissons Ratio (y) = 0.16791 0.25342
# Poissons Ratio (z) = 0.34518 0.47709
#
# Static dielectric constant tensor:
#      x y z
#    x 3.748390 0.000000 -0.064290 
#    y 0.000000 3.990230 0.000000 
#    z -0.064290 0.000000 3.448150 
# 
# 
# High freq. dielectric constant tensor:
#      x y z
#    x 1.822640 0.000000 -0.001390 
#    y 0.000000 1.810160 0.000000 
#    z -0.001390 0.000000 1.769810 
# 
# From -- ./inp_files/123338.got.cif
#   From: 2010.06.25/outbox.cif.g09.slc.cpg/sg12_62_cif.got.tgz:123338.got - 2010.06.28 00:19:55.
