data_PCOD8106347
_publ_section_title
;
Structure prediction by ZEFSAII (Michael W. Deem and Ramdas Pophale) SiO2 
 PCOD8106347
Probable space group: C 2/M
;
_chemical_formula_sum "Si O2"
_cell_formula_units_Z 64
_cell_length_a 19.147971
_cell_length_b 20.122133
_cell_length_c 11.361888
_cell_angle_alpha 90.000000
_cell_angle_beta 129.699833
_cell_angle_gamma 90.000000
_cell_volume 3368.218539
_symmetry_space_group_name_H-M "C 2/M"
_symmetry_group_IT_number 12
_symmetry_cell_setting 'monoclinic'
loop_
_space_group_symop_operation_xyz
x,y,z
-x,y,-z
-x,-y,-z
x,-y,z
1/2+x,1/2+y,z
1/2-x,1/2+y,-z
1/2-x,1/2-y,-z
1/2+x,1/2-y,z
loop_
_atom_site_type_symbol
_atom_site_label
_atom_site_fract_x
_atom_site_fract_y
_atom_site_fract_z
Si Si1 0.864535 0.926770 0.011542
Si Si2 0.716054 0.672634 0.227545
Si Si3 0.296705 0.426072 0.184759
Si Si4 0.951559 0.132338 0.793611
Si Si5 0.696398 0.208793 0.041881
Si Si6 0.693029 0.818522 0.446213
Si Si7 0.820105 0.075237 0.472445
Si Si8 0.496381 0.776311 0.854353
O O1 0.782235 0.877937 0.881011
O O2 0.837978 0.000000 0.938739
O O3 0.870579 0.921909 0.159895
O O4 0.963735 0.909890 0.065773
O O5 0.623790 0.649307 0.191382
O O6 0.707824 0.748961 0.175795
O O7 0.801076 0.663098 0.407648
O O8 0.249317 0.500000 0.128634
O O9 0.226734 0.366374 0.093166
O O10 0.345607 0.417489 0.362704
O O11 0.910551 0.093456 0.639494
O O12 0.992633 0.202356 0.798807
O O13 0.750000 0.250000 0.000000
O O14 0.590173 0.198173 0.898631
O O15 0.750000 0.750000 0.500000
O O16 0.737967 0.875902 0.416776
O O17 0.589816 0.815242 0.291784
O O18 0.790227 0.000000 0.471236
O O19 0.500000 0.780955 0.000000
#
# Coordination Sequence:
#
# PCOD8106347 Si02
#       8
#     8   8   8   8   8   8   8   8
#     4  11  22  37  58  87 123 164 202 247 310 379
#     4  11  21  36  58  87 121 154 196 245 305 360
#     4  10  22  40  59  82 120 169 209 248 307 363
#     4  11  20  34  56  91 123 153 200 247 309 372
#     4  12  22  39  63  89 121 160 208 260 301 366
#     4  11  21  37  60  86 120 158 200 247 308 358
#     4  10  21  36  57  86 125 165 203 251 306 362
#     4  12  20  36  61  91 114 157 200 251 306 356
#
# _framework density 19.001142000000002
#
# number of rings (size 3 to 8) (size 9 to 14) (size 15 to 20)
#    0.000    1.000    6.250    2.250    0.000    3.500 
#    0.000    3.125    0.000    2.250    0.000    1.750 
#    0.000    0.000    0.000    0.000    0.000    0.000 
#
# Total GULP energy -396483.643320 kJ/mol
# GULP energy per Si atom -12390.113854 kJ/mol
# Density = 1.895789 g / cm^3
# Si number density = 19.001142 Si / 1000 Ang^3
#
#
#
# Elastic Constant Matrix: (Units=GPa)
#
#
# Indices 1 2 3 4 5 6 
#
# 1 68.5692 31.8279 49.4172 0.0000 0.0757 0.0000
# 2 31.8279 130.5853 49.0768 0.0000 -1.1720 0.0000
# 3 49.4172 49.0768 128.3995 0.0000 0.4506 0.0000
# 4 0.0000 0.0000 0.0000 30.3344 0.0000 -2.2705
# 5 0.0757 -1.1720 0.4506 0.0000 33.1917 0.0000
# 6 0.0000 0.0000 0.0000 -2.2705 0.0000 26.2837
#
#
#
# Elastic Compliance Matrix: (Units=1/GPa)
#
#
# Indices 1 2 3 4 5 6 
#
# 1 0.020811 -0.002408 -0.007089 0.000000 -0.000036 0.000000
# 2 -0.002408 0.009225 -0.002600 0.000000 0.000367 0.000000
# 3 -0.007089 -0.002600 0.011511 0.000000 -0.000232 0.000000
# 4 0.000000 0.000000 0.000000 0.033180 0.000000 0.002866
# 5 -0.000036 0.000367 -0.000232 0.000000 0.030144 0.000000
# 6 0.000000 0.000000 0.000000 0.002866 0.000000 0.038294
#
#
# Mechanical properties :
#
#
# Convention : Reuss Voigt Hill
#
# Bulk Modulus (GPa) = 57.63045 65.35530 61.49288
# Shear Modulus (GPa) = 28.87752 31.11076 29.99414
#
# Velocity S-wave (km/s) = 3.90266 4.05076 3.97740
# Velocity P-wave (km/s) = 7.12064 7.50655 7.31614
#
# Compressibility (1/GPa) = 0.01735194
#
# Stress axis : x y z
#
# Youngs Moduli (GPa) = 48.05257 108.39573 86.87198
#
# Poissons Ratio (x) = 0.26107 0.61581
# Poissons Ratio (y) = 0.11573 0.22591
# Poissons Ratio (z) = 0.34063 0.28188
#
# Static dielectric constant tensor:
#      x y z
#    x 3.515060 0.000000 -0.312650 
#    y 0.000000 3.814570 0.000000 
#    z -0.312650 0.000000 3.797140 
# 
# 
# High freq. dielectric constant tensor:
#      x y z
#    x 1.718210 0.000000 -0.020910 
#    y 0.000000 1.746170 0.000000 
#    z -0.020910 0.000000 1.739240 
# 
# From -- ./inp_files/159575.got.cif
#   From: 2010.06.25/outbox.cif.g09.slc.cpg/sg12_80_cif.got.tgz:159575.got - 2010.06.28 00:19:55.
