data_PCOD8106598
_publ_section_title
;
Structure prediction by ZEFSAII (Michael W. Deem and Ramdas Pophale) SiO2 
 PCOD8106598
Probable space group: C 2/M
;
_chemical_formula_sum "Si O2"
_cell_formula_units_Z 56
_cell_length_a 14.418516
_cell_length_b 29.688806
_cell_length_c 9.494209
_cell_angle_alpha 90.000000
_cell_angle_beta 49.348487
_cell_angle_gamma 90.000000
_cell_volume 3083.430052
_symmetry_space_group_name_H-M "C 2/M"
_symmetry_group_IT_number 12
_symmetry_cell_setting 'monoclinic'
loop_
_space_group_symop_operation_xyz
x,y,z
-x,y,-z
-x,-y,-z
x,-y,z
1/2+x,1/2+y,z
1/2-x,1/2+y,-z
1/2-x,1/2-y,-z
1/2+x,1/2-y,z
loop_
_atom_site_type_symbol
_atom_site_label
_atom_site_fract_x
_atom_site_fract_y
_atom_site_fract_z
Si Si1 0.233599 0.854582 0.532493
Si Si2 0.501761 0.597307 0.336181
Si Si3 0.644556 0.184783 0.858889
Si Si4 0.356115 0.712231 0.158133
Si Si5 0.979448 0.000000 0.790228
Si Si6 0.734882 0.646223 0.983849
Si Si7 0.298154 0.500000 0.216171
Si Si8 0.858240 0.411864 0.636805
O O1 0.298991 0.843914 0.322398
O O2 0.182836 0.809113 0.654247
O O3 0.332668 0.877038 0.536501
O O4 0.123717 0.889382 0.615668
O O5 0.500000 0.612404 0.500000
O O6 0.520935 0.543809 0.308007
O O7 0.608296 0.623415 0.151148
O O8 0.687198 0.236250 0.800965
O O9 0.500000 0.180387 0.000000
O O10 0.692384 0.164696 0.956113
O O11 0.290133 0.687695 0.094664
O O12 0.500000 0.707643 0.000000
O O13 0.097121 0.000000 0.771697
O O14 0.856296 0.000000 0.003711
O O15 0.818331 0.609136 0.825149
O O16 0.215314 0.456840 0.320687
O O17 0.000000 0.423724 0.500000
#
# Coordination Sequence:
#
# PCOD8106598 Si02
#       8
#     8   8   8   8   4   8   4   8
#     4  11  22  38  62  87 116 157 201 243 301 358
#     4  12  22  39  64  89 123 156 196 254 306 360
#     4  11  23  40  57  84 122 160 201 245 294 362
#     4  10  21  36  61  88 118 152 198 256 300 346
#     4  11  23  38  62  96 117 153 198 252 314 346
#     4  11  22  38  62  87 116 157 201 243 301 358
#     4  11  21  36  64  88 117 151 196 246 296 359
#     4  11  23  39  60  86 120 159 193 239 294 363
#
# _framework density 18.161591999999999
#
# number of rings (size 3 to 8) (size 9 to 14) (size 15 to 20)
#    0.000    1.000    5.714    2.143    0.000    0.000 
#    0.000    0.000    3.143    0.000    0.000    6.000 
#    0.000    0.000    0.000    0.000    0.000    0.000 
#
# Total GULP energy -347345.592899 kJ/mol
# GULP energy per Si atom -12405.199746 kJ/mol
# Density = 1.812026 g / cm^3
# Si number density = 18.161592 Si / 1000 Ang^3
#
#
#
# Elastic Constant Matrix: (Units=GPa)
#
#
# Indices 1 2 3 4 5 6 
#
# 1 73.0364 18.2266 29.0153 0.0000 0.3668 0.0000
# 2 18.2266 80.1615 13.3250 0.0000 -4.9609 0.0000
# 3 29.0153 13.3250 83.1302 0.0000 -0.5467 0.0000
# 4 0.0000 0.0000 0.0000 20.7487 0.0000 1.4636
# 5 0.3668 -4.9609 -0.5467 0.0000 35.9866 0.0000
# 6 0.0000 0.0000 0.0000 1.4636 0.0000 31.4453
#
#
#
# Elastic Compliance Matrix: (Units=1/GPa)
#
#
# Indices 1 2 3 4 5 6 
#
# 1 0.016531 -0.002917 -0.005307 0.000000 -0.000651 0.000000
# 2 -0.002917 0.013440 -0.001124 0.000000 0.001865 0.000000
# 3 -0.005307 -0.001124 0.014062 0.000000 0.000113 0.000000
# 4 0.000000 0.000000 0.000000 0.048355 0.000000 -0.002251
# 5 -0.000651 0.001865 0.000113 0.000000 0.028054 0.000000
# 6 0.000000 0.000000 0.000000 -0.002251 0.000000 0.031906
#
#
# Mechanical properties :
#
#
# Convention : Reuss Voigt Hill
#
# Bulk Modulus (GPa) = 39.46520 39.71797 39.59159
# Shear Modulus (GPa) = 27.85678 29.35355 28.60516
#
# Velocity S-wave (km/s) = 3.92066 4.02461 3.97298
# Velocity P-wave (km/s) = 6.50174 6.59647 6.54928
#
# Compressibility (1/GPa) = 0.02533878
#
# Stress axis : x y z
#
# Youngs Moduli (GPa) = 60.49171 74.40298 71.11145
#
# Poissons Ratio (x) = 0.21703 0.37737
# Poissons Ratio (y) = 0.17645 0.07993
# Poissons Ratio (z) = 0.32101 0.08363
#
# Static dielectric constant tensor:
#      x y z
#    x 3.298170 0.000000 0.007850 
#    y 0.000000 3.438440 0.000000 
#    z 0.007850 0.000000 3.381780 
# 
# 
# High freq. dielectric constant tensor:
#      x y z
#    x 1.707630 0.000000 0.001660 
#    y 0.000000 1.713210 0.000000 
#    z 0.001660 0.000000 1.712780 
# 
# From -- ./inp_files/68169.got.cif
#   From: 2010.06.25/outbox.cif.g09.slc.cpg/sg12_35_cif.got.tgz:68169.got - 2010.06.28 00:19:55.
