data_PCOD8106066
_publ_section_title
;
Structure prediction by ZEFSAII (Michael W. Deem and Ramdas Pophale) SiO2 
 PCOD8106066
Probable space group: C 2/M
;
_chemical_formula_sum "Si O2"
_cell_formula_units_Z 40
_cell_length_a 5.250658
_cell_length_b 18.620290
_cell_length_c 20.432200
_cell_angle_alpha 90.000000
_cell_angle_beta 65.854770
_cell_angle_gamma 90.000000
_cell_volume 1822.861507
_symmetry_space_group_name_H-M "C 2/M"
_symmetry_group_IT_number 12
_symmetry_cell_setting 'monoclinic'
loop_
_space_group_symop_operation_xyz
x,y,z
-x,y,-z
-x,-y,-z
x,-y,z
1/2+x,1/2+y,z
1/2-x,1/2+y,-z
1/2-x,1/2-y,-z
1/2+x,1/2-y,z
loop_
_atom_site_type_symbol
_atom_site_label
_atom_site_fract_x
_atom_site_fract_y
_atom_site_fract_z
Si Si1 0.908620 0.414163 0.202730
Si Si2 0.313641 0.914450 0.959981
Si Si3 0.787488 0.916548 0.278247
Si Si4 0.265210 0.418278 0.428427
Si Si5 0.910413 0.216916 0.580851
O O1 0.901069 0.500000 0.206215
O O2 0.595947 0.382217 0.238429
O O3 0.057882 0.386330 0.121429
O O4 0.074219 0.382327 0.248184
O O5 0.311366 0.000000 0.961415
O O6 0.500000 0.884514 0.000000
O O7 0.000000 0.884408 0.000000
O O8 0.672445 0.905066 0.363543
O O9 0.815016 0.000000 0.258556
O O10 0.365187 0.500000 0.429837
O O11 0.529638 0.368333 0.418629
O O12 0.000000 0.397488 0.500000
O O13 0.582099 0.238259 0.618910
O O14 0.000000 0.245892 0.500000
#
# Coordination Sequence:
#
# PCOD8106066 Si02
#       5
#     8   8   8   8   8
#     4   9  16  27  40  56  84 119 154 194 242 296
#     4   9  15  22  35  55  77 107 152 197 229 271
#     4   9  18  30  43  61  88 122 157 198 251 300
#     4  10  21  36  55  79 104 133 178 230 266 299
#     4  10  21  38  57  76 101 133 168 212 270 327
#
# _framework density 21.943522000000002
#
# number of rings (size 3 to 8) (size 9 to 14) (size 15 to 20)
#    0.000    2.600    0.000    3.000    0.000    8.400 
#    0.000    7.000    0.000    0.600    0.000    0.000 
#    0.000    0.000    0.000    0.000    0.000   70.000 
#
# Total GULP energy -247912.790754 kJ/mol
# GULP energy per Si atom -12395.639538 kJ/mol
# Density = 2.189358 g / cm^3
# Si number density = 21.943522 Si / 1000 Ang^3
#
#
#
# Elastic Constant Matrix: (Units=GPa)
#
#
# Indices 1 2 3 4 5 6 
#
# 1 178.1683 20.0853 64.3011 0.0000 26.0114 0.0000
# 2 20.0853 71.1035 0.9213 0.0000 7.8420 0.0000
# 3 64.3011 0.9213 148.2198 0.0000 8.5239 0.0000
# 4 0.0000 0.0000 0.0000 0.7605 0.0000 7.7548
# 5 26.0114 7.8420 8.5239 0.0000 33.3136 0.0000
# 6 0.0000 0.0000 0.0000 7.7548 0.0000 16.1151
#
#
#
# Elastic Compliance Matrix: (Units=1/GPa)
#
#
# Indices 1 2 3 4 5 6 
#
# 1 0.007569 -0.001573 -0.002999 0.000000 -0.004772 0.000000
# 2 -0.001573 0.014767 0.000731 0.000000 -0.002435 0.000000
# 3 -0.002999 0.000731 0.008037 0.000000 0.000114 0.000000
# 4 0.000000 0.000000 0.000000 -0.336560 0.000000 0.161958
# 5 -0.004772 -0.002435 0.000114 0.000000 0.034288 0.000000
# 6 0.000000 0.000000 0.000000 0.161958 0.000000 -0.015883
#
#
# Mechanical properties :
#
#
# Convention : Reuss Voigt Hill
#
# Bulk Modulus (GPa) = 44.07234 63.12300 53.59767
# Shear Modulus (GPa) = -18.34635 30.85009 6.25187
#
# Velocity S-wave (km/s) = -2.89463 3.75358 1.68975
# Velocity P-wave (km/s) = 2.99270 6.90032 5.31839
#
# Compressibility (1/GPa) = 0.02268997
#
# Stress axis : x y z
#
# Youngs Moduli (GPa) = 132.11368 67.71662 124.42603
#
# Poissons Ratio (x) = 0.10651 0.37321
# Poissons Ratio (y) = 0.20781 -0.09091
# Poissons Ratio (z) = 0.39627 -0.04948
#
# Static dielectric constant tensor:
#      x y z
#    x 4.255530 0.000000 0.176640 
#    y 0.000000 3.268560 0.000000 
#    z 0.176640 0.000000 3.930930 
# 
# 
# High freq. dielectric constant tensor:
#      x y z
#    x 1.880810 0.000000 0.011490 
#    y 0.000000 1.789740 0.000000 
#    z 0.011490 0.000000 1.850130 
# 
# From -- ./inp_files/252795.got.cif
#   From: 2010.06.25/outbox.cif.g09.slc.cpg/sg12_127_cif.got.tgz:252795.got - 2010.06.28 00:19:55.
