data_PCOD8106605
_publ_section_title
;
Structure prediction by ZEFSAII (Michael W. Deem and Ramdas Pophale) SiO2 
 PCOD8106605
Probable space group: C 2/M
;
_chemical_formula_sum "Si O2"
_cell_formula_units_Z 56
_cell_length_a 20.206083
_cell_length_b 14.123001
_cell_length_c 11.688569
_cell_angle_alpha 90.000000
_cell_angle_beta 115.997371
_cell_angle_gamma 90.000000
_cell_volume 2998.060365
_symmetry_space_group_name_H-M "C 2/M"
_symmetry_group_IT_number 12
_symmetry_cell_setting 'monoclinic'
loop_
_space_group_symop_operation_xyz
x,y,z
-x,y,-z
-x,-y,-z
x,-y,z
1/2+x,1/2+y,z
1/2-x,1/2+y,-z
1/2-x,1/2-y,-z
1/2+x,1/2-y,z
loop_
_atom_site_type_symbol
_atom_site_label
_atom_site_fract_x
_atom_site_fract_y
_atom_site_fract_z
Si Si1 0.390268 0.500000 0.332804
Si Si2 0.660409 0.702139 0.674347
Si Si3 0.554756 0.240691 0.783737
Si Si4 0.897025 0.200050 0.624329
Si Si5 0.674981 0.743387 0.201404
Si Si6 0.079073 0.608298 0.004047
Si Si7 0.075173 0.110356 0.989311
Si Si8 0.453373 0.500000 0.632136
O O1 0.339397 0.592812 0.283288
O O2 0.429402 0.500000 0.484049
O O3 0.457428 0.500000 0.292259
O O4 0.600987 0.760543 0.702076
O O5 0.640339 0.710012 0.526553
O O6 0.738722 0.749338 0.757090
O O7 0.469164 0.234057 0.684687
O O8 0.577580 0.149816 0.875090
O O9 0.571549 0.336864 0.865737
O O10 0.838364 0.234197 0.673257
O O11 0.921375 0.092126 0.671276
O O12 0.643335 0.651284 0.113410
O O13 0.637457 0.838626 0.127318
O O14 0.103283 0.500000 0.015093
O O15 0.000000 0.622885 0.000000
O O16 0.088244 0.000000 0.977585
O O17 0.000000 0.131567 0.000000
#
# Coordination Sequence:
#
# PCOD8106605 Si02
#       8
#     4   8   8   8   8   8   8   4
#     4   9  18  34  50  87 121 152 193 229 291 343
#     4  11  24  35  56  89 129 155 187 239 300 362
#     4  11  20  37  61  88 113 151 197 243 296 345
#     4  11  20  37  60  87 121 158 195 237 292 358
#     4  11  22  39  58  87 118 157 194 238 300 352
#     4  10  21  40  63  82 103 149 207 250 278 331
#     4  10  21  36  61  90 116 152 197 249 297 349
#     4   9  18  30  58  86 113 155 194 237 279 345
#
# _framework density 18.678743000000001
#
# number of rings (size 3 to 8) (size 9 to 14) (size 15 to 20)
#    0.000    1.571    4.286    1.714    4.000    2.286 
#    0.000    2.143    0.000    3.429    0.000    0.000 
#    0.000    0.000    0.000    0.000    0.000    0.000 
#
# Total GULP energy -347248.988801 kJ/mol
# GULP energy per Si atom -12401.749600 kJ/mol
# Density = 1.863623 g / cm^3
# Si number density = 18.678743 Si / 1000 Ang^3
#
#
#
# Elastic Constant Matrix: (Units=GPa)
#
#
# Indices 1 2 3 4 5 6 
#
# 1 73.9989 13.3414 7.5623 0.0000 13.6294 0.0000
# 2 13.3414 88.5409 19.1570 0.0000 2.0856 0.0000
# 3 7.5623 19.1570 59.7790 0.0000 7.9306 0.0000
# 4 0.0000 0.0000 0.0000 24.3670 0.0000 -4.6520
# 5 13.6294 2.0856 7.9306 0.0000 24.0805 0.0000
# 6 0.0000 0.0000 0.0000 -4.6520 0.0000 37.6907
#
#
#
# Elastic Compliance Matrix: (Units=1/GPa)
#
#
# Indices 1 2 3 4 5 6 
#
# 1 0.015479 -0.002098 -0.000154 0.000000 -0.008528 0.000000
# 2 -0.002098 0.012421 -0.003900 0.000000 0.001396 0.000000
# 3 -0.000154 -0.003900 0.018761 0.000000 -0.005753 0.000000
# 4 0.000000 0.000000 0.000000 0.042029 0.000000 0.005188
# 5 -0.008528 0.001396 -0.005753 0.000000 0.048128 0.000000
# 6 0.000000 0.000000 0.000000 0.005188 0.000000 0.027172
#
#
# Mechanical properties :
#
#
# Convention : Reuss Voigt Hill
#
# Bulk Modulus (GPa) = 29.10761 33.60445 31.35603
# Shear Modulus (GPa) = 26.63147 29.37819 28.00483
#
# Velocity S-wave (km/s) = 3.78002 3.97017 3.87627
# Velocity P-wave (km/s) = 5.88800 6.24869 6.07103
#
# Compressibility (1/GPa) = 0.03435527
#
# Stress axis : x y z
#
# Youngs Moduli (GPa) = 64.60573 80.50645 53.30197
#
# Poissons Ratio (x) = 0.16890 0.00823
# Poissons Ratio (y) = 0.13554 0.20790
# Poissons Ratio (z) = 0.00997 0.31401
#
# Static dielectric constant tensor:
#      x y z
#    x 3.331700 0.000000 -0.063140 
#    y 0.000000 3.427590 0.000000 
#    z -0.063140 0.000000 3.444470 
# 
# 
# High freq. dielectric constant tensor:
#      x y z
#    x 1.718020 0.000000 -0.009040 
#    y 0.000000 1.712260 0.000000 
#    z -0.009040 0.000000 1.731900 
# 
# From -- ./inp_files/156579.got.cif
#   From: 2010.06.25/outbox.cif.g09.slc.cpg/sg12_79_cif.got.tgz:156579.got - 2010.06.28 00:19:55.
