data_PCOD8106244
_publ_section_title
;
Structure prediction by ZEFSAII (Michael W. Deem and Ramdas Pophale) SiO2 
 PCOD8106244
Probable space group: C 2/M
;
_chemical_formula_sum "Si O2"
_cell_formula_units_Z 64
_cell_length_a 28.414749
_cell_length_b 9.089037
_cell_length_c 19.065909
_cell_angle_alpha 90.000000
_cell_angle_beta 138.024006
_cell_angle_gamma 90.000000
_cell_volume 3293.274502
_symmetry_space_group_name_H-M "C 2/M"
_symmetry_group_IT_number 12
_symmetry_cell_setting 'monoclinic'
loop_
_space_group_symop_operation_xyz
x,y,z
-x,y,-z
-x,-y,-z
x,-y,z
1/2+x,1/2+y,z
1/2-x,1/2+y,-z
1/2-x,1/2-y,-z
1/2+x,1/2-y,z
loop_
_atom_site_type_symbol
_atom_site_label
_atom_site_fract_x
_atom_site_fract_y
_atom_site_fract_z
Si Si1 0.639507 0.669991 0.879909
Si Si2 0.346522 0.168249 0.796004
Si Si3 0.944352 0.837158 0.000225
Si Si4 0.551487 0.326806 0.494813
Si Si5 0.207340 0.830393 0.708304
Si Si6 0.049558 0.330539 0.205540
Si Si7 0.496764 0.829545 0.698701
Si Si8 0.761714 0.670104 0.117881
O O1 0.621282 0.500000 0.844734
O O2 0.569422 0.764249 0.807231
O O3 0.684866 0.728936 0.865622
O O4 0.682671 0.688925 0.000201
O O5 0.261690 0.187251 0.702878
O O6 0.380484 0.223204 0.759589
O O7 0.367975 0.000000 0.831445
O O8 0.375910 0.254564 0.895874
O O9 0.979893 0.756737 0.105180
O O10 0.921556 0.000000 0.999709
O O11 0.000000 0.844264 0.000000
O O12 0.500000 0.274011 0.500000
O O13 0.545695 0.500000 0.477246
O O14 0.630539 0.276790 0.599909
O O15 0.529791 0.251441 0.399149
O O16 0.236426 0.725594 0.800946
O O17 0.204680 0.000000 0.730908
O O18 0.034353 0.500000 0.172032
O O19 0.059639 0.306807 0.300306
O O20 0.507211 0.000000 0.692171
O O21 0.785373 0.500000 0.139458
#
# Coordination Sequence:
#
# PCOD8106244 Si02
#       8
#     8   8   8   8   8   8   8   8
#     4  10  21  37  56  81 115 151 183 224 283 346
#     4   9  18  34  54  77 111 153 193 231 275 334
#     4   9  17  29  48  76 109 145 186 231 276 322
#     4  10  22  41  62  83 109 143 186 238 294 351
#     4  10  21  36  58  84 110 148 193 234 284 342
#     4   9  19  35  53  77 112 152 192 231 276 333
#     4  11  23  37  58  85 111 146 192 238 285 335
#     4  10  21  36  56  84 116 148 182 228 284 340
#
# _framework density 19.433547000000001
#
# number of rings (size 3 to 8) (size 9 to 14) (size 15 to 20)
#    0.000    2.250    0.000    2.250    1.750    6.250 
#    0.000    0.625    0.000    0.000    0.000    0.000 
#    0.000    0.000    0.000    0.000    0.000    0.000 
#
# Total GULP energy -396739.024435 kJ/mol
# GULP energy per Si atom -12398.094514 kJ/mol
# Density = 1.938932 g / cm^3
# Si number density = 19.433547 Si / 1000 Ang^3
#
#
#
# Elastic Constant Matrix: (Units=GPa)
#
#
# Indices 1 2 3 4 5 6 
#
# 1 109.9576 31.9417 76.8912 0.0000 0.0180 0.0000
# 2 31.9417 61.4533 43.5668 0.0000 -7.2670 0.0000
# 3 76.8912 43.5668 109.4573 0.0000 -3.3410 0.0000
# 4 0.0000 0.0000 0.0000 29.5948 0.0000 -4.0243
# 5 0.0180 -7.2670 -3.3410 0.0000 33.0140 0.0000
# 6 0.0000 0.0000 0.0000 -4.0243 0.0000 20.0244
#
#
#
# Elastic Compliance Matrix: (Units=1/GPa)
#
#
# Indices 1 2 3 4 5 6 
#
# 1 0.017953 -0.000736 -0.012362 0.000000 -0.001423 0.000000
# 2 -0.000736 0.023264 -0.008613 0.000000 0.004250 0.000000
# 3 -0.012362 -0.008613 0.021256 0.000000 0.000262 0.000000
# 4 0.000000 0.000000 0.000000 0.034739 0.000000 0.006982
# 5 -0.001423 0.004250 0.000262 0.000000 0.031253 0.000000
# 6 0.000000 0.000000 0.000000 0.006982 0.000000 0.051342
#
#
# Mechanical properties :
#
#
# Convention : Reuss Voigt Hill
#
# Bulk Modulus (GPa) = 52.49017 65.07417 58.78217
# Shear Modulus (GPa) = 21.77901 25.09121 23.43511
#
# Velocity S-wave (km/s) = 3.35130 3.59713 3.47639
# Velocity P-wave (km/s) = 6.48411 7.12816 6.81375
#
# Compressibility (1/GPa) = 0.01905119
#
# Stress axis : x y z
#
# Youngs Moduli (GPa) = 55.70118 42.98574 47.04485
#
# Poissons Ratio (x) = 0.03162 0.58158
# Poissons Ratio (y) = 0.04098 0.40520
# Poissons Ratio (z) = 0.68859 0.37024
#
# Static dielectric constant tensor:
#      x y z
#    x 3.748940 0.000000 0.076870 
#    y 0.000000 3.636860 0.000000 
#    z 0.076870 0.000000 3.383550 
# 
# 
# High freq. dielectric constant tensor:
#      x y z
#    x 1.768520 0.000000 -0.000490 
#    y 0.000000 1.759030 0.000000 
#    z -0.000490 0.000000 1.731170 
# 
# From -- ./inp_files/295743.got.cif
#   From: 2010.06.25/outbox.cif.g09.slc.cpg/sg12_148_cif.got.tgz:295743.got - 2010.06.28 00:19:55.
