data_PCOD8106212
_publ_section_title
;
Structure prediction by ZEFSAII (Michael W. Deem and Ramdas Pophale) SiO2 
 PCOD8106212
Probable space group: C 2/M
;
_chemical_formula_sum "Si O2"
_cell_formula_units_Z 56
_cell_length_a 18.491490
_cell_length_b 8.593329
_cell_length_c 29.069691
_cell_angle_alpha 90.000000
_cell_angle_beta 142.329111
_cell_angle_gamma 90.000000
_cell_volume 2822.953857
_symmetry_space_group_name_H-M "C 2/M"
_symmetry_group_IT_number 12
_symmetry_cell_setting 'monoclinic'
loop_
_space_group_symop_operation_xyz
x,y,z
-x,y,-z
-x,-y,-z
x,-y,z
1/2+x,1/2+y,z
1/2-x,1/2+y,-z
1/2-x,1/2-y,-z
1/2+x,1/2-y,z
loop_
_atom_site_type_symbol
_atom_site_label
_atom_site_fract_x
_atom_site_fract_y
_atom_site_fract_z
Si Si1 0.477487 0.678097 0.436505
Si Si2 0.921480 0.818739 0.004320
Si Si3 0.761124 0.179294 0.266476
Si Si4 0.006741 0.681355 0.864278
Si Si5 0.122790 0.321701 0.434094
Si Si6 0.084908 0.316349 0.733545
Si Si7 0.667520 0.318775 0.867570
O O1 0.500000 0.723286 0.500000
O O2 0.514757 0.500000 0.445474
O O3 0.341800 0.705763 0.352460
O O4 0.562083 0.793957 0.452205
O O5 0.963307 0.715117 0.067886
O O6 0.936916 0.000000 0.023986
O O7 0.785318 0.783829 0.925206
O O8 0.000000 0.771370 0.000000
O O9 0.628936 0.230873 0.213406
O O10 0.806385 0.279864 0.246049
O O11 0.762927 0.000000 0.251552
O O12 0.027451 0.500000 0.864280
O O13 0.091379 0.781284 0.874352
O O14 0.139877 0.500000 0.432788
O O15 0.250000 0.250000 0.500000
O O16 0.037163 0.254681 0.351017
O O17 0.083552 0.500000 0.742571
O O18 0.092781 0.223237 0.784847
O O19 0.700551 0.500000 0.884785
#
# Coordination Sequence:
#
# PCOD8106212 Si02
#       7
#     8   8   8   8   8   8   8
#     4   9  18  34  56  82 113 149 189 233 282 337
#     4  11  24  42  64  88 115 149 189 232 280 335
#     4   9  19  36  58  83 112 149 190 232 281 337
#     4  11  23  39  59  85 119 153 189 234 282 334
#     4  10  21  36  56  82 113 150 190 235 284 335
#     4  10  21  38  59  83 113 149 190 235 283 336
#     4  12  25  40  60  86 117 151 188 232 283 336
#
# _framework density 19.837375999999999
#
# number of rings (size 3 to 8) (size 9 to 14) (size 15 to 20)
#    0.000    1.714    0.000    4.286    0.000    7.714 
#    0.000    2.857    0.000    0.000    0.000    0.000 
#    0.000    0.000    0.000    0.000    0.000    0.000 
#
# Total GULP energy -347283.554039 kJ/mol
# GULP energy per Si atom -12402.984073 kJ/mol
# Density = 1.979223 g / cm^3
# Si number density = 19.837376 Si / 1000 Ang^3
#
#
#
# Elastic Constant Matrix: (Units=GPa)
#
#
# Indices 1 2 3 4 5 6 
#
# 1 110.1577 20.0636 63.6968 0.0000 6.6561 0.0000
# 2 20.0636 44.4351 18.4197 0.0000 1.7935 -0.0002
# 3 63.6968 18.4197 121.8605 0.0000 1.9427 0.0000
# 4 0.0000 0.0000 0.0000 29.2848 0.0000 -2.1309
# 5 6.6561 1.7935 1.9427 0.0000 41.8939 0.0000
# 6 0.0000 -0.0002 0.0000 -2.1309 0.0000 31.8948
#
#
#
# Elastic Compliance Matrix: (Units=1/GPa)
#
#
# Indices 1 2 3 4 5 6 
#
# 1 0.013590 -0.003343 -0.006571 0.000000 -0.001711 0.000000
# 2 -0.003343 0.024863 -0.002004 0.000000 -0.000440 0.000000
# 3 -0.006571 -0.002004 0.011934 0.000000 0.000576 0.000000
# 4 0.000000 0.000000 0.000000 0.034314 0.000000 0.002293
# 5 -0.001711 -0.000440 0.000576 0.000000 0.024134 0.000000
# 6 0.000000 0.000000 0.000000 0.002293 0.000000 0.031506
#
#
# Mechanical properties :
#
#
# Convention : Reuss Voigt Hill
#
# Bulk Modulus (GPa) = 37.66261 53.42370 45.54316
# Shear Modulus (GPa) = 28.89735 32.23290 30.56513
#
# Velocity S-wave (km/s) = 3.82083 4.03532 3.92954
# Velocity P-wave (km/s) = 6.20418 6.97862 6.60276
#
# Compressibility (1/GPa) = 0.02655153
#
# Stress axis : x y z
#
# Youngs Moduli (GPa) = 73.58567 40.22111 83.79230
#
# Poissons Ratio (x) = 0.13447 0.55057
# Poissons Ratio (y) = 0.24601 0.16788
# Poissons Ratio (z) = 0.48351 0.08058
#
# Static dielectric constant tensor:
#      x y z
#    x 3.557320 0.000000 0.128770 
#    y 0.000000 3.587860 0.000000 
#    z 0.128770 0.000000 3.892010 
# 
# 
# High freq. dielectric constant tensor:
#      x y z
#    x 1.768660 0.000000 0.001930 
#    y 0.000000 1.775250 0.000000 
#    z 0.001930 0.000000 1.789590 
# 
# From -- ./inp_files/363196.got.cif
#   From: 2010.06.25/outbox.cif.g09.slc.cpg/sg12_182_cif.got.tgz:363196.got - 2010.06.28 00:19:55.
