data_PCOD8106959
_publ_section_title
;
Structure prediction by ZEFSAII (Michael W. Deem and Ramdas Pophale) SiO2 
 PCOD8106959
Probable space group: C 2/M
;
_chemical_formula_sum "Si O2"
_cell_formula_units_Z 48
_cell_length_a 26.938129
_cell_length_b 8.750155
_cell_length_c 10.263097
_cell_angle_alpha 90.000000
_cell_angle_beta 101.283062
_cell_angle_gamma 90.000000
_cell_volume 2372.387481
_symmetry_space_group_name_H-M "C 2/M"
_symmetry_group_IT_number 12
_symmetry_cell_setting 'monoclinic'
loop_
_space_group_symop_operation_xyz
x,y,z
-x,y,-z
-x,-y,-z
x,-y,z
1/2+x,1/2+y,z
1/2-x,1/2+y,-z
1/2-x,1/2-y,-z
1/2+x,1/2-y,z
loop_
_atom_site_type_symbol
_atom_site_label
_atom_site_fract_x
_atom_site_fract_y
_atom_site_fract_z
Si Si1 0.804817 0.320040 0.510571
Si Si2 0.640984 0.678375 0.702414
Si Si3 0.466050 0.823984 0.357696
Si Si4 0.967920 0.676436 0.855734
Si Si5 0.360965 0.320250 0.779475
Si Si6 0.304445 0.679502 0.007604
O O1 0.800097 0.500000 0.516141
O O2 0.750000 0.250000 0.500000
O O3 0.825947 0.274119 0.381402
O O4 0.842922 0.263925 0.640847
O O5 0.649668 0.500000 0.679675
O O6 0.582291 0.716330 0.657278
O O7 0.658731 0.726777 0.855619
O O8 0.500000 0.792902 0.500000
O O9 0.498016 0.776200 0.248730
O O10 0.448351 0.000000 0.341034
O O11 0.950851 0.500000 0.837677
O O12 0.919272 0.783494 0.834490
O O13 0.000000 0.709786 0.000000
O O14 0.354014 0.500000 0.756698
O O15 0.328594 0.259314 0.885726
O O16 0.297826 0.500000 0.997660
O O17 0.250000 0.750000 0.000000
#
# Coordination Sequence:
#
# PCOD8106959 Si02
#       6
#     8   8   8   8   8   8
#     4  12  25  42  63  89 121 157 199 247 299 356
#     4  11  23  40  62  90 121 156 199 244 295 354
#     4  10  21  37  57  83 116 154 197 243 291 346
#     4  10  21  37  58  86 120 159 201 244 295 353
#     4  11  23  40  62  90 122 158 201 248 300 355
#     4  10  23  40  60  88 120 154 195 242 292 351
#
# _framework density 20.232782
#
# number of rings (size 3 to 8) (size 9 to 14) (size 15 to 20)
#    0.000    1.333    0.000    5.500    0.000    8.000 
#    0.000    0.000    0.000    0.000    0.000    0.000 
#    0.000    0.000    0.000    0.000    0.000    0.000 
#
# Total GULP energy -297773.773972 kJ/mol
# GULP energy per Si atom -12407.240582 kJ/mol
# Density = 2.018673 g / cm^3
# Si number density = 20.232782 Si / 1000 Ang^3
#
#
#
# Elastic Constant Matrix: (Units=GPa)
#
#
# Indices 1 2 3 4 5 6 
#
# 1 110.7335 33.7180 23.1726 0.0000 -2.6828 0.0000
# 2 33.7180 83.9680 31.3485 0.0000 -0.8505 0.0000
# 3 23.1726 31.3485 92.0107 0.0000 -14.3271 0.0000
# 4 0.0000 0.0000 0.0000 25.8752 0.0000 2.6371
# 5 -2.6828 -0.8505 -14.3271 0.0000 33.5551 0.0000
# 6 0.0000 0.0000 0.0000 2.6371 0.0000 43.0477
#
#
#
# Elastic Compliance Matrix: (Units=1/GPa)
#
#
# Indices 1 2 3 4 5 6 
#
# 1 0.010439 -0.003687 -0.001347 0.000000 0.000166 0.000000
# 2 -0.003687 0.015045 -0.004482 0.000000 -0.001827 0.000000
# 3 -0.001347 -0.004482 0.013604 0.000000 0.005587 0.000000
# 4 0.000000 0.000000 0.000000 0.038890 0.000000 -0.002382
# 5 0.000166 -0.001827 0.005587 0.000000 0.032154 0.000000
# 6 0.000000 0.000000 0.000000 -0.002382 0.000000 0.023376
#
#
# Mechanical properties :
#
#
# Convention : Reuss Voigt Hill
#
# Bulk Modulus (GPa) = 49.85911 51.46561 50.66236
# Shear Modulus (GPa) = 31.40184 33.72713 32.56449
#
# Velocity S-wave (km/s) = 3.94385 4.08727 4.01620
# Velocity P-wave (km/s) = 6.74054 6.91132 6.82646
#
# Compressibility (1/GPa) = 0.02005651
#
# Stress axis : x y z
#
# Youngs Moduli (GPa) = 95.79087 66.46866 73.50532
#
# Poissons Ratio (x) = 0.24510 0.09901
# Poissons Ratio (y) = 0.35323 0.32942
# Poissons Ratio (z) = 0.12902 0.29789
#
# Static dielectric constant tensor:
#      x y z
#    x 3.855220 0.000000 -0.273040 
#    y 0.000000 3.649720 0.000000 
#    z -0.273040 0.000000 4.084710 
# 
# 
# High freq. dielectric constant tensor:
#      x y z
#    x 1.803990 0.000000 -0.002320 
#    y 0.000000 1.788580 0.000000 
#    z -0.002320 0.000000 1.812400 
# 
# From -- ./inp_files/172448.got.cif
#   From: 2010.06.25/outbox.cif.g09.slc.cpg/sg12_87_cif.got.tgz:172448.got - 2010.06.28 00:19:55.
