data_PCOD8106129
_publ_section_title
;
Structure prediction by ZEFSAII (Michael W. Deem and Ramdas Pophale) SiO2 
 PCOD8106129
Probable space group: C 2/M
;
_chemical_formula_sum "Si O2"
_cell_formula_units_Z 48
_cell_length_a 14.455581
_cell_length_b 13.232309
_cell_length_c 22.379874
_cell_angle_alpha 90.000000
_cell_angle_beta 146.127431
_cell_angle_gamma 90.000000
_cell_volume 2385.915236
_symmetry_space_group_name_H-M "C 2/M"
_symmetry_group_IT_number 12
_symmetry_cell_setting 'monoclinic'
loop_
_space_group_symop_operation_xyz
x,y,z
-x,y,-z
-x,-y,-z
x,-y,z
1/2+x,1/2+y,z
1/2-x,1/2+y,-z
1/2-x,1/2-y,-z
1/2+x,1/2-y,z
loop_
_atom_site_type_symbol
_atom_site_label
_atom_site_fract_x
_atom_site_fract_y
_atom_site_fract_z
Si Si1 0.797440 0.613480 0.579639
Si Si2 0.680902 0.693826 0.114532
Si Si3 0.113417 0.610420 0.669720
Si Si4 0.338599 0.113389 0.819215
Si Si5 0.459966 0.684962 0.413056
Si Si6 0.035908 0.618755 0.810619
O O1 0.731219 0.500000 0.553430
O O2 0.639390 0.682337 0.476160
O O3 0.931512 0.616011 0.599615
O O4 0.880445 0.652639 0.686094
O O5 0.749031 0.626254 0.205316
O O6 0.667038 0.810844 0.127800
O O7 0.802190 0.683199 0.122205
O O8 0.500000 0.652905 0.000000
O O9 0.144575 0.500000 0.656690
O O10 0.118369 0.701483 0.624779
O O11 0.166527 0.114349 0.690375
O O12 0.489380 0.141915 0.854591
O O13 0.363801 0.000000 0.857645
O O14 0.500000 0.641723 0.500000
O O15 0.073021 0.500000 0.820043
#
# Coordination Sequence:
#
# PCOD8106129 Si02
#       6
#     8   8   8   8   8   8
#     4   9  16  29  50  74 101 133 171 212 253 304
#     4  10  21  36  58  81 103 138 183 226 270 315
#     4   9  20  35  49  73 104 135 172 216 263 311
#     4  10  21  36  55  82 112 140 176 221 266 317
#     4  11  19  29  52  78 104 137 173 208 252 314
#     4   9  18  34  56  81 108 139 178 221 264 314
#
# _framework density 20.118065000000001
#
# number of rings (size 3 to 8) (size 9 to 14) (size 15 to 20)
#    0.000    2.333    1.667    2.500    0.000    3.333 
#    0.000    0.000    0.000    5.000    0.000    0.000 
#    0.000    0.000    0.000    0.000    0.000    0.000 
#
# Total GULP energy -297461.181883 kJ/mol
# GULP energy per Si atom -12394.215912 kJ/mol
# Density = 2.007228 g / cm^3
# Si number density = 20.118065 Si / 1000 Ang^3
#
#
#
# Elastic Constant Matrix: (Units=GPa)
#
#
# Indices 1 2 3 4 5 6 
#
# 1 73.0388 30.8257 28.0276 0.0000 17.1559 0.0000
# 2 30.8257 95.8801 14.4829 0.0001 12.1121 0.0000
# 3 28.0276 14.4829 96.4748 0.0002 27.3585 0.0001
# 4 0.0000 0.0001 0.0002 13.8125 0.0000 2.7021
# 5 17.1559 12.1121 27.3585 0.0000 21.1055 0.0000
# 6 0.0000 0.0000 0.0001 2.7021 0.0000 29.5807
#
#
#
# Elastic Compliance Matrix: (Units=1/GPa)
#
#
# Indices 1 2 3 4 5 6 
#
# 1 0.018678 -0.004432 -0.001861 0.000000 -0.010227 0.000000
# 2 -0.004432 0.012300 0.000666 0.000000 -0.004319 0.000000
# 3 -0.001861 0.000666 0.016580 0.000000 -0.020362 0.000000
# 4 0.000000 0.000000 0.000000 0.073716 0.000000 -0.006734
# 5 -0.010227 -0.004319 -0.020362 0.000000 0.084568 0.000000
# 6 0.000000 0.000000 0.000000 -0.006734 0.000000 0.034421
#
#
# Mechanical properties :
#
#
# Convention : Reuss Voigt Hill
#
# Bulk Modulus (GPa) = 27.54459 45.78512 36.66485
# Shear Modulus (GPa) = 18.96683 25.70358 22.33520
#
# Velocity S-wave (km/s) = 3.07380 3.57828 3.33559
# Velocity P-wave (km/s) = 5.13019 6.31504 5.75320
#
# Compressibility (1/GPa) = 0.03630478
#
# Stress axis : x y z
#
# Youngs Moduli (GPa) = 53.53852 81.30321 60.31211
#
# Poissons Ratio (x) = 0.36034 0.11222
# Poissons Ratio (y) = 0.23728 -0.04017
# Poissons Ratio (z) = 0.09962 -0.05415
#
# Static dielectric constant tensor:
#      x y z
#    x 3.440020 0.000000 0.208950 
#    y 0.000000 3.683850 0.000000 
#    z 0.208950 0.000000 3.526020 
# 
# 
# High freq. dielectric constant tensor:
#      x y z
#    x 1.760980 0.000000 0.017350 
#    y 0.000000 1.780230 0.000000 
#    z 0.017350 0.000000 1.775210 
# 
# From -- ./inp_files/155496.got.cif
#   From: 2010.06.25/outbox.cif.g09.slc.cpg/sg12_78_cif.got.tgz:155496.got - 2010.06.28 00:19:55.
