data_PCOD8106354
_publ_section_title
;
Structure prediction by ZEFSAII (Michael W. Deem and Ramdas Pophale) SiO2 
 PCOD8106354
Probable space group: C 2/M
;
_chemical_formula_sum "Si O2"
_cell_formula_units_Z 56
_cell_length_a 20.904058
_cell_length_b 8.752234
_cell_length_c 29.787926
_cell_angle_alpha 90.000000
_cell_angle_beta 150.615832
_cell_angle_gamma 90.000000
_cell_volume 2674.072014
_symmetry_space_group_name_H-M "C 2/M"
_symmetry_group_IT_number 12
_symmetry_cell_setting 'monoclinic'
loop_
_space_group_symop_operation_xyz
x,y,z
-x,y,-z
-x,-y,-z
x,-y,z
1/2+x,1/2+y,z
1/2-x,1/2+y,-z
1/2-x,1/2-y,-z
1/2+x,1/2-y,z
loop_
_atom_site_type_symbol
_atom_site_label
_atom_site_fract_x
_atom_site_fract_y
_atom_site_fract_z
Si Si1 0.434258 0.332678 0.125322
Si Si2 0.879606 0.682649 0.600619
Si Si3 0.828166 0.331554 0.982934
Si Si4 0.847187 0.179991 0.904302
Si Si5 0.136380 0.817969 0.711950
Si Si6 0.126597 0.818096 0.603019
Si Si7 0.866014 0.321279 0.693252
O O1 0.501719 0.500000 0.165083
O O2 0.289310 0.351852 0.054659
O O3 0.503041 0.216919 0.200766
O O4 0.438286 0.263793 0.077284
O O5 0.880136 0.500000 0.597444
O O6 0.750000 0.750000 0.500000
O O7 0.875934 0.744187 0.649308
O O8 0.009587 0.747326 0.657638
O O9 0.881761 0.500000 0.002461
O O10 0.783685 0.239955 0.911615
O O11 0.770712 0.259363 0.816578
O O12 0.827152 0.000000 0.887944
O O13 0.000000 0.225751 0.000000
O O14 0.134568 0.761584 0.659245
O O15 0.130053 0.000000 0.712113
O O16 0.246746 0.748925 0.648285
O O17 0.000000 0.754311 0.500000
O O18 0.127507 0.000000 0.603224
O O19 0.846105 0.500000 0.678053
#
# Coordination Sequence:
#
# PCOD8106354 Si02
#       7
#     8   8   8   8   8   8   8
#     4  10  21  36  57  87 119 152 190 246 309 362
#     4  11  23  40  65  94 127 164 208 262 320 382
#     4  10  21  38  60  84 115 155 203 248 295 362
#     4  11  25  42  60  86 125 167 209 261 316 372
#     4  11  23  40  65  94 126 166 212 261 316 383
#     4   9  19  38  62  88 119 157 203 253 304 364
#     4  10  21  37  60  88 116 154 204 252 301 364
#
# _framework density 20.941844
#
# number of rings (size 3 to 8) (size 9 to 14) (size 15 to 20)
#    0.000    1.714    0.000    3.857    2.000    8.571 
#    0.000    0.714    0.000    3.000    0.000    0.000 
#    0.000    0.000    0.000    0.000    0.000    0.000 
#
# Total GULP energy -347165.919556 kJ/mol
# GULP energy per Si atom -12398.782841 kJ/mol
# Density = 2.089418 g / cm^3
# Si number density = 20.941844 Si / 1000 Ang^3
#
#
#
# Elastic Constant Matrix: (Units=GPa)
#
#
# Indices 1 2 3 4 5 6 
#
# 1 137.5660 43.0280 63.0199 0.0000 -21.1500 0.0002
# 2 43.0280 63.1589 33.8121 0.0000 -0.4899 0.0004
# 3 63.0199 33.8121 143.2741 -0.0001 -24.5338 0.0000
# 4 0.0000 0.0000 -0.0001 33.2615 0.0000 -0.5665
# 5 -21.1500 -0.4899 -24.5338 0.0000 43.8678 0.0000
# 6 0.0002 0.0004 0.0000 -0.5665 0.0000 25.0623
#
#
#
# Elastic Compliance Matrix: (Units=1/GPa)
#
#
# Indices 1 2 3 4 5 6 
#
# 1 0.010974 -0.005951 -0.002796 0.000000 0.003661 0.000000
# 2 -0.005951 0.021586 -0.003236 0.000000 -0.004438 0.000000
# 3 -0.002796 -0.003236 0.009661 0.000000 0.004019 0.000000
# 4 0.000000 0.000000 0.000000 0.030076 0.000000 0.000680
# 5 0.003661 -0.004438 0.004019 0.000000 0.026759 0.000000
# 6 0.000000 0.000000 0.000000 0.000680 0.000000 0.039916
#
#
# Mechanical properties :
#
#
# Convention : Reuss Voigt Hill
#
# Bulk Modulus (GPa) = 54.78115 69.30211 62.04163
# Shear Modulus (GPa) = 29.58152 34.04760 31.81456
#
# Velocity S-wave (km/s) = 3.76248 4.03652 3.90190
# Velocity P-wave (km/s) = 6.71494 7.40872 7.07035
#
# Compressibility (1/GPa) = 0.01825446
#
# Stress axis : x y z
#
# Youngs Moduli (GPa) = 91.12210 46.32696 103.50505
#
# Poissons Ratio (x) = 0.27571 0.28937
# Poissons Ratio (y) = 0.54230 0.33499
# Poissons Ratio (z) = 0.25475 0.14993
#
# Static dielectric constant tensor:
#      x y z
#    x 4.083960 -0.000010 -0.014530 
#    y -0.000010 3.832950 -0.000010 
#    z -0.014530 -0.000010 3.916960 
# 
# 
# High freq. dielectric constant tensor:
#      x y z
#    x 1.828070 0.000000 -0.010810 
#    y 0.000000 1.812540 0.000000 
#    z -0.010810 0.000000 1.826770 
# 
# From -- ./inp_files/380755.got.cif
#   From: 2010.06.25/outbox.cif.g09.slc.cpg/sg12_191_cif.got.tgz:380755.got - 2010.06.28 00:19:55.
