data_PCOD8106202
_publ_section_title
;
Structure prediction by ZEFSAII (Michael W. Deem and Ramdas Pophale) SiO2 
 PCOD8106202
Probable space group: C 2/M
;
_chemical_formula_sum "Si O2"
_cell_formula_units_Z 56
_cell_length_a 27.566202
_cell_length_b 9.171925
_cell_length_c 13.788150
_cell_angle_alpha 90.000000
_cell_angle_beta 119.602003
_cell_angle_gamma 90.000000
_cell_volume 3031.111114
_symmetry_space_group_name_H-M "C 2/M"
_symmetry_group_IT_number 12
_symmetry_cell_setting 'monoclinic'
loop_
_space_group_symop_operation_xyz
x,y,z
-x,y,-z
-x,-y,-z
x,-y,z
1/2+x,1/2+y,z
1/2-x,1/2+y,-z
1/2-x,1/2-y,-z
1/2+x,1/2-y,z
loop_
_atom_site_type_symbol
_atom_site_label
_atom_site_fract_x
_atom_site_fract_y
_atom_site_fract_z
Si Si1 0.037825 0.664446 0.451723
Si Si2 0.306459 0.668445 0.078843
Si Si3 0.841041 0.663662 0.463907
Si Si4 0.936541 0.832781 0.909167
Si Si5 0.650221 0.828675 0.046831
Si Si6 0.770678 0.165660 0.249014
Si Si7 0.083968 0.829076 0.332728
O O1 0.017200 0.500000 0.407881
O O2 0.103163 0.662835 0.548755
O O3 0.033684 0.762625 0.349791
O O4 0.000000 0.732665 0.500000
O O5 0.302010 0.500000 0.043348
O O6 0.314679 0.681954 0.203078
O O7 0.250000 0.750000 0.000000
O O8 0.354372 0.747110 0.062352
O O9 0.824008 0.500000 0.477551
O O10 0.789481 0.733258 0.356039
O O11 0.856823 0.755569 0.576767
O O12 0.899863 0.724819 0.936398
O O13 0.928495 0.789128 0.789747
O O14 0.918522 0.000000 0.909800
O O15 0.000000 0.807041 0.000000
O O16 0.708640 0.787286 0.155824
O O17 0.645389 0.000000 0.023747
O O18 0.770415 0.000000 0.285977
O O19 0.087341 0.000000 0.354563
#
# Coordination Sequence:
#
# PCOD8106202 Si02
#       7
#     8   8   8   8   8   8   8
#     4   8  16  32  51  74 106 139 172 215 265 314
#     4   9  17  31  51  76 109 144 178 220 266 312
#     4   9  18  31  51  78 108 142 174 211 263 318
#     4  10  22  41  60  78 104 139 182 230 276 323
#     4  10  21  36  56  82 109 143 185 226 273 325
#     4   9  18  33  53  80 113 144 177 220 265 319
#     4   9  18  34  55  76 103 138 174 218 268 316
#
# _framework density 18.475072999999998
#
# number of rings (size 3 to 8) (size 9 to 14) (size 15 to 20)
#    0.857    2.000    0.000    2.143    0.000    5.143 
#    2.571    0.714    0.000    0.000    0.000    0.000 
#    0.000    0.000    0.000    0.000    0.000    0.000 
#
# Total GULP energy -346938.896543 kJ/mol
# GULP energy per Si atom -12390.674877 kJ/mol
# Density = 1.843302 g / cm^3
# Si number density = 18.475073 Si / 1000 Ang^3
#
#
#
# Elastic Constant Matrix: (Units=GPa)
#
#
# Indices 1 2 3 4 5 6 
#
# 1 72.3401 36.7136 23.7080 0.0000 -12.7308 0.0000
# 2 36.7136 107.5556 46.7914 0.0000 -9.1110 0.0000
# 3 23.7080 46.7914 84.8527 0.0000 -4.7918 0.0000
# 4 0.0000 0.0000 0.0000 20.4959 0.0000 -3.6455
# 5 -12.7308 -9.1110 -4.7918 0.0000 20.4343 0.0000
# 6 0.0000 0.0000 0.0000 -3.6455 0.0000 31.2619
#
#
#
# Elastic Compliance Matrix: (Units=1/GPa)
#
#
# Indices 1 2 3 4 5 6 
#
# 1 0.018427 -0.004622 -0.002096 0.000000 0.008928 0.000000
# 2 -0.004622 0.013710 -0.006168 0.000000 0.001787 0.000000
# 3 -0.002096 -0.006168 0.015751 0.000000 -0.000362 0.000000
# 4 0.000000 0.000000 0.000000 0.049824 0.000000 0.005810
# 5 0.008928 0.001787 -0.000362 0.000000 0.055212 0.000000
# 6 0.000000 0.000000 0.000000 0.005810 0.000000 0.032665
#
#
# Mechanical properties :
#
#
# Convention : Reuss Voigt Hill
#
# Bulk Modulus (GPa) = 45.21305 53.24159 49.22732
# Shear Modulus (GPa) = 22.85891 24.94077 23.89984
#
# Velocity S-wave (km/s) = 3.52132 3.67818 3.60060
# Velocity P-wave (km/s) = 6.40769 6.84977 6.63241
#
# Compressibility (1/GPa) = 0.02211751
#
# Stress axis : x y z
#
# Youngs Moduli (GPa) = 54.26698 72.93983 63.48617
#
# Poissons Ratio (x) = 0.33714 0.13304
# Poissons Ratio (y) = 0.25083 0.39158
# Poissons Ratio (z) = 0.11372 0.44989
#
# Static dielectric constant tensor:
#      x y z
#    x 3.688430 0.000000 -0.471350 
#    y 0.000000 3.467830 0.000000 
#    z -0.471350 0.000000 3.410470 
# 
# 
# High freq. dielectric constant tensor:
#      x y z
#    x 1.695680 0.000000 -0.012780 
#    y 0.000000 1.726490 0.000000 
#    z -0.012780 0.000000 1.695920 
# 
# From -- ./inp_files/244321.got.cif
#   From: 2010.06.25/outbox.cif.g09.slc.cpg/sg12_123_cif.got.tgz:244321.got - 2010.06.28 00:19:55.
