data_PCOD8106674
_publ_section_title
;
Structure prediction by ZEFSAII (Michael W. Deem and Ramdas Pophale) SiO2 
 PCOD8106674
Probable space group: C 2/M
;
_chemical_formula_sum "Si O2"
_cell_formula_units_Z 56
_cell_length_a 15.007638
_cell_length_b 9.159982
_cell_length_c 22.577498
_cell_angle_alpha 90.000000
_cell_angle_beta 71.415151
_cell_angle_gamma 90.000000
_cell_volume 2941.871096
_symmetry_space_group_name_H-M "C 2/M"
_symmetry_group_IT_number 12
_symmetry_cell_setting 'monoclinic'
loop_
_space_group_symop_operation_xyz
x,y,z
-x,y,-z
-x,-y,-z
x,-y,z
1/2+x,1/2+y,z
1/2-x,1/2+y,-z
1/2-x,1/2-y,-z
1/2+x,1/2-y,z
loop_
_atom_site_type_symbol
_atom_site_label
_atom_site_fract_x
_atom_site_fract_y
_atom_site_fract_z
Si Si1 0.064475 0.326942 0.125085
Si Si2 0.569387 0.669918 0.345404
Si Si3 0.137611 0.829734 0.577480
Si Si4 0.170186 0.673821 0.218500
Si Si5 0.182406 0.830362 0.437146
Si Si6 0.648852 0.827123 0.856594
Si Si7 0.397653 0.172789 0.008086
O O1 0.067208 0.500000 0.126953
O O2 0.112828 0.263914 0.173798
O O3 0.125787 0.272204 0.054047
O O4 0.955179 0.278280 0.143113
O O5 0.586035 0.500000 0.326079
O O6 0.459846 0.710178 0.370557
O O7 0.616820 0.773342 0.287675
O O8 0.610091 0.708870 0.400993
O O9 0.137199 0.778159 0.508893
O O10 0.219421 0.749947 0.596392
O O11 0.157297 0.000000 0.576618
O O12 0.177034 0.500000 0.217075
O O13 0.274748 0.740554 0.197792
O O14 0.205204 0.000000 0.433746
O O15 0.662581 0.000000 0.844890
O O16 0.666776 0.780146 0.922330
O O17 0.402284 0.000000 0.006325
O O18 0.500000 0.236451 0.000000
#
# Coordination Sequence:
#
# PCOD8106674 Si02
#       7
#     8   8   8   8   8   8   8
#     4   8  16  32  52  73  99 131 166 207 254 303
#     4  10  21  37  54  72 101 140 176 205 239 294
#     4   9  18  34  57  83 106 129 163 208 253 295
#     4  11  23  35  48  72 105 137 170 208 252 297
#     4   9  18  34  57  82 105 131 164 204 252 301
#     4   9  17  33  56  76  96 128 170 210 250 304
#     4   7  11  24  50  77  94 118 163 210 249 297
#
# _framework density 19.035504
#
# number of rings (size 3 to 8) (size 9 to 14) (size 15 to 20)
#    0.000    3.000    0.000    2.571    0.000    4.571 
#    0.000    5.714    0.000    9.000    0.000    0.000 
#    0.000    0.000    0.000    0.000    0.000    0.000 
#
# Total GULP energy -346942.363696 kJ/mol
# GULP energy per Si atom -12390.798703 kJ/mol
# Density = 1.899218 g / cm^3
# Si number density = 19.035504 Si / 1000 Ang^3
#
#
#
# Elastic Constant Matrix: (Units=GPa)
#
#
# Indices 1 2 3 4 5 6 
#
# 1 54.9976 21.2028 7.3186 0.0000 -11.8712 0.0000
# 2 21.2028 35.8485 23.5733 0.0000 -8.0358 0.0000
# 3 7.3186 23.5733 60.2499 0.0000 -19.3045 0.0000
# 4 0.0000 0.0000 0.0000 19.5257 0.0000 1.2264
# 5 -11.8712 -8.0358 -19.3045 0.0000 23.0610 0.0000
# 6 0.0000 0.0000 0.0000 1.2264 0.0000 25.0040
#
#
#
# Elastic Compliance Matrix: (Units=1/GPa)
#
#
# Indices 1 2 3 4 5 6 
#
# 1 0.027423 -0.018618 0.008743 0.000000 0.014948 0.000000
# 2 -0.018618 0.050218 -0.020294 0.000000 -0.009073 0.000000
# 3 0.008743 -0.020294 0.030954 0.000000 0.023341 0.000000
# 4 0.000000 0.000000 0.000000 0.051373 0.000000 -0.002520
# 5 0.014948 -0.009073 0.023341 0.000000 0.067435 0.000000
# 6 0.000000 0.000000 0.000000 -0.002520 0.000000 0.040117
#
#
# Mechanical properties :
#
#
# Convention : Reuss Voigt Hill
#
# Bulk Modulus (GPa) = 20.72231 28.36506 24.54369
# Shear Modulus (GPa) = 14.53725 20.11824 17.32774
#
# Velocity S-wave (km/s) = 2.76649 3.25450 3.02037
# Velocity P-wave (km/s) = 4.59504 5.39034 5.00850
#
# Compressibility (1/GPa) = 0.04825716
#
# Stress axis : x y z
#
# Youngs Moduli (GPa) = 36.46535 19.91327 32.30577
#
# Poissons Ratio (x) = 0.37075 -0.28244
# Poissons Ratio (y) = 0.67891 0.65560
# Poissons Ratio (z) = -0.31880 0.40411
#
# Static dielectric constant tensor:
#      x y z
#    x 3.523920 0.000000 0.104030 
#    y 0.000000 3.087860 0.000000 
#    z 0.104030 0.000000 3.760970 
# 
# 
# High freq. dielectric constant tensor:
#      x y z
#    x 1.736080 0.000000 -0.000150 
#    y 0.000000 1.703260 0.000000 
#    z -0.000150 0.000000 1.746660 
# 
# From -- ./inp_files/337907.got.cif
#   From: 2010.06.25/outbox.cif.g09.slc.cpg/sg12_169_cif.got.tgz:337907.got - 2010.06.28 00:19:55.
