data_PCOD8106442
_publ_section_title
;
Structure prediction by ZEFSAII (Michael W. Deem and Ramdas Pophale) SiO2 
 PCOD8106442
Probable space group: C 2/M
;
_chemical_formula_sum "Si O2"
_cell_formula_units_Z 40
_cell_length_a 16.466531
_cell_length_b 17.806651
_cell_length_c 8.995534
_cell_angle_alpha 90.000000
_cell_angle_beta 130.340260
_cell_angle_gamma 90.000000
_cell_volume 2010.425764
_symmetry_space_group_name_H-M "C 2/M"
_symmetry_group_IT_number 12
_symmetry_cell_setting 'monoclinic'
loop_
_space_group_symop_operation_xyz
x,y,z
-x,y,-z
-x,-y,-z
x,-y,z
1/2+x,1/2+y,z
1/2-x,1/2+y,-z
1/2-x,1/2-y,-z
1/2+x,1/2-y,z
loop_
_atom_site_type_symbol
_atom_site_label
_atom_site_fract_x
_atom_site_fract_y
_atom_site_fract_z
Si Si1 0.234599 0.805769 0.763399
Si Si2 0.107954 0.790476 0.882666
Si Si3 0.705472 0.912743 0.425199
Si Si4 0.124671 0.919008 0.128225
Si Si5 0.574502 0.200779 0.443690
O O1 0.134474 0.824829 0.751654
O O2 0.274556 0.874565 0.711172
O O3 0.190691 0.735963 0.614429
O O4 0.327691 0.783250 0.988667
O O5 0.985822 0.761574 0.734156
O O6 0.145114 0.854010 0.037875
O O7 0.814741 0.902459 0.646319
O O8 0.603674 0.875135 0.388339
O O9 0.677473 0.000000 0.366177
O O10 0.165476 0.000000 0.115109
O O11 0.000000 0.923247 0.000000
O O12 0.500000 0.181947 0.500000
#
# Coordination Sequence:
#
# PCOD8106442 Si02
#       5
#     8   8   8   8   8
#     4  10  21  38  57  87 115 150 204 239 286 346
#     4  10  21  36  61  85 113 156 194 243 290 338
#     4  11  23  39  60  87 123 159 191 242 300 350
#     4  10  21  36  58  89 117 150 196 242 296 349
#     4  10  21  38  61  89 120 156 199 242 290 350
#
# _framework density 19.896284000000001
#
# number of rings (size 3 to 8) (size 9 to 14) (size 15 to 20)
#    0.000    1.800    2.000    1.800    2.800    1.200 
#    0.000    2.000    0.000    7.200    0.000    0.000 
#    0.000    0.000    0.000    0.000    0.000    0.000 
#
# Total GULP energy -247771.978897 kJ/mol
# GULP energy per Si atom -12388.598945 kJ/mol
# Density = 1.985100 g / cm^3
# Si number density = 19.896284 Si / 1000 Ang^3
#
#
#
# Elastic Constant Matrix: (Units=GPa)
#
#
# Indices 1 2 3 4 5 6 
#
# 1 77.3912 53.1967 28.2489 0.0000 -8.9270 0.0000
# 2 53.1967 116.4157 31.7954 0.0000 -24.4729 0.0000
# 3 28.2489 31.7954 78.9439 0.0000 -7.8155 0.0000
# 4 0.0000 0.0000 0.0000 27.3396 0.0000 -4.5183
# 5 -8.9270 -24.4729 -7.8155 0.0000 30.0089 0.0000
# 6 0.0000 0.0000 0.0000 -4.5183 0.0000 -9.0540
#
#
#
# Elastic Compliance Matrix: (Units=1/GPa)
#
#
# Indices 1 2 3 4 5 6 
#
# 1 0.019938 -0.008456 -0.003925 0.000000 -0.001988 0.000000
# 2 -0.008456 0.014943 -0.002089 0.000000 0.009127 0.000000
# 3 -0.003925 -0.002089 0.015016 0.000000 0.001039 0.000000
# 4 0.000000 0.000000 0.000000 0.033790 0.000000 -0.016863
# 5 -0.001988 0.009127 0.001039 0.000000 0.040446 0.000000
# 6 0.000000 0.000000 0.000000 -0.016863 0.000000 -0.102034
#
#
# Mechanical properties :
#
#
# Convention : Reuss Voigt Hill
#
# Bulk Modulus (GPa) = 47.71965 55.47033 51.59499
# Shear Modulus (GPa) = 86.16833 20.29291 53.23062
#
# Velocity S-wave (km/s) = 6.58808 3.19711 5.17804
# Velocity P-wave (km/s) = 9.05023 6.44740 7.85734
#
# Compressibility (1/GPa) = 0.02095573
#
# Stress axis : x y z
#
# Youngs Moduli (GPa) = 50.15670 66.91979 66.59520
#
# Poissons Ratio (x) = 0.56589 0.26140
# Poissons Ratio (y) = 0.42414 0.13912
# Poissons Ratio (z) = 0.19688 0.13980
#
# Static dielectric constant tensor:
#      x y z
#    x 3.486920 0.000000 0.004400 
#    y 0.000000 3.958850 0.000000 
#    z 0.004400 0.000000 3.762600 
# 
# 
# High freq. dielectric constant tensor:
#      x y z
#    x 1.764140 0.000000 0.004530 
#    y 0.000000 1.762530 0.000000 
#    z 0.004530 0.000000 1.787860 
# 
# From -- ./inp_files/58972.got.cif
#   From: 2010.06.25/outbox.cif.g09.slc.cpg/sg12_30_cif.got.tgz:58972.got - 2010.06.28 00:19:55.
