data_PCOD8106793
_publ_section_title
;
Structure prediction by ZEFSAII (Michael W. Deem and Ramdas Pophale) SiO2 
 PCOD8106793
Probable space group: C 2/M
;
_chemical_formula_sum "Si O2"
_cell_formula_units_Z 48
_cell_length_a 17.954190
_cell_length_b 8.732727
_cell_length_c 30.408770
_cell_angle_alpha 90.000000
_cell_angle_beta 149.417993
_cell_angle_gamma 90.000000
_cell_volume 2425.699372
_symmetry_space_group_name_H-M "C 2/M"
_symmetry_group_IT_number 12
_symmetry_cell_setting 'monoclinic'
loop_
_space_group_symop_operation_xyz
x,y,z
-x,y,-z
-x,-y,-z
x,-y,z
1/2+x,1/2+y,z
1/2-x,1/2+y,-z
1/2-x,1/2-y,-z
1/2+x,1/2-y,z
loop_
_atom_site_type_symbol
_atom_site_label
_atom_site_fract_x
_atom_site_fract_y
_atom_site_fract_z
Si Si1 0.840124 0.179055 0.673382
Si Si2 0.270109 0.682716 0.802647
Si Si3 0.116809 0.679953 0.636793
Si Si4 0.142948 0.683098 0.830336
Si Si5 0.803994 0.819761 0.482192
Si Si6 0.564639 0.332559 0.984487
O O1 0.719027 0.219573 0.647862
O O2 0.807684 0.270117 0.612433
O O3 0.995757 0.234567 0.771373
O O4 0.843247 0.000000 0.664692
O O5 0.284089 0.500000 0.808663
O O6 0.192278 0.745053 0.719360
O O7 0.174371 0.733144 0.795927
O O8 0.437596 0.751710 0.891025
O O9 0.086215 0.500000 0.625402
O O10 0.965053 0.764070 0.551458
O O11 0.129486 0.500000 0.827140
O O12 0.275166 0.746595 0.929232
O O13 0.750000 0.750000 0.500000
O O14 0.801116 0.000000 0.485239
O O15 0.592004 0.500000 0.977784
O O16 0.500000 0.352412 0.000000
#
# Coordination Sequence:
#
# PCOD8106793 Si02
#       6
#     8   8   8   8   8   8
#     4  11  23  37  53  77 112 148 181 220 267 318
#     4   8  14  28  52  78 102 134 179 227 272 318
#     4  10  21  37  56  79 110 147 183 220 265 317
#     4   9  16  29  53  80 104 136 183 233 273 316
#     4  12  25  41  62  84 106 134 173 220 269 323
#     4   7  11  22  45  77 104 129 173 229 273 312
#
# _framework density 19.788108000000001
#
# number of rings (size 3 to 8) (size 9 to 14) (size 15 to 20)
#    0.000    2.500    0.000    5.500    0.000    4.667 
#    0.000    0.833    0.000    5.500    0.000    0.000 
#    0.000    0.000    0.000    0.000    0.000    0.000 
#
# Total GULP energy -297436.387717 kJ/mol
# GULP energy per Si atom -12393.182822 kJ/mol
# Density = 1.974307 g / cm^3
# Si number density = 19.788108 Si / 1000 Ang^3
#
#
#
# Elastic Constant Matrix: (Units=GPa)
#
#
# Indices 1 2 3 4 5 6 
#
# 1 66.4356 33.7586 22.5018 -0.0001 22.4286 0.0000
# 2 33.7586 55.1070 21.3771 0.0000 15.4833 0.0001
# 3 22.5018 21.3771 111.6432 -0.0001 31.6593 0.0000
# 4 -0.0001 0.0000 -0.0001 19.9856 0.0000 3.8883
# 5 22.4286 15.4833 31.6593 0.0000 32.8724 0.0000
# 6 0.0000 0.0001 0.0000 3.8883 0.0000 19.9169
#
#
#
# Elastic Compliance Matrix: (Units=1/GPa)
#
#
# Indices 1 2 3 4 5 6 
#
# 1 0.025114 -0.012277 0.000699 0.000000 -0.012026 0.000000
# 2 -0.012277 0.027144 -0.002026 0.000000 -0.002457 0.000000
# 3 0.000699 -0.002026 0.012476 0.000000 -0.011539 0.000000
# 4 0.000000 0.000000 0.000000 0.052012 0.000000 -0.010154
# 5 -0.012026 -0.002457 -0.011539 0.000000 0.050896 0.000000
# 6 0.000000 0.000000 0.000000 -0.010154 0.000000 0.052191
#
#
# Mechanical properties :
#
#
# Convention : Reuss Voigt Hill
#
# Bulk Modulus (GPa) = 26.64839 43.16232 34.90536
# Shear Modulus (GPa) = 19.26423 24.92489 22.09456
#
# Velocity S-wave (km/s) = 3.12352 3.55292 3.34512
# Velocity P-wave (km/s) = 5.14826 6.22018 5.70943
#
# Compressibility (1/GPa) = 0.03752572
#
# Stress axis : x y z
#
# Youngs Moduli (GPa) = 39.81897 36.84076 80.15267
#
# Poissons Ratio (x) = 0.45230 -0.05605
# Poissons Ratio (y) = 0.48886 0.16240
# Poissons Ratio (z) = -0.02785 0.07465
#
# Static dielectric constant tensor:
#      x y z
#    x 3.434550 0.000000 0.076470 
#    y 0.000000 3.181640 0.000000 
#    z 0.076470 0.000000 4.190990 
# 
# 
# High freq. dielectric constant tensor:
#      x y z
#    x 1.751640 0.000000 0.010080 
#    y 0.000000 1.727720 0.000000 
#    z 0.010080 0.000000 1.800310 
# 
# From -- ./inp_files/274087.got.cif
#   From: 2010.06.25/outbox.cif.g09.slc.cpg/sg12_138_cif.got.tgz:274087.got - 2010.06.28 00:19:55.
