data_PCOD8106927
_publ_section_title
;
Structure prediction by ZEFSAII (Michael W. Deem and Ramdas Pophale) SiO2 
 PCOD8106927
Probable space group: C 2/M
;
_chemical_formula_sum "Si O2"
_cell_formula_units_Z 56
_cell_length_a 10.855670
_cell_length_b 13.980609
_cell_length_c 26.015247
_cell_angle_alpha 90.000000
_cell_angle_beta 43.656772
_cell_angle_gamma 90.000000
_cell_volume 2725.659958
_symmetry_space_group_name_H-M "C 2/M"
_symmetry_group_IT_number 12
_symmetry_cell_setting 'monoclinic'
loop_
_space_group_symop_operation_xyz
x,y,z
-x,y,-z
-x,-y,-z
x,-y,z
1/2+x,1/2+y,z
1/2-x,1/2+y,-z
1/2-x,1/2-y,-z
1/2+x,1/2-y,z
loop_
_atom_site_type_symbol
_atom_site_label
_atom_site_fract_x
_atom_site_fract_y
_atom_site_fract_z
Si Si1 0.907152 0.248691 0.694667
Si Si2 0.540758 0.610880 0.043902
Si Si3 0.594509 0.891423 0.815833
Si Si4 0.910480 0.612343 0.975300
Si Si5 0.338971 0.107824 0.801664
Si Si6 0.284199 0.394456 0.426340
Si Si7 0.976124 0.604938 0.589357
O O1 0.738767 0.180210 0.749727
O O2 0.933915 0.313536 0.737220
O O3 0.882036 0.320370 0.655176
O O4 0.077051 0.185209 0.631585
O O5 0.581467 0.500000 0.022292
O O6 0.372688 0.627802 0.132072
O O7 0.500000 0.657422 0.000000
O O8 0.714474 0.656158 0.020273
O O9 0.546554 0.862309 0.888404
O O10 0.416211 0.883544 0.835746
O O11 0.669888 0.000000 0.791694
O O12 0.887675 0.500000 0.989772
O O13 0.000000 0.656704 0.000000
O O14 0.373656 0.000000 0.770103
O O15 0.373728 0.500000 0.406803
O O16 0.143117 0.401987 0.424269
O O17 0.177671 0.365584 0.510856
O O18 0.983835 0.500000 0.613606
#
# Coordination Sequence:
#
# PCOD8106927 Si02
#       7
#     8   8   8   8   8   8   8
#     4  12  21  34  55  87 116 145 184 236 284 336
#     4   9  15  31  59  79 102 151 204 236 279 348
#     4  10  21  38  57  80 116 155 189 233 296 350
#     4   9  17  33  57  83 109 146 197 251 292 332
#     4  10  21  37  57  82 113 154 195 235 286 347
#     4   9  19  37  59  81 110 149 187 223 278 339
#     4   9  19  37  59  82 110 146 187 231 272 329
#
# _framework density 20.545483000000001
#
# number of rings (size 3 to 8) (size 9 to 14) (size 15 to 20)
#    0.000    2.286    1.429    3.000    0.000    0.000 
#    5.143    1.429    0.000    0.000    0.000   12.000 
#    0.000    0.000    0.000    0.000    0.000    0.000 
#
# Total GULP energy -346999.451091 kJ/mol
# GULP energy per Si atom -12392.837539 kJ/mol
# Density = 2.049872 g / cm^3
# Si number density = 20.545483 Si / 1000 Ang^3
#
#
#
# Elastic Constant Matrix: (Units=GPa)
#
#
# Indices 1 2 3 4 5 6 
#
# 1 102.9713 31.8450 52.9576 -0.0010 -1.1277 -0.0006
# 2 31.8450 110.2106 65.0649 -0.0006 -3.9399 -0.0002
# 3 52.9576 65.0649 122.0562 -0.0030 -0.7078 -0.0017
# 4 -0.0010 -0.0006 -0.0030 103.3308 0.0009 34.3125
# 5 -1.1277 -3.9399 -0.7078 0.0009 32.5024 0.0006
# 6 -0.0006 -0.0002 -0.0017 34.3125 0.0006 26.9426
#
#
#
# Elastic Compliance Matrix: (Units=1/GPa)
#
#
# Indices 1 2 3 4 5 6 
#
# 1 0.012530 -0.000588 -0.005122 0.000000 0.000252 0.000000
# 2 -0.000588 0.013337 -0.006846 0.000000 0.001447 0.000000
# 3 -0.005122 -0.006846 0.014061 0.000000 -0.000701 0.000001
# 4 0.000000 0.000000 0.000000 0.016769 0.000000 -0.021357
# 5 0.000252 0.001447 -0.000701 0.000000 0.030936 -0.000001
# 6 0.000000 0.000000 0.000001 -0.021357 -0.000001 0.064314
#
#
# Mechanical properties :
#
#
# Convention : Reuss Voigt Hill
#
# Bulk Modulus (GPa) = 67.49358 70.55256 69.02307
# Shear Modulus (GPa) = 27.47298 44.91320 36.19309
#
# Velocity S-wave (km/s) = 3.66071 4.68058 4.20170
# Velocity P-wave (km/s) = 7.12670 7.97651 7.56355
#
# Compressibility (1/GPa) = 0.01481622
#
# Stress axis : x y z
#
# Youngs Moduli (GPa) = 79.80804 74.98031 71.12095
#
# Poissons Ratio (x) = 0.04407 0.36426
# Poissons Ratio (y) = 0.04691 0.48690
# Poissons Ratio (z) = 0.40875 0.51332
#
# Static dielectric constant tensor:
#      x y z
#    x 3.648430 0.000000 -0.002410 
#    y 0.000000 3.901060 0.000000 
#    z -0.002410 0.000000 3.706640 
# 
# 
# High freq. dielectric constant tensor:
#      x y z
#    x 1.784330 0.000000 0.000360 
#    y 0.000000 1.811660 0.000000 
#    z 0.000360 0.000000 1.803210 
# 
# From -- ./inp_files/263252.got.cif
#   From: 2010.06.25/outbox.cif.g09.slc.cpg/sg12_132_cif.got.tgz:263252.got - 2010.06.28 00:19:55.
