data_PCOD8106322
_publ_section_title
;
Structure prediction by ZEFSAII (Michael W. Deem and Ramdas Pophale) SiO2 
 PCOD8106322
Probable space group: C 2/M
;
_chemical_formula_sum "Si O2"
_cell_formula_units_Z 56
_cell_length_a 9.236384
_cell_length_b 27.987574
_cell_length_c 12.360617
_cell_angle_alpha 90.000000
_cell_angle_beta 57.055236
_cell_angle_gamma 90.000000
_cell_volume 2681.454274
_symmetry_space_group_name_H-M "C 2/M"
_symmetry_group_IT_number 12
_symmetry_cell_setting 'monoclinic'
loop_
_space_group_symop_operation_xyz
x,y,z
-x,y,-z
-x,-y,-z
x,-y,z
1/2+x,1/2+y,z
1/2-x,1/2+y,-z
1/2-x,1/2-y,-z
1/2+x,1/2-y,z
loop_
_atom_site_type_symbol
_atom_site_label
_atom_site_fract_x
_atom_site_fract_y
_atom_site_fract_z
Si Si1 0.371579 0.676375 0.957217
Si Si2 0.907753 0.399424 0.292556
Si Si3 0.236113 0.000000 0.103736
Si Si4 0.154374 0.223854 0.700762
Si Si5 0.624393 0.353686 0.546199
Si Si6 0.154470 0.100118 0.198929
Si Si7 0.988361 0.500000 0.818208
Si Si8 0.914267 0.303743 0.774316
O O1 0.474843 0.707425 0.828139
O O2 0.296401 0.630320 0.926911
O O3 0.500000 0.659711 0.000000
O O4 0.210091 0.705988 0.072073
O O5 0.775672 0.388624 0.443955
O O6 0.813407 0.393535 0.216114
O O7 0.984543 0.453123 0.268590
O O8 0.061775 0.360965 0.241882
O O9 0.121496 0.046433 0.172315
O O10 0.384775 0.000000 0.132481
O O11 0.301838 0.000000 0.952289
O O12 0.191717 0.195273 0.574455
O O13 0.321831 0.217842 0.706135
O O14 0.106202 0.279902 0.702022
O O15 0.500000 0.337632 0.500000
O O16 0.525372 0.384187 0.676260
#
# Coordination Sequence:
#
# PCOD8106322 Si02
#       8
#     8   8   4   8   8   8   4   8
#     4   9  19  37  55  79 117 156 190 237 291 349
#     4  10  21  36  57  85 114 153 197 238 287 340
#     4   9  16  29  54  89 115 143 190 241 293 343
#     4  10  23  39  57  84 118 152 196 240 284 349
#     4   9  20  38  57  80 115 156 197 236 282 339
#     4   9  18  34  57  82 115 152 191 243 290 341
#     4   9  18  33  55  86 119 146 189 241 289 345
#     4  11  23  37  59  87 116 153 193 237 298 344
#
# _framework density 20.88419
#
# number of rings (size 3 to 8) (size 9 to 14) (size 15 to 20)
#    0.000    2.429    0.000    1.286    6.000    3.429 
#    0.000    3.214    0.000    8.571    0.000    0.000 
#    0.000    0.000    0.000    0.000    0.000    0.000 
#
# Total GULP energy -347110.304713 kJ/mol
# GULP energy per Si atom -12396.796597 kJ/mol
# Density = 2.083666 g / cm^3
# Si number density = 20.884190 Si / 1000 Ang^3
#
#
#
# Elastic Constant Matrix: (Units=GPa)
#
#
# Indices 1 2 3 4 5 6 
#
# 1 53.7842 29.4690 22.2554 0.0000 0.0080 0.0000
# 2 29.4690 125.2517 31.0219 0.0000 8.5347 0.0000
# 3 22.2554 31.0219 96.5382 0.0000 9.7304 0.0000
# 4 0.0000 0.0000 0.0000 28.7091 0.0000 2.0481
# 5 0.0080 8.5347 9.7304 0.0000 21.9781 0.0000
# 6 0.0000 0.0000 0.0000 2.0481 0.0000 24.8406
#
#
#
# Elastic Compliance Matrix: (Units=1/GPa)
#
#
# Indices 1 2 3 4 5 6 
#
# 1 0.022824 -0.004588 -0.004151 0.000000 0.003611 0.000000
# 2 -0.004588 0.009703 -0.001759 0.000000 -0.002987 0.000000
# 3 -0.004151 -0.001759 0.012364 0.000000 -0.004789 0.000000
# 4 0.000000 0.000000 0.000000 0.035038 0.000000 -0.002889
# 5 0.003611 -0.002987 -0.004789 0.000000 0.048779 0.000000
# 6 0.000000 0.000000 0.000000 -0.002889 0.000000 0.040495
#
#
# Mechanical properties :
#
#
# Convention : Reuss Voigt Hill
#
# Bulk Modulus (GPa) = 41.85260 49.00739 45.42999
# Shear Modulus (GPa) = 25.23175 27.96076 26.59625
#
# Velocity S-wave (km/s) = 3.47965 3.66300 3.57250
# Velocity P-wave (km/s) = 6.01895 6.43485 6.23037
#
# Compressibility (1/GPa) = 0.02389338
#
# Stress axis : x y z
#
# Youngs Moduli (GPa) = 43.81393 103.06537 80.88247
#
# Poissons Ratio (x) = 0.47284 0.33577
# Poissons Ratio (y) = 0.20101 0.14228
# Poissons Ratio (z) = 0.18189 0.18130
#
# Static dielectric constant tensor:
#      x y z
#    x 3.402420 0.000000 -0.002130 
#    y 0.000000 3.906130 0.000000 
#    z -0.002130 0.000000 3.914780 
# 
# 
# High freq. dielectric constant tensor:
#      x y z
#    x 1.785890 0.000000 -0.004140 
#    y 0.000000 1.816600 0.000000 
#    z -0.004140 0.000000 1.828290 
# 
# From -- ./inp_files/125678.got.cif
#   From: 2010.06.25/outbox.cif.g09.slc.cpg/sg12_63_cif.got.tgz:125678.got - 2010.06.28 00:19:55.
