data_PCOD8106761
_publ_section_title
;
Structure prediction by ZEFSAII (Michael W. Deem and Ramdas Pophale) SiO2 
 PCOD8106761
Probable space group: C 2/M
;
_chemical_formula_sum "Si O2"
_cell_formula_units_Z 64
_cell_length_a 30.663365
_cell_length_b 8.930080
_cell_length_c 15.595921
_cell_angle_alpha 90.000000
_cell_angle_beta 47.218474
_cell_angle_gamma 90.000000
_cell_volume 3134.382636
_symmetry_space_group_name_H-M "C 2/M"
_symmetry_group_IT_number 12
_symmetry_cell_setting 'monoclinic'
loop_
_space_group_symop_operation_xyz
x,y,z
-x,y,-z
-x,-y,-z
x,-y,z
1/2+x,1/2+y,z
1/2-x,1/2+y,-z
1/2-x,1/2-y,-z
1/2+x,1/2-y,z
loop_
_atom_site_type_symbol
_atom_site_label
_atom_site_fract_x
_atom_site_fract_y
_atom_site_fract_z
Si Si1 0.908356 0.671100 0.185719
Si Si2 0.931547 0.676569 0.586247
Si Si3 0.214368 0.825416 0.928353
Si Si4 0.098292 0.828005 0.546835
Si Si5 0.110360 0.329195 0.987279
Si Si6 0.002010 0.826018 0.816383
Si Si7 0.168734 0.825069 0.178174
Si Si8 0.186654 0.176017 0.577404
O O1 0.902606 0.500000 0.224266
O O2 0.968095 0.740654 0.144211
O O3 0.851759 0.763151 0.292892
O O4 0.912204 0.682242 0.079094
O O5 0.926627 0.500000 0.604483
O O6 0.902811 0.722476 0.534052
O O7 0.894676 0.754867 0.711739
O O8 0.000000 0.730510 0.500000
O O9 0.174373 0.749350 0.908735
O O10 0.181386 0.792382 0.061982
O O11 0.221568 0.000000 0.900530
O O12 0.279150 0.751580 0.836271
O O13 0.038533 0.800422 0.680717
O O14 0.155195 0.784577 0.528917
O O15 0.102389 0.000000 0.511245
O O16 0.115349 0.500000 0.011849
O O17 0.063421 0.241879 0.110214
O O18 0.997989 0.000000 0.845203
O O19 0.168188 0.000000 0.199673
O O20 0.250000 0.250000 0.500000
O O21 0.192666 0.000000 0.580198
#
# Coordination Sequence:
#
# PCOD8106761 Si02
#       8
#     8   8   8   8   8   8   8   8
#     4  10  21  37  55  81 116 154 194 236 288 346
#     4  11  25  41  61  92 123 157 202 251 301 357
#     4  10  22  40  63  90 117 153 198 245 298 355
#     4   9  21  40  59  84 117 154 197 243 297 357
#     4  11  23  36  56  86 119 155 195 238 287 348
#     4  10  21  37  58  84 117 154 195 242 291 346
#     4  10  22  42  65  87 117 156 194 243 303 358
#     4  10  21  38  61  87 115 153 196 242 294 352
#
# _framework density 20.418693999999999
#
# number of rings (size 3 to 8) (size 9 to 14) (size 15 to 20)
#    0.000    1.875    0.000    3.750    1.750   10.000 
#    0.000    1.250    0.000    0.000    0.000    0.000 
#    0.000    0.000    0.000    0.000    0.000    0.000 
#
# Total GULP energy -396944.661375 kJ/mol
# GULP energy per Si atom -12404.520668 kJ/mol
# Density = 2.037222 g / cm^3
# Si number density = 20.418694 Si / 1000 Ang^3
#
#
#
# Elastic Constant Matrix: (Units=GPa)
#
#
# Indices 1 2 3 4 5 6 
#
# 1 66.8851 37.3162 25.4455 0.0000 -19.6366 0.0001
# 2 37.3162 116.3404 40.1004 -0.0004 -8.3590 0.0003
# 3 25.4455 40.1004 74.9527 0.0000 -19.9964 0.0000
# 4 0.0000 -0.0004 0.0000 37.4706 0.0000 -5.2377
# 5 -19.6366 -8.3590 -19.9964 0.0000 34.0531 0.0000
# 6 0.0001 0.0003 0.0000 -5.2377 0.0000 37.0502
#
#
#
# Elastic Compliance Matrix: (Units=1/GPa)
#
#
# Indices 1 2 3 4 5 6 
#
# 1 0.021725 -0.005678 -0.001621 0.000000 0.010182 0.000000
# 2 -0.005678 0.012044 -0.005456 0.000000 -0.003521 0.000000
# 3 -0.001621 -0.005456 0.019214 0.000000 0.009009 0.000000
# 4 0.000000 0.000000 0.000000 0.027226 0.000000 0.003849
# 5 0.010182 -0.003521 0.009009 0.000000 0.039663 0.000000
# 6 0.000000 0.000000 0.000000 0.003849 0.000000 0.027534
#
#
# Mechanical properties :
#
#
# Convention : Reuss Voigt Hill
#
# Bulk Modulus (GPa) = 36.39807 51.54471 43.97139
# Shear Modulus (GPa) = 27.46141 32.06918 29.76529
#
# Velocity S-wave (km/s) = 3.67129 3.96735 3.82219
# Velocity P-wave (km/s) = 5.98629 6.80332 6.40784
#
# Compressibility (1/GPa) = 0.02747398
#
# Stress axis : x y z
#
# Youngs Moduli (GPa) = 46.03030 83.02833 52.04441
#
# Poissons Ratio (x) = 0.47143 0.08437
# Poissons Ratio (y) = 0.26136 0.28393
# Poissons Ratio (z) = 0.07462 0.45297
#
# Static dielectric constant tensor:
#      x y z
#    x 3.682120 0.000000 -0.160660 
#    y 0.000000 3.788720 0.000000 
#    z -0.160660 0.000000 3.621730 
# 
# 
# High freq. dielectric constant tensor:
#      x y z
#    x 1.800270 0.000000 -0.010700 
#    y 0.000000 1.810590 0.000000 
#    z -0.010700 0.000000 1.793500 
# 
# From -- ./inp_files/249717.got.cif
#   From: 2010.06.25/outbox.cif.g09.slc.cpg/sg12_125_cif.got.tgz:249717.got - 2010.06.28 00:19:55.
