data_PCOD8106301
_publ_section_title
;
Structure prediction by ZEFSAII (Michael W. Deem and Ramdas Pophale) SiO2 
 PCOD8106301
Probable space group: C 2/M
;
_chemical_formula_sum "Si O2"
_cell_formula_units_Z 56
_cell_length_a 20.405855
_cell_length_b 9.253716
_cell_length_c 29.096187
_cell_angle_alpha 90.000000
_cell_angle_beta 29.992274
_cell_angle_gamma 90.000000
_cell_volume 2746.474672
_symmetry_space_group_name_H-M "C 2/M"
_symmetry_group_IT_number 12
_symmetry_cell_setting 'monoclinic'
loop_
_space_group_symop_operation_xyz
x,y,z
-x,y,-z
-x,-y,-z
x,-y,z
1/2+x,1/2+y,z
1/2-x,1/2+y,-z
1/2-x,1/2-y,-z
1/2+x,1/2-y,z
loop_
_atom_site_type_symbol
_atom_site_label
_atom_site_fract_x
_atom_site_fract_y
_atom_site_fract_z
Si Si1 0.353057 0.164738 0.106053
Si Si2 0.346626 0.668870 0.592499
Si Si3 0.878743 0.332853 0.906298
Si Si4 0.326390 0.839703 0.517470
Si Si5 0.866578 0.666991 0.806772
Si Si6 0.439745 0.339570 0.374325
Si Si7 0.643560 0.170702 0.792075
O O1 0.274159 0.265609 0.119143
O O2 0.338253 0.226782 0.166930
O O3 0.301188 0.000000 0.134959
O O4 0.500000 0.173095 0.000000
O O5 0.500000 0.708846 0.500000
O O6 0.324549 0.500000 0.596112
O O7 0.281704 0.759114 0.590832
O O8 0.271036 0.716929 0.684830
O O9 0.858175 0.500000 0.931553
O O10 0.900338 0.311655 0.839268
O O11 0.007929 0.267762 0.852932
O O12 0.750000 0.250000 0.000000
O O13 0.437425 0.744101 0.424471
O O14 0.204409 0.855125 0.558022
O O15 0.381755 0.000000 0.494947
O O16 0.868077 0.500000 0.791676
O O17 0.974371 0.751189 0.712968
O O18 0.499266 0.500000 0.346824
O O19 0.629519 0.000000 0.800951
#
# Coordination Sequence:
#
# PCOD8106301 Si02
#       7
#     8   8   8   8   8   8   8
#     4  10  21  38  61  86 116 158 204 246 292 356
#     4  10  21  36  57  83 114 158 204 240 284 354
#     4  10  21  38  61  86 116 152 194 247 300 356
#     4  10  21  37  57  84 117 149 189 244 298 342
#     4  11  23  37  58  89 121 151 190 246 307 356
#     4  10  21  37  59  84 113 153 195 237 288 356
#     4   9  19  37  59  84 116 155 200 245 291 347
#
# _framework density 20.389773999999999
#
# number of rings (size 3 to 8) (size 9 to 14) (size 15 to 20)
#    0.000    2.000    0.000    3.000    2.000    5.714 
#    0.000    2.143    0.000    0.000    0.000    0.000 
#    0.000    0.000    0.000    0.000    0.000    0.000 
#
# Total GULP energy -347216.032305 kJ/mol
# GULP energy per Si atom -12400.572582 kJ/mol
# Density = 2.034337 g / cm^3
# Si number density = 20.389774 Si / 1000 Ang^3
#
#
#
# Elastic Constant Matrix: (Units=GPa)
#
#
# Indices 1 2 3 4 5 6 
#
# 1 52.5424 20.8573 4.3395 -0.0011 5.0752 0.0037
# 2 20.8573 100.9186 33.8440 -0.0018 9.5878 0.0056
# 3 4.3395 33.8440 104.3404 -0.0025 10.4307 0.0003
# 4 -0.0011 -0.0018 -0.0025 26.8016 -0.0003 1.0410
# 5 5.0752 9.5878 10.4307 -0.0003 36.4839 -0.0006
# 6 0.0037 0.0056 0.0003 1.0410 -0.0006 28.4970
#
#
#
# Elastic Compliance Matrix: (Units=1/GPa)
#
#
# Indices 1 2 3 4 5 6 
#
# 1 0.020901 -0.004384 0.000750 0.000001 -0.001970 -0.000002
# 2 -0.004384 0.012174 -0.003611 0.000000 -0.001557 -0.000002
# 3 0.000750 -0.003611 0.010953 0.000001 -0.002287 0.000000
# 4 0.000001 0.000000 0.000001 0.037364 0.000000 -0.001365
# 5 -0.001970 -0.001557 -0.002287 0.000000 0.028746 0.000001
# 6 -0.000002 -0.000002 0.000000 -0.001365 0.000001 0.035141
#
#
# Mechanical properties :
#
#
# Convention : Reuss Voigt Hill
#
# Bulk Modulus (GPa) = 33.85558 41.76479 37.81018
# Shear Modulus (GPa) = 29.47851 31.60719 30.54285
#
# Velocity S-wave (km/s) = 3.80643 3.94146 3.87453
# Velocity P-wave (km/s) = 5.99656 6.42193 6.21289
#
# Compressibility (1/GPa) = 0.02953723
#
# Stress axis : x y z
#
# Youngs Moduli (GPa) = 47.84491 82.14325 91.30234
#
# Poissons Ratio (x) = 0.36011 -0.06844
# Poissons Ratio (y) = 0.20975 0.32967
# Poissons Ratio (z) = -0.03587 0.29660
#
# Static dielectric constant tensor:
#      x y z
#    x 3.893200 -0.000020 0.026470 
#    y -0.000020 3.803040 0.000000 
#    z 0.026470 0.000000 3.859590 
# 
# 
# High freq. dielectric constant tensor:
#      x y z
#    x 1.798940 0.000000 0.007340 
#    y 0.000000 1.782100 0.000000 
#    z 0.007340 0.000000 1.806100 
# 
# From -- ./inp_files/380652.got.cif
#   From: 2010.06.25/outbox.cif.g09.slc.cpg/sg12_191_cif.got.tgz:380652.got - 2010.06.28 00:19:55.
