data_PCOD8106288
_publ_section_title
;
Structure prediction by ZEFSAII (Michael W. Deem and Ramdas Pophale) SiO2 
 PCOD8106288
Probable space group: C 2/M
;
_chemical_formula_sum "Si O2"
_cell_formula_units_Z 52
_cell_length_a 18.850373
_cell_length_b 11.754951
_cell_length_c 26.835950
_cell_angle_alpha 90.000000
_cell_angle_beta 26.968529
_cell_angle_gamma 90.000000
_cell_volume 2696.721013
_symmetry_space_group_name_H-M "C 2/M"
_symmetry_group_IT_number 12
_symmetry_cell_setting 'monoclinic'
loop_
_space_group_symop_operation_xyz
x,y,z
-x,y,-z
-x,-y,-z
x,-y,z
1/2+x,1/2+y,z
1/2-x,1/2+y,-z
1/2-x,1/2-y,-z
1/2+x,1/2-y,z
loop_
_atom_site_type_symbol
_atom_site_label
_atom_site_fract_x
_atom_site_fract_y
_atom_site_fract_z
Si Si1 0.415967 0.000000 0.148314
Si Si2 0.952181 0.209104 0.806495
Si Si3 0.079008 0.249252 0.830528
Si Si4 0.739976 0.500000 0.094122
Si Si5 0.200631 0.368913 0.234732
Si Si6 0.694807 0.368737 0.940017
Si Si7 0.907210 0.000000 0.706786
Si Si8 0.425756 0.279496 0.377281
O O1 0.421164 0.885137 0.177186
O O2 0.251604 0.000000 0.224066
O O3 0.572261 0.000000 0.015933
O O4 0.819074 0.112620 0.897325
O O5 0.860023 0.328922 0.860065
O O6 0.064218 0.200527 0.784182
O O7 0.059987 0.193222 0.690418
O O8 0.236788 0.205084 0.758064
O O9 0.940828 0.208192 0.952817
O O10 0.652678 0.500000 0.200301
O O11 0.197705 0.500000 0.252648
O O12 0.306648 0.350907 0.118944
O O13 0.026205 0.329429 0.330850
O O14 0.667790 0.500000 0.971028
O O15 0.013178 0.889037 0.629938
O O16 0.250000 0.250000 0.500000
#
# Coordination Sequence:
#
# PCOD8106288 Si02
#       8
#     4   8   8   4   8   8   4   8
#     4  12  23  34  59  86 124 161 184 231 292 352
#     4  10  23  37  56  88 116 153 195 239 283 346
#     4  12  23  35  56  83 126 154 187 233 289 342
#     4  10  21  36  58  85 122 159 192 227 289 348
#     4  10  22  39  58  85 113 153 198 234 280 347
#     4  10  21  36  57  81 117 160 199 224 269 346
#     4  10  21  40  61  91 113 143 204 247 280 353
#     4  10  22  43  66  82 108 148 199 250 296 340
#
# _framework density 19.282677
#
# number of rings (size 3 to 8) (size 9 to 14) (size 15 to 20)
#    0.000    1.538    3.077    1.615    4.308    2.462 
#    0.000    0.769    0.000    1.846    0.000    0.000 
#    0.000    0.000    0.000    0.000    0.000    0.000 
#
# Total GULP energy -322316.290701 kJ/mol
# GULP energy per Si atom -12396.780412 kJ/mol
# Density = 1.923879 g / cm^3
# Si number density = 19.282677 Si / 1000 Ang^3
#
#
#
# Elastic Constant Matrix: (Units=GPa)
#
#
# Indices 1 2 3 4 5 6 
#
# 1 134.1023 64.2286 40.0091 -0.0003 -14.4753 0.0001
# 2 64.2286 163.2208 37.3967 -0.0019 -9.5366 -0.0013
# 3 40.0091 37.3967 108.6051 -0.0145 -22.1543 -0.0036
# 4 -0.0003 -0.0019 -0.0145 22.8049 -0.0020 -5.9827
# 5 -14.4753 -9.5366 -22.1543 -0.0020 16.4568 0.0000
# 6 0.0001 -0.0013 -0.0036 -5.9827 0.0000 21.2117
#
#
#
# Elastic Compliance Matrix: (Units=1/GPa)
#
#
# Indices 1 2 3 4 5 6 
#
# 1 0.010027 -0.003304 -0.001582 -0.000001 0.004775 -0.000001
# 2 -0.003304 0.007754 -0.001556 0.000000 -0.000508 0.000000
# 3 -0.001582 -0.001556 0.013591 0.000011 0.016003 0.000005
# 4 -0.000001 0.000000 0.000011 0.047354 0.000020 0.013356
# 5 0.004775 -0.000508 0.016003 0.000020 0.086214 0.000008
# 6 -0.000001 0.000000 0.000005 0.013356 0.000008 0.050911
#
#
# Mechanical properties :
#
#
# Convention : Reuss Voigt Hill
#
# Bulk Modulus (GPa) = 54.09394 76.57742 65.33568
# Shear Modulus (GPa) = 21.28591 29.71427 25.50009
#
# Velocity S-wave (km/s) = 3.32608 3.92979 3.64048
# Velocity P-wave (km/s) = 6.54710 7.77112 7.18522
#
# Compressibility (1/GPa) = 0.01848636
#
# Stress axis : x y z
#
# Youngs Moduli (GPa) = 99.73082 128.96902 73.57965
#
# Poissons Ratio (x) = 0.42614 0.11640
# Poissons Ratio (y) = 0.32953 0.11452
# Poissons Ratio (z) = 0.15777 0.20072
#
# Static dielectric constant tensor:
#      x y z
#    x 3.479590 0.000000 -0.113370 
#    y 0.000000 4.122710 0.000010 
#    z -0.113370 0.000010 3.139900 
# 
# 
# High freq. dielectric constant tensor:
#      x y z
#    x 1.744880 0.000000 -0.016390 
#    y 0.000000 1.770100 0.000000 
#    z -0.016390 0.000000 1.711680 
# 
# From -- ./inp_files/315814.got.cif
#   From: 2010.06.25/outbox.cif.g09.slc.cpg/sg12_158_cif.got.tgz:315814.got - 2010.06.28 00:19:55.
