data_PCOD8106982
_publ_section_title
;
Structure prediction by ZEFSAII (Michael W. Deem and Ramdas Pophale) SiO2 
 PCOD8106982
Probable space group: C 2/M
;
_chemical_formula_sum "Si O2"
_cell_formula_units_Z 56
_cell_length_a 17.872467
_cell_length_b 8.461507
_cell_length_c 18.633581
_cell_angle_alpha 90.000000
_cell_angle_beta 104.350662
_cell_angle_gamma 90.000000
_cell_volume 2729.991602
_symmetry_space_group_name_H-M "C 2/M"
_symmetry_group_IT_number 12
_symmetry_cell_setting 'monoclinic'
loop_
_space_group_symop_operation_xyz
x,y,z
-x,y,-z
-x,-y,-z
x,-y,z
1/2+x,1/2+y,z
1/2-x,1/2+y,-z
1/2-x,1/2-y,-z
1/2+x,1/2-y,z
loop_
_atom_site_type_symbol
_atom_site_label
_atom_site_fract_x
_atom_site_fract_y
_atom_site_fract_z
Si Si1 0.478360 0.188589 0.573461
Si Si2 0.808813 0.312672 0.572200
Si Si3 0.596255 0.185747 0.719444
Si Si4 0.877458 0.181750 0.851784
Si Si5 0.259019 0.816652 0.716109
Si Si6 0.666219 0.685304 0.996429
Si Si7 0.958150 0.314654 0.139128
O O1 0.500000 0.253976 0.500000
O O2 0.394122 0.253339 0.575214
O O3 0.540796 0.257599 0.644651
O O4 0.479388 0.000000 0.573957
O O5 0.809921 0.500000 0.570674
O O6 0.750000 0.250000 0.500000
O O7 0.782797 0.250094 0.643814
O O8 0.684657 0.225860 0.726496
O O9 0.570441 0.250561 0.790710
O O10 0.587078 0.000000 0.717242
O O11 0.829980 0.291124 0.786454
O O12 0.852065 0.222527 0.925812
O O13 0.967409 0.216423 0.865597
O O14 0.860441 0.000000 0.829324
O O15 0.238791 0.000000 0.707075
O O16 0.659796 0.500000 0.977295
O O17 0.750000 0.750000 0.000000
O O18 0.607511 0.783673 0.934394
O O19 0.977765 0.500000 0.146318
#
# Coordination Sequence:
#
# PCOD8106982 Si02
#       7
#     8   8   8   8   8   8   8
#     4   9  17  32  56  81 107 145 189 230 277 335
#     4  10  21  37  57  84 116 150 191 239 290 345
#     4  10  21  38  59  84 115 151 193 238 287 348
#     4  11  24  41  61  86 117 154 195 238 288 349
#     4  11  23  38  58  86 119 153 193 242 291 342
#     4  11  24  41  61  87 118 153 196 243 291 348
#     4  11  23  39  61  88 118 153 193 241 295 348
#
# _framework density 20.512885000000001
#
# number of rings (size 3 to 8) (size 9 to 14) (size 15 to 20)
#    0.000    1.571    0.000    4.714    0.000   13.143 
#    0.000    0.714    0.000    2.571    0.000    0.000 
#    0.000    0.000    0.000    0.000    0.000    0.000 
#
# Total GULP energy -347347.235928 kJ/mol
# GULP energy per Si atom -12405.258426 kJ/mol
# Density = 2.046620 g / cm^3
# Si number density = 20.512885 Si / 1000 Ang^3
#
#
#
# Elastic Constant Matrix: (Units=GPa)
#
#
# Indices 1 2 3 4 5 6 
#
# 1 162.8980 10.8348 65.1575 0.0000 -10.7501 0.0000
# 2 10.8348 22.6004 25.2937 0.0000 -12.0235 0.0000
# 3 65.1575 25.2937 152.1953 0.0000 -8.0256 0.0000
# 4 0.0000 0.0000 0.0000 27.2888 0.0000 3.1430
# 5 -10.7501 -12.0235 -8.0256 0.0000 49.0933 0.0000
# 6 0.0000 0.0000 0.0000 3.1430 0.0000 30.7024
#
#
#
# Elastic Compliance Matrix: (Units=1/GPa)
#
#
# Indices 1 2 3 4 5 6 
#
# 1 0.007477 0.000746 -0.003257 0.000000 0.001287 0.000000
# 2 0.000746 0.062384 -0.009958 0.000000 0.013814 0.000000
# 3 -0.003257 -0.009958 0.009536 0.000000 -0.001593 0.000000
# 4 0.000000 0.000000 0.000000 0.037082 0.000000 -0.003796
# 5 0.001287 0.013814 -0.001593 0.000000 0.023774 0.000000
# 6 0.000000 0.000000 0.000000 -0.003796 0.000000 0.032959
#
#
# Mechanical properties :
#
#
# Convention : Reuss Voigt Hill
#
# Bulk Modulus (GPa) = 18.36322 60.02953 39.19637
# Shear Modulus (GPa) = 23.11560 37.17742 30.14651
#
# Velocity S-wave (km/s) = 3.36055 4.26184 3.83774
# Velocity P-wave (km/s) = 4.90196 7.31748 6.22795
#
# Compressibility (1/GPa) = 0.05445667
#
# Stress axis : x y z
#
# Youngs Moduli (GPa) = 133.74418 16.02985 104.86691
#
# Poissons Ratio (x) = -0.01195 0.34156
# Poissons Ratio (y) = -0.09972 1.04431
# Poissons Ratio (z) = 0.43561 0.15963
#
# Static dielectric constant tensor:
#      x y z
#    x 3.801470 0.000000 -0.201210 
#    y 0.000000 3.501900 0.000000 
#    z -0.201210 0.000000 3.914820 
# 
# 
# High freq. dielectric constant tensor:
#      x y z
#    x 1.821300 0.000000 -0.002310 
#    y 0.000000 1.782550 0.000000 
#    z -0.002310 0.000000 1.821690 
# 
# From -- ./inp_files/275644.got.cif
#   From: 2010.06.25/outbox.cif.g09.slc.cpg/sg12_138_cif.got.tgz:275644.got - 2010.06.28 00:19:55.
