data_PCOD8106635
_publ_section_title
;
Structure prediction by ZEFSAII (Michael W. Deem and Ramdas Pophale) SiO2 
 PCOD8106635
Probable space group: C 2/M
;
_chemical_formula_sum "Si O2"
_cell_formula_units_Z 64
_cell_length_a 30.097095
_cell_length_b 17.682505
_cell_length_c 10.931358
_cell_angle_alpha 90.000000
_cell_angle_beta 147.522758
_cell_angle_gamma 90.000000
_cell_volume 3123.835217
_symmetry_space_group_name_H-M "C 2/M"
_symmetry_group_IT_number 12
_symmetry_cell_setting 'monoclinic'
loop_
_space_group_symop_operation_xyz
x,y,z
-x,y,-z
-x,-y,-z
x,-y,z
1/2+x,1/2+y,z
1/2-x,1/2+y,-z
1/2-x,1/2-y,-z
1/2+x,1/2-y,z
loop_
_atom_site_type_symbol
_atom_site_label
_atom_site_fract_x
_atom_site_fract_y
_atom_site_fract_z
Si Si1 0.633018 0.703207 0.499660
Si Si2 0.454482 0.711725 0.190911
Si Si3 0.788673 0.680949 0.162805
Si Si4 0.915779 0.645387 0.257558
Si Si5 0.266739 0.084179 0.775252
Si Si6 0.289421 0.084235 0.549732
Si Si7 0.671204 0.587052 0.048664
Si Si8 0.589314 0.777848 0.165192
O O1 0.549249 0.690134 0.381945
O O2 0.669077 0.785062 0.618185
O O3 0.700714 0.638830 0.689289
O O4 0.617634 0.708413 0.318434
O O5 0.444464 0.771894 0.277211
O O6 0.413291 0.633910 0.137937
O O7 0.407702 0.746845 0.965176
O O8 0.857629 0.642843 0.240264
O O9 0.723435 0.618283 0.054794
O O10 0.750000 0.750000 0.000000
O O11 0.000000 0.603379 0.500000
O O12 0.863096 0.604250 0.028543
O O13 0.250121 0.090601 0.592806
O O14 0.248637 0.000000 0.780794
O O15 0.218205 0.097355 0.285613
O O16 0.357425 0.147776 0.693383
O O17 0.328344 0.000000 0.622449
O O18 0.649459 0.500000 0.972052
O O19 0.500000 0.805129 0.000000
#
# Coordination Sequence:
#
# PCOD8106635 Si02
#       8
#     8   8   8   8   8   8   8   8
#     4  11  22  39  65  93 122 162 210 256 306 368
#     4  11  22  39  65  95 125 160 209 262 310 366
#     4  12  22  39  64  89 118 162 210 261 305 358
#     4  12  24  40  65  90 121 162 213 263 307 368
#     4  11  24  41  62  91 127 167 206 253 314 375
#     4  10  21  38  62  93 128 166 206 256 318 375
#     4  11  24  41  64  95 129 166 206 255 318 375
#     4  10  21  36  62  96 124 160 211 258 310 369
#
# _framework density 20.487638
#
# number of rings (size 3 to 8) (size 9 to 14) (size 15 to 20)
#    0.000    1.000    6.250    0.750    0.000    2.500 
#    0.000    0.000    0.000    5.625    0.000    0.000 
#    0.000    0.000    0.000    0.000    0.000    0.000 
#
# Total GULP energy -396719.322060 kJ/mol
# GULP energy per Si atom -12397.478814 kJ/mol
# Density = 2.044101 g / cm^3
# Si number density = 20.487638 Si / 1000 Ang^3
#
#
#
# Elastic Constant Matrix: (Units=GPa)
#
#
# Indices 1 2 3 4 5 6 
#
# 1 92.9166 37.4442 23.4008 0.0000 8.8156 0.0000
# 2 37.4442 107.4003 32.8841 0.0000 19.7996 0.0000
# 3 23.4008 32.8841 81.4013 0.0000 14.0181 0.0000
# 4 0.0000 0.0000 0.0000 18.3461 0.0000 -0.7777
# 5 8.8156 19.7996 14.0181 0.0000 36.0230 0.0000
# 6 0.0000 0.0000 0.0000 -0.7777 0.0000 15.3463
#
#
#
# Elastic Compliance Matrix: (Units=1/GPa)
#
#
# Indices 1 2 3 4 5 6 
#
# 1 0.012845 -0.003784 -0.002123 0.000000 -0.000237 0.000000
# 2 -0.003784 0.012457 -0.003135 0.000000 -0.004701 0.000000
# 3 -0.002123 -0.003135 0.014765 0.000000 -0.003503 0.000000
# 4 0.000000 0.000000 0.000000 0.054625 0.000000 0.002768
# 5 -0.000237 -0.004701 -0.003503 0.000000 0.031765 0.000000
# 6 0.000000 0.000000 0.000000 0.002768 0.000000 0.065302
#
#
# Mechanical properties :
#
#
# Convention : Reuss Voigt Hill
#
# Bulk Modulus (GPa) = 45.49187 52.13071 48.81129
# Shear Modulus (GPa) = 23.02346 26.47568 24.74957
#
# Velocity S-wave (km/s) = 3.35591 3.59872 3.47944
# Velocity P-wave (km/s) = 6.10483 6.53972 6.32601
#
# Compressibility (1/GPa) = 0.02198195
#
# Stress axis : x y z
#
# Youngs Moduli (GPa) = 77.85396 80.27760 67.72902
#
# Poissons Ratio (x) = 0.30381 0.14378
# Poissons Ratio (y) = 0.29463 0.21232
# Poissons Ratio (z) = 0.16527 0.25165
#
# Static dielectric constant tensor:
#      x y z
#    x 3.808470 0.000000 -0.115110 
#    y 0.000000 3.612390 0.000000 
#    z -0.115110 0.000000 3.931950 
# 
# 
# High freq. dielectric constant tensor:
#      x y z
#    x 1.808750 0.000000 -0.010800 
#    y 0.000000 1.784980 0.000000 
#    z -0.010800 0.000000 1.808280 
# 
# From -- ./inp_files/190105.got.cif
#   From: 2010.06.25/outbox.cif.g09.slc.cpg/sg12_96_cif.got.tgz:190105.got - 2010.06.28 00:19:55.
