data_PCOD8106295
_publ_section_title
;
Structure prediction by ZEFSAII (Michael W. Deem and Ramdas Pophale) SiO2 
 PCOD8106295
Probable space group: C 2/M
;
_chemical_formula_sum "Si O2"
_cell_formula_units_Z 64
_cell_length_a 9.644489
_cell_length_b 15.313362
_cell_length_c 19.746319
_cell_angle_alpha 90.000000
_cell_angle_beta 76.289308
_cell_angle_gamma 90.000000
_cell_volume 2833.224041
_symmetry_space_group_name_H-M "C 2/M"
_symmetry_group_IT_number 12
_symmetry_cell_setting 'monoclinic'
loop_
_space_group_symop_operation_xyz
x,y,z
-x,y,-z
-x,-y,-z
x,-y,z
1/2+x,1/2+y,z
1/2-x,1/2+y,-z
1/2-x,1/2-y,-z
1/2+x,1/2-y,z
loop_
_atom_site_type_symbol
_atom_site_label
_atom_site_fract_x
_atom_site_fract_y
_atom_site_fract_z
Si Si1 0.156814 0.104525 0.966229
Si Si2 0.101420 0.603568 0.801721
Si Si3 0.145614 0.597155 0.943692
Si Si4 0.832745 0.170243 0.528232
Si Si5 0.713238 0.104074 0.188702
Si Si6 0.649244 0.603856 0.328420
Si Si7 0.836920 0.895625 0.314724
Si Si8 0.142292 0.404096 0.453824
O O1 0.210732 0.140677 0.887719
O O2 0.169696 0.000000 0.964271
O O3 0.246386 0.145861 0.018038
O O4 0.000000 0.138491 0.000000
O O5 0.088924 0.500000 0.810188
O O6 0.128862 0.645128 0.873188
O O7 0.232438 0.631391 0.739738
O O8 0.950480 0.638028 0.789712
O O9 0.205444 0.500000 0.922013
O O10 0.000000 0.590859 0.000000
O O11 0.750000 0.250000 0.500000
O O12 0.803950 0.158518 0.611043
O O13 0.764999 0.087367 0.497196
O O14 0.000000 0.175086 0.500000
O O15 0.799705 0.139811 0.244102
O O16 0.718269 0.000000 0.188845
O O17 0.649979 0.500000 0.342883
O O18 0.494556 0.635132 0.319025
O O19 0.714446 0.857214 0.380030
O O20 0.831051 0.000000 0.318730
O O21 0.091050 0.500000 0.437554
O O22 0.000000 0.354108 0.500000
#
# Coordination Sequence:
#
# PCOD8106295 Si02
#       8
#     8   8   8   8   8   8   8   8
#     4   9  16  22  32  52  84 133 187 228 262 311
#     4   9  17  27  43  68  99 139 187 231 269 319
#     4   9  14  23  36  54  89 138 187 224 257 305
#     4  12  25  43  62  82 111 145 185 233 290 346
#     4   9  16  26  38  60  96 136 181 229 271 316
#     4  10  21  36  57  83 109 143 185 232 285 338
#     4   9  18  31  48  72 103 136 172 221 274 324
#     4  10  21  37  60  87 112 143 182 224 275 338
#
# _framework density 22.589109000000001
#
# number of rings (size 3 to 8) (size 9 to 14) (size 15 to 20)
#    0.000    2.375    2.500    0.750    3.500    0.500 
#    0.000    0.000    0.000    0.000    0.000    0.000 
#    0.000    0.000    0.000    5.625    0.000    5.250 
#
# Total GULP energy -396459.850221 kJ/mol
# GULP energy per Si atom -12389.370319 kJ/mol
# Density = 2.253769 g / cm^3
# Si number density = 22.589109 Si / 1000 Ang^3
#
#
#
# Elastic Constant Matrix: (Units=GPa)
#
#
# Indices 1 2 3 4 5 6 
#
# 1 186.9547 10.2908 103.5967 0.0000 0.2694 0.0000
# 2 10.2908 19.0285 11.9669 0.0000 1.5533 0.0000
# 3 103.5967 11.9669 223.8659 0.0000 9.6365 0.0000
# 4 0.0000 0.0000 0.0000 5.6716 0.0000 5.3091
# 5 0.2694 1.5533 9.6365 0.0000 53.1185 0.0000
# 6 0.0000 0.0000 0.0000 5.3091 0.0000 2.1798
#
#
#
# Elastic Compliance Matrix: (Units=1/GPa)
#
#
# Indices 1 2 3 4 5 6 
#
# 1 0.007278 -0.001916 -0.003292 0.000000 0.000616 0.000000
# 2 -0.001916 0.054946 -0.001997 0.000000 -0.001235 0.000000
# 3 -0.003292 -0.001997 0.006142 0.000000 -0.001039 0.000000
# 4 0.000000 0.000000 0.000000 -0.137754 0.000000 0.335513
# 5 0.000616 -0.001235 -0.001039 0.000000 0.019047 0.000000
# 6 0.000000 0.000000 0.000000 0.335513 0.000000 -0.358419
#
#
# Mechanical properties :
#
#
# Convention : Reuss Voigt Hill
#
# Bulk Modulus (GPa) = 18.53402 75.72865 47.13133
# Shear Modulus (GPa) = -13.28496 32.46031 9.58768
#
# Velocity S-wave (km/s) = -2.42774 3.79488 2.06242
# Velocity P-wave (km/s) = 0.60343 7.26627 5.15571
#
# Compressibility (1/GPa) = 0.05395484
#
# Stress axis : x y z
#
# Youngs Moduli (GPa) = 137.40805 18.19976 162.81778
#
# Poissons Ratio (x) = 0.03487 0.53598
# Poissons Ratio (y) = 0.26325 0.32522
# Poissons Ratio (z) = 0.45234 0.03635
#
# Static dielectric constant tensor:
#      x y z
#    x 4.184510 0.000000 0.101690 
#    y 0.000000 3.452130 0.000000 
#    z 0.101690 0.000000 4.408570 
# 
# 
# High freq. dielectric constant tensor:
#      x y z
#    x 1.902310 0.000000 0.003440 
#    y 0.000000 1.829660 0.000000 
#    z 0.003440 0.000000 1.904800 
# 
# From -- ./inp_files/300793.got.cif
#   From: 2010.06.25/outbox.cif.g09.slc.cpg/sg12_151_cif.got.tgz:300793.got - 2010.06.28 00:19:55.
