data_PCOD8106431
_publ_section_title
;
Structure prediction by ZEFSAII (Michael W. Deem and Ramdas Pophale) SiO2 
 PCOD8106431
Probable space group: C 2/M
;
_chemical_formula_sum "Si O2"
_cell_formula_units_Z 64
_cell_length_a 14.674674
_cell_length_b 9.068293
_cell_length_c 25.702126
_cell_angle_alpha 90.000000
_cell_angle_beta 90.502709
_cell_angle_gamma 90.000000
_cell_volume 3420.159325
_symmetry_space_group_name_H-M "C 2/M"
_symmetry_group_IT_number 12
_symmetry_cell_setting 'monoclinic'
loop_
_space_group_symop_operation_xyz
x,y,z
-x,y,-z
-x,-y,-z
x,-y,z
1/2+x,1/2+y,z
1/2-x,1/2+y,-z
1/2-x,1/2-y,-z
1/2+x,1/2-y,z
loop_
_atom_site_type_symbol
_atom_site_label
_atom_site_fract_x
_atom_site_fract_y
_atom_site_fract_z
Si Si1 0.895473 0.673291 0.506239
Si Si2 0.243344 0.172700 0.423095
Si Si3 0.634835 0.829347 0.864449
Si Si4 0.395120 0.172636 0.762999
Si Si5 0.737024 0.331903 0.683617
Si Si6 0.076263 0.830259 0.759931
Si Si7 0.157741 0.166631 0.134865
Si Si8 0.997048 0.830145 0.058949
O O1 0.895718 0.500000 0.517223
O O2 0.847706 0.750653 0.555143
O O3 0.834982 0.714326 0.455432
O O4 0.000000 0.729942 0.500000
O O5 0.259195 0.223604 0.364747
O O6 0.225416 0.000000 0.424524
O O7 0.616999 0.748385 0.810341
O O8 0.739014 0.803291 0.881250
O O9 0.575302 0.766026 0.910501
O O10 0.610893 0.000000 0.856355
O O11 0.312533 0.216400 0.725414
O O12 0.482301 0.257638 0.741687
O O13 0.374119 0.220261 0.821481
O O14 0.414660 0.000000 0.762936
O O15 0.751908 0.500000 0.665044
O O16 0.640367 0.312374 0.710589
O O17 0.061696 0.000000 0.775048
O O18 0.097119 0.191783 0.083551
O O19 0.145925 0.000000 0.156422
O O20 0.965804 0.000000 0.061178
O O21 0.000000 0.772510 0.000000
#
# Coordination Sequence:
#
# PCOD8106431 Si02
#       8
#     8   8   8   8   8   8   8   8
#     4   9  19  38  62  85 115 156 197 236 287 344
#     4  10  21  36  58  88 118 151 194 243 288 334
#     4  11  22  36  58  86 113 146 191 238 284 338
#     4  11  22  37  58  85 112 149 195 235 284 345
#     4  10  23  40  57  81 120 158 191 233 288 348
#     4  11  22  38  58  83 114 152 192 234 290 346
#     4  10  21  37  58  83 114 149 186 233 285 339
#     4  10  22  40  60  83 114 153 192 235 291 348
#
# _framework density 18.712578000000001
#
# number of rings (size 3 to 8) (size 9 to 14) (size 15 to 20)
#    0.000    1.750    2.500    1.500    0.000    5.000 
#    0.000    3.750    0.000    0.000    0.000    0.000 
#    0.000    0.000    0.000    0.000    0.000    0.000 
#
# Total GULP energy -396919.923283 kJ/mol
# GULP energy per Si atom -12403.747603 kJ/mol
# Density = 1.866999 g / cm^3
# Si number density = 18.712578 Si / 1000 Ang^3
#
#
#
# Elastic Constant Matrix: (Units=GPa)
#
#
# Indices 1 2 3 4 5 6 
#
# 1 97.8454 27.8513 -2.2524 0.0000 -7.8142 0.0000
# 2 27.8513 72.8260 19.9484 0.0000 -6.4695 0.0000
# 3 -2.2524 19.9484 59.4509 0.0000 -7.0081 0.0000
# 4 0.0000 0.0000 0.0000 29.9796 0.0000 -1.0265
# 5 -7.8142 -6.4695 -7.0081 0.0000 20.5355 0.0000
# 6 0.0000 0.0000 0.0000 -1.0265 0.0000 29.4890
#
#
#
# Elastic Compliance Matrix: (Units=1/GPa)
#
#
# Indices 1 2 3 4 5 6 
#
# 1 0.011998 -0.004948 0.002573 0.000000 0.003885 0.000000
# 2 -0.004948 0.017361 -0.005824 0.000000 0.001599 0.000000
# 3 0.002573 -0.005824 0.019558 0.000000 0.005819 0.000000
# 4 0.000000 0.000000 0.000000 0.033396 0.000000 0.001163
# 5 0.003885 0.001599 0.005819 0.000000 0.052664 0.000000
# 6 0.000000 0.000000 0.000000 0.001163 0.000000 0.033951
#
#
# Mechanical properties :
#
#
# Convention : Reuss Voigt Hill
#
# Bulk Modulus (GPa) = 30.75209 35.69077 33.22143
# Shear Modulus (GPa) = 25.48839 28.30582 26.89711
#
# Velocity S-wave (km/s) = 3.69467 3.89352 3.79539
# Velocity P-wave (km/s) = 5.88815 6.27114 6.08266
#
# Compressibility (1/GPa) = 0.03251812
#
# Stress axis : x y z
#
# Youngs Moduli (GPa) = 83.34622 57.59980 51.12909
#
# Poissons Ratio (x) = 0.28501 -0.13155
# Poissons Ratio (y) = 0.41241 0.29780
# Poissons Ratio (z) = -0.21444 0.33549
#
# Static dielectric constant tensor:
#      x y z
#    x 3.725990 0.000000 0.045780 
#    y 0.000000 3.504750 0.000000 
#    z 0.045780 0.000000 3.326070 
# 
# 
# High freq. dielectric constant tensor:
#      x y z
#    x 1.740580 0.000000 0.000850 
#    y 0.000000 1.732260 0.000000 
#    z 0.000850 0.000000 1.719460 
# 
# From -- ./inp_files/338664.got.cif
#   From: 2010.06.25/outbox.cif.g09.slc.cpg/sg12_170_cif.got.tgz:338664.got - 2010.06.28 00:19:55.
