data_PCOD8106324
_publ_section_title
;
Structure prediction by ZEFSAII (Michael W. Deem and Ramdas Pophale) SiO2 
 PCOD8106324
Probable space group: C 2/M
;
_chemical_formula_sum "Si O2"
_cell_formula_units_Z 40
_cell_length_a 26.586940
_cell_length_b 9.809464
_cell_length_c 21.506848
_cell_angle_alpha 90.000000
_cell_angle_beta 158.703181
_cell_angle_gamma 90.000000
_cell_volume 2037.209276
_symmetry_space_group_name_H-M "C 2/M"
_symmetry_group_IT_number 12
_symmetry_cell_setting 'monoclinic'
loop_
_space_group_symop_operation_xyz
x,y,z
-x,y,-z
-x,-y,-z
x,-y,z
1/2+x,1/2+y,z
1/2-x,1/2+y,-z
1/2-x,1/2-y,-z
1/2+x,1/2-y,z
loop_
_atom_site_type_symbol
_atom_site_label
_atom_site_fract_x
_atom_site_fract_y
_atom_site_fract_z
Si Si1 0.435421 0.650560 0.726607
Si Si2 0.732595 0.155201 0.387886
Si Si3 0.248129 0.849213 0.055429
Si Si4 0.340616 0.157824 0.831396
Si Si5 0.848969 0.660334 0.302224
O O1 0.380180 0.500000 0.680656
O O2 0.392122 0.754141 0.730051
O O3 0.373216 0.692112 0.587164
O O4 0.598107 0.651940 0.912547
O O5 0.751681 0.182526 0.336837
O O6 0.686528 0.000000 0.345563
O O7 0.349165 0.807067 0.228393
O O8 0.286596 0.000000 0.075081
O O9 0.250000 0.750000 0.000000
O O10 0.273205 0.253637 0.805930
O O11 0.332994 0.000000 0.844387
O O12 0.500000 0.197966 0.000000
O O13 0.820777 0.500000 0.281983
O O14 0.000000 0.705223 0.500000
#
# Coordination Sequence:
#
# PCOD8106324 Si02
#       5
#     8   8   8   8   8
#     4   9  18  33  52  77 107 139 180 225 273 325
#     4   9  18  32  52  79 109 138 175 226 274 326
#     4  10  22  38  57  80 109 146 188 232 276 329
#     4  10  21  36  57  85 115 148 190 236 286 341
#     4  10  23  41  58  83 119 154 192 236 283 342
#
# _framework density 19.634703999999999
#
# number of rings (size 3 to 8) (size 9 to 14) (size 15 to 20)
#    0.000    2.400    0.000    1.200    2.800    3.200 
#    0.000    0.000    0.000    0.000    0.000    0.000 
#    0.000    0.000    0.000    0.000    0.000    0.000 
#
# Total GULP energy -247939.144760 kJ/mol
# GULP energy per Si atom -12396.957238 kJ/mol
# Density = 1.959001 g / cm^3
# Si number density = 19.634704 Si / 1000 Ang^3
#
#
#
# Elastic Constant Matrix: (Units=GPa)
#
#
# Indices 1 2 3 4 5 6 
#
# 1 96.6164 66.7595 35.2681 0.0001 -17.0240 0.0000
# 2 66.7595 91.3816 33.9963 0.0001 -9.2740 0.0001
# 3 35.2681 33.9963 90.8268 0.0001 -12.7164 0.0001
# 4 0.0001 0.0001 0.0001 25.2653 0.0001 1.9663
# 5 -17.0240 -9.2740 -12.7164 0.0001 28.3986 0.0001
# 6 0.0000 0.0001 0.0001 1.9663 0.0001 42.0299
#
#
#
# Elastic Compliance Matrix: (Units=1/GPa)
#
#
# Indices 1 2 3 4 5 6 
#
# 1 0.023057 -0.015247 -0.002142 0.000000 0.007883 0.000000
# 2 -0.015247 0.022921 -0.003084 0.000000 -0.003036 0.000000
# 3 -0.002142 -0.003084 0.013523 0.000000 0.003764 0.000000
# 4 0.000000 0.000000 0.000000 0.039725 0.000000 -0.001858
# 5 0.007883 -0.003036 0.003764 0.000000 0.040633 0.000000
# 6 0.000000 0.000000 0.000000 -0.001858 0.000000 0.023880
#
#
# Mechanical properties :
#
#
# Convention : Reuss Voigt Hill
#
# Bulk Modulus (GPa) = 53.89568 61.20806 57.55187
# Shear Modulus (GPa) = 23.71135 28.65882 26.18509
#
# Velocity S-wave (km/s) = 3.47886 3.82462 3.65583
# Velocity P-wave (km/s) = 6.60647 7.12353 6.86986
#
# Compressibility (1/GPa) = 0.01855436
#
# Stress axis : x y z
#
# Youngs Moduli (GPa) = 43.37143 43.62754 73.94757
#
# Poissons Ratio (x) = 0.66520 0.15841
# Poissons Ratio (y) = 0.66129 0.22805
# Poissons Ratio (z) = 0.09291 0.13454
#
# Static dielectric constant tensor:
#      x y z
#    x 3.367060 0.000000 -0.275340 
#    y 0.000000 4.218280 0.000000 
#    z -0.275340 0.000000 3.771830 
# 
# 
# High freq. dielectric constant tensor:
#      x y z
#    x 1.746570 0.000000 -0.022770 
#    y 0.000000 1.764520 0.000000 
#    z -0.022770 0.000000 1.777940 
# 
# From -- ./inp_files/162508.got.cif
#   From: 2010.06.25/outbox.cif.g09.slc.cpg/sg12_82_cif.got.tgz:162508.got - 2010.06.28 00:19:55.
