data_PCOD8106583
_publ_section_title
;
Structure prediction by ZEFSAII (Michael W. Deem and Ramdas Pophale) SiO2 
 PCOD8106583
Probable space group: C 2/M
;
_chemical_formula_sum "Si O2"
_cell_formula_units_Z 64
_cell_length_a 14.224965
_cell_length_b 27.433554
_cell_length_c 11.721286
_cell_angle_alpha 90.000000
_cell_angle_beta 136.275559
_cell_angle_gamma 90.000000
_cell_volume 3161.596629
_symmetry_space_group_name_H-M "C 2/M"
_symmetry_group_IT_number 12
_symmetry_cell_setting 'monoclinic'
loop_
_space_group_symop_operation_xyz
x,y,z
-x,y,-z
-x,-y,-z
x,-y,z
1/2+x,1/2+y,z
1/2-x,1/2+y,-z
1/2-x,1/2-y,-z
1/2+x,1/2-y,z
loop_
_atom_site_type_symbol
_atom_site_label
_atom_site_fract_x
_atom_site_fract_y
_atom_site_fract_z
Si Si1 0.234090 0.826826 0.303471
Si Si2 0.921050 0.881852 0.636891
Si Si3 0.140902 0.724349 0.178977
Si Si4 0.876610 0.800755 0.215729
Si Si5 0.823839 0.056577 0.114818
Si Si6 0.296428 0.858063 0.114201
Si Si7 0.840039 0.053187 0.381452
Si Si8 0.545810 0.797135 0.332741
O O1 0.158773 0.861530 0.325592
O O2 0.139137 0.782909 0.178100
O O3 0.270122 0.858929 0.225991
O O4 0.369075 0.802819 0.476859
O O5 0.812291 0.905281 0.452184
O O6 0.006410 0.839329 0.647984
O O7 0.022479 0.924241 0.769295
O O8 0.268842 0.702479 0.223767
O O9 0.150227 0.706882 0.318653
O O10 0.000000 0.706080 0.000000
O O11 0.944367 0.748780 0.251680
O O12 0.803800 0.819684 0.036749
O O13 0.772895 0.065899 0.200484
O O14 0.817790 0.000000 0.075927
O O15 0.722155 0.086948 0.946077
O O16 0.452586 0.844140 0.229612
O O17 0.000000 0.050320 0.500000
O O18 0.787911 0.000000 0.378133
#
# Coordination Sequence:
#
# PCOD8106583 Si02
#       8
#     8   8   8   8   8   8   8   8
#     4  12  26  38  58  86 130 172 206 247 305 357
#     4  10  21  36  60  95 127 158 206 250 309 372
#     4  12  24  40  62  84 123 168 212 259 296 347
#     4  11  23  40  61  88 121 170 213 249 301 356
#     4   9  20  39  66  94 117 152 205 264 319 367
#     4  11  23  42  62  85 121 168 210 257 307 367
#     4   8  15  34  60  89 122 149 185 257 323 356
#     4  12  24  43  57  88 127 170 212 249 298 364
#
# _framework density 20.242937000000001
#
# number of rings (size 3 to 8) (size 9 to 14) (size 15 to 20)
#    0.000    1.375    3.750    3.000    1.750    4.000 
#    2.250    1.875    0.000    3.000    0.000   11.375 
#    0.000    0.000    0.000    0.000    0.000    0.000 
#
# Total GULP energy -396788.416352 kJ/mol
# GULP energy per Si atom -12399.638011 kJ/mol
# Density = 2.019686 g / cm^3
# Si number density = 20.242937 Si / 1000 Ang^3
#
#
#
# Elastic Constant Matrix: (Units=GPa)
#
#
# Indices 1 2 3 4 5 6 
#
# 1 137.5274 60.6845 37.1844 0.0000 -19.1430 0.0000
# 2 60.6845 126.0301 45.8877 0.0000 -11.9139 0.0000
# 3 37.1844 45.8877 83.8905 0.0000 -14.7181 0.0000
# 4 0.0000 0.0000 0.0000 25.1838 0.0000 -13.4358
# 5 -19.1430 -11.9139 -14.7181 0.0000 29.7157 0.0000
# 6 0.0000 0.0000 0.0000 -13.4358 0.0000 18.9646
#
#
#
# Elastic Compliance Matrix: (Units=1/GPa)
#
#
# Indices 1 2 3 4 5 6 
#
# 1 0.009963 -0.003826 -0.001606 0.000000 0.004089 0.000000
# 2 -0.003826 0.011431 -0.004584 0.000000 -0.000152 0.000000
# 3 -0.001606 -0.004584 0.016028 0.000000 0.005067 0.000000
# 4 0.000000 0.000000 0.000000 0.063837 0.000000 0.045226
# 5 0.004089 -0.000152 0.005067 0.000000 0.038735 0.000000
# 6 0.000000 0.000000 0.000000 0.045226 0.000000 0.084771
#
#
# Mechanical properties :
#
#
# Convention : Reuss Voigt Hill
#
# Bulk Modulus (GPa) = 57.49967 70.55125 64.02546
# Shear Modulus (GPa) = 19.95261 28.35224 24.15243
#
# Velocity S-wave (km/s) = 3.14292 3.74652 3.45792
# Velocity P-wave (km/s) = 6.45268 7.32415 6.90218
#
# Compressibility (1/GPa) = 0.01739140
#
# Stress axis : x y z
#
# Youngs Moduli (GPa) = 100.37313 87.47814 62.38970
#
# Poissons Ratio (x) = 0.33469 0.10019
# Poissons Ratio (y) = 0.38402 0.28598
# Poissons Ratio (z) = 0.16119 0.40098
#
# Static dielectric constant tensor:
#      x y z
#    x 3.578440 0.000000 -0.188770 
#    y 0.000000 3.721470 0.000000 
#    z -0.188770 0.000000 3.768120 
# 
# 
# High freq. dielectric constant tensor:
#      x y z
#    x 1.775870 0.000000 -0.016040 
#    y 0.000000 1.779510 0.000000 
#    z -0.016040 0.000000 1.787540 
# 
# From -- ./inp_files/149823.got.cif
#   From: 2010.06.25/outbox.cif.g09.slc.cpg/sg12_75_cif.got.tgz:149823.got - 2010.06.28 00:19:55.
