data_PCOD8106164
_publ_section_title
;
Structure prediction by ZEFSAII (Michael W. Deem and Ramdas Pophale) SiO2 
 PCOD8106164
Probable space group: C 2/M
;
_chemical_formula_sum "Si O2"
_cell_formula_units_Z 36
_cell_length_a 21.507224
_cell_length_b 10.050715
_cell_length_c 8.960482
_cell_angle_alpha 90.000000
_cell_angle_beta 65.939132
_cell_angle_gamma 90.000000
_cell_volume 1768.630627
_symmetry_space_group_name_H-M "C 2/M"
_symmetry_group_IT_number 12
_symmetry_cell_setting 'monoclinic'
loop_
_space_group_symop_operation_xyz
x,y,z
-x,y,-z
-x,-y,-z
x,-y,z
1/2+x,1/2+y,z
1/2-x,1/2+y,-z
1/2-x,1/2-y,-z
1/2+x,1/2-y,z
loop_
_atom_site_type_symbol
_atom_site_label
_atom_site_fract_x
_atom_site_fract_y
_atom_site_fract_z
Si Si1 0.790271 0.347189 0.210929
Si Si2 0.878133 0.149033 0.302691
Si Si3 0.600150 0.148446 0.136690
Si Si4 0.632837 0.652194 0.349406
Si Si5 0.500000 0.251239 0.000000
O O1 0.798899 0.500000 0.255251
O O2 0.820977 0.253382 0.308825
O O3 0.712104 0.309609 0.265045
O O4 0.829057 0.322199 0.017586
O O5 0.896462 0.177339 0.456895
O O6 0.847769 0.000000 0.316803
O O7 0.946079 0.156417 0.137768
O O8 0.591175 0.253956 0.278087
O O9 0.537818 0.157995 0.082081
O O10 0.600289 0.000000 0.204263
O O11 0.621377 0.500000 0.309889
#
# Coordination Sequence:
#
# PCOD8106164 Si02
#       5
#     8   8   8   8   4
#     4   9  19  36  57  82 113 144 175 217 270 323
#     4  10  21  36  57  82 109 144 183 222 265 317
#     4  10  21  37  58  81 107 143 182 222 268 321
#     4  10  21  36  55  84 115 140 174 223 273 320
#     4  10  22  40  56  76 106 144 186 228 268 316
#
# _framework density 20.354731000000001
#
# number of rings (size 3 to 8) (size 9 to 14) (size 15 to 20)
#    0.000    2.222    0.000    2.000    0.000    8.000 
#    0.000    3.333    0.000    0.000    0.000    0.000 
#    0.000    0.000    0.000    0.000    0.000    0.000 
#
# Total GULP energy -223245.862778 kJ/mol
# GULP energy per Si atom -12402.547932 kJ/mol
# Density = 2.030840 g / cm^3
# Si number density = 20.354731 Si / 1000 Ang^3
#
#
#
# Elastic Constant Matrix: (Units=GPa)
#
#
# Indices 1 2 3 4 5 6 
#
# 1 82.5615 43.4043 39.2639 0.0000 14.8890 0.0000
# 2 43.4043 124.3782 61.8061 0.0000 27.7475 0.0000
# 3 39.2639 61.8061 89.1448 0.0000 24.0854 0.0000
# 4 0.0000 0.0000 0.0000 33.1922 0.0000 11.4279
# 5 14.8890 27.7475 24.0854 0.0000 24.4241 0.0000
# 6 0.0000 0.0000 0.0000 11.4279 0.0000 24.2263
#
#
#
# Elastic Compliance Matrix: (Units=1/GPa)
#
#
# Indices 1 2 3 4 5 6 
#
# 1 0.016184 -0.002933 -0.004538 0.000000 -0.002058 0.000000
# 2 -0.002933 0.013916 -0.006227 0.000000 -0.007881 0.000000
# 3 -0.004538 -0.006227 0.020278 0.000000 -0.010156 0.000000
# 4 0.000000 0.000000 0.000000 0.035969 0.000000 -0.016967
# 5 -0.002058 -0.007881 -0.010156 0.000000 0.061165 0.000000
# 6 0.000000 0.000000 0.000000 -0.016967 0.000000 0.049281
#
#
# Mechanical properties :
#
#
# Convention : Reuss Voigt Hill
#
# Bulk Modulus (GPa) = 43.51614 65.00369 54.25991
# Shear Modulus (GPa) = 21.56552 26.47586 24.02069
#
# Velocity S-wave (km/s) = 3.25850 3.61047 3.43899
# Velocity P-wave (km/s) = 5.96510 7.02747 6.51797
#
# Compressibility (1/GPa) = 0.02297998
#
# Stress axis : x y z
#
# Youngs Moduli (GPa) = 61.79044 71.85879 49.31464
#
# Poissons Ratio (x) = 0.21079 0.22381
# Poissons Ratio (y) = 0.18125 0.30709
# Poissons Ratio (z) = 0.28043 0.44748
#
# Static dielectric constant tensor:
#      x y z
#    x 3.515710 0.000000 -0.121080 
#    y 0.000000 3.648990 0.000000 
#    z -0.121080 0.000000 3.729120 
# 
# 
# High freq. dielectric constant tensor:
#      x y z
#    x 1.783940 0.000000 -0.005410 
#    y 0.000000 1.797510 0.000000 
#    z -0.005410 0.000000 1.797480 
# 
# From -- ./inp_files/92487.got.cif
#   From: 2010.06.25/outbox.cif.g09.slc.cpg/sg12_47_cif.got.tgz:92487.got - 2010.06.28 00:19:55.
