data_PCOD8106652
_publ_section_title
;
Structure prediction by ZEFSAII (Michael W. Deem and Ramdas Pophale) SiO2 
 PCOD8106652
Probable space group: C 2/M
;
_chemical_formula_sum "Si O2"
_cell_formula_units_Z 40
_cell_length_a 11.818223
_cell_length_b 18.233736
_cell_length_c 9.641221
_cell_angle_alpha 90.000000
_cell_angle_beta 75.718452
_cell_angle_gamma 90.000000
_cell_volume 2013.382713
_symmetry_space_group_name_H-M "C 2/M"
_symmetry_group_IT_number 12
_symmetry_cell_setting 'monoclinic'
loop_
_space_group_symop_operation_xyz
x,y,z
-x,y,-z
-x,-y,-z
x,-y,z
1/2+x,1/2+y,z
1/2-x,1/2+y,-z
1/2-x,1/2-y,-z
1/2+x,1/2-y,z
loop_
_atom_site_type_symbol
_atom_site_label
_atom_site_fract_x
_atom_site_fract_y
_atom_site_fract_z
Si Si1 0.045200 0.819668 0.837865
Si Si2 0.604376 0.676127 0.369050
Si Si3 0.805402 0.333194 0.698262
Si Si4 0.010038 0.648746 0.838993
Si Si5 0.806695 0.414975 0.419643
O O1 0.172077 0.854341 0.772051
O O2 0.053810 0.732117 0.822376
O O3 0.951295 0.851428 0.757964
O O4 0.000000 0.845345 0.000000
O O5 0.500000 0.701404 0.500000
O O6 0.687970 0.745792 0.322943
O O7 0.677880 0.610548 0.413086
O O8 0.847880 0.372572 0.545117
O O9 0.884738 0.359114 0.802632
O O10 0.103137 0.598748 0.731803
O O11 0.000000 0.620510 0.000000
O O12 0.801232 0.500000 0.457259
#
# Coordination Sequence:
#
# PCOD8106652 Si02
#       5
#     8   8   8   8   8
#     4  10  21  36  64  97 121 150 196 258 306 348
#     4  11  21  38  65  90 119 155 206 253 297 351
#     4  11  21  40  65  91 121 155 204 252 299 352
#     4  10  23  38  63  94 121 154 196 252 307 357
#     4  12  25  41  61  87 125 164 203 244 296 361
#
# _framework density 19.867062000000001
#
# number of rings (size 3 to 8) (size 9 to 14) (size 15 to 20)
#    0.000    1.200    4.000    3.600    2.800    4.800 
#    0.000    0.000    0.000    1.200    0.000    0.000 
#    0.000    0.000    0.000    0.000    0.000    0.000 
#
# Total GULP energy -248108.775623 kJ/mol
# GULP energy per Si atom -12405.438781 kJ/mol
# Density = 1.982184 g / cm^3
# Si number density = 19.867062 Si / 1000 Ang^3
#
#
#
# Elastic Constant Matrix: (Units=GPa)
#
#
# Indices 1 2 3 4 5 6 
#
# 1 110.0305 34.6517 59.9146 0.0000 11.6006 0.0000
# 2 34.6517 39.9786 20.9086 0.0000 8.9922 0.0000
# 3 59.9146 20.9086 158.3385 0.0000 19.1391 0.0000
# 4 0.0000 0.0000 0.0000 9.4843 0.0000 -5.2699
# 5 11.6006 8.9922 19.1391 0.0000 41.8479 0.0000
# 6 0.0000 0.0000 0.0000 -5.2699 0.0000 11.6994
#
#
#
# Elastic Compliance Matrix: (Units=1/GPa)
#
#
# Indices 1 2 3 4 5 6 
#
# 1 0.014675 -0.010562 -0.004171 0.000000 0.000109 0.000000
# 2 -0.010562 0.035257 -0.000103 0.000000 -0.004601 0.000000
# 3 -0.004171 -0.000103 0.008220 0.000000 -0.002581 0.000000
# 4 0.000000 0.000000 0.000000 0.140636 0.000000 0.063348
# 5 0.000109 -0.004601 -0.002581 0.000000 0.026035 0.000000
# 6 0.000000 0.000000 0.000000 0.063348 0.000000 0.114009
#
#
# Mechanical properties :
#
#
# Convention : Reuss Voigt Hill
#
# Bulk Modulus (GPa) = 35.11448 59.92193 47.51821
# Shear Modulus (GPa) = 13.22765 25.46450 19.34608
#
# Velocity S-wave (km/s) = 2.58313 3.58403 3.12392
# Velocity P-wave (km/s) = 5.15847 6.88142 6.08127
#
# Compressibility (1/GPa) = 0.02847828
#
# Stress axis : x y z
#
# Youngs Moduli (GPa) = 68.14488 28.36315 121.66184
#
# Poissons Ratio (x) = 0.29958 0.50749
# Poissons Ratio (y) = 0.71977 0.01250
# Poissons Ratio (z) = 0.28425 0.00292
#
# Static dielectric constant tensor:
#      x y z
#    x 3.675130 0.000000 0.179610 
#    y 0.000000 3.117650 0.000000 
#    z 0.179610 0.000000 3.845120 
# 
# 
# High freq. dielectric constant tensor:
#      x y z
#    x 1.791350 0.000000 0.006400 
#    y 0.000000 1.725430 0.000000 
#    z 0.006400 0.000000 1.789320 
# 
# From -- ./inp_files/46891.got.cif
#   From: 2010.06.25/outbox.cif.g09.slc.cpg/sg12_24_cif.got.tgz:46891.got - 2010.06.28 00:19:55.
