data_PCOD8106408
_publ_section_title
;
Structure prediction by ZEFSAII (Michael W. Deem and Ramdas Pophale) SiO2 
 PCOD8106408
Probable space group: C 2/M
;
_chemical_formula_sum "Si O2"
_cell_formula_units_Z 56
_cell_length_a 27.664800
_cell_length_b 15.127889
_cell_length_c 11.484671
_cell_angle_alpha 90.000000
_cell_angle_beta 33.689780
_cell_angle_gamma 90.000000
_cell_volume 2666.118651
_symmetry_space_group_name_H-M "C 2/M"
_symmetry_group_IT_number 12
_symmetry_cell_setting 'monoclinic'
loop_
_space_group_symop_operation_xyz
x,y,z
-x,y,-z
-x,-y,-z
x,-y,z
1/2+x,1/2+y,z
1/2-x,1/2+y,-z
1/2-x,1/2-y,-z
1/2+x,1/2-y,z
loop_
_atom_site_type_symbol
_atom_site_label
_atom_site_fract_x
_atom_site_fract_y
_atom_site_fract_z
Si Si1 0.566849 0.100212 0.765688
Si Si2 0.024510 0.761927 0.712430
Si Si3 0.762796 0.898771 0.348545
Si Si4 0.409528 0.645365 0.638006
Si Si5 0.257247 0.594052 0.795622
Si Si6 0.835324 0.225155 0.016513
Si Si7 0.630008 0.600108 0.644366
O O1 0.551309 0.162257 0.686564
O O2 0.668060 0.111217 0.599709
O O3 0.546249 0.000000 0.769275
O O4 0.500000 0.130342 0.000000
O O5 0.062184 0.777027 0.507643
O O6 0.057644 0.831586 0.743554
O O7 0.920977 0.768601 0.922625
O O8 0.767804 0.834087 0.226498
O O9 0.837135 0.873341 0.292986
O O10 0.775997 0.000000 0.279577
O O11 0.500000 0.598330 0.500000
O O12 0.345549 0.581820 0.695257
O O13 0.353663 0.680829 0.856789
O O14 0.206220 0.500000 0.912538
O O15 0.200448 0.677952 0.944611
O O16 0.284473 0.605672 0.607283
O O17 0.591294 0.500000 0.720830
#
# Coordination Sequence:
#
# PCOD8106408 Si02
#       7
#     8   8   8   8   8   8   8
#     4  10  23  40  59  86 122 162 204 244 290 353
#     4  10  22  38  61  86 119 163 197 242 303 349
#     4  10  22  39  60  89 120 155 197 249 302 350
#     4   9  20  41  60  84 118 154 200 249 298 353
#     4  10  21  36  58  86 114 154 197 242 295 349
#     4  11  23  37  61  89 120 157 199 248 294 353
#     4   9  20  38  59  85 121 152 192 244 297 363
#
# _framework density 21.004317
#
# number of rings (size 3 to 8) (size 9 to 14) (size 15 to 20)
#    0.000    2.143    0.000    2.143    4.000    3.143 
#    0.000    6.429    0.000    2.571    0.000    0.000 
#    0.000    0.000    0.000    0.000    0.000    0.000 
#
# Total GULP energy -347037.219387 kJ/mol
# GULP energy per Si atom -12394.186407 kJ/mol
# Density = 2.095651 g / cm^3
# Si number density = 21.004317 Si / 1000 Ang^3
#
#
#
# Elastic Constant Matrix: (Units=GPa)
#
#
# Indices 1 2 3 4 5 6 
#
# 1 84.3750 41.1340 38.1686 0.0000 4.8192 0.0000
# 2 41.1340 103.6369 38.7926 0.0000 0.4090 0.0000
# 3 38.1686 38.7926 95.3101 0.0000 -2.6900 0.0000
# 4 0.0000 0.0000 0.0000 7.6519 0.0000 -7.4861
# 5 4.8192 0.4090 -2.6900 0.0000 24.9162 0.0000
# 6 0.0000 0.0000 0.0000 -7.4861 0.0000 0.7117
#
#
#
# Elastic Compliance Matrix: (Units=1/GPa)
#
#
# Indices 1 2 3 4 5 6 
#
# 1 0.016548 -0.004760 -0.004792 0.000000 -0.003640 0.000000
# 2 -0.004760 0.012764 -0.003279 0.000000 0.000357 0.000000
# 3 -0.004792 -0.003279 0.013816 0.000000 0.002472 0.000000
# 4 0.000000 0.000000 0.000000 -0.014066 0.000000 -0.147960
# 5 -0.003640 0.000357 0.002472 0.000000 0.041100 0.000000
# 6 0.000000 0.000000 0.000000 -0.147960 0.000000 -0.151239
#
#
# Mechanical properties :
#
#
# Convention : Reuss Voigt Hill
#
# Bulk Modulus (GPa) = 57.25546 57.72359 57.48953
# Shear Modulus (GPa) = -100.82078 17.67109 -41.57485
#
# Velocity S-wave (km/s) = -6.93572 2.90368 -4.45381
# Velocity P-wave (km/s) = 6.06802 6.22762 0.99054
#
# Compressibility (1/GPa) = 0.01746558
#
# Stress axis : x y z
#
# Youngs Moduli (GPa) = 60.42968 78.34389 72.38165
#
# Poissons Ratio (x) = 0.37290 0.34688
# Poissons Ratio (y) = 0.28763 0.23734
# Poissons Ratio (z) = 0.28960 0.25689
#
# Static dielectric constant tensor:
#      x y z
#    x 3.817070 0.000000 -0.093500 
#    y 0.000000 3.768610 0.000000 
#    z -0.093500 0.000000 3.692700 
# 
# 
# High freq. dielectric constant tensor:
#      x y z
#    x 1.822900 0.000000 -0.003280 
#    y 0.000000 1.821500 0.000000 
#    z -0.003280 0.000000 1.814090 
# 
# From -- ./inp_files/189612.got.cif
#   From: 2010.06.25/outbox.cif.g09.slc.cpg/sg12_95_cif.got.tgz:189612.got - 2010.06.28 00:19:55.
