data_PCOD8106002
_publ_section_title
;
Structure prediction by ZEFSAII (Michael W. Deem and Ramdas Pophale) SiO2 
 PCOD8106002
Probable space group: C 2/M
;
_chemical_formula_sum "Si O2"
_cell_formula_units_Z 64
_cell_length_a 14.636123
_cell_length_b 8.888053
_cell_length_c 25.858246
_cell_angle_alpha 90.000000
_cell_angle_beta 88.840980
_cell_angle_gamma 90.000000
_cell_volume 3363.124045
_symmetry_space_group_name_H-M "C 2/M"
_symmetry_group_IT_number 12
_symmetry_cell_setting 'monoclinic'
loop_
_space_group_symop_operation_xyz
x,y,z
-x,y,-z
-x,-y,-z
x,-y,z
1/2+x,1/2+y,z
1/2-x,1/2+y,-z
1/2-x,1/2-y,-z
1/2+x,1/2-y,z
loop_
_atom_site_type_symbol
_atom_site_label
_atom_site_fract_x
_atom_site_fract_y
_atom_site_fract_z
Si Si1 0.891224 0.178022 0.731959
Si Si2 0.727370 0.821526 0.445832
Si Si3 0.906068 0.821823 0.250311
Si Si4 0.249327 0.824843 0.920997
Si Si5 0.105337 0.675329 0.993440
Si Si6 0.258890 0.178395 0.187494
Si Si7 0.919597 0.177973 0.617278
Si Si8 0.622957 0.322111 0.635356
O O1 0.813147 0.244099 0.769902
O O2 0.877147 0.231228 0.672890
O O3 0.988936 0.230812 0.752634
O O4 0.889471 0.000000 0.732269
O O5 0.750000 0.750000 0.500000
O O6 0.628118 0.767233 0.428646
O O7 0.799217 0.756910 0.402886
O O8 0.731070 0.000000 0.450550
O O9 0.857815 0.737563 0.203484
O O10 0.863379 0.766579 0.305722
O O11 0.895857 0.000000 0.243259
O O12 0.338591 0.792219 0.954793
O O13 0.268592 0.740145 0.867743
O O14 0.236233 0.000000 0.910622
O O15 0.155308 0.765061 0.947130
O O16 0.107905 0.500000 0.978886
O O17 0.000000 0.730413 0.000000
O O18 0.258398 0.000000 0.185380
O O19 0.024998 0.228224 0.614381
O O20 0.908038 0.000000 0.609035
O O21 0.626049 0.500000 0.636104
#
# Coordination Sequence:
#
# PCOD8106002 Si02
#       8
#     8   8   8   8   8   8   8   8
#     4   8  17  33  54  77 103 135 170 206 253 309
#     4  11  22  35  50  74 102 131 167 210 259 309
#     4   9  17  34  56  77 100 133 175 212 249 305
#     4  10  21  36  54  79 108 140 177 212 252 306
#     4   9  19  38  61  81 104 135 173 220 267 305
#     4  11  21  33  50  77 112 142 167 208 258 299
#     4   9  17  35  58  76  96 130 171 210 252 304
#     4   8  17  34  56  75  98 133 170 206 253 312
#
# _framework density 19.029926
#
# number of rings (size 3 to 8) (size 9 to 14) (size 15 to 20)
#    0.000    2.625    0.000    3.375    0.000    2.250 
#    0.000   11.250    0.000    0.000    0.000    0.000 
#    0.000    0.000    0.000    0.000    0.000    0.000 
#
# Total GULP energy -396761.260064 kJ/mol
# GULP energy per Si atom -12398.789377 kJ/mol
# Density = 1.898661 g / cm^3
# Si number density = 19.029926 Si / 1000 Ang^3
#
#
#
# Elastic Constant Matrix: (Units=GPa)
#
#
# Indices 1 2 3 4 5 6 
#
# 1 89.6231 25.3837 33.3435 0.0000 9.2939 0.0000
# 2 25.3837 56.1866 31.4647 0.0000 4.9514 0.0000
# 3 33.3435 31.4647 86.9157 0.0000 15.3106 0.0000
# 4 0.0000 0.0000 0.0000 30.7079 0.0000 3.4188
# 5 9.2939 4.9514 15.3106 0.0000 24.5983 0.0000
# 6 0.0000 0.0000 0.0000 3.4188 0.0000 26.3700
#
#
#
# Elastic Compliance Matrix: (Units=1/GPa)
#
#
# Indices 1 2 3 4 5 6 
#
# 1 0.013834 -0.004141 -0.003408 0.000000 -0.002272 0.000000
# 2 -0.004141 0.023571 -0.007170 0.000000 0.001283 0.000000
# 3 -0.003408 -0.007170 0.016766 0.000000 -0.007705 0.000000
# 4 0.000000 0.000000 0.000000 0.033042 0.000000 -0.004284
# 5 -0.002272 0.001283 -0.007705 0.000000 0.046049 0.000000
# 6 0.000000 0.000000 0.000000 -0.004284 0.000000 0.038477
#
#
# Mechanical properties :
#
#
# Convention : Reuss Voigt Hill
#
# Bulk Modulus (GPa) = 40.43318 45.90101 43.16710
# Shear Modulus (GPa) = 23.87523 25.83748 24.85635
#
# Velocity S-wave (km/s) = 3.54590 3.68873 3.61802
# Velocity P-wave (km/s) = 6.16910 6.50501 6.33928
#
# Compressibility (1/GPa) = 0.02473216
#
# Stress axis : x y z
#
# Youngs Moduli (GPa) = 72.28448 42.42472 59.64566
#
# Poissons Ratio (x) = 0.17570 0.20326
# Poissons Ratio (y) = 0.29936 0.42768
# Poissons Ratio (z) = 0.24633 0.30420
#
# Static dielectric constant tensor:
#      x y z
#    x 3.716560 0.000000 -0.169190 
#    y 0.000000 3.176850 0.000000 
#    z -0.169190 0.000000 3.598830 
# 
# 
# High freq. dielectric constant tensor:
#      x y z
#    x 1.746690 0.000000 0.004720 
#    y 0.000000 1.716540 0.000000 
#    z 0.004720 0.000000 1.740460 
# 
# From -- ./inp_files/338696.got.cif
#   From: 2010.06.25/outbox.cif.g09.slc.cpg/sg12_170_cif.got.tgz:338696.got - 2010.06.28 00:19:55.
