data_PCOD8106305
_publ_section_title
;
Structure prediction by ZEFSAII (Michael W. Deem and Ramdas Pophale) SiO2 
 PCOD8106305
Probable space group: C 2/M
;
_chemical_formula_sum "Si O2"
_cell_formula_units_Z 64
_cell_length_a 24.382592
_cell_length_b 24.333498
_cell_length_c 17.727973
_cell_angle_alpha 90.000000
_cell_angle_beta 18.753404
_cell_angle_gamma 90.000000
_cell_volume 3381.572453
_symmetry_space_group_name_H-M "C 2/M"
_symmetry_group_IT_number 12
_symmetry_cell_setting 'monoclinic'
loop_
_space_group_symop_operation_xyz
x,y,z
-x,y,-z
-x,-y,-z
x,-y,z
1/2+x,1/2+y,z
1/2-x,1/2+y,-z
1/2-x,1/2-y,-z
1/2+x,1/2-y,z
loop_
_atom_site_type_symbol
_atom_site_label
_atom_site_fract_x
_atom_site_fract_y
_atom_site_fract_z
Si Si1 0.169478 0.333001 0.425481
Si Si2 0.557529 0.353709 0.625027
Si Si3 0.064244 0.561329 0.500242
Si Si4 0.690001 0.936446 0.780660
Si Si5 0.126333 0.639924 0.994178
Si Si6 0.743300 0.814738 0.496296
Si Si7 0.679098 0.875677 0.092603
Si Si8 0.640042 0.726070 0.382217
O O1 0.274043 0.327837 0.367679
O O2 0.218999 0.284535 0.303993
O O3 0.206657 0.392893 0.338583
O O4 0.962475 0.327551 0.707660
O O5 0.668471 0.405725 0.453729
O O6 0.610759 0.338111 0.640165
O O7 0.571967 0.304263 0.545986
O O8 0.360008 0.366891 0.895597
O O9 0.140495 0.500000 0.409004
O O10 0.901955 0.567963 0.768252
O O11 0.000000 0.573295 0.500000
O O12 0.741186 0.000000 0.714585
O O13 0.500000 0.925738 0.000000
O O14 0.683583 0.913138 0.872906
O O15 0.210322 0.622771 0.963207
O O16 0.927065 0.653147 0.257019
O O17 0.203533 0.694400 0.857689
O O18 0.750000 0.750000 0.500000
O O19 0.500000 0.733466 0.500000
#
# Coordination Sequence:
#
# PCOD8106305 Si02
#       8
#     8   8   8   8   8   8   8   8
#     4   9  21  37  56  85 111 146 201 231 290 349
#     4  11  21  37  57  85 120 154 191 238 286 335
#     4   9  19  39  64  86 114 148 193 251 298 341
#     4  10  21  36  57  83 117 159 194 230 281 347
#     4  10  21  38  56  82 120 151 191 233 288 345
#     4  11  21  38  54  81 118 156 194 239 282 344
#     4   9  21  37  57  86 115 146 190 241 285 346
#     4  11  20  33  59  83 119 153 184 234 291 344
#
# _framework density 18.926106000000001
#
# number of rings (size 3 to 8) (size 9 to 14) (size 15 to 20)
#    0.750    1.250    3.750    0.375    0.000    2.500 
#    0.000    1.250    0.000    0.000    0.000    1.750 
#    0.000    0.000    0.000    0.000    0.000    0.000 
#
# Total GULP energy -396482.985642 kJ/mol
# GULP energy per Si atom -12390.093301 kJ/mol
# Density = 1.888303 g / cm^3
# Si number density = 18.926106 Si / 1000 Ang^3
#
#
#
# Elastic Constant Matrix: (Units=GPa)
#
#
# Indices 1 2 3 4 5 6 
#
# 1 139.7802 59.0174 17.0317 -0.0402 -10.1670 0.0163
# 2 59.0174 116.9806 3.1420 -0.0656 2.2030 0.0263
# 3 17.0317 3.1420 32.0649 -0.1034 -9.3274 0.0396
# 4 -0.0402 -0.0656 -0.1034 21.9713 0.0276 -0.2801
# 5 -10.1670 2.2030 -9.3274 0.0276 25.4209 -0.0039
# 6 0.0163 0.0263 0.0396 -0.2801 -0.0039 26.0721
#
#
#
# Elastic Compliance Matrix: (Units=1/GPa)
#
#
# Indices 1 2 3 4 5 6 
#
# 1 0.009947 -0.004968 -0.003934 -0.000019 0.002965 0.000005
# 2 -0.004968 0.011084 0.000779 0.000031 -0.002662 -0.000009
# 3 -0.003934 0.000779 0.036633 0.000152 0.011800 -0.000051
# 4 -0.000019 0.000031 0.000152 0.045521 -0.000004 0.000489
# 5 0.002965 -0.002662 0.011800 -0.000004 0.045084 -0.000010
# 6 0.000005 -0.000009 -0.000051 0.000489 -0.000010 0.038361
#
#
# Mechanical properties :
#
#
# Convention : Reuss Voigt Hill
#
# Bulk Modulus (GPa) = 24.14479 49.68976 36.91728
# Shear Modulus (GPa) = 23.07515 28.66849 25.87182
#
# Velocity S-wave (km/s) = 3.49553 3.89621 3.70130
# Velocity P-wave (km/s) = 5.39228 6.82292 6.14935
#
# Compressibility (1/GPa) = 0.04141679
#
# Stress axis : x y z
#
# Youngs Moduli (GPa) = 100.53424 90.21797 27.29759
#
# Poissons Ratio (x) = 0.44824 0.10739
# Poissons Ratio (y) = 0.49950 -0.02126
# Poissons Ratio (z) = 0.39550 -0.07025
#
# Static dielectric constant tensor:
#      x y z
#    x 3.652080 -0.000330 0.067550 
#    y -0.000330 3.386230 0.000410 
#    z 0.067550 0.000410 3.138230 
# 
# 
# High freq. dielectric constant tensor:
#      x y z
#    x 1.752350 -0.000020 0.003510 
#    y -0.000020 1.727310 0.000040 
#    z 0.003510 0.000040 1.709640 
# 
# From -- ./inp_files/291083.got.cif
#   From: 2010.06.25/outbox.cif.g09.slc.cpg/sg12_146_cif.got.tgz:291083.got - 2010.06.28 00:19:55.
