data_PCOD8106137
_publ_section_title
;
Structure prediction by ZEFSAII (Michael W. Deem and Ramdas Pophale) SiO2 
 PCOD8106137
Probable space group: C 2/M
;
_chemical_formula_sum "Si O2"
_cell_formula_units_Z 56
_cell_length_a 9.545001
_cell_length_b 19.556558
_cell_length_c 16.147116
_cell_angle_alpha 90.000000
_cell_angle_beta 111.257608
_cell_angle_gamma 90.000000
_cell_volume 2809.056749
_symmetry_space_group_name_H-M "C 2/M"
_symmetry_group_IT_number 12
_symmetry_cell_setting 'monoclinic'
loop_
_space_group_symop_operation_xyz
x,y,z
-x,y,-z
-x,-y,-z
x,-y,z
1/2+x,1/2+y,z
1/2-x,1/2+y,-z
1/2-x,1/2-y,-z
1/2+x,1/2-y,z
loop_
_atom_site_type_symbol
_atom_site_label
_atom_site_fract_x
_atom_site_fract_y
_atom_site_fract_z
Si Si1 0.441153 0.311209 0.114113
Si Si2 0.777092 0.186457 0.399747
Si Si3 0.101024 0.820968 0.398258
Si Si4 0.744143 0.311512 0.094002
Si Si5 0.539384 0.078900 0.917379
Si Si6 0.488659 0.423857 0.253728
Si Si7 0.683570 0.073284 0.271567
O O1 0.620978 0.306099 0.140085
O O2 0.371618 0.244853 0.145207
O O3 0.421692 0.381494 0.161129
O O4 0.346933 0.306733 0.010431
O O5 0.817860 0.157454 0.499299
O O6 0.686568 0.256287 0.380104
O O7 0.662367 0.131416 0.335627
O O8 0.927169 0.198225 0.377828
O O9 0.114878 0.880524 0.331285
O O10 0.825397 0.384512 0.102505
O O11 0.392024 0.091542 0.831803
O O12 0.585847 0.000000 0.937135
O O13 0.500000 0.110332 0.000000
O O14 0.547208 0.500000 0.238489
O O15 0.359261 0.434816 0.292730
O O16 0.620270 0.000000 0.290813
#
# Coordination Sequence:
#
# PCOD8106137 Si02
#       7
#     8   8   8   8   8   8   8
#     4  10  23  38  56  83 109 146 183 235 278 327
#     4   9  18  35  56  83 111 140 184 229 274 335
#     4   9  19  34  57  83 109 143 181 228 281 326
#     4  10  23  38  57  81 111 144 189 229 280 327
#     4  10  21  36  57  83 113 150 186 227 275 330
#     4  10  21  36  55  82 113 147 186 227 281 333
#     4   9  19  34  55  83 111 147 187 227 275 328
#
# _framework density 19.935517999999998
#
# number of rings (size 3 to 8) (size 9 to 14) (size 15 to 20)
#    0.000    2.429    0.000    0.857    8.000    4.000 
#    0.000    4.286    0.000    0.000    0.000    4.000 
#    0.000    0.000    0.000    0.000    0.000    0.000 
#
# Total GULP energy -346898.961634 kJ/mol
# GULP energy per Si atom -12389.248630 kJ/mol
# Density = 1.989014 g / cm^3
# Si number density = 19.935518 Si / 1000 Ang^3
#
#
#
# Elastic Constant Matrix: (Units=GPa)
#
#
# Indices 1 2 3 4 5 6 
#
# 1 76.0728 53.5908 22.1620 0.0000 2.9360 0.0000
# 2 53.5908 139.0819 64.8034 0.0000 2.2420 0.0000
# 3 22.1620 64.8034 88.3081 0.0000 6.9103 0.0000
# 4 0.0000 0.0000 0.0000 36.8805 0.0000 -0.3141
# 5 2.9360 2.2420 6.9103 0.0000 19.6599 0.0000
# 6 0.0000 0.0000 0.0000 -0.3141 0.0000 21.7604
#
#
#
# Elastic Compliance Matrix: (Units=1/GPa)
#
#
# Indices 1 2 3 4 5 6 
#
# 1 0.018183 -0.007485 0.001106 0.000000 -0.002251 0.000000
# 2 -0.007485 0.014057 -0.008637 0.000000 0.002551 0.000000
# 3 0.001106 -0.008637 0.017810 0.000000 -0.005440 0.000000
# 4 0.000000 0.000000 0.000000 0.027118 0.000000 0.000391
# 5 -0.002251 0.002551 -0.005440 0.000000 0.052822 0.000000
# 6 0.000000 0.000000 0.000000 0.000391 0.000000 0.045961
#
#
# Mechanical properties :
#
#
# Convention : Reuss Voigt Hill
#
# Bulk Modulus (GPa) = 49.95489 64.95280 57.45384
# Shear Modulus (GPa) = 23.51206 26.52060 25.01633
#
# Velocity S-wave (km/s) = 3.43797 3.65131 3.54625
# Velocity P-wave (km/s) = 6.39314 7.10129 6.75650
#
# Compressibility (1/GPa) = 0.02001806
#
# Stress axis : x y z
#
# Youngs Moduli (GPa) = 54.99602 71.13743 56.14769
#
# Poissons Ratio (x) = 0.53248 -0.06209
# Poissons Ratio (y) = 0.41166 0.48494
# Poissons Ratio (z) = -0.06081 0.61440
#
# Static dielectric constant tensor:
#      x y z
#    x 3.554690 0.000000 0.074560 
#    y 0.000000 3.902580 0.000000 
#    z 0.074560 0.000000 3.612660 
# 
# 
# High freq. dielectric constant tensor:
#      x y z
#    x 1.753720 0.000000 0.008210 
#    y 0.000000 1.780000 0.000000 
#    z 0.008210 0.000000 1.775330 
# 
# From -- ./inp_files/257214.got.cif
#   From: 2010.06.25/outbox.cif.g09.slc.cpg/sg12_129_cif.got.tgz:257214.got - 2010.06.28 00:19:55.
