data_PCOD8106365
_publ_section_title
;
Structure prediction by ZEFSAII (Michael W. Deem and Ramdas Pophale) SiO2 
 PCOD8106365
Probable space group: C 2/M
;
_chemical_formula_sum "Si O2"
_cell_formula_units_Z 64
_cell_length_a 19.549714
_cell_length_b 17.222679
_cell_length_c 9.655993
_cell_angle_alpha 90.000000
_cell_angle_beta 93.456967
_cell_angle_gamma 90.000000
_cell_volume 3245.241955
_symmetry_space_group_name_H-M "C 2/M"
_symmetry_group_IT_number 12
_symmetry_cell_setting 'monoclinic'
loop_
_space_group_symop_operation_xyz
x,y,z
-x,y,-z
-x,-y,-z
x,-y,z
1/2+x,1/2+y,z
1/2-x,1/2+y,-z
1/2-x,1/2-y,-z
1/2+x,1/2-y,z
loop_
_atom_site_type_symbol
_atom_site_label
_atom_site_fract_x
_atom_site_fract_y
_atom_site_fract_z
Si Si1 0.805273 0.824354 0.239891
Si Si2 0.322454 0.142351 0.265956
Si Si3 0.445491 0.909901 0.875489
Si Si4 0.950798 0.162873 0.328939
Si Si5 0.078541 0.911056 0.384220
Si Si6 0.203675 0.588871 0.035391
Si Si7 0.276844 0.409655 0.518970
Si Si8 0.526095 0.840890 0.647360
O O1 0.801851 0.731848 0.247533
O O2 0.885179 0.847735 0.220537
O O3 0.761108 0.855628 0.107214
O O4 0.776470 0.858924 0.379629
O O5 0.290497 0.108638 0.402362
O O6 0.403071 0.122448 0.289248
O O7 0.294317 0.096727 0.129647
O O8 0.370330 0.884862 0.916539
O O9 0.465291 0.856518 0.748166
O O10 0.447862 0.000000 0.832706
O O11 0.500000 0.891225 0.000000
O O12 0.936765 0.108395 0.458251
O O13 0.958541 0.251000 0.376496
O O14 0.024899 0.135157 0.276813
O O15 0.158286 0.888415 0.373243
O O16 0.065977 0.000000 0.350654
O O17 0.219313 0.500000 0.077710
O O18 0.279431 0.500000 0.475705
O O19 0.500000 0.877730 0.500000
#
# Coordination Sequence:
#
# PCOD8106365 Si02
#       8
#     8   8   8   8   8   8   8   8
#     4  10  22  37  58  86 117 148 194 241 287 343
#     4  11  23  39  59  84 118 156 192 238 294 343
#     4  10  22  41  59  79 111 154 199 236 282 342
#     4   9  17  33  55  83 119 139 183 229 284 336
#     4   9  16  30  55  82 113 150 180 221 284 342
#     4  11  23  41  62  82 113 158 198 239 288 347
#     4  10  21  36  57  88 118 151 194 238 288 345
#     4  11  22  36  60  88 116 148 188 241 288 335
#
# _framework density 19.72118
#
# number of rings (size 3 to 8) (size 9 to 14) (size 15 to 20)
#    0.000    1.875    2.500    2.250    1.750    3.250 
#    0.000    0.000    0.000    0.000    0.000    2.625 
#    0.000    0.000    0.000    0.000    0.000    0.000 
#
# Total GULP energy -396635.921702 kJ/mol
# GULP energy per Si atom -12394.872553 kJ/mol
# Density = 1.967629 g / cm^3
# Si number density = 19.721180 Si / 1000 Ang^3
#
#
#
# Elastic Constant Matrix: (Units=GPa)
#
#
# Indices 1 2 3 4 5 6 
#
# 1 74.1423 21.9981 24.3499 0.0000 20.5181 0.0000
# 2 21.9981 37.0424 14.0705 0.0000 6.7368 0.0000
# 3 24.3499 14.0705 77.8305 0.0000 10.2990 0.0000
# 4 0.0000 0.0000 0.0000 19.5623 0.0000 0.4146
# 5 20.5181 6.7368 10.2990 0.0000 33.0954 0.0000
# 6 0.0000 0.0000 0.0000 0.4146 0.0000 18.5415
#
#
#
# Elastic Compliance Matrix: (Units=1/GPa)
#
#
# Indices 1 2 3 4 5 6 
#
# 1 0.019808 -0.008768 -0.003362 0.000000 -0.009450 0.000000
# 2 -0.008768 0.033511 -0.003266 0.000000 -0.000369 0.000000
# 3 -0.003362 -0.003266 0.014734 0.000000 -0.001836 0.000000
# 4 0.000000 0.000000 0.000000 0.051143 0.000000 -0.001143
# 5 -0.009450 -0.000369 -0.001836 0.000000 0.036721 0.000000
# 6 0.000000 0.000000 0.000000 -0.001143 0.000000 0.053959
#
#
# Mechanical properties :
#
#
# Convention : Reuss Voigt Hill
#
# Bulk Modulus (GPa) = 26.83767 34.42802 30.63284
# Shear Modulus (GPa) = 19.75611 22.81296 21.28453
#
# Velocity S-wave (km/s) = 3.16851 3.40483 3.28879
# Velocity P-wave (km/s) = 5.19847 5.74042 5.47615
#
# Compressibility (1/GPa) = 0.03726105
#
# Stress axis : x y z
#
# Youngs Moduli (GPa) = 50.48447 29.84111 67.87211
#
# Poissons Ratio (x) = 0.26164 0.22816
# Poissons Ratio (y) = 0.44264 0.22169
# Poissons Ratio (z) = 0.16971 0.09747
#
# Static dielectric constant tensor:
#      x y z
#    x 4.313430 0.000000 0.206060 
#    y 0.000000 3.517950 0.000000 
#    z 0.206060 0.000000 3.220920 
# 
# 
# High freq. dielectric constant tensor:
#      x y z
#    x 1.789110 0.000000 0.013650 
#    y 0.000000 1.769650 0.000000 
#    z 0.013650 0.000000 1.732480 
# 
# From -- ./inp_files/87967.got.cif
#   From: 2010.06.25/outbox.cif.g09.slc.cpg/sg12_44_cif.got.tgz:87967.got - 2010.06.28 00:19:55.
