data_PCOD8106465
_publ_section_title
;
Structure prediction by ZEFSAII (Michael W. Deem and Ramdas Pophale) SiO2 
 PCOD8106465
Probable space group: C 2/M
;
_chemical_formula_sum "Si O2"
_cell_formula_units_Z 64
_cell_length_a 13.032588
_cell_length_b 27.144582
_cell_length_c 15.416052
_cell_angle_alpha 90.000000
_cell_angle_beta 36.227164
_cell_angle_gamma 90.000000
_cell_volume 3223.040683
_symmetry_space_group_name_H-M "C 2/M"
_symmetry_group_IT_number 12
_symmetry_cell_setting 'monoclinic'
loop_
_space_group_symop_operation_xyz
x,y,z
-x,y,-z
-x,-y,-z
x,-y,z
1/2+x,1/2+y,z
1/2-x,1/2+y,-z
1/2-x,1/2-y,-z
1/2+x,1/2-y,z
loop_
_atom_site_type_symbol
_atom_site_label
_atom_site_fract_x
_atom_site_fract_y
_atom_site_fract_z
Si Si1 0.890019 0.617970 0.155539
Si Si2 0.889247 0.887600 0.783625
Si Si3 0.304649 0.700820 0.617601
Si Si4 0.246302 0.155249 0.520041
Si Si5 0.626474 0.133748 0.225909
Si Si6 0.189420 0.194746 0.035581
Si Si7 0.175142 0.442087 0.061437
Si Si8 0.801039 0.193772 0.259946
O O1 0.714119 0.595930 0.232325
O O2 0.837302 0.661748 0.254367
O O3 0.999779 0.577132 0.133014
O O4 0.000000 0.639381 0.000000
O O5 0.832330 0.832442 0.856506
O O6 0.092603 0.885603 0.621152
O O7 0.846322 0.926215 0.889856
O O8 0.500000 0.682625 0.500000
O O9 0.280895 0.700709 0.529186
O O10 0.272679 0.750748 0.693867
O O11 0.423894 0.126822 0.381203
O O12 0.261116 0.177395 0.604232
O O13 0.693536 0.080220 0.146718
O O14 0.723021 0.156310 0.243037
O O15 0.658355 0.168901 0.121797
O O16 0.007925 0.192618 0.107285
O O17 0.250000 0.250000 0.000000
O O18 0.165761 0.500000 0.075791
#
# Coordination Sequence:
#
# PCOD8106465 Si02
#       8
#     8   8   8   8   8   8   8   8
#     4  10  21  36  58  91 122 156 204 266 319 384
#     4   9  21  37  59  88 125 162 204 268 323 385
#     4  12  22  35  58  89 131 176 208 252 313 384
#     4  11  21  40  57  83 131 171 211 255 314 378
#     4  11  22  40  61  89 125 165 215 272 309 370
#     4  10  22  37  58  87 126 168 212 257 309 371
#     4  10  22  43  69  92 120 165 219 276 333 377
#     4  11  25  36  57  90 129 174 219 251 304 375
#
# _framework density 19.857025
#
# number of rings (size 3 to 8) (size 9 to 14) (size 15 to 20)
#    0.000    1.500    2.500    2.625    5.250    3.250 
#    0.000    0.625    0.000   16.125    0.000    0.000 
#    0.000    0.000    0.000    0.000    0.000    0.000 
#
# Total GULP energy -396545.579489 kJ/mol
# GULP energy per Si atom -12392.049359 kJ/mol
# Density = 1.981183 g / cm^3
# Si number density = 19.857025 Si / 1000 Ang^3
#
#
#
# Elastic Constant Matrix: (Units=GPa)
#
#
# Indices 1 2 3 4 5 6 
#
# 1 101.8402 44.9291 41.0288 0.0003 -0.6911 -0.0002
# 2 44.9291 136.8855 51.1624 0.0001 -0.8046 0.0000
# 3 41.0288 51.1624 123.4946 0.0002 -14.4171 -0.0002
# 4 0.0003 0.0001 0.0002 14.9733 -0.0002 0.6137
# 5 -0.6911 -0.8046 -14.4171 -0.0002 35.3794 0.0002
# 6 -0.0002 0.0000 -0.0002 0.6137 0.0002 23.7882
#
#
#
# Elastic Compliance Matrix: (Units=1/GPa)
#
#
# Indices 1 2 3 4 5 6 
#
# 1 0.012312 -0.002926 -0.003001 0.000000 -0.001049 0.000000
# 2 -0.002926 0.009399 -0.003049 0.000000 -0.001086 0.000000
# 3 -0.003001 -0.003049 0.010859 0.000000 0.004297 0.000000
# 4 0.000000 0.000000 0.000000 0.066856 0.000000 -0.001725
# 5 -0.001049 -0.001086 0.004297 0.000000 0.029971 0.000000
# 6 0.000000 0.000000 0.000000 -0.001725 0.000000 0.042082
#
#
# Mechanical properties :
#
#
# Convention : Reuss Voigt Hill
#
# Bulk Modulus (GPa) = 68.40058 70.71787 69.55923
# Shear Modulus (GPa) = 25.73316 29.83486 27.78401
#
# Velocity S-wave (km/s) = 3.60380 3.88039 3.74465
# Velocity P-wave (km/s) = 7.19985 7.46776 7.33503
#
# Compressibility (1/GPa) = 0.01461976
#
# Stress axis : x y z
#
# Youngs Moduli (GPa) = 81.22274 106.39800 92.08869
#
# Poissons Ratio (x) = 0.31128 0.27634
# Poissons Ratio (y) = 0.23763 0.28073
# Poissons Ratio (z) = 0.24373 0.32436
#
# Static dielectric constant tensor:
#      x y z
#    x 3.895320 0.000000 -0.073360 
#    y 0.000000 3.283840 0.000000 
#    z -0.073360 0.000000 4.004180 
# 
# 
# High freq. dielectric constant tensor:
#      x y z
#    x 1.781210 0.000000 -0.001770 
#    y 0.000000 1.722680 0.000000 
#    z -0.001770 0.000000 1.795220 
# 
# From -- ./inp_files/209377.got.cif
#   From: 2010.06.25/outbox.cif.g09.slc.cpg/sg12_105_cif.got.tgz:209377.got - 2010.06.28 00:19:55.
