data_PCOD8106789
_publ_section_title
;
Structure prediction by ZEFSAII (Michael W. Deem and Ramdas Pophale) SiO2 
 PCOD8106789
Probable space group: C 2/M
;
_chemical_formula_sum "Si O2"
_cell_formula_units_Z 56
_cell_length_a 15.074614
_cell_length_b 8.899867
_cell_length_c 28.721257
_cell_angle_alpha 90.000000
_cell_angle_beta 48.760181
_cell_angle_gamma 90.000000
_cell_volume 2897.517991
_symmetry_space_group_name_H-M "C 2/M"
_symmetry_group_IT_number 12
_symmetry_cell_setting 'monoclinic'
loop_
_space_group_symop_operation_xyz
x,y,z
-x,y,-z
-x,-y,-z
x,-y,z
1/2+x,1/2+y,z
1/2-x,1/2+y,-z
1/2-x,1/2-y,-z
1/2+x,1/2-y,z
loop_
_atom_site_type_symbol
_atom_site_label
_atom_site_fract_x
_atom_site_fract_y
_atom_site_fract_z
Si Si1 0.383913 0.321552 0.092449
Si Si2 0.790278 0.321450 0.768988
Si Si3 0.561620 0.670475 0.431790
Si Si4 0.945992 0.677706 0.313656
Si Si5 0.150306 0.829477 0.564038
Si Si6 0.151502 0.177949 0.000013
Si Si7 0.273521 0.323065 0.311304
O O1 0.384290 0.500000 0.092482
O O2 0.296910 0.253988 0.161726
O O3 0.517578 0.269249 0.058783
O O4 0.334469 0.269825 0.058907
O O5 0.789507 0.500000 0.771917
O O6 0.750967 0.265592 0.732081
O O7 0.921507 0.259137 0.731316
O O8 0.500000 0.730773 0.500000
O O9 0.607902 0.500000 0.423666
O O10 0.472162 0.677186 0.420347
O O11 0.669183 0.778921 0.382632
O O12 0.943252 0.500000 0.318301
O O13 0.865209 0.743364 0.382460
O O14 0.892231 0.736347 0.284077
O O15 0.250000 0.750000 0.500000
O O16 0.189003 0.000000 0.560697
O O17 0.165644 0.000000 0.000143
O O18 0.250000 0.250000 0.000000
O O19 0.292947 0.500000 0.307069
#
# Coordination Sequence:
#
# PCOD8106789 Si02
#       7
#     8   8   8   8   8   8   8
#     4   8  16  33  54  79 111 154 193 224 273 339
#     4   9  19  36  57  79 111 150 191 232 278 339
#     4  10  21  37  56  79 107 139 175 224 282 338
#     4  11  22  38  57  79 109 147 186 230 283 338
#     4  11  22  36  57  83 112 143 180 229 282 341
#     4   9  17  31  56  84 114 149 190 233 275 326
#     4  11  22  37  57  82 107 141 186 233 281 336
#
# _framework density 19.326885999999998
#
# number of rings (size 3 to 8) (size 9 to 14) (size 15 to 20)
#    0.000    2.143    1.429    3.000    0.000    3.143 
#    0.000    1.429    0.000    5.143    0.000    0.000 
#    0.000    0.000    0.000    0.000    0.000    0.000 
#
# Total GULP energy -347142.536532 kJ/mol
# GULP energy per Si atom -12397.947733 kJ/mol
# Density = 1.928290 g / cm^3
# Si number density = 19.326886 Si / 1000 Ang^3
#
#
#
# Elastic Constant Matrix: (Units=GPa)
#
#
# Indices 1 2 3 4 5 6 
#
# 1 160.3868 40.0292 74.5597 0.0001 -0.7044 0.0003
# 2 40.0292 64.2450 33.4226 0.0003 -3.2446 0.0006
# 3 74.5597 33.4226 158.0803 0.0000 -0.2207 0.0000
# 4 0.0001 0.0003 0.0000 14.5274 0.0000 -0.7758
# 5 -0.7044 -3.2446 -0.2207 0.0000 24.0959 0.0000
# 6 0.0003 0.0006 0.0000 -0.7758 0.0000 32.3466
#
#
#
# Elastic Compliance Matrix: (Units=1/GPa)
#
#
# Indices 1 2 3 4 5 6 
#
# 1 0.008703 -0.003709 -0.003321 0.000000 -0.000275 0.000000
# 2 -0.003709 0.019200 -0.002307 0.000000 0.002456 0.000000
# 3 -0.003321 -0.002307 0.008380 0.000000 -0.000331 0.000000
# 4 0.000000 0.000000 0.000000 0.068924 0.000000 0.001653
# 5 -0.000275 0.002456 -0.000331 0.000000 0.041821 0.000000
# 6 0.000000 0.000000 0.000000 0.001653 0.000000 0.030955
#
#
# Mechanical properties :
#
#
# Convention : Reuss Voigt Hill
#
# Bulk Modulus (GPa) = 56.78701 75.41502 66.10101
# Shear Modulus (GPa) = 24.68816 29.84066 27.26441
#
# Velocity S-wave (km/s) = 3.57795 3.93364 3.76000
# Velocity P-wave (km/s) = 6.82020 7.72896 7.28876
#
# Compressibility (1/GPa) = 0.01760966
#
# Stress axis : x y z
#
# Youngs Moduli (GPa) = 114.89866 52.08221 119.33719
#
# Poissons Ratio (x) = 0.19317 0.39634
# Poissons Ratio (y) = 0.42615 0.27528
# Poissons Ratio (z) = 0.38160 0.12014
#
# Static dielectric constant tensor:
#      x y z
#    x 3.889300 0.000000 0.018350 
#    y 0.000000 3.263670 0.000000 
#    z 0.018350 0.000000 3.746410 
# 
# 
# High freq. dielectric constant tensor:
#      x y z
#    x 1.768000 0.000000 0.001210 
#    y 0.000000 1.723920 0.000000 
#    z 0.001210 0.000000 1.750710 
# 
# From -- ./inp_files/374944.got.cif
#   From: 2010.06.25/outbox.cif.g09.slc.cpg/sg12_188_cif.got.tgz:374944.got - 2010.06.28 00:19:55.
