data_PCOD8106433
_publ_section_title
;
Structure prediction by ZEFSAII (Michael W. Deem and Ramdas Pophale) SiO2 
 PCOD8106433
Probable space group: C 2/M
;
_chemical_formula_sum "Si O2"
_cell_formula_units_Z 56
_cell_length_a 21.203308
_cell_length_b 8.506923
_cell_length_c 29.503806
_cell_angle_alpha 90.000000
_cell_angle_beta 150.291516
_cell_angle_gamma 90.000000
_cell_volume 2637.389801
_symmetry_space_group_name_H-M "C 2/M"
_symmetry_group_IT_number 12
_symmetry_cell_setting 'monoclinic'
loop_
_space_group_symop_operation_xyz
x,y,z
-x,y,-z
-x,-y,-z
x,-y,z
1/2+x,1/2+y,z
1/2-x,1/2+y,-z
1/2-x,1/2-y,-z
1/2+x,1/2-y,z
loop_
_atom_site_type_symbol
_atom_site_label
_atom_site_fract_x
_atom_site_fract_y
_atom_site_fract_z
Si Si1 0.778131 0.322098 0.453161
Si Si2 0.635335 0.315138 0.212239
Si Si3 0.942565 0.326174 0.634709
Si Si4 0.851379 0.184468 0.406997
Si Si5 0.621869 0.687033 0.897446
Si Si6 0.625310 0.818881 0.107091
Si Si7 0.843974 0.820789 0.181882
O O1 0.724700 0.500000 0.424914
O O2 0.915530 0.308120 0.564003
O O3 0.689016 0.193618 0.420767
O O4 0.786968 0.282948 0.406412
O O5 0.651302 0.500000 0.229518
O O6 0.766797 0.231097 0.310363
O O7 0.508366 0.252793 0.159575
O O8 0.616136 0.279238 0.147393
O O9 0.997594 0.500000 0.679528
O O10 0.035828 0.192120 0.710139
O O11 0.000000 0.234180 0.500000
O O12 0.840189 0.000000 0.408687
O O13 0.623313 0.500000 0.899938
O O14 0.625070 0.754468 0.847856
O O15 0.750000 0.750000 0.000000
O O16 0.729595 0.741318 0.138486
O O17 0.656751 0.000000 0.139138
O O18 0.500000 0.804108 0.000000
O O19 0.807179 0.000000 0.150243
#
# Coordination Sequence:
#
# PCOD8106433 Si02
#       7
#     8   8   8   8   8   8   8
#     4  10  21  38  59  85 119 157 199 248 302 357
#     4  11  24  41  64  94 130 167 208 260 320 382
#     4  10  21  36  58  88 118 154 197 246 301 360
#     4  11  25  42  62  89 122 164 214 260 307 372
#     4  10  22  40  63  92 121 157 203 254 313 373
#     4  10  22  41  64  90 123 166 211 257 312 373
#     4  10  21  37  60  87 118 155 201 252 303 363
#
# _framework density 21.233115000000002
#
# number of rings (size 3 to 8) (size 9 to 14) (size 15 to 20)
#    0.000    1.714    0.000    3.429    2.000    7.714 
#    0.000    0.000    0.000    0.000    0.000    0.000 
#    0.000    0.000    0.000    0.000    0.000    0.000 
#
# Total GULP energy -347062.378903 kJ/mol
# GULP energy per Si atom -12395.084961 kJ/mol
# Density = 2.118479 g / cm^3
# Si number density = 21.233115 Si / 1000 Ang^3
#
#
#
# Elastic Constant Matrix: (Units=GPa)
#
#
# Indices 1 2 3 4 5 6 
#
# 1 133.1827 18.6710 44.7220 -0.0002 -0.8836 0.0000
# 2 18.6710 42.6711 22.4356 -0.0008 -1.0445 -0.0002
# 3 44.7220 22.4356 123.3044 -0.0001 6.2266 0.0000
# 4 -0.0002 -0.0008 -0.0001 28.5455 0.0002 1.6490
# 5 -0.8836 -1.0445 6.2266 0.0002 34.8837 -0.0001
# 6 0.0000 -0.0002 0.0000 1.6490 -0.0001 21.5651
#
#
#
# Elastic Compliance Matrix: (Units=1/GPa)
#
#
# Indices 1 2 3 4 5 6 
#
# 1 0.008780 -0.002360 -0.002788 0.000000 0.000649 0.000000
# 2 -0.002360 0.026641 -0.004065 0.000001 0.001464 0.000000
# 3 -0.002788 -0.004065 0.009960 0.000000 -0.001970 0.000000
# 4 0.000000 0.000001 0.000000 0.035187 0.000000 -0.002691
# 5 0.000649 0.001464 -0.001970 0.000000 0.029079 0.000000
# 6 0.000000 0.000000 0.000000 -0.002691 0.000000 0.046577
#
#
# Mechanical properties :
#
#
# Convention : Reuss Voigt Hill
#
# Bulk Modulus (GPa) = 37.09906 52.31282 44.70594
# Shear Modulus (GPa) = 27.22793 31.22084 29.22438
#
# Velocity S-wave (km/s) = 3.58485 3.83872 3.71396
# Velocity P-wave (km/s) = 5.88601 6.65872 6.28425
#
# Compressibility (1/GPa) = 0.02695486
#
# Stress axis : x y z
#
# Youngs Moduli (GPa) = 113.89836 37.53612 100.39844
#
# Poissons Ratio (x) = 0.08858 0.27989
# Poissons Ratio (y) = 0.26880 0.40816
# Poissons Ratio (z) = 0.31752 0.15260
#
# Static dielectric constant tensor:
#      x y z
#    x 3.994980 0.000000 -0.073960 
#    y 0.000000 3.648750 0.000000 
#    z -0.073960 0.000000 3.795700 
# 
# 
# High freq. dielectric constant tensor:
#      x y z
#    x 1.836190 0.000000 -0.006590 
#    y 0.000000 1.819370 0.000000 
#    z -0.006590 0.000000 1.843440 
# 
# From -- ./inp_files/380816.got.cif
#   From: 2010.06.25/outbox.cif.g09.slc.cpg/sg12_191_cif.got.tgz:380816.got - 2010.06.28 00:19:55.
