data_PCOD8106221
_publ_section_title
;
Structure prediction by ZEFSAII (Michael W. Deem and Ramdas Pophale) SiO2 
 PCOD8106221
Probable space group: C 2/M
;
_chemical_formula_sum "Si O2"
_cell_formula_units_Z 56
_cell_length_a 9.520875
_cell_length_b 22.680415
_cell_length_c 16.051377
_cell_angle_alpha 90.000000
_cell_angle_beta 126.380864
_cell_angle_gamma 90.000000
_cell_volume 2790.523200
_symmetry_space_group_name_H-M "C 2/M"
_symmetry_group_IT_number 12
_symmetry_cell_setting 'monoclinic'
loop_
_space_group_symop_operation_xyz
x,y,z
-x,y,-z
-x,-y,-z
x,-y,z
1/2+x,1/2+y,z
1/2-x,1/2+y,-z
1/2-x,1/2-y,-z
1/2+x,1/2-y,z
loop_
_atom_site_type_symbol
_atom_site_label
_atom_site_fract_x
_atom_site_fract_y
_atom_site_fract_z
Si Si1 0.187151 0.344059 0.597550
Si Si2 0.246772 0.250000 0.246772
Si Si3 0.187706 0.568537 0.273715
Si Si4 0.693342 0.654163 0.098045
Si Si5 0.992051 0.155941 0.402450
Si Si6 0.359725 0.068537 0.273715
Si Si7 0.002748 0.654163 0.098045
O O1 0.277845 0.292390 0.682613
O O2 0.316361 0.359383 0.566361
O O3 0.150865 0.402624 0.638979
O O4 0.000000 0.321125 0.500000
O O5 0.273062 0.210226 0.174430
O O6 0.412618 0.292390 0.317387
O O7 0.075799 0.289774 0.174430
O O8 0.218246 0.500000 0.268919
O O9 0.372908 0.597376 0.361021
O O10 0.114824 0.596456 0.162175
O O11 0.049885 0.580582 0.299885
O O12 0.709526 0.596456 0.162175
O O13 0.803245 0.644722 0.053245
O O14 0.500000 0.665715 0.000000
O O15 0.000000 0.178875 0.500000
O O16 0.319593 0.000000 0.268919
O O17 0.000000 0.665715 0.000000
#
# Coordination Sequence:
#
# PCOD8106221 Si02
#       7
#     8   8   8   8   8   8   8
#     4  11  23  38  59  86 114 147 187 232 282 335
#     4  10  22  38  58  80 112 150 190 230 272 328
#     4   9  20  40  61  81 111 150 190 233 279 329
#     4  10  21  36  56  83 113 146 185 229 278 330
#     4  11  23  38  59  86 114 147 187 232 282 335
#     4   9  20  40  61  81 111 150 190 233 279 329
#     4  10  21  36  56  83 113 146 185 229 278 330
#
# _framework density 20.067920999999998
#
# number of rings (size 3 to 8) (size 9 to 14) (size 15 to 20)
#    0.000    2.000    0.000    2.571    0.000   13.143 
#    0.000    0.000    0.000    0.000    0.000    0.000 
#    0.000    0.000    0.000    0.000    0.000    0.000 
#
# Total GULP energy -347196.689069 kJ/mol
# GULP energy per Si atom -12399.881752 kJ/mol
# Density = 2.002225 g / cm^3
# Si number density = 20.067921 Si / 1000 Ang^3
#
#
#
# Elastic Constant Matrix: (Units=GPa)
#
#
# Indices 1 2 3 4 5 6 
#
# 1 116.4509 35.0881 59.1536 0.0000 0.4183 0.0000
# 2 35.0881 127.2397 41.5407 0.0000 -0.6440 0.0000
# 3 59.1536 41.5407 115.6421 0.0000 -0.3375 0.0000
# 4 0.0000 0.0000 0.0000 16.3152 0.0000 0.4562
# 5 0.4183 -0.6440 -0.3375 0.0000 26.6285 0.0000
# 6 0.0000 0.0000 0.0000 0.4562 0.0000 20.8860
#
#
#
# Elastic Compliance Matrix: (Units=1/GPa)
#
#
# Indices 1 2 3 4 5 6 
#
# 1 0.011838 -0.001460 -0.005532 0.000000 -0.000291 0.000000
# 2 -0.001460 0.009084 -0.002516 0.000000 0.000211 0.000000
# 3 -0.005532 -0.002516 0.012381 0.000000 0.000183 0.000000
# 4 0.000000 0.000000 0.000000 0.061330 0.000000 -0.001340
# 5 -0.000291 0.000211 0.000183 0.000000 0.037566 0.000000
# 6 0.000000 0.000000 0.000000 -0.001340 0.000000 0.047908
#
#
# Mechanical properties :
#
#
# Convention : Reuss Voigt Hill
#
# Bulk Modulus (GPa) = 69.98685 70.09973 70.04329
# Shear Modulus (GPa) = 24.52349 27.66930 26.09640
#
# Velocity S-wave (km/s) = 3.49954 3.71722 3.61002
# Velocity P-wave (km/s) = 7.16099 7.30963 7.23569
#
# Compressibility (1/GPa) = 0.01428840
#
# Stress axis : x y z
#
# Youngs Moduli (GPa) = 84.47112 110.08120 80.76663
#
# Poissons Ratio (x) = 0.16072 0.44680
# Poissons Ratio (y) = 0.12333 0.20319
# Poissons Ratio (z) = 0.46729 0.27694
#
# Static dielectric constant tensor:
#      x y z
#    x 3.473390 0.000000 -0.016540 
#    y 0.000000 3.660640 0.000000 
#    z -0.016540 0.000000 3.639110 
# 
# 
# High freq. dielectric constant tensor:
#      x y z
#    x 1.778430 0.000000 -0.000530 
#    y 0.000000 1.783270 0.000000 
#    z -0.000530 0.000000 1.783770 
# 
# From -- ./inp_files/259256.got.cif
#   From: 2010.06.25/outbox.cif.g09.slc.cpg/sg12_130_cif.got.tgz:259256.got - 2010.06.28 00:19:55.
