data_PCOD8106157
_publ_section_title
;
Structure prediction by ZEFSAII (Michael W. Deem and Ramdas Pophale) SiO2 
 PCOD8106157
Probable space group: C 2/M
;
_chemical_formula_sum "Si O2"
_cell_formula_units_Z 56
_cell_length_a 20.084588
_cell_length_b 8.978437
_cell_length_c 30.316253
_cell_angle_alpha 90.000000
_cell_angle_beta 31.019911
_cell_angle_gamma 90.000000
_cell_volume 2817.277356
_symmetry_space_group_name_H-M "C 2/M"
_symmetry_group_IT_number 12
_symmetry_cell_setting 'monoclinic'
loop_
_space_group_symop_operation_xyz
x,y,z
-x,y,-z
-x,-y,-z
x,-y,z
1/2+x,1/2+y,z
1/2-x,1/2+y,-z
1/2-x,1/2-y,-z
1/2+x,1/2-y,z
loop_
_atom_site_type_symbol
_atom_site_label
_atom_site_fract_x
_atom_site_fract_y
_atom_site_fract_z
Si Si1 0.090966 0.828242 0.548504
Si Si2 0.534959 0.827607 0.213151
Si Si3 0.848975 0.327869 0.241820
Si Si4 0.847270 0.171674 0.385848
Si Si5 0.082889 0.176530 0.887282
Si Si6 0.317003 0.675642 0.076450
Si Si7 0.094907 0.324551 0.406697
O O1 0.099116 0.803251 0.595798
O O2 0.216769 0.763969 0.452468
O O3 0.965065 0.738496 0.604491
O O4 0.077601 0.000000 0.543072
O O5 0.481525 0.806203 0.193984
O O6 0.455579 0.726988 0.291470
O O7 0.682666 0.769474 0.131399
O O8 0.525263 0.000000 0.233457
O O9 0.813524 0.500000 0.256467
O O10 0.861589 0.256702 0.186837
O O11 0.735067 0.248375 0.334102
O O12 0.814376 0.000000 0.395171
O O13 0.169785 0.226046 0.879979
O O14 0.088605 0.000000 0.876200
O O15 0.936620 0.234672 0.979182
O O16 0.327294 0.500000 0.069909
O O17 0.111974 0.500000 0.393596
O O18 0.000000 0.276909 0.500000
#
# Coordination Sequence:
#
# PCOD8106157 Si02
#       7
#     8   8   8   8   8   8   8
#     4  10  21  37  57  82 112 149 189 237 294 345
#     4  10  21  37  57  82 115 157 194 236 290 346
#     4  11  24  38  55  84 122 156 193 240 294 350
#     4  10  21  36  55  83 116 147 190 240 284 341
#     4   9  18  37  63  88 114 148 195 245 288 346
#     4   8  17  36  62  88 113 148 195 242 291 346
#     4  11  24  40  59  82 111 151 199 244 287 340
#
# _framework density 19.877348000000001
#
# number of rings (size 3 to 8) (size 9 to 14) (size 15 to 20)
#    0.000    2.143    0.000    3.429    2.000    6.857 
#    0.000    2.143    0.000    0.000    0.000    0.000 
#    0.000    0.000    0.000    0.000    0.000    0.000 
#
# Total GULP energy -347257.029274 kJ/mol
# GULP energy per Si atom -12402.036760 kJ/mol
# Density = 1.983211 g / cm^3
# Si number density = 19.877348 Si / 1000 Ang^3
#
#
#
# Elastic Constant Matrix: (Units=GPa)
#
#
# Indices 1 2 3 4 5 6 
#
# 1 99.4795 41.0577 51.2194 0.0021 -17.4784 0.0005
# 2 41.0577 71.5919 35.9206 0.0108 6.0797 0.0004
# 3 51.2194 35.9206 102.1795 -0.0010 0.8950 0.0019
# 4 0.0021 0.0108 -0.0010 25.9182 -0.0011 2.2004
# 5 -17.4784 6.0797 0.8950 -0.0011 32.2884 0.0026
# 6 0.0005 0.0004 0.0019 2.2004 0.0026 24.7323
#
#
#
# Elastic Compliance Matrix: (Units=1/GPa)
#
#
# Indices 1 2 3 4 5 6 
#
# 1 0.019249 -0.008723 -0.006690 0.000002 0.012247 -0.000001
# 2 -0.008723 0.021214 -0.003010 -0.000009 -0.008633 0.000002
# 3 -0.006690 -0.003010 0.014228 0.000002 -0.003449 -0.000001
# 4 0.000002 -0.000009 0.000002 0.038877 0.000005 -0.003459
# 5 0.012247 -0.008633 -0.003449 0.000005 0.039322 -0.000004
# 6 -0.000001 0.000002 -0.000001 -0.003459 -0.000004 0.040741
#
#
# Mechanical properties :
#
#
# Convention : Reuss Voigt Hill
#
# Bulk Modulus (GPa) = 56.03236 58.84960 57.44098
# Shear Modulus (GPa) = 23.10305 26.25799 24.68052
#
# Velocity S-wave (km/s) = 3.41292 3.63850 3.52751
# Velocity P-wave (km/s) = 6.61672 6.87911 6.74919
#
# Compressibility (1/GPa) = 0.01784683
#
# Stress axis : x y z
#
# Youngs Moduli (GPa) = 51.95207 47.13971 70.28314
#
# Poissons Ratio (x) = 0.41118 0.47016
# Poissons Ratio (y) = 0.45316 0.21152
# Poissons Ratio (z) = 0.34754 0.14187
#
# Static dielectric constant tensor:
#      x y z
#    x 3.842370 -0.000010 -0.256770 
#    y -0.000010 3.477710 0.000000 
#    z -0.256770 0.000000 3.703670 
# 
# 
# High freq. dielectric constant tensor:
#      x y z
#    x 1.785580 0.000000 -0.006060 
#    y 0.000000 1.763570 0.000000 
#    z -0.006060 0.000000 1.772250 
# 
# From -- ./inp_files/380636.got.cif
#   From: 2010.06.25/outbox.cif.g09.slc.cpg/sg12_191_cif.got.tgz:380636.got - 2010.06.28 00:19:55.
