data_PCOD8106101
_publ_section_title
;
Structure prediction by ZEFSAII (Michael W. Deem and Ramdas Pophale) SiO2 
 PCOD8106101
Probable space group: C 2/M
;
_chemical_formula_sum "Si O2"
_cell_formula_units_Z 48
_cell_length_a 10.128245
_cell_length_b 9.251625
_cell_length_c 33.235414
_cell_angle_alpha 90.000000
_cell_angle_beta 127.517677
_cell_angle_gamma 90.000000
_cell_volume 2470.114701
_symmetry_space_group_name_H-M "C 2/M"
_symmetry_group_IT_number 12
_symmetry_cell_setting 'monoclinic'
loop_
_space_group_symop_operation_xyz
x,y,z
-x,y,-z
-x,-y,-z
x,-y,z
1/2+x,1/2+y,z
1/2-x,1/2+y,-z
1/2-x,1/2-y,-z
1/2+x,1/2-y,z
loop_
_atom_site_type_symbol
_atom_site_label
_atom_site_fract_x
_atom_site_fract_y
_atom_site_fract_z
Si Si1 0.777170 0.667159 0.892640
Si Si2 0.663881 0.833350 0.725620
Si Si3 0.906314 0.329555 0.442801
Si Si4 0.968012 0.169764 0.223746
Si Si5 0.382118 0.668617 0.051686
Si Si6 0.928053 0.666464 0.608611
O O1 0.833397 0.500000 0.900606
O O2 0.670555 0.714514 0.834324
O O3 0.937607 0.767619 0.924492
O O4 0.662412 0.693562 0.910110
O O5 0.853168 0.777423 0.758965
O O6 0.565761 0.743824 0.740364
O O7 0.581115 0.807386 0.667024
O O8 0.656800 0.000000 0.737185
O O9 0.879064 0.500000 0.438541
O O10 0.726864 0.258929 0.405580
O O11 0.000000 0.273814 0.500000
O O12 0.015933 0.281390 0.425085
O O13 0.971151 0.000000 0.231865
O O14 0.382043 0.500000 0.040432
O O15 0.250000 0.750000 0.000000
O O16 0.873385 0.500000 0.597785
#
# Coordination Sequence:
#
# PCOD8106101 Si02
#       6
#     8   8   8   8   8   8
#     4  10  22  39  58  83 114 147 185 228 274 325
#     4  10  21  37  56  81 113 146 183 227 274 326
#     4  10  21  37  57  81 109 143 184 228 274 327
#     4  10  21  38  59  82 111 147 185 227 274 324
#     4  11  23  39  60  85 114 148 185 227 275 326
#     4  10  21  36  55  81 112 145 182 226 275 327
#
# _framework density 19.432295
#
# number of rings (size 3 to 8) (size 9 to 14) (size 15 to 20)
#    0.000    1.833    0.000    3.500    0.000    9.000 
#    0.000    0.000    0.000    0.000    0.000    0.000 
#    0.000    0.000    0.000    0.000    0.000    0.000 
#
# Total GULP energy -297741.543341 kJ/mol
# GULP energy per Si atom -12405.897639 kJ/mol
# Density = 1.938807 g / cm^3
# Si number density = 19.432295 Si / 1000 Ang^3
#
#
#
# Elastic Constant Matrix: (Units=GPa)
#
#
# Indices 1 2 3 4 5 6 
#
# 1 91.3550 37.1084 9.6115 0.0000 6.9959 0.0000
# 2 37.1084 53.6765 23.4989 0.0000 2.6450 0.0000
# 3 9.6115 23.4989 73.3945 0.0000 -3.3409 0.0000
# 4 0.0000 0.0000 0.0000 30.9084 0.0000 1.3897
# 5 6.9959 2.6450 -3.3409 0.0000 39.8209 0.0000
# 6 0.0000 0.0000 0.0000 1.3897 0.0000 38.0891
#
#
#
# Elastic Compliance Matrix: (Units=1/GPa)
#
#
# Indices 1 2 3 4 5 6 
#
# 1 0.015517 -0.011293 0.001499 0.000000 -0.001850 0.000000
# 2 -0.011293 0.030050 -0.008174 0.000000 -0.000698 0.000000
# 3 0.001499 -0.008174 0.016120 0.000000 0.001632 0.000000
# 4 0.000000 0.000000 0.000000 0.032407 0.000000 -0.001182
# 5 -0.001850 -0.000698 0.001632 0.000000 0.025621 0.000000
# 6 0.000000 0.000000 0.000000 -0.001182 0.000000 0.026297
#
#
# Mechanical properties :
#
#
# Convention : Reuss Voigt Hill
#
# Bulk Modulus (GPa) = 38.83150 39.87373 39.35261
# Shear Modulus (GPa) = 26.24223 31.64415 28.94319
#
# Velocity S-wave (km/s) = 3.67883 4.03976 3.86351
# Velocity P-wave (km/s) = 6.17020 6.50564 6.34014
#
# Compressibility (1/GPa) = 0.02575229
#
# Stress axis : x y z
#
# Youngs Moduli (GPa) = 64.44350 33.27752 62.03438
#
# Poissons Ratio (x) = 0.37580 -0.09301
# Poissons Ratio (y) = 0.72776 0.50708
# Poissons Ratio (z) = -0.09663 0.27202
#
# Static dielectric constant tensor:
#      x y z
#    x 3.615590 0.000000 0.053950 
#    y 0.000000 3.494730 0.000000 
#    z 0.053950 0.000000 3.821470 
# 
# 
# High freq. dielectric constant tensor:
#      x y z
#    x 1.767130 0.000000 -0.000080 
#    y 0.000000 1.750170 0.000000 
#    z -0.000080 0.000000 1.773450 
# 
# From -- ./inp_files/357372.got.cif
#   From: 2010.06.25/outbox.cif.g09.slc.cpg/sg12_179_cif.got.tgz:357372.got - 2010.06.28 00:19:55.
