data_PCOD8106653
_publ_section_title
;
Structure prediction by ZEFSAII (Michael W. Deem and Ramdas Pophale) SiO2 
 PCOD8106653
Probable space group: C 2/M
;
_chemical_formula_sum "Si O2"
_cell_formula_units_Z 40
_cell_length_a 10.081874
_cell_length_b 19.181167
_cell_length_c 9.911964
_cell_angle_alpha 90.000000
_cell_angle_beta 88.956385
_cell_angle_gamma 90.000000
_cell_volume 1916.478544
_symmetry_space_group_name_H-M "C 2/M"
_symmetry_group_IT_number 12
_symmetry_cell_setting 'monoclinic'
loop_
_space_group_symop_operation_xyz
x,y,z
-x,y,-z
-x,-y,-z
x,-y,z
1/2+x,1/2+y,z
1/2-x,1/2+y,-z
1/2-x,1/2-y,-z
1/2+x,1/2-y,z
loop_
_atom_site_type_symbol
_atom_site_label
_atom_site_fract_x
_atom_site_fract_y
_atom_site_fract_z
Si Si1 0.397639 0.918100 0.393455
Si Si2 0.509029 0.316351 0.162618
Si Si3 0.727423 0.212751 0.141460
Si Si4 0.400891 0.582451 0.621011
Si Si5 0.931201 0.422987 0.859611
O O1 0.500000 0.884629 0.500000
O O2 0.247459 0.888835 0.410066
O O3 0.454783 0.899333 0.245951
O O4 0.389662 0.000000 0.418644
O O5 0.611591 0.257339 0.212870
O O6 0.366580 0.288236 0.218309
O O7 0.548572 0.387263 0.237114
O O8 0.500000 0.328205 0.000000
O O9 0.687574 0.131745 0.130087
O O10 0.750000 0.250000 0.000000
O O11 0.500000 0.605746 0.500000
O O12 0.400068 0.500000 0.640287
O O13 0.874254 0.500000 0.821179
O O14 0.000000 0.426747 0.000000
#
# Coordination Sequence:
#
# PCOD8106653 Si02
#       5
#     8   8   8   8   8
#     4   9  20  38  61  89 124 166 204 252 316 370
#     4  10  23  40  64  90 122 169 211 255 317 378
#     4  10  22  40  61  90 129 167 199 256 317 375
#     4  10  23  42  63  92 132 167 207 263 317 368
#     4  10  21  36  64  97 122 156 211 264 307 368
#
# _framework density 20.871613
#
# number of rings (size 3 to 8) (size 9 to 14) (size 15 to 20)
#    0.000    2.200    0.000    1.800   11.200    1.200 
#    0.000    2.000    0.000    0.000    0.000    0.000 
#    0.000    0.000    0.000    0.000    0.000    0.000 
#
# Total GULP energy -247855.989789 kJ/mol
# GULP energy per Si atom -12392.799489 kJ/mol
# Density = 2.082411 g / cm^3
# Si number density = 20.871613 Si / 1000 Ang^3
#
#
#
# Elastic Constant Matrix: (Units=GPa)
#
#
# Indices 1 2 3 4 5 6 
#
# 1 199.0929 59.7509 58.9761 0.0000 2.8011 0.0000
# 2 59.7509 87.5684 31.5281 0.0000 -8.2751 0.0000
# 3 58.9761 31.5281 105.1550 0.0000 2.7768 0.0000
# 4 0.0000 0.0000 0.0000 29.3599 0.0000 -5.7635
# 5 2.8011 -8.2751 2.7768 0.0000 29.1325 0.0000
# 6 0.0000 0.0000 0.0000 -5.7635 0.0000 37.7137
#
#
#
# Elastic Compliance Matrix: (Units=1/GPa)
#
#
# Indices 1 2 3 4 5 6 
#
# 1 0.007042 -0.003973 -0.002717 0.000000 -0.001546 0.000000
# 2 -0.003973 0.015528 -0.002561 0.000000 0.005037 0.000000
# 3 -0.002717 -0.002561 0.011844 0.000000 -0.001595 0.000000
# 4 0.000000 0.000000 0.000000 0.035113 0.000000 0.005366
# 5 -0.001546 0.005037 -0.001595 0.000000 0.036057 0.000000
# 6 0.000000 0.000000 0.000000 0.005366 0.000000 0.027336
#
#
# Mechanical properties :
#
#
# Convention : Reuss Voigt Hill
#
# Bulk Modulus (GPa) = 62.84491 76.92517 69.88504
# Shear Modulus (GPa) = 31.90289 35.34530 33.62409
#
# Velocity S-wave (km/s) = 3.91388 4.11963 4.01808
# Velocity P-wave (km/s) = 7.11338 7.71783 7.42176
#
# Compressibility (1/GPa) = 0.01591219
#
# Stress axis : x y z
#
# Youngs Moduli (GPa) = 142.01029 64.39893 84.43282
#
# Poissons Ratio (x) = 0.25583 0.22944
# Poissons Ratio (y) = 0.56415 0.21621
# Poissons Ratio (z) = 0.38591 0.16491
#
# Static dielectric constant tensor:
#      x y z
#    x 4.512470 0.000000 -0.066720 
#    y 0.000000 4.010460 0.000000 
#    z -0.066720 0.000000 3.533460 
# 
# 
# High freq. dielectric constant tensor:
#      x y z
#    x 1.835870 0.000000 -0.004480 
#    y 0.000000 1.801540 0.000000 
#    z -0.004480 0.000000 1.795180 
# 
# From -- ./inp_files/119072.got.cif
#   From: 2010.06.25/outbox.cif.g09.slc.cpg/sg12_60_cif.got.tgz:119072.got - 2010.06.28 00:19:55.
