data_PCOD8106415
_publ_section_title
;
Structure prediction by ZEFSAII (Michael W. Deem and Ramdas Pophale) SiO2 
 PCOD8106415
Probable space group: C 2/M
;
_chemical_formula_sum "Si O2"
_cell_formula_units_Z 48
_cell_length_a 17.620484
_cell_length_b 13.274431
_cell_length_c 16.417510
_cell_angle_alpha 90.000000
_cell_angle_beta 37.223113
_cell_angle_gamma 90.000000
_cell_volume 2322.946762
_symmetry_space_group_name_H-M "C 2/M"
_symmetry_group_IT_number 12
_symmetry_cell_setting 'monoclinic'
loop_
_space_group_symop_operation_xyz
x,y,z
-x,y,-z
-x,-y,-z
x,-y,z
1/2+x,1/2+y,z
1/2-x,1/2+y,-z
1/2-x,1/2-y,-z
1/2+x,1/2-y,z
loop_
_atom_site_type_symbol
_atom_site_label
_atom_site_fract_x
_atom_site_fract_y
_atom_site_fract_z
Si Si1 0.779207 0.615003 0.538814
Si Si2 0.129185 0.614846 0.366444
Si Si3 0.306537 0.615061 0.891941
Si Si4 0.442131 0.199870 0.964774
Si Si5 0.454118 0.248004 0.291135
Si Si6 0.299021 0.613763 0.082558
O O1 0.775507 0.500000 0.512266
O O2 0.776300 0.622576 0.638941
O O3 0.654567 0.668878 0.615381
O O4 0.908772 0.663116 0.393594
O O5 0.095506 0.500000 0.372665
O O6 0.192570 0.661742 0.232053
O O7 0.000000 0.672318 0.500000
O O8 0.350246 0.500000 0.835877
O O9 0.420846 0.693898 0.785610
O O10 0.192011 0.644878 0.931259
O O11 0.250928 0.622005 0.031064
O O12 0.529917 0.189528 0.809628
O O13 0.500000 0.157295 0.000000
O O14 0.423483 0.320323 0.988437
O O15 0.333661 0.500000 0.077890
#
# Coordination Sequence:
#
# PCOD8106415 Si02
#       6
#     8   8   8   8   8   8
#     4  10  21  36  58  86 120 153 186 233 284 344
#     4   9  18  29  49  83 115 144 174 217 284 348
#     4  10  22  39  61  83 113 154 195 242 288 336
#     4  11  23  37  58  86 115 150 195 243 286 339
#     4  10  21  39  59  87 114 153 196 234 284 343
#     4   9  18  34  56  84 114 145 181 227 291 351
#
# _framework density 20.663409000000001
#
# number of rings (size 3 to 8) (size 9 to 14) (size 15 to 20)
#    0.000    2.167    0.000    3.500    4.667    2.000 
#    0.000    0.000    0.000    0.000    0.000    4.667 
#    0.000    0.000    0.000    0.000    0.000    0.000 
#
# Total GULP energy -297439.108032 kJ/mol
# GULP energy per Si atom -12393.296168 kJ/mol
# Density = 2.061638 g / cm^3
# Si number density = 20.663409 Si / 1000 Ang^3
#
#
#
# Elastic Constant Matrix: (Units=GPa)
#
#
# Indices 1 2 3 4 5 6 
#
# 1 99.0193 21.7103 32.1088 0.0000 -2.1127 0.0000
# 2 21.7103 73.7822 25.2394 0.0000 -2.9953 0.0000
# 3 32.1088 25.2394 105.3500 0.0000 -2.5428 0.0000
# 4 0.0000 0.0000 0.0000 24.3558 0.0000 0.5974
# 5 -2.1127 -2.9953 -2.5428 0.0000 21.2887 0.0000
# 6 0.0000 0.0000 0.0000 0.5974 0.0000 17.2663
#
#
#
# Elastic Compliance Matrix: (Units=1/GPa)
#
#
# Indices 1 2 3 4 5 6 
#
# 1 0.011588 -0.002382 -0.002950 0.000000 0.000462 0.000000
# 2 -0.002382 0.015312 -0.002904 0.000000 0.001571 0.000000
# 3 -0.002950 -0.002904 0.011102 0.000000 0.000625 0.000000
# 4 0.000000 0.000000 0.000000 0.041093 0.000000 -0.001422
# 5 0.000462 0.001571 0.000625 0.000000 0.047315 0.000000
# 6 0.000000 0.000000 0.000000 -0.001422 0.000000 0.057965
#
#
# Mechanical properties :
#
#
# Convention : Reuss Voigt Hill
#
# Bulk Modulus (GPa) = 46.44873 48.47426 47.46150
# Shear Modulus (GPa) = 24.03576 25.85502 24.94539
#
# Velocity S-wave (km/s) = 3.41428 3.54113 3.47828
# Velocity P-wave (km/s) = 6.17014 6.34267 6.25700
#
# Compressibility (1/GPa) = 0.02152911
#
# Stress axis : x y z
#
# Youngs Moduli (GPa) = 86.29851 65.31012 90.07243
#
# Poissons Ratio (x) = 0.15555 0.26571
# Poissons Ratio (y) = 0.20554 0.26161
# Poissons Ratio (z) = 0.25458 0.18969
#
# Static dielectric constant tensor:
#      x y z
#    x 3.491110 0.000000 0.061350 
#    y 0.000000 3.716050 0.000000 
#    z 0.061350 0.000000 4.103020 
# 
# 
# High freq. dielectric constant tensor:
#      x y z
#    x 1.797450 0.000000 -0.000470 
#    y 0.000000 1.791760 0.000000 
#    z -0.000470 0.000000 1.813650 
# 
# From -- ./inp_files/225087.got.cif
#   From: 2010.06.25/outbox.cif.g09.slc.cpg/sg12_113_cif.got.tgz:225087.got - 2010.06.28 00:19:55.
