data_PCOD8106038
_publ_section_title
;
Structure prediction by ZEFSAII (Michael W. Deem and Ramdas Pophale) SiO2 
 PCOD8106038
Probable space group: C 2/M
;
_chemical_formula_sum "Si O2"
_cell_formula_units_Z 56
_cell_length_a 8.887631
_cell_length_b 31.205666
_cell_length_c 13.763025
_cell_angle_alpha 90.000000
_cell_angle_beta 127.484309
_cell_angle_gamma 90.000000
_cell_volume 3028.944118
_symmetry_space_group_name_H-M "C 2/M"
_symmetry_group_IT_number 12
_symmetry_cell_setting 'monoclinic'
loop_
_space_group_symop_operation_xyz
x,y,z
-x,y,-z
-x,-y,-z
x,-y,z
1/2+x,1/2+y,z
1/2-x,1/2+y,-z
1/2-x,1/2-y,-z
1/2+x,1/2-y,z
loop_
_atom_site_type_symbol
_atom_site_label
_atom_site_fract_x
_atom_site_fract_y
_atom_site_fract_z
Si Si1 0.511285 0.090446 0.114632
Si Si2 0.634091 0.379790 0.464303
Si Si3 0.586479 0.449217 0.731501
Si Si4 0.120523 0.049812 0.961236
Si Si5 0.285998 0.268891 0.410146
Si Si6 0.703097 0.821764 0.631652
Si Si7 0.027557 0.649082 0.296275
O O1 0.702827 0.065233 0.215642
O O2 0.484009 0.131458 0.172571
O O3 0.500000 0.107679 0.000000
O O4 0.341999 0.057326 0.065976
O O5 0.500000 0.363843 0.500000
O O6 0.565424 0.425516 0.396522
O O7 0.642327 0.345193 0.377845
O O8 0.844171 0.384753 0.592004
O O9 0.563989 0.500000 0.708130
O O10 0.551454 0.433804 0.828609
O O11 0.081775 0.000000 0.947993
O O12 0.000000 0.072378 0.000000
O O13 0.500000 0.286735 0.500000
O O14 0.250000 0.250000 0.500000
O O15 0.245581 0.227928 0.324082
O O16 0.142988 0.306802 0.327992
O O17 0.500000 0.821661 0.500000
O O18 0.671272 0.844851 0.723592
#
# Coordination Sequence:
#
# PCOD8106038 Si02
#       7
#     8   8   8   8   8   8   8
#     4  10  21  37  57  80 105 145 184 230 268 319
#     4  11  20  33  53  83 112 145 177 221 271 334
#     4  10  21  36  54  81 111 144 183 226 270 326
#     4   9  19  37  59  79 100 137 188 233 270 314
#     4  11  18  31  52  81 111 142 180 222 267 322
#     4   9  20  33  51  79 111 145 180 221 267 320
#     4  11  21  35  54  82 115 143 181 223 276 326
#
# _framework density 18.488289999999999
#
# number of rings (size 3 to 8) (size 9 to 14) (size 15 to 20)
#    0.000    1.857    5.714    0.857    2.000    2.000 
#    0.000    0.000    0.000    4.714    0.000    0.000 
#    0.000    0.000    0.000    0.000    0.000    0.000 
#
# Total GULP energy -346916.538366 kJ/mol
# GULP energy per Si atom -12389.876370 kJ/mol
# Density = 1.844621 g / cm^3
# Si number density = 18.488290 Si / 1000 Ang^3
#
#
#
# Elastic Constant Matrix: (Units=GPa)
#
#
# Indices 1 2 3 4 5 6 
#
# 1 129.4073 34.2071 26.5222 0.0000 -20.2742 0.0000
# 2 34.2071 87.7757 36.0241 0.0000 -10.4474 0.0000
# 3 26.5222 36.0241 58.9391 0.0000 -10.1843 0.0000
# 4 0.0000 0.0000 0.0000 22.2376 0.0000 -3.2901
# 5 -20.2742 -10.4474 -10.1843 0.0000 17.6632 0.0000
# 6 0.0000 0.0000 0.0000 -3.2901 0.0000 25.5960
#
#
#
# Elastic Compliance Matrix: (Units=1/GPa)
#
#
# Indices 1 2 3 4 5 6 
#
# 1 0.010098 -0.002161 -0.001601 0.000000 0.009389 0.000000
# 2 -0.002161 0.015933 -0.008404 0.000000 0.002099 0.000000
# 3 -0.001601 -0.008404 0.024042 0.000000 0.007054 0.000000
# 4 0.000000 0.000000 0.000000 0.045841 0.000000 0.005892
# 5 0.009389 0.002099 0.007054 0.000000 0.072701 0.000000
# 6 0.000000 0.000000 0.000000 0.005892 0.000000 0.039826
#
#
# Mechanical properties :
#
#
# Convention : Reuss Voigt Hill
#
# Bulk Modulus (GPa) = 38.84526 52.18097 45.51311
# Shear Modulus (GPa) = 20.71654 25.05728 22.88691
#
# Velocity S-wave (km/s) = 3.35105 3.68544 3.52222
# Velocity P-wave (km/s) = 6.00242 6.81139 6.41966
#
# Compressibility (1/GPa) = 0.02574317
#
# Stress axis : x y z
#
# Youngs Moduli (GPa) = 99.03127 62.76094 41.59306
#
# Poissons Ratio (x) = 0.13560 0.06659
# Poissons Ratio (y) = 0.21397 0.34954
# Poissons Ratio (z) = 0.15854 0.52743
#
# Static dielectric constant tensor:
#      x y z
#    x 3.492590 0.000000 -0.338470 
#    y 0.000000 14.027300 0.000000 
#    z -0.338470 0.000000 3.108800 
# 
# 
# High freq. dielectric constant tensor:
#      x y z
#    x 1.739690 0.000000 -0.013190 
#    y 0.000000 1.708580 0.000000 
#    z -0.013190 0.000000 1.671780 
# 
# From -- ./inp_files/200995.got.cif
#   From: 2010.06.25/outbox.cif.g09.slc.cpg/sg12_101_cif.got.tgz:200995.got - 2010.06.28 00:19:55.
