data_PCOD8106720
_publ_section_title
;
Structure prediction by ZEFSAII (Michael W. Deem and Ramdas Pophale) SiO2 
 PCOD8106720
Probable space group: C 2/M
;
_chemical_formula_sum "Si O2"
_cell_formula_units_Z 64
_cell_length_a 19.871581
_cell_length_b 9.019734
_cell_length_c 19.936591
_cell_angle_alpha 90.000000
_cell_angle_beta 89.746887
_cell_angle_gamma 90.000000
_cell_volume 3573.327428
_symmetry_space_group_name_H-M "C 2/M"
_symmetry_group_IT_number 12
_symmetry_cell_setting 'monoclinic'
loop_
_space_group_symop_operation_xyz
x,y,z
-x,y,-z
-x,-y,-z
x,-y,z
1/2+x,1/2+y,z
1/2-x,1/2+y,-z
1/2-x,1/2-y,-z
1/2+x,1/2-y,z
loop_
_atom_site_type_symbol
_atom_site_label
_atom_site_fract_x
_atom_site_fract_y
_atom_site_fract_z
Si Si1 0.806522 0.675443 0.797762
Si Si2 0.050990 0.323968 0.554499
Si Si3 0.297580 0.169251 0.948471
Si Si4 0.200305 0.327242 0.550675
Si Si5 0.046592 0.671695 0.705357
Si Si6 0.549739 0.828489 0.057862
Si Si7 0.703915 0.169351 0.703895
Si Si8 0.945190 0.175481 0.802729
O O1 0.818535 0.500000 0.795660
O O2 0.787091 0.728616 0.872822
O O3 0.746756 0.719866 0.748887
O O4 0.876079 0.752965 0.775889
O O5 0.053811 0.500000 0.549138
O O6 0.125512 0.261516 0.539374
O O7 0.027717 0.281053 0.629472
O O8 0.000000 0.255305 0.500000
O O9 0.374783 0.193603 0.969742
O O10 0.276311 0.000000 0.951846
O O11 0.250000 0.250000 0.000000
O O12 0.201071 0.500000 0.534964
O O13 0.250000 0.250000 0.500000
O O14 0.222569 0.296689 0.626853
O O15 0.028029 0.500000 0.718478
O O16 0.125485 0.698222 0.717739
O O17 0.005632 0.777710 0.754224
O O18 0.536384 0.730314 0.123096
O O19 0.536842 0.000000 0.077119
O O20 0.500000 0.773757 0.000000
O O21 0.722243 0.000000 0.721837
O O22 0.937607 0.000000 0.802791
#
# Coordination Sequence:
#
# PCOD8106720 Si02
#       8
#     8   8   8   8   8   8   8   8
#     4  10  21  37  55  76 103 136 177 218 258 310
#     4   8  15  30  52  75  98 129 172 213 248 297
#     4   9  19  34  52  75 101 129 163 206 253 303
#     4   9  18  32  50  75 105 134 168 211 256 304
#     4   9  18  34  54  75 104 140 174 212 259 310
#     4   9  19  37  57  76 101 135 175 214 253 302
#     4   9  19  35  53  75 105 139 175 216 261 308
#     4  11  22  35  53  78 108 138 172 216 261 308
#
# _framework density 17.910478000000001
#
# number of rings (size 3 to 8) (size 9 to 14) (size 15 to 20)
#    0.000    2.750    0.000    3.750    0.000    5.750 
#    0.000    6.875    0.000    0.750    0.000    0.000 
#    0.000    0.000    0.000    0.000    0.000    0.000 
#
# Total GULP energy -396781.117584 kJ/mol
# GULP energy per Si atom -12399.409924 kJ/mol
# Density = 1.786971 g / cm^3
# Si number density = 17.910478 Si / 1000 Ang^3
#
#
#
# Elastic Constant Matrix: (Units=GPa)
#
#
# Indices 1 2 3 4 5 6 
#
# 1 95.4287 44.1896 73.4221 0.0000 1.0013 0.0000
# 2 44.1896 72.9371 48.1054 0.0000 -3.5761 0.0000
# 3 73.4221 48.1054 103.8468 0.0000 -0.2897 0.0000
# 4 0.0000 0.0000 0.0000 29.9828 0.0000 -3.9902
# 5 1.0013 -3.5761 -0.2897 0.0000 40.6341 0.0000
# 6 0.0000 0.0000 0.0000 -3.9902 0.0000 31.8952
#
#
#
# Elastic Compliance Matrix: (Units=1/GPa)
#
#
# Indices 1 2 3 4 5 6 
#
# 1 0.024164 -0.004933 -0.014803 0.000000 -0.001135 0.000000
# 2 -0.004933 0.020863 -0.006172 0.000000 0.001914 0.000000
# 3 -0.014803 -0.006172 0.022955 0.000000 -0.000015 0.000000
# 4 0.000000 0.000000 0.000000 0.033917 0.000000 0.004243
# 5 -0.001135 0.001914 -0.000015 0.000000 0.024806 0.000000
# 6 0.000000 0.000000 0.000000 0.004243 0.000000 0.031883
#
#
# Mechanical properties :
#
#
# Convention : Reuss Voigt Hill
#
# Bulk Modulus (GPa) = 61.85255 67.07186 64.46221
# Shear Modulus (GPa) = 23.17036 27.60212 25.38624
#
# Velocity S-wave (km/s) = 3.60067 3.92996 3.76892
# Velocity P-wave (km/s) = 7.20387 7.62381 7.41681
#
# Compressibility (1/GPa) = 0.01616748
#
# Stress axis : x y z
#
# Youngs Moduli (GPa) = 41.38331 47.93100 43.56430
#
# Poissons Ratio (x) = 0.23642 0.64488
# Poissons Ratio (y) = 0.20413 0.26887
# Poissons Ratio (z) = 0.61260 0.29582
#
# Static dielectric constant tensor:
#      x y z
#    x 3.621890 0.000000 0.119430 
#    y 0.000000 3.102420 0.000000 
#    z 0.119430 0.000000 3.355560 
# 
# 
# High freq. dielectric constant tensor:
#      x y z
#    x 1.697120 0.000000 0.001150 
#    y 0.000000 1.676070 0.000000 
#    z 0.001150 0.000000 1.696750 
# 
# From -- ./inp_files/314217.got.cif
#   From: 2010.06.25/outbox.cif.g09.slc.cpg/sg12_158_cif.got.tgz:314217.got - 2010.06.28 00:19:55.
