data_PCOD8106651
_publ_section_title
;
Structure prediction by ZEFSAII (Michael W. Deem and Ramdas Pophale) SiO2 
 PCOD8106651
Probable space group: C 2/M
;
_chemical_formula_sum "Si O2"
_cell_formula_units_Z 64
_cell_length_a 14.113056
_cell_length_b 17.172803
_cell_length_c 15.533130
_cell_angle_alpha 90.000000
_cell_angle_beta 122.131457
_cell_angle_gamma 90.000000
_cell_volume 3187.993929
_symmetry_space_group_name_H-M "C 2/M"
_symmetry_group_IT_number 12
_symmetry_cell_setting 'monoclinic'
loop_
_space_group_symop_operation_xyz
x,y,z
-x,y,-z
-x,-y,-z
x,-y,z
1/2+x,1/2+y,z
1/2-x,1/2+y,-z
1/2-x,1/2-y,-z
1/2+x,1/2-y,z
loop_
_atom_site_type_symbol
_atom_site_label
_atom_site_fract_x
_atom_site_fract_y
_atom_site_fract_z
Si Si1 0.940435 0.666920 0.383120
Si Si2 0.480780 0.408496 0.182554
Si Si3 0.725487 0.407640 0.030810
Si Si4 0.666713 0.410507 0.557935
Si Si5 0.973225 0.845241 0.364580
Si Si6 0.778540 0.091763 0.776389
Si Si7 0.081377 0.592210 0.300189
Si Si8 0.042179 0.592558 0.929485
O O1 0.813973 0.635197 0.325598
O O2 0.000000 0.641426 0.500000
O O3 0.937080 0.759113 0.372078
O O4 0.003029 0.629843 0.333035
O O5 0.470429 0.500000 0.197587
O O6 0.458447 0.359675 0.257238
O O7 0.600905 0.386949 0.202946
O O8 0.387804 0.379833 0.069937
O O9 0.728268 0.500000 0.035817
O O10 0.727494 0.375965 0.129099
O O11 0.833255 0.375685 0.030998
O O12 0.666554 0.500000 0.528571
O O13 0.601927 0.360264 0.454592
O O14 0.606776 0.403866 0.621561
O O15 0.792488 0.378282 0.625196
O O16 0.755583 0.000000 0.761325
O O17 0.070980 0.500000 0.303704
O O18 0.041778 0.619577 0.186519
O O19 0.045010 0.500000 0.936795
O O20 0.000000 0.627965 0.000000
#
# Coordination Sequence:
#
# PCOD8106651 Si02
#       8
#     8   8   8   8   8   8   8   8
#     4  12  25  41  60  83 123 169 204 246 299 363
#     4  10  21  36  64  94 116 151 201 252 302 355
#     4   9  17  34  60  89 122 153 192 250 303 355
#     4  10  21  40  63  83 116 151 195 255 303 349
#     4  11  23  41  57  87 117 158 199 245 301 361
#     4  10  21  39  62  90 122 156 201 250 297 353
#     4  10  22  38  62  92 118 155 202 254 305 354
#     4   9  17  31  55  90 124 153 192 244 306 362
#
# _framework density 20.075320000000001
#
# number of rings (size 3 to 8) (size 9 to 14) (size 15 to 20)
#    0.000    1.875    2.500    2.250    3.500    4.000 
#    0.000    0.625    0.000    0.000    0.000    0.000 
#    0.000    0.000    0.000    0.000    0.000    0.000 
#
# Total GULP energy -396879.818309 kJ/mol
# GULP energy per Si atom -12402.494322 kJ/mol
# Density = 2.002963 g / cm^3
# Si number density = 20.075320 Si / 1000 Ang^3
#
#
#
# Elastic Constant Matrix: (Units=GPa)
#
#
# Indices 1 2 3 4 5 6 
#
# 1 52.3237 10.0642 19.5659 0.0000 17.2311 0.0000
# 2 10.0642 37.3201 27.1599 0.0000 9.1680 0.0000
# 3 19.5659 27.1599 118.2961 0.0000 11.2853 0.0000
# 4 0.0000 0.0000 0.0000 12.4286 0.0000 -6.8710
# 5 17.2311 9.1680 11.2853 0.0000 49.8984 0.0000
# 6 0.0000 0.0000 0.0000 -6.8710 0.0000 9.0981
#
#
#
# Elastic Compliance Matrix: (Units=1/GPa)
#
#
# Indices 1 2 3 4 5 6 
#
# 1 0.022807 -0.002645 -0.002514 0.000000 -0.006821 0.000000
# 2 -0.002645 0.033421 -0.006886 0.000000 -0.003670 0.000000
# 3 -0.002514 -0.006886 0.010473 0.000000 -0.000235 0.000000
# 4 0.000000 0.000000 0.000000 0.138131 0.000000 0.104318
# 5 -0.006821 -0.003670 -0.000235 0.000000 0.023124 0.000000
# 6 0.000000 0.000000 0.000000 0.104318 0.000000 0.188696
#
#
# Mechanical properties :
#
#
# Convention : Reuss Voigt Hill
#
# Bulk Modulus (GPa) = 23.46813 35.72443 29.59628
# Shear Modulus (GPa) = 10.99036 24.36168 17.67602
#
# Velocity S-wave (km/s) = 2.34232 3.48733 2.97052
# Velocity P-wave (km/s) = 4.36242 5.83516 5.15169
#
# Compressibility (1/GPa) = 0.04261097
#
# Stress axis : x y z
#
# Youngs Moduli (GPa) = 43.84613 29.92122 95.48785
#
# Poissons Ratio (x) = 0.07914 0.24008
# Poissons Ratio (y) = 0.11597 0.65750
# Poissons Ratio (z) = 0.11024 0.20603
#
# Static dielectric constant tensor:
#      x y z
#    x 3.783050 0.000000 0.100460 
#    y 0.000000 3.300600 0.000000 
#    z 0.100460 0.000000 3.912690 
# 
# 
# High freq. dielectric constant tensor:
#      x y z
#    x 1.793090 0.000000 0.004560 
#    y 0.000000 1.745670 0.000000 
#    z 0.004560 0.000000 1.797670 
# 
# From -- ./inp_files/216862.got.cif
#   From: 2010.06.25/outbox.cif.g09.slc.cpg/sg12_109_cif.got.tgz:216862.got - 2010.06.28 00:19:55.
