data_PCOD8106296
_publ_section_title
;
Structure prediction by ZEFSAII (Michael W. Deem and Ramdas Pophale) SiO2 
 PCOD8106296
Probable space group: C 2/M
;
_chemical_formula_sum "Si O2"
_cell_formula_units_Z 64
_cell_length_a 27.781010
_cell_length_b 8.849335
_cell_length_c 14.050748
_cell_angle_alpha 90.000000
_cell_angle_beta 105.079856
_cell_angle_gamma 90.000000
_cell_volume 3335.333369
_symmetry_space_group_name_H-M "C 2/M"
_symmetry_group_IT_number 12
_symmetry_cell_setting 'monoclinic'
loop_
_space_group_symop_operation_xyz
x,y,z
-x,y,-z
-x,-y,-z
x,-y,z
1/2+x,1/2+y,z
1/2-x,1/2+y,-z
1/2-x,1/2-y,-z
1/2+x,1/2-y,z
loop_
_atom_site_type_symbol
_atom_site_label
_atom_site_fract_x
_atom_site_fract_y
_atom_site_fract_z
Si Si1 0.041037 0.174436 0.849975
Si Si2 0.864536 0.823018 0.617169
Si Si3 0.621619 0.175010 0.771863
Si Si4 0.162839 0.827068 0.612950
Si Si5 0.064782 0.678504 0.211735
Si Si6 0.615327 0.675815 0.059720
Si Si7 0.303820 0.177068 0.022801
Si Si8 0.768288 0.325056 0.604800
O O1 0.073466 0.228754 0.777014
O O2 0.991630 0.272171 0.832809
O O3 0.026767 0.000000 0.828788
O O4 0.071282 0.202289 0.961904
O O5 0.855276 0.782853 0.502124
O O6 0.915342 0.742725 0.677176
O O7 0.819202 0.759579 0.660296
O O8 0.868706 0.000000 0.636134
O O9 0.635457 0.217248 0.671656
O O10 0.667957 0.213208 0.864166
O O11 0.607220 0.000000 0.770202
O O12 0.222816 0.805941 0.656116
O O13 0.148396 0.000000 0.627859
O O14 0.067952 0.500000 0.212286
O O15 0.100184 0.744772 0.148873
O O16 0.624827 0.500000 0.083119
O O17 0.666307 0.750096 0.049321
O O18 0.298831 0.000000 0.001527
O O19 0.250000 0.250000 0.000000
O O20 0.780173 0.500000 0.593047
O O21 0.750000 0.250000 0.500000
#
# Coordination Sequence:
#
# PCOD8106296 Si02
#       8
#     8   8   8   8   8   8   8   8
#     4  10  21  39  61  82 108 142 181 226 274 328
#     4  10  21  37  55  79 112 146 185 232 277 325
#     4  10  21  36  57  83 110 143 184 228 273 325
#     4   9  19  35  56  80 108 146 186 224 270 325
#     4  12  24  37  57  84 113 144 179 226 281 332
#     4  10  21  38  60  84 110 145 186 225 272 330
#     4  10  21  37  56  83 118 152 186 227 274 322
#     4   9  17  31  51  76 106 141 181 223 270 321
#
# _framework density 19.188486000000001
#
# number of rings (size 3 to 8) (size 9 to 14) (size 15 to 20)
#    0.000    2.000    0.000    4.500    0.000    8.500 
#    0.000    3.125    0.000    3.750    0.000    0.000 
#    0.000    0.000    0.000    0.000    0.000    0.000 
#
# Total GULP energy -396844.883158 kJ/mol
# GULP energy per Si atom -12401.402599 kJ/mol
# Density = 1.914481 g / cm^3
# Si number density = 19.188486 Si / 1000 Ang^3
#
#
#
# Elastic Constant Matrix: (Units=GPa)
#
#
# Indices 1 2 3 4 5 6 
#
# 1 116.1274 63.0160 47.4931 0.0000 0.3559 0.0000
# 2 63.0160 126.5002 46.2070 0.0000 0.3024 0.0000
# 3 47.4931 46.2070 64.8169 0.0000 -7.7638 0.0000
# 4 0.0000 0.0000 0.0000 30.8806 0.0000 0.3127
# 5 0.3559 0.3024 -7.7638 0.0000 26.0700 0.0000
# 6 0.0000 0.0000 0.0000 0.3127 0.0000 41.6886
#
#
#
# Elastic Compliance Matrix: (Units=1/GPa)
#
#
# Indices 1 2 3 4 5 6 
#
# 1 0.013982 -0.004209 -0.007530 0.000000 -0.002385 0.000000
# 2 -0.004209 0.012112 -0.005766 0.000000 -0.001800 0.000000
# 3 -0.007530 -0.005766 0.026004 0.000000 0.007914 0.000000
# 4 0.000000 0.000000 0.000000 0.032385 0.000000 -0.000243
# 5 -0.002385 -0.001800 0.007914 0.000000 0.040769 0.000000
# 6 0.000000 0.000000 0.000000 -0.000243 0.000000 0.023989
#
#
# Mechanical properties :
#
#
# Convention : Reuss Voigt Hill
#
# Bulk Modulus (GPa) = 58.52122 68.98630 63.75376
# Shear Modulus (GPa) = 26.32284 29.77640 28.04962
#
# Velocity S-wave (km/s) = 3.70781 3.94354 3.82749
# Velocity P-wave (km/s) = 6.99248 7.53428 7.26843
#
# Compressibility (1/GPa) = 0.01708782
#
# Stress axis : x y z
#
# Youngs Moduli (GPa) = 71.51961 82.56004 38.45499
#
# Poissons Ratio (x) = 0.34749 0.28958
# Poissons Ratio (y) = 0.30102 0.22175
# Poissons Ratio (z) = 0.53856 0.47607
#
# Static dielectric constant tensor:
#      x y z
#    x 3.668200 0.000000 0.074630 
#    y 0.000000 3.643900 0.000000 
#    z 0.074630 0.000000 3.382210 
# 
# 
# High freq. dielectric constant tensor:
#      x y z
#    x 1.748740 0.000000 0.002880 
#    y 0.000000 1.761780 0.000000 
#    z 0.002880 0.000000 1.732280 
# 
# From -- ./inp_files/244142.got.cif
#   From: 2010.06.25/outbox.cif.g09.slc.cpg/sg12_123_cif.got.tgz:244142.got - 2010.06.28 00:19:55.
