data_PCOD8106247
_publ_section_title
;
Structure prediction by ZEFSAII (Michael W. Deem and Ramdas Pophale) SiO2 
 PCOD8106247
Probable space group: C 2/M
;
_chemical_formula_sum "Si O2"
_cell_formula_units_Z 56
_cell_length_a 27.064966
_cell_length_b 9.351892
_cell_length_c 12.539885
_cell_angle_alpha 90.000000
_cell_angle_beta 67.114189
_cell_angle_gamma 90.000000
_cell_volume 2924.105156
_symmetry_space_group_name_H-M "C 2/M"
_symmetry_group_IT_number 12
_symmetry_cell_setting 'monoclinic'
loop_
_space_group_symop_operation_xyz
x,y,z
-x,y,-z
-x,-y,-z
x,-y,z
1/2+x,1/2+y,z
1/2-x,1/2+y,-z
1/2-x,1/2-y,-z
1/2+x,1/2-y,z
loop_
_atom_site_type_symbol
_atom_site_label
_atom_site_fract_x
_atom_site_fract_y
_atom_site_fract_z
Si Si1 0.100999 0.663961 0.508750
Si Si2 0.648776 0.162802 0.837962
Si Si3 0.103316 0.336359 0.264750
Si Si4 0.456810 0.666784 0.119050
Si Si5 0.697963 0.163608 0.573585
Si Si6 0.804172 0.667494 0.975728
Si Si7 0.494996 0.668371 0.322700
O O1 0.086115 0.500000 0.549432
O O2 0.123240 0.676922 0.369937
O O3 0.146378 0.722407 0.551680
O O4 0.047342 0.758838 0.561835
O O5 0.598765 0.260496 0.857616
O O6 0.690246 0.180864 0.706313
O O7 0.676614 0.212929 0.923089
O O8 0.628764 0.000000 0.864098
O O9 0.086687 0.500000 0.252517
O O10 0.053439 0.233174 0.288597
O O11 0.151377 0.285645 0.147966
O O12 0.448179 0.500000 0.109346
O O13 0.476413 0.704808 0.219774
O O14 0.500000 0.728010 0.000000
O O15 0.750000 0.250000 0.500000
O O16 0.707322 0.000000 0.532472
O O17 0.792312 0.500000 0.977934
O O18 0.750000 0.750000 0.000000
O O19 0.496975 0.500000 0.344681
#
# Coordination Sequence:
#
# PCOD8106247 Si02
#       7
#     8   8   8   8   8   8   8
#     4  10  21  39  60  83 115 154 191 229 280 341
#     4  10  21  39  60  85 114 146 189 236 280 332
#     4  10  22  39  59  83 114 154 194 230 277 342
#     4  10  21  36  56  84 117 151 187 229 281 338
#     4  10  22  38  59  86 115 148 190 236 284 336
#     4  10  23  41  61  86 114 149 193 236 283 336
#     4  11  22  36  57  88 119 148 188 236 286 336
#
# _framework density 19.151157000000001
#
# number of rings (size 3 to 8) (size 9 to 14) (size 15 to 20)
#    0.000    1.857    1.429    1.714    2.000    5.429 
#    0.000    0.000    0.000    0.000    0.000    0.000 
#    0.000    0.000    0.000    0.000    0.000    0.000 
#
# Total GULP energy -347321.564746 kJ/mol
# GULP energy per Si atom -12404.341598 kJ/mol
# Density = 1.910757 g / cm^3
# Si number density = 19.151157 Si / 1000 Ang^3
#
#
#
# Elastic Constant Matrix: (Units=GPa)
#
#
# Indices 1 2 3 4 5 6 
#
# 1 89.1692 58.2954 49.0070 0.0000 -10.8775 0.0000
# 2 58.2954 50.1530 43.3632 0.0000 -1.2469 0.0000
# 3 49.0070 43.3632 128.1564 0.0000 -1.6423 0.0000
# 4 0.0000 0.0000 0.0000 34.5508 0.0000 -19.1774
# 5 -10.8775 -1.2469 -1.6423 0.0000 32.6105 0.0000
# 6 0.0000 0.0000 0.0000 -19.1774 0.0000 63.7059
#
#
#
# Elastic Compliance Matrix: (Units=1/GPa)
#
#
# Indices 1 2 3 4 5 6 
#
# 1 0.053607 -0.062722 0.000922 0.000000 0.015530 0.000000
# 2 -0.062722 0.101582 -0.010612 0.000000 -0.017572 0.000000
# 3 0.000922 -0.010612 0.011047 0.000000 0.000458 0.000000
# 4 0.000000 0.000000 0.000000 0.034749 0.000000 0.010461
# 5 0.015530 -0.017572 0.000458 0.000000 0.035196 0.000000
# 6 0.000000 0.000000 0.000000 0.010461 0.000000 0.018846
#
#
# Mechanical properties :
#
#
# Convention : Reuss Voigt Hill
#
# Bulk Modulus (GPa) = 46.69979 63.20108 54.95044
# Shear Modulus (GPa) = 12.28534 33.96095 23.12315
#
# Velocity S-wave (km/s) = 2.53552 4.21564 3.47854
# Velocity P-wave (km/s) = 5.74540 7.53447 6.69992
#
# Compressibility (1/GPa) = 0.02141337
#
# Stress axis : x y z
#
# Youngs Moduli (GPa) = 18.65412 9.84423 90.52385
#
# Poissons Ratio (x) = 0.61745 -0.08348
# Poissons Ratio (y) = 1.17002 0.96062
# Poissons Ratio (z) = -0.01720 0.10447
#
# Static dielectric constant tensor:
#      x y z
#    x 3.361290 0.000000 0.051350 
#    y 0.000000 3.431000 0.000000 
#    z 0.051350 0.000000 3.716190 
# 
# 
# High freq. dielectric constant tensor:
#      x y z
#    x 1.744810 0.000000 0.006440 
#    y 0.000000 1.739210 0.000000 
#    z 0.006440 0.000000 1.763900 
# 
# From -- ./inp_files/180764.got.cif
#   From: 2010.06.25/outbox.cif.g09.slc.cpg/sg12_91_cif.got.tgz:180764.got - 2010.06.28 00:19:55.
