data_PCOD8106345
_publ_section_title
;
Structure prediction by ZEFSAII (Michael W. Deem and Ramdas Pophale) SiO2 
 PCOD8106345
Probable space group: C 2/M
;
_chemical_formula_sum "Si O2"
_cell_formula_units_Z 48
_cell_length_a 9.629376
_cell_length_b 9.890686
_cell_length_c 26.627309
_cell_angle_alpha 90.000000
_cell_angle_beta 73.956636
_cell_angle_gamma 90.000000
_cell_volume 2437.244442
_symmetry_space_group_name_H-M "C 2/M"
_symmetry_group_IT_number 12
_symmetry_cell_setting 'monoclinic'
loop_
_space_group_symop_operation_xyz
x,y,z
-x,y,-z
-x,-y,-z
x,-y,z
1/2+x,1/2+y,z
1/2-x,1/2+y,-z
1/2-x,1/2-y,-z
1/2+x,1/2-y,z
loop_
_atom_site_type_symbol
_atom_site_label
_atom_site_fract_x
_atom_site_fract_y
_atom_site_fract_z
Si Si1 0.051239 0.500000 0.551467
Si Si2 0.333337 0.153312 0.028654
Si Si3 0.611298 0.761297 0.379937
Si Si4 0.737057 0.345142 0.147924
Si Si5 0.127353 0.000000 0.447348
Si Si6 0.590042 0.344121 0.797604
Si Si7 0.420457 0.343841 0.315110
O O1 0.224378 0.500000 0.536369
O O2 0.000000 0.500000 0.500000
O O3 0.993594 0.367155 0.583769
O O4 0.305675 0.199889 0.088341
O O5 0.277774 0.000000 0.026451
O O6 0.500000 0.166145 0.000000
O O7 0.250000 0.250000 0.000000
O O8 0.615062 0.628838 0.413191
O O9 0.548450 0.733224 0.330933
O O10 0.770392 0.821689 0.358788
O O11 0.778240 0.500000 0.157082
O O12 0.565375 0.327918 0.161081
O O13 0.795724 0.247795 0.185054
O O14 0.000000 0.000000 0.500000
O O15 0.642267 0.500000 0.794214
O O16 0.584838 0.289523 0.741131
O O17 0.461569 0.500000 0.310691
#
# Coordination Sequence:
#
# PCOD8106345 Si02
#       7
#     4   8   8   8   4   8   8
#     4  12  28  44  66  96 126 158 202 246 294 358
#     4  10  21  36  57  86 121 161 206 253 304 359
#     4  12  24  44  66  92 125 158 199 248 298 357
#     4  10  21  39  58  87 124 158 203 256 302 360
#     4  12  28  44  68  96 122 164 202 238 304 359
#     4  10  22  39  60  88 118 158 201 249 305 359
#     4  11  23  41  65  91 122 156 200 252 299 357
#
# _framework density 19.694371
#
# number of rings (size 3 to 8) (size 9 to 14) (size 15 to 20)
#    0.000    1.167    3.333    2.500    2.333    3.000 
#    3.000    0.000    0.000    0.000    0.000    0.000 
#    0.000    0.000    0.000    0.000    0.000    0.000 
#
# Total GULP energy -297741.859711 kJ/mol
# GULP energy per Si atom -12405.910821 kJ/mol
# Density = 1.964955 g / cm^3
# Si number density = 19.694371 Si / 1000 Ang^3
#
#
#
# Elastic Constant Matrix: (Units=GPa)
#
#
# Indices 1 2 3 4 5 6 
#
# 1 76.4414 30.0199 18.4977 0.0000 12.0724 0.0000
# 2 30.0199 96.0759 36.3160 0.0000 24.2270 0.0000
# 3 18.4977 36.3160 102.4465 0.0000 9.2373 0.0000
# 4 0.0000 0.0000 0.0000 39.7404 0.0000 6.8540
# 5 12.0724 24.2270 9.2373 0.0000 43.7762 0.0000
# 6 0.0000 0.0000 0.0000 6.8540 0.0000 24.6675
#
#
#
# Elastic Compliance Matrix: (Units=1/GPa)
#
#
# Indices 1 2 3 4 5 6 
#
# 1 0.015163 -0.003820 -0.001220 0.000000 -0.001810 0.000000
# 2 -0.003820 0.014665 -0.003947 0.000000 -0.006230 0.000000
# 3 -0.001220 -0.003947 0.011370 0.000000 0.000122 0.000000
# 4 0.000000 0.000000 0.000000 0.026430 0.000000 -0.007344
# 5 -0.001810 -0.006230 0.000122 0.000000 0.026765 0.000000
# 6 0.000000 0.000000 0.000000 -0.007344 0.000000 0.042580
#
#
# Mechanical properties :
#
#
# Convention : Reuss Voigt Hill
#
# Bulk Modulus (GPa) = 43.06156 49.40345 46.23251
# Shear Modulus (GPa) = 30.73357 34.31215 32.52286
#
# Velocity S-wave (km/s) = 3.95463 4.17853 4.06812
# Velocity P-wave (km/s) = 6.53946 6.95843 6.75219
#
# Compressibility (1/GPa) = 0.02322257
#
# Stress axis : x y z
#
# Youngs Moduli (GPa) = 65.94845 68.18980 87.95254
#
# Poissons Ratio (x) = 0.26050 0.10734
# Poissons Ratio (y) = 0.25194 0.34716
# Poissons Ratio (z) = 0.08049 0.26915
#
# Static dielectric constant tensor:
#      x y z
#    x 3.570110 0.000000 -0.056730 
#    y 0.000000 3.644740 0.000000 
#    z -0.056730 0.000000 3.825970 
# 
# 
# High freq. dielectric constant tensor:
#      x y z
#    x 1.773430 0.000000 -0.004340 
#    y 0.000000 1.773170 0.000000 
#    z -0.004340 0.000000 1.783440 
# 
# From -- ./inp_files/334795.got.cif
#   From: 2010.06.25/outbox.cif.g09.slc.cpg/sg12_168_cif.got.tgz:334795.got - 2010.06.28 00:19:55.
