data_PCOD8106834
_publ_section_title
;
Structure prediction by ZEFSAII (Michael W. Deem and Ramdas Pophale) SiO2 
 PCOD8106834
Probable space group: C 2/M
;
_chemical_formula_sum "Si O2"
_cell_formula_units_Z 40
_cell_length_a 5.134798
_cell_length_b 24.370083
_cell_length_c 16.584492
_cell_angle_alpha 90.000000
_cell_angle_beta 114.233195
_cell_angle_gamma 90.000000
_cell_volume 1892.436917
_symmetry_space_group_name_H-M "C 2/M"
_symmetry_group_IT_number 12
_symmetry_cell_setting 'monoclinic'
loop_
_space_group_symop_operation_xyz
x,y,z
-x,y,-z
-x,-y,-z
x,-y,z
1/2+x,1/2+y,z
1/2-x,1/2+y,-z
1/2-x,1/2-y,-z
1/2+x,1/2-y,z
loop_
_atom_site_type_symbol
_atom_site_label
_atom_site_fract_x
_atom_site_fract_y
_atom_site_fract_z
Si Si1 0.755791 0.371655 0.245676
Si Si2 0.103330 0.785010 0.099279
Si Si3 0.129767 0.714068 0.602718
Si Si4 0.797963 0.938170 0.259485
Si Si5 0.195498 0.938111 0.459898
O O1 0.754265 0.332374 0.168620
O O2 0.807097 0.339724 0.336212
O O3 0.445639 0.402371 0.207396
O O4 0.013188 0.413889 0.262644
O O5 0.333661 0.737017 0.115153
O O6 0.000000 0.808673 0.000000
O O7 0.426433 0.745417 0.626532
O O8 0.000000 0.696402 0.500000
O O9 0.056148 0.938554 0.355513
O O10 0.729672 0.000000 0.221277
O O11 0.500000 0.907508 0.500000
O O12 0.000000 0.905897 0.500000
O O13 0.244524 0.000000 0.499199
#
# Coordination Sequence:
#
# PCOD8106834 Si02
#       5
#     8   8   8   8   8
#     4  12  22  37  62  85 115 157 198 237 291 355
#     4  10  21  39  65  96 123 144 179 239 304 361
#     4  10  21  37  56  82 116 149 186 234 288 353
#     4  11  24  38  54  81 117 158 202 248 288 330
#     4   9  17  31  49  68  97 140 190 243 288 318
#
# _framework density 21.136769999999999
#
# number of rings (size 3 to 8) (size 9 to 14) (size 15 to 20)
#    0.000    1.600    0.000    5.400    0.000    5.600 
#    0.000    0.000    0.000    4.200    0.000    0.000 
#    0.000    0.000    0.000    0.000    0.000    0.000 
#
# Total GULP energy -247979.260654 kJ/mol
# GULP energy per Si atom -12398.963033 kJ/mol
# Density = 2.108866 g / cm^3
# Si number density = 21.136770 Si / 1000 Ang^3
#
#
#
# Elastic Constant Matrix: (Units=GPa)
#
#
# Indices 1 2 3 4 5 6 
#
# 1 144.1756 36.9695 21.4438 0.0000 -14.6967 0.0000
# 2 36.9695 111.1577 41.9812 0.0000 -7.7872 0.0000
# 3 21.4438 41.9812 75.1743 0.0000 -4.7230 0.0000
# 4 0.0000 0.0000 0.0000 9.9648 0.0000 -1.2041
# 5 -14.6967 -7.7872 -4.7230 0.0000 24.3016 0.0000
# 6 0.0000 0.0000 0.0000 -1.2041 0.0000 28.1901
#
#
#
# Elastic Compliance Matrix: (Units=1/GPa)
#
#
# Indices 1 2 3 4 5 6 
#
# 1 0.008001 -0.002044 -0.000889 0.000000 0.004011 0.000000
# 2 -0.002044 0.012069 -0.006065 0.000000 0.001452 0.000000
# 3 -0.000889 -0.006065 0.016995 0.000000 0.000822 0.000000
# 4 0.000000 0.000000 0.000000 0.100874 0.000000 0.004309
# 5 0.004011 0.001452 0.000822 0.000000 0.044200 0.000000
# 6 0.000000 0.000000 0.000000 0.004309 0.000000 0.035658
#
#
# Mechanical properties :
#
#
# Convention : Reuss Voigt Hill
#
# Bulk Modulus (GPa) = 52.44466 59.03295 55.73880
# Shear Modulus (GPa) = 20.64844 27.83216 24.24030
#
# Velocity S-wave (km/s) = 3.12893 3.63266 3.39016
# Velocity P-wave (km/s) = 6.15788 6.75164 6.46158
#
# Compressibility (1/GPa) = 0.01906772
#
# Stress axis : x y z
#
# Youngs Moduli (GPa) = 124.98004 82.85952 58.84178
#
# Poissons Ratio (x) = 0.16941 0.05229
# Poissons Ratio (y) = 0.25552 0.35689
# Poissons Ratio (z) = 0.11106 0.50257
#
# Static dielectric constant tensor:
#      x y z
#    x 4.731410 0.000000 -0.157120 
#    y 0.000000 3.818270 0.000000 
#    z -0.157120 0.000000 3.648890 
# 
# 
# High freq. dielectric constant tensor:
#      x y z
#    x 1.857430 0.000000 -0.009720 
#    y 0.000000 1.823390 0.000000 
#    z -0.009720 0.000000 1.794730 
# 
# From -- ./inp_files/191549.got.cif
#   From: 2010.06.25/outbox.cif.g09.slc.cpg/sg12_96_cif.got.tgz:191549.got - 2010.06.28 00:19:55.
