data_PCOD8106964
_publ_section_title
;
Structure prediction by ZEFSAII (Michael W. Deem and Ramdas Pophale) SiO2 
 PCOD8106964
Probable space group: C 2/M
;
_chemical_formula_sum "Si O2"
_cell_formula_units_Z 56
_cell_length_a 13.412154
_cell_length_b 27.012978
_cell_length_c 8.299283
_cell_angle_alpha 90.000000
_cell_angle_beta 65.329746
_cell_angle_gamma 90.000000
_cell_volume 2732.398543
_symmetry_space_group_name_H-M "C 2/M"
_symmetry_group_IT_number 12
_symmetry_cell_setting 'monoclinic'
loop_
_space_group_symop_operation_xyz
x,y,z
-x,y,-z
-x,-y,-z
x,-y,z
1/2+x,1/2+y,z
1/2-x,1/2+y,-z
1/2-x,1/2-y,-z
1/2+x,1/2-y,z
loop_
_atom_site_type_symbol
_atom_site_label
_atom_site_fract_x
_atom_site_fract_y
_atom_site_fract_z
Si Si1 0.402032 0.874202 0.674662
Si Si2 0.098053 0.054621 0.828367
Si Si3 0.584392 0.797433 0.079469
Si Si4 0.777523 0.854512 0.791129
Si Si5 0.216198 0.445246 0.035852
Si Si6 0.305297 0.641629 0.407771
Si Si7 0.012457 0.203894 0.310110
O O1 0.500000 0.893942 0.500000
O O2 0.445640 0.826704 0.739316
O O3 0.387085 0.918624 0.811936
O O4 0.291454 0.856495 0.657940
O O5 0.198028 0.048968 0.880631
O O6 0.128469 0.090071 0.658702
O O7 0.065579 0.000000 0.782302
O O8 0.000000 0.078036 0.000000
O O9 0.567630 0.740566 0.142761
O O10 0.500000 0.813088 0.000000
O O11 0.705274 0.812731 0.932927
O O12 0.750244 0.854401 0.620004
O O13 0.905410 0.842686 0.732521
O O14 0.758246 0.910317 0.863996
O O15 0.185551 0.500000 0.988583
O O16 0.393128 0.686375 0.324389
O O17 0.000000 0.226640 0.500000
#
# Coordination Sequence:
#
# PCOD8106964 Si02
#       7
#     8   8   8   8   8   8   8
#     4  10  21  39  60  82 113 148 187 233 281 331
#     4   9  17  31  53  82 115 150 187 226 273 330
#     4  11  23  38  58  82 110 146 188 231 280 335
#     4  10  21  37  57  83 117 149 186 231 278 330
#     4   9  19  34  54  81 112 148 188 230 276 328
#     4  10  21  37  59  85 114 148 187 231 278 332
#     4  10  22  38  56  83 115 149 187 229 278 334
#
# _framework density 20.494813000000001
#
# number of rings (size 3 to 8) (size 9 to 14) (size 15 to 20)
#    0.000    2.143    0.000    2.571    0.000    6.000 
#    0.000    3.571    0.000   19.714    0.000    0.000 
#    0.000    0.000    0.000    0.000    0.000    0.000 
#
# Total GULP energy -347034.934738 kJ/mol
# GULP energy per Si atom -12394.104812 kJ/mol
# Density = 2.044817 g / cm^3
# Si number density = 20.494813 Si / 1000 Ang^3
#
#
#
# Elastic Constant Matrix: (Units=GPa)
#
#
# Indices 1 2 3 4 5 6 
#
# 1 66.9478 29.1716 16.8092 0.0000 -0.8762 0.0000
# 2 29.1716 118.5165 58.3937 0.0000 3.3503 0.0000
# 3 16.8092 58.3937 114.4354 0.0000 -7.9487 0.0000
# 4 0.0000 0.0000 0.0000 29.8304 0.0000 1.4420
# 5 -0.8762 3.3503 -7.9487 0.0000 29.1542 0.0000
# 6 0.0000 0.0000 0.0000 1.4420 0.0000 19.3242
#
#
#
# Elastic Compliance Matrix: (Units=1/GPa)
#
#
# Indices 1 2 3 4 5 6 
#
# 1 0.016771 -0.003965 -0.000381 0.000000 0.000856 0.000000
# 2 -0.003965 0.012458 -0.005996 0.000000 -0.003185 0.000000
# 3 -0.000381 -0.005996 0.012131 0.000000 0.003985 0.000000
# 4 0.000000 0.000000 0.000000 0.033644 0.000000 -0.002511
# 5 0.000856 -0.003185 0.003985 0.000000 0.035779 0.000000
# 6 0.000000 0.000000 0.000000 -0.002511 0.000000 0.051936
#
#
# Mechanical properties :
#
#
# Convention : Reuss Voigt Hill
#
# Bulk Modulus (GPa) = 48.36260 56.51652 52.43956
# Shear Modulus (GPa) = 26.27513 28.69675 27.48594
#
# Velocity S-wave (km/s) = 3.58444 3.74598 3.66610
# Velocity P-wave (km/s) = 6.38590 6.80777 6.60020
#
# Compressibility (1/GPa) = 0.02067713
#
# Stress axis : x y z
#
# Youngs Moduli (GPa) = 59.62532 80.27181 82.43461
#
# Poissons Ratio (x) = 0.31824 0.03141
# Poissons Ratio (y) = 0.23639 0.49426
# Poissons Ratio (z) = 0.02272 0.48129
#
# Static dielectric constant tensor:
#      x y z
#    x 3.575080 0.000000 -0.097940 
#    y 0.000000 3.980890 0.000000 
#    z -0.097940 0.000000 3.791700 
# 
# 
# High freq. dielectric constant tensor:
#      x y z
#    x 1.791690 0.000000 -0.009100 
#    y 0.000000 1.793660 0.000000 
#    z -0.009100 0.000000 1.807080 
# 
# From -- ./inp_files/53164.got.cif
#   From: 2010.06.25/outbox.cif.g09.slc.cpg/sg12_27_cif.got.tgz:53164.got - 2010.06.28 00:19:55.
