data_PCOD8106261
_publ_section_title
;
Structure prediction by ZEFSAII (Michael W. Deem and Ramdas Pophale) SiO2 
 PCOD8106261
Probable space group: C 2/M
;
_chemical_formula_sum "Si O2"
_cell_formula_units_Z 64
_cell_length_a 9.495191
_cell_length_b 29.300979
_cell_length_c 11.208910
_cell_angle_alpha 90.000000
_cell_angle_beta 82.728172
_cell_angle_gamma 90.000000
_cell_volume 3093.441996
_symmetry_space_group_name_H-M "C 2/M"
_symmetry_group_IT_number 12
_symmetry_cell_setting 'monoclinic'
loop_
_space_group_symop_operation_xyz
x,y,z
-x,y,-z
-x,-y,-z
x,-y,z
1/2+x,1/2+y,z
1/2-x,1/2+y,-z
1/2-x,1/2-y,-z
1/2+x,1/2-y,z
loop_
_atom_site_type_symbol
_atom_site_label
_atom_site_fract_x
_atom_site_fract_y
_atom_site_fract_z
Si Si1 0.424910 0.741272 0.202498
Si Si2 0.879712 0.338387 0.096183
Si Si3 0.161892 0.053287 0.503370
Si Si4 0.355675 0.348535 0.066415
Si Si5 0.217064 0.602974 0.297472
Si Si6 0.654272 0.264654 0.366178
Si Si7 0.103676 0.391279 0.669158
Si Si8 0.815822 0.678782 0.514994
O O1 0.439518 0.788886 0.129797
O O2 0.384462 0.700366 0.121068
O O3 0.570313 0.726480 0.253434
O O4 0.312576 0.748038 0.318329
O O5 0.846368 0.371919 0.209526
O O6 0.737170 0.335224 0.037246
O O7 0.000000 0.360894 0.000000
O O8 0.201433 0.063683 0.637279
O O9 0.273860 0.076529 0.399455
O O10 0.000000 0.070220 0.500000
O O11 0.174180 0.000000 0.477634
O O12 0.283720 0.386317 0.160544
O O13 0.500000 0.370648 0.000000
O O14 0.239079 0.649593 0.367843
O O15 0.052835 0.586293 0.301875
O O16 0.674726 0.308728 0.449555
O O17 0.595301 0.222649 0.450248
O O18 0.077019 0.349391 0.581245
#
# Coordination Sequence:
#
# PCOD8106261 Si02
#       8
#     8   8   8   8   8   8   8   8
#     4  12  23  40  53  81 122 176 232 279 320 365
#     4  12  23  42  62  83 127 175 230 276 312 363
#     4  10  24  45  75 109 138 156 182 244 323 396
#     4  12  26  40  58  89 127 174 231 276 318 360
#     4  11  23  42  66  95 125 168 214 258 315 383
#     4  11  23  34  55  79 122 161 220 275 335 375
#     4  11  23  41  69  94 124 169 214 255 318 379
#     4  10  21  36  56  85 118 160 212 276 324 374
#
# _framework density 20.688929000000002
#
# number of rings (size 3 to 8) (size 9 to 14) (size 15 to 20)
#    0.000    0.875    3.750    4.500    3.500    3.500 
#    0.000    0.000    0.000    1.500    0.000    0.000 
#    0.000    0.000    0.000    0.000    0.000    0.000 
#
# Total GULP energy -396640.660238 kJ/mol
# GULP energy per Si atom -12395.020632 kJ/mol
# Density = 2.064184 g / cm^3
# Si number density = 20.688929 Si / 1000 Ang^3
#
#
#
# Elastic Constant Matrix: (Units=GPa)
#
#
# Indices 1 2 3 4 5 6 
#
# 1 129.7203 33.3449 54.0775 0.0000 5.0233 0.0000
# 2 33.3449 60.0818 30.5142 0.0000 -4.0888 0.0000
# 3 54.0775 30.5142 125.7250 0.0000 5.6430 0.0000
# 4 0.0000 0.0000 0.0000 12.5840 0.0000 -0.3372
# 5 5.0233 -4.0888 5.6430 0.0000 51.5621 0.0000
# 6 0.0000 0.0000 0.0000 -0.3372 0.0000 17.6791
#
#
#
# Elastic Compliance Matrix: (Units=1/GPa)
#
#
# Indices 1 2 3 4 5 6 
#
# 1 0.010177 -0.004004 -0.003363 0.000000 -0.000941 0.000000
# 2 -0.004004 0.020771 -0.003427 0.000000 0.002412 0.000000
# 3 -0.003363 -0.003427 0.010280 0.000000 -0.001069 0.000000
# 4 0.000000 0.000000 0.000000 0.079507 0.000000 0.001516
# 5 -0.000941 0.002412 -0.001069 0.000000 0.019794 0.000000
# 6 0.000000 0.000000 0.000000 0.001516 0.000000 0.056593
#
#
# Mechanical properties :
#
#
# Convention : Reuss Voigt Hill
#
# Bulk Modulus (GPa) = 50.91914 61.26669 56.09291
# Shear Modulus (GPa) = 22.19689 29.53773 25.86731
#
# Velocity S-wave (km/s) = 3.27905 3.78260 3.53979
# Velocity P-wave (km/s) = 6.24511 6.98248 6.62406
#
# Compressibility (1/GPa) = 0.01963898
#
# Stress axis : x y z
#
# Youngs Moduli (GPa) = 98.26491 48.14432 97.27343
#
# Poissons Ratio (x) = 0.19276 0.32715
# Poissons Ratio (y) = 0.39344 0.33339
# Poissons Ratio (z) = 0.33049 0.16501
#
# Static dielectric constant tensor:
#      x y z
#    x 3.870370 0.000000 -0.033760 
#    y 0.000000 3.370960 0.000000 
#    z -0.033760 0.000000 4.007220 
# 
# 
# High freq. dielectric constant tensor:
#      x y z
#    x 1.829740 0.000000 0.002080 
#    y 0.000000 1.756420 0.000000 
#    z 0.002080 0.000000 1.827350 
# 
# From -- ./inp_files/125742.got.cif
#   From: 2010.06.25/outbox.cif.g09.slc.cpg/sg12_63_cif.got.tgz:125742.got - 2010.06.28 00:19:55.
