data_PCOD8107300
_publ_section_title
;
Structure prediction by ZEFSAII (Michael W. Deem and Ramdas Pophale) SiO2 
 PCOD8107300
Probable space group: C 2/M
;
_chemical_formula_sum "Si O2"
_cell_formula_units_Z 56
_cell_length_a 20.945721
_cell_length_b 8.793791
_cell_length_c 29.233926
_cell_angle_alpha 90.000000
_cell_angle_beta 30.792697
_cell_angle_gamma 90.000000
_cell_volume 2756.589150
_symmetry_space_group_name_H-M "C 2/M"
_symmetry_group_IT_number 12
_symmetry_cell_setting 'monoclinic'
loop_
_space_group_symop_operation_xyz
x,y,z
-x,y,-z
-x,-y,-z
x,-y,z
1/2+x,1/2+y,z
1/2-x,1/2+y,-z
1/2-x,1/2-y,-z
1/2+x,1/2-y,z
loop_
_atom_site_type_symbol
_atom_site_label
_atom_site_fract_x
_atom_site_fract_y
_atom_site_fract_z
Si Si1 0.075951 0.677004 0.907665
Si Si2 0.139202 0.821765 0.283134
Si Si3 0.494921 0.823167 0.291392
Si Si4 0.246822 0.320876 0.452107
Si Si5 0.497615 0.820316 0.553990
Si Si6 0.650730 0.328306 0.122176
Si Si7 0.597685 0.673097 0.053445
O O1 0.055530 0.500000 0.909578
O O2 0.222502 0.715680 0.821097
O O3 0.027050 0.776493 0.895496
O O4 0.000000 0.724660 0.000000
O O5 0.038294 0.737550 0.313845
O O6 0.116586 0.760630 0.348664
O O7 0.113668 0.000000 0.297243
O O8 0.370599 0.738390 0.350405
O O9 0.599726 0.791982 0.189471
O O10 0.467934 0.000000 0.313049
O O11 0.250150 0.500000 0.454373
O O12 0.250000 0.250000 0.500000
O O13 0.127522 0.267692 0.496693
O O14 0.500000 0.765167 0.500000
O O15 0.476766 0.000000 0.569756
O O16 0.641880 0.500000 0.147248
O O17 0.574416 0.313775 0.121995
O O18 0.794993 0.289895 0.026688
O O19 0.633857 0.500000 0.018352
#
# Coordination Sequence:
#
# PCOD8107300 Si02
#       7
#     8   8   8   8   8   8   8
#     4  10  22  39  59  85 121 163 201 244 303 367
#     4  11  23  39  62  90 121 160 205 256 310 368
#     4  12  24  38  61  91 121 156 203 254 304 362
#     4  11  22  39  64  91 122 160 201 248 304 364
#     4  10  23  43  65  90 124 166 208 255 314 376
#     4  10  21  38  59  85 119 157 198 248 303 362
#     4  10  21  37  59  86 117 156 200 248 302 359
#
# _framework density 20.314961
#
# number of rings (size 3 to 8) (size 9 to 14) (size 15 to 20)
#    0.000    1.429    1.429    3.857    0.000    6.286 
#    0.000    4.286    0.000    0.000    0.000    0.000 
#    0.000    0.000    0.000    0.000    0.000    0.000 
#
# Total GULP energy -347305.491698 kJ/mol
# GULP energy per Si atom -12403.767561 kJ/mol
# Density = 2.026872 g / cm^3
# Si number density = 20.314961 Si / 1000 Ang^3
#
#
#
# Elastic Constant Matrix: (Units=GPa)
#
#
# Indices 1 2 3 4 5 6 
#
# 1 112.5577 46.1150 41.8535 -0.0524 -0.3953 0.1537
# 2 46.1150 82.1233 32.6469 -0.0174 -0.9676 -0.0017
# 3 41.8535 32.6469 104.3903 -0.0040 8.0574 0.0400
# 4 -0.0524 -0.0174 -0.0040 35.6788 -0.0145 1.9981
# 5 -0.3953 -0.9676 8.0574 -0.0145 30.8965 0.0153
# 6 0.1537 -0.0017 0.0400 1.9981 0.0153 30.6342
#
#
#
# Elastic Compliance Matrix: (Units=1/GPa)
#
#
# Indices 1 2 3 4 5 6 
#
# 1 0.012426 -0.005666 -0.003275 0.000019 0.000836 -0.000060
# 2 -0.005666 0.016567 -0.003004 -0.000002 0.001230 0.000033
# 3 -0.003275 -0.003004 0.012086 -0.000006 -0.003288 0.000003
# 4 0.000019 -0.000002 -0.000006 0.028131 0.000016 -0.001835
# 5 0.000836 0.001230 -0.003288 0.000016 0.033273 -0.000018
# 6 -0.000060 0.000033 0.000003 -0.001835 -0.000018 0.032763
#
#
# Mechanical properties :
#
#
# Convention : Reuss Voigt Hill
#
# Bulk Modulus (GPa) = 58.17657 60.03356 59.10506
# Shear Modulus (GPa) = 30.32756 31.33896 30.83326
#
# Velocity S-wave (km/s) = 3.86796 3.93192 3.90007
# Velocity P-wave (km/s) = 6.97478 7.08724 7.03123
#
# Compressibility (1/GPa) = 0.01718905
#
# Stress axis : x y z
#
# Youngs Moduli (GPa) = 80.47348 60.35930 82.74246
#
# Poissons Ratio (x) = 0.34201 0.27095
# Poissons Ratio (y) = 0.45598 0.24859
# Poissons Ratio (z) = 0.26352 0.18135
#
# Static dielectric constant tensor:
#      x y z
#    x 3.760490 -0.000050 -0.026790 
#    y -0.000050 3.635050 0.000000 
#    z -0.026790 0.000000 3.698880 
# 
# 
# High freq. dielectric constant tensor:
#      x y z
#    x 1.792350 0.000000 0.000910 
#    y 0.000000 1.797870 0.000000 
#    z 0.000910 0.000000 1.797040 
# 
# From -- ./inp_files/380664.got.cif
#   From: 2010.06.25/outbox.cif.g09.slc.cpg/sg12_191_cif.got.tgz:380664.got - 2010.06.28 00:19:55.
