data_PCOD8107126
_publ_section_title
;
Structure prediction by ZEFSAII (Michael W. Deem and Ramdas Pophale) SiO2 
 PCOD8107126
Probable space group: C 2/M
;
_chemical_formula_sum "Si O2"
_cell_formula_units_Z 64
_cell_length_a 10.052128
_cell_length_b 9.028493
_cell_length_c 35.245973
_cell_angle_alpha 90.000000
_cell_angle_beta 90.358405
_cell_angle_gamma 90.000000
_cell_volume 3198.705691
_symmetry_space_group_name_H-M "C 2/M"
_symmetry_group_IT_number 12
_symmetry_cell_setting 'monoclinic'
loop_
_space_group_symop_operation_xyz
x,y,z
-x,y,-z
-x,-y,-z
x,-y,z
1/2+x,1/2+y,z
1/2-x,1/2+y,-z
1/2-x,1/2-y,-z
1/2+x,1/2-y,z
loop_
_atom_site_type_symbol
_atom_site_label
_atom_site_fract_x
_atom_site_fract_y
_atom_site_fract_z
Si Si1 0.854464 0.825766 0.729355
Si Si2 0.109059 0.171683 0.356012
Si Si3 0.864463 0.670285 0.477118
Si Si4 0.857106 0.329005 0.143889
Si Si5 0.590763 0.826577 0.770349
Si Si6 0.411517 0.671686 0.898599
Si Si7 0.157695 0.828208 0.601196
Si Si8 0.865241 0.328039 0.977299
O O1 0.877186 0.768026 0.686724
O O2 0.707658 0.777894 0.742015
O O3 0.957198 0.754362 0.758404
O O4 0.875168 0.000000 0.731960
O O5 0.204173 0.264944 0.383290
O O6 0.957086 0.196696 0.367988
O O7 0.150673 0.000000 0.358958
O O8 0.824124 0.500000 0.471158
O O9 0.750000 0.750000 0.500000
O O10 0.885700 0.745354 0.436737
O O11 0.000000 0.686825 0.500000
O O12 0.898126 0.500000 0.138464
O O13 0.870724 0.277553 0.187257
O O14 0.704337 0.302834 0.132319
O O15 0.950532 0.230417 0.117710
O O16 0.565216 0.000000 0.767904
O O17 0.428342 0.500000 0.908931
O O18 0.374084 0.759343 0.935986
O O19 0.178411 0.000000 0.591695
O O20 0.831185 0.500000 0.973203
O O21 0.750000 0.250000 0.000000
O O22 0.000000 0.300783 0.000000
#
# Coordination Sequence:
#
# PCOD8107126 Si02
#       8
#     8   8   8   8   8   8   8   8
#     4  10  21  38  59  85 117 152 193 240 288 340
#     4  10  22  39  59  85 118 154 192 238 289 340
#     4  11  24  41  62  88 117 152 193 236 286 343
#     4  10  22  39  57  83 118 151 189 238 288 340
#     4  10  21  37  58  84 115 152 192 236 287 341
#     4  11  23  39  61  87 115 151 194 238 286 342
#     4  11  23  38  59  87 117 152 194 238 286 342
#     4  11  24  41  61  87 119 153 191 237 287 341
#
# _framework density 20.008092000000001
#
# number of rings (size 3 to 8) (size 9 to 14) (size 15 to 20)
#    0.000    1.500    0.000    4.500    0.000   11.500 
#    0.000    0.000    0.000    0.000    0.000    0.000 
#    0.000    0.000    0.000    0.000    0.000    0.000 
#
# Total GULP energy -397020.917231 kJ/mol
# GULP energy per Si atom -12406.903663 kJ/mol
# Density = 1.996255 g / cm^3
# Si number density = 20.008092 Si / 1000 Ang^3
#
#
#
# Elastic Constant Matrix: (Units=GPa)
#
#
# Indices 1 2 3 4 5 6 
#
# 1 67.6595 40.0089 5.0496 0.0000 -5.7673 0.0000
# 2 40.0089 89.8645 35.9832 0.0000 1.3589 0.0000
# 3 5.0496 35.9832 100.0568 0.0000 -3.8183 0.0000
# 4 0.0000 0.0000 0.0000 33.5355 0.0000 0.2720
# 5 -5.7673 1.3589 -3.8183 0.0000 41.3424 0.0000
# 6 0.0000 0.0000 0.0000 0.2720 0.0000 30.6908
#
#
#
# Elastic Compliance Matrix: (Units=1/GPa)
#
#
# Indices 1 2 3 4 5 6 
#
# 1 0.021154 -0.010630 0.002891 0.000000 0.003567 0.000000
# 2 -0.010630 0.018372 -0.006172 0.000000 -0.002657 0.000000
# 3 0.002891 -0.006172 0.012134 0.000000 0.001727 0.000000
# 4 0.000000 0.000000 0.000000 0.029821 0.000000 -0.000264
# 5 0.003567 -0.002657 0.001727 0.000000 0.024933 0.000000
# 6 0.000000 0.000000 0.000000 -0.000264 0.000000 0.032585
#
#
# Mechanical properties :
#
#
# Convention : Reuss Voigt Hill
#
# Bulk Modulus (GPa) = 41.94819 46.62934 44.28877
# Shear Modulus (GPa) = 28.60972 32.88300 30.74636
#
# Velocity S-wave (km/s) = 3.78551 4.05839 3.92432
# Velocity P-wave (km/s) = 6.33387 6.73176 6.53584
#
# Compressibility (1/GPa) = 0.02383893
#
# Stress axis : x y z
#
# Youngs Moduli (GPa) = 47.27297 54.43119 82.41360
#
# Poissons Ratio (x) = 0.57858 -0.23828
# Poissons Ratio (y) = 0.50249 0.50865
# Poissons Ratio (z) = -0.13668 0.33595
#
# Static dielectric constant tensor:
#      x y z
#    x 3.469270 0.000000 0.250210 
#    y 0.000000 3.708390 0.000000 
#    z 0.250210 0.000000 3.392220 
# 
# 
# High freq. dielectric constant tensor:
#      x y z
#    x 1.792790 0.000000 -0.001650 
#    y 0.000000 1.783740 0.000000 
#    z -0.001650 0.000000 1.797800 
# 
# From -- ./inp_files/373608.got.cif
#   From: 2010.06.25/outbox.cif.g09.slc.cpg/sg12_187_cif.got.tgz:373608.got - 2010.06.28 00:19:55.
