data_PCOD8107831
_publ_section_title
;
Structure prediction by ZEFSAII (Michael W. Deem and Ramdas Pophale) SiO2 
 PCOD8107831
Probable space group: C 2/M
;
_chemical_formula_sum "Si O2"
_cell_formula_units_Z 52
_cell_length_a 21.554842
_cell_length_b 18.267147
_cell_length_c 12.075331
_cell_angle_alpha 90.000000
_cell_angle_beta 146.525790
_cell_angle_gamma 90.000000
_cell_volume 2622.458467
_symmetry_space_group_name_H-M "C 2/M"
_symmetry_group_IT_number 12
_symmetry_cell_setting 'monoclinic'
loop_
_space_group_symop_operation_xyz
x,y,z
-x,y,-z
-x,-y,-z
x,-y,z
1/2+x,1/2+y,z
1/2-x,1/2+y,-z
1/2-x,1/2-y,-z
1/2+x,1/2-y,z
loop_
_atom_site_type_symbol
_atom_site_label
_atom_site_fract_x
_atom_site_fract_y
_atom_site_fract_z
Si Si1 0.677769 0.851901 0.541463
Si Si2 0.089644 0.500000 0.347116
Si Si3 0.681405 0.841165 0.991867
Si Si4 0.012221 0.275966 0.143959
Si Si5 0.589207 0.618883 0.214419
Si Si6 0.373095 0.769368 0.310746
Si Si7 0.288642 0.500000 0.472241
Si Si8 0.831323 0.500000 0.938809
O O1 0.613440 0.929476 0.458993
O O2 0.626129 0.810871 0.359061
O O3 0.809489 0.858156 0.715405
O O4 0.661459 0.806180 0.626884
O O5 0.174815 0.500000 0.372000
O O6 0.964442 0.500000 0.109313
O O7 0.801555 0.803456 0.185402
O O8 0.695927 0.927669 0.031460
O O9 0.594654 0.803618 0.946969
O O10 0.640473 0.829439 0.805815
O O11 0.024865 0.188424 0.170666
O O12 0.000000 0.303085 0.000000
O O13 0.634344 0.569904 0.382782
O O14 0.500000 0.577811 0.000000
O O15 0.500000 0.741303 0.500000
O O16 0.250848 0.500000 0.289384
#
# Coordination Sequence:
#
# PCOD8107831 Si02
#       8
#     8   4   8   8   8   8   4   4
#     4  11  22  38  64  92 120 167 206 253 314 364
#     4  10  21  38  57  94 125 156 204 253 319 357
#     4  11  26  40  64  94 123 163 204 258 312 356
#     4  11  22  37  62  94 127 159 202 261 304 367
#     4  10  22  39  57  91 126 164 212 250 301 367
#     4  11  22  44  65  87 121 164 215 255 296 365
#     4  10  24  34  62  85 129 175 191 249 311 379
#     4  12  23  40  58  95 126 155 199 255 319 369
#
# _framework density 19.828721999999999
#
# number of rings (size 3 to 8) (size 9 to 14) (size 15 to 20)
#    0.000    1.231    3.077    2.769    6.462    0.615 
#    0.000    1.923    0.000    3.692    0.000    0.000 
#    0.000    0.000    0.000    0.000    0.000    0.000 
#
# Total GULP energy -322420.655685 kJ/mol
# GULP energy per Si atom -12400.794449 kJ/mol
# Density = 1.978359 g / cm^3
# Si number density = 19.828722 Si / 1000 Ang^3
#
#
#
# Elastic Constant Matrix: (Units=GPa)
#
#
# Indices 1 2 3 4 5 6 
#
# 1 85.6389 33.7877 48.3422 0.0000 -5.3607 0.0000
# 2 33.7877 126.2621 49.3739 0.0000 -3.4678 0.0000
# 3 48.3422 49.3739 155.4132 0.0000 -1.2473 0.0000
# 4 0.0000 0.0000 0.0000 25.6674 0.0000 -1.1459
# 5 -5.3607 -3.4678 -1.2473 0.0000 31.1245 0.0000
# 6 0.0000 0.0000 0.0000 -1.1459 0.0000 19.0231
#
#
#
# Elastic Compliance Matrix: (Units=1/GPa)
#
#
# Indices 1 2 3 4 5 6 
#
# 1 0.014950 -0.002432 -0.003860 0.000000 0.002149 0.000000
# 2 -0.002432 0.009464 -0.002246 0.000000 0.000546 0.000000
# 3 -0.003860 -0.002246 0.008344 0.000000 -0.000581 0.000000
# 4 0.000000 0.000000 0.000000 0.039065 0.000000 0.002353
# 5 0.002149 0.000546 -0.000581 0.000000 0.032537 0.000000
# 6 0.000000 0.000000 0.000000 0.002353 0.000000 0.052709
#
#
# Mechanical properties :
#
#
# Convention : Reuss Voigt Hill
#
# Bulk Modulus (GPa) = 63.76838 70.03577 66.90207
# Shear Modulus (GPa) = 27.87483 30.88369 29.37926
#
# Velocity S-wave (km/s) = 3.75344 3.95083 3.85340
# Velocity P-wave (km/s) = 7.14240 7.49727 7.32199
#
# Compressibility (1/GPa) = 0.01568175
#
# Stress axis : x y z
#
# Youngs Moduli (GPa) = 66.88880 105.66327 119.84524
#
# Poissons Ratio (x) = 0.25698 0.46266
# Poissons Ratio (y) = 0.16268 0.26915
# Poissons Ratio (z) = 0.25822 0.23730
#
# Static dielectric constant tensor:
#      x y z
#    x 3.414200 0.000000 0.044470 
#    y 0.000000 3.736870 0.000000 
#    z 0.044470 0.000000 3.955810 
# 
# 
# High freq. dielectric constant tensor:
#      x y z
#    x 1.754200 0.000000 0.001930 
#    y 0.000000 1.775780 0.000000 
#    z 0.001930 0.000000 1.799320 
# 
# From -- ./inp_files/169907.got.cif
#   From: 2010.06.25/outbox.cif.g09.slc.cpg/sg12_85_cif.got.tgz:169907.got - 2010.06.28 00:19:55.
