data_PCOD8107521
_publ_section_title
;
Structure prediction by ZEFSAII (Michael W. Deem and Ramdas Pophale) SiO2 
 PCOD8107521
Probable space group: C 2/M
;
_chemical_formula_sum "Si O2"
_cell_formula_units_Z 56
_cell_length_a 15.015749
_cell_length_b 8.513942
_cell_length_c 24.038411
_cell_angle_alpha 90.000000
_cell_angle_beta 62.207293
_cell_angle_gamma 90.000000
_cell_volume 2718.630468
_symmetry_space_group_name_H-M "C 2/M"
_symmetry_group_IT_number 12
_symmetry_cell_setting 'monoclinic'
loop_
_space_group_symop_operation_xyz
x,y,z
-x,y,-z
-x,-y,-z
x,-y,z
1/2+x,1/2+y,z
1/2-x,1/2+y,-z
1/2-x,1/2-y,-z
1/2+x,1/2-y,z
loop_
_atom_site_type_symbol
_atom_site_label
_atom_site_fract_x
_atom_site_fract_y
_atom_site_fract_z
Si Si1 0.326118 0.677109 0.194345
Si Si2 0.178684 0.816965 0.589888
Si Si3 0.163956 0.816871 0.063991
Si Si4 0.528121 0.816683 0.930707
Si Si5 0.900835 0.314560 0.496321
Si Si6 0.862766 0.320682 0.815603
Si Si7 0.585760 0.818461 0.725043
O O1 0.357269 0.500000 0.201985
O O2 0.377585 0.722021 0.120707
O O3 0.206843 0.689961 0.218802
O O4 0.355538 0.796033 0.234307
O O5 0.103633 0.735872 0.567131
O O6 0.294643 0.754159 0.553634
O O7 0.138083 0.784834 0.662921
O O8 0.177614 0.000000 0.577125
O O9 0.186955 0.788333 0.122167
O O10 0.064125 0.716317 0.083096
O O11 0.148710 0.000000 0.055894
O O12 0.250000 0.750000 0.000000
O O13 0.554540 0.000000 0.925095
O O14 0.500000 0.752657 0.000000
O O15 0.908270 0.500000 0.497661
O O16 0.000000 0.244574 0.500000
O O17 0.869509 0.500000 0.835309
O O18 0.972039 0.258067 0.766000
O O19 0.589497 0.000000 0.706543
#
# Coordination Sequence:
#
# PCOD8107521 Si02
#       7
#     8   8   8   8   8   8   8
#     4  11  23  40  62  88 116 153 200 253 306 363
#     4  10  21  37  60  91 125 160 204 257 300 354
#     4  12  24  38  60  86 116 152 195 250 306 367
#     4  11  23  39  59  85 117 152 194 246 307 372
#     4   9  19  38  63  90 124 165 206 248 301 361
#     4  10  23  42  62  85 118 156 199 249 306 368
#     4  11  23  41  63  86 123 168 205 249 304 370
#
# _framework density 20.598607000000001
#
# number of rings (size 3 to 8) (size 9 to 14) (size 15 to 20)
#    0.000    1.429    1.429    3.857    0.000    7.143 
#    0.000    5.714    0.000    0.000    0.000    0.000 
#    0.000    0.000    0.000    0.000    0.000    0.000 
#
# Total GULP energy -347251.494230 kJ/mol
# GULP energy per Si atom -12401.839080 kJ/mol
# Density = 2.055172 g / cm^3
# Si number density = 20.598607 Si / 1000 Ang^3
#
#
#
# Elastic Constant Matrix: (Units=GPa)
#
#
# Indices 1 2 3 4 5 6 
#
# 1 137.5995 19.4052 44.2712 0.0000 -0.0397 0.0000
# 2 19.4052 41.2104 14.5078 0.0000 -4.8849 0.0001
# 3 44.2712 14.5078 115.9810 0.0000 -1.1496 0.0000
# 4 0.0000 0.0000 0.0000 34.6503 0.0000 4.2515
# 5 -0.0397 -4.8849 -1.1496 0.0000 23.8554 0.0000
# 6 0.0000 0.0001 0.0000 4.2515 0.0000 26.7188
#
#
#
# Elastic Compliance Matrix: (Units=1/GPa)
#
#
# Indices 1 2 3 4 5 6 
#
# 1 0.008648 -0.003137 -0.002916 0.000000 -0.000768 0.000000
# 2 -0.003137 0.027143 -0.002144 0.000000 0.005450 0.000000
# 3 -0.002916 -0.002144 0.010004 0.000000 0.000038 0.000000
# 4 0.000000 0.000000 0.000000 0.029434 0.000000 -0.004684
# 5 -0.000768 0.005450 0.000038 0.000000 0.043036 0.000000
# 6 0.000000 0.000000 0.000000 -0.004684 0.000000 0.038172
#
#
# Mechanical properties :
#
#
# Convention : Reuss Voigt Hill
#
# Bulk Modulus (GPa) = 34.01191 50.12879 42.07035
# Shear Modulus (GPa) = 27.37751 31.48534 29.43143
#
# Velocity S-wave (km/s) = 3.64963 3.91387 3.78406
# Velocity P-wave (km/s) = 5.85725 6.69428 6.28970
#
# Compressibility (1/GPa) = 0.02940146
#
# Stress axis : x y z
#
# Youngs Moduli (GPa) = 115.63559 36.84128 99.96163
#
# Poissons Ratio (x) = 0.11555 0.29151
# Poissons Ratio (y) = 0.36270 0.21432
# Poissons Ratio (z) = 0.33722 0.07899
#
# Static dielectric constant tensor:
#      x y z
#    x 3.844250 0.000000 -0.018760 
#    y 0.000000 3.504040 0.000000 
#    z -0.018760 0.000000 3.541470 
# 
# 
# High freq. dielectric constant tensor:
#      x y z
#    x 1.814960 0.000000 -0.001380 
#    y 0.000000 1.801760 0.000000 
#    z -0.001380 0.000000 1.798280 
# 
# From -- ./inp_files/338508.got.cif
#   From: 2010.06.25/outbox.cif.g09.slc.cpg/sg12_170_cif.got.tgz:338508.got - 2010.06.28 00:19:55.
