data_PCOD8107905
_publ_section_title
;
Structure prediction by ZEFSAII (Michael W. Deem and Ramdas Pophale) SiO2 
 PCOD8107905
Probable space group: C 2/M
;
_chemical_formula_sum "Si O2"
_cell_formula_units_Z 48
_cell_length_a 21.686861
_cell_length_b 17.648598
_cell_length_c 18.526869
_cell_angle_alpha 90.000000
_cell_angle_beta 18.783867
_cell_angle_gamma 90.000000
_cell_volume 2283.303470
_symmetry_space_group_name_H-M "C 2/M"
_symmetry_group_IT_number 12
_symmetry_cell_setting 'monoclinic'
loop_
_space_group_symop_operation_xyz
x,y,z
-x,y,-z
-x,-y,-z
x,-y,z
1/2+x,1/2+y,z
1/2-x,1/2+y,-z
1/2-x,1/2-y,-z
1/2+x,1/2-y,z
loop_
_atom_site_type_symbol
_atom_site_label
_atom_site_fract_x
_atom_site_fract_y
_atom_site_fract_z
Si Si1 0.638165 0.327308 0.133544
Si Si2 0.960682 0.412186 0.843794
Si Si3 0.814767 0.286628 0.666873
Si Si4 0.795521 0.701135 0.342365
Si Si5 0.972376 0.843760 0.894726
Si Si6 0.165867 0.584418 0.465423
O O1 0.423106 0.313206 0.395879
O O2 0.638012 0.369039 0.055446
O O3 0.750000 0.250000 0.000000
O O4 0.745429 0.379293 0.073946
O O5 0.950680 0.500000 0.875152
O O6 0.074748 0.371713 0.782773
O O7 0.064981 0.396231 0.652675
O O8 0.704732 0.222036 0.742941
O O9 0.894963 0.354182 0.526769
O O10 0.000000 0.250266 0.500000
O O11 0.671283 0.320462 0.883744
O O12 0.886772 0.773294 0.282836
O O13 0.104384 0.912051 0.776871
O O14 0.111877 0.500000 0.498651
#
# Coordination Sequence:
#
# PCOD8107905 Si02
#       6
#     8   8   8   8   8   8
#     4  12  21  36  66  93 122 161 208 259 306 361
#     4  11  24  40  62  95 126 161 208 255 311 371
#     4  11  24  38  60  94 122 161 213 250 301 368
#     4  11  22  40  64  88 125 163 202 259 309 355
#     4  11  21  38  61  92 125 162 207 249 302 366
#     4  10  21  38  58  86 130 170 201 244 301 365
#
# _framework density 21.022172000000001
#
# number of rings (size 3 to 8) (size 9 to 14) (size 15 to 20)
#    0.000    1.000    3.333    6.500    0.000    3.000 
#    0.000    0.000    0.000    2.500    0.000    0.000 
#    0.000    0.000    0.000    0.000    0.000    0.000 
#
# Total GULP energy -297540.228789 kJ/mol
# GULP energy per Si atom -12397.509533 kJ/mol
# Density = 2.097432 g / cm^3
# Si number density = 21.022172 Si / 1000 Ang^3
#
#
#
# Elastic Constant Matrix: (Units=GPa)
#
#
# Indices 1 2 3 4 5 6 
#
# 1 97.2183 29.1622 19.4561 0.0106 -22.9995 0.0252
# 2 29.1622 103.8099 8.2328 0.0217 -14.0916 0.0075
# 3 19.4561 8.2328 51.6791 -0.0013 -10.1730 -0.0023
# 4 0.0106 0.0217 -0.0013 21.3192 -0.0125 -4.7273
# 5 -22.9995 -14.0916 -10.1730 -0.0125 39.9052 -0.0021
# 6 0.0252 0.0075 -0.0023 -4.7273 -0.0021 19.4607
#
#
#
# Elastic Compliance Matrix: (Units=1/GPa)
#
#
# Indices 1 2 3 4 5 6 
#
# 1 0.013118 -0.002634 -0.003384 -0.000004 0.005768 -0.000017
# 2 -0.002634 0.010692 -0.000281 -0.000009 0.002186 -0.000003
# 3 -0.003384 -0.000281 0.021336 0.000007 0.003390 0.000009
# 4 -0.000004 -0.000009 0.000007 0.049577 0.000012 0.012043
# 5 0.005768 0.002186 0.003390 0.000012 0.030020 -0.000002
# 6 -0.000017 -0.000003 0.000009 0.012043 -0.000002 0.054311
#
#
# Mechanical properties :
#
#
# Convention : Reuss Voigt Hill
#
# Bulk Modulus (GPa) = 30.72362 40.71216 35.71789
# Shear Modulus (GPa) = 24.69131 29.19409 26.94270
#
# Velocity S-wave (km/s) = 3.43087 3.73061 3.58387
# Velocity P-wave (km/s) = 5.50827 6.16157 5.84406
#
# Compressibility (1/GPa) = 0.03254825
#
# Stress axis : x y z
#
# Youngs Moduli (GPa) = 76.23178 93.52866 46.86888
#
# Poissons Ratio (x) = 0.24633 0.15859
# Poissons Ratio (y) = 0.20078 0.01319
# Poissons Ratio (z) = 0.25794 0.02632
#
# Static dielectric constant tensor:
#      x y z
#    x 4.672540 0.006640 -0.349280 
#    y 0.006640 3.788720 -0.000110 
#    z -0.349280 -0.000110 3.969670 
# 
# 
# High freq. dielectric constant tensor:
#      x y z
#    x 1.828770 -0.000010 -0.018310 
#    y -0.000010 1.791740 0.000010 
#    z -0.018310 0.000010 1.830690 
# 
# From -- ./inp_files/285362.got.cif
#   From: 2010.06.25/outbox.cif.g09.slc.cpg/sg12_143_cif.got.tgz:285362.got - 2010.06.28 00:19:55.
