data_PCOD8107310
_publ_section_title
;
Structure prediction by ZEFSAII (Michael W. Deem and Ramdas Pophale) SiO2 
 PCOD8107310
Probable space group: C 2/M
;
_chemical_formula_sum "Si O2"
_cell_formula_units_Z 64
_cell_length_a 30.733586
_cell_length_b 8.617978
_cell_length_c 11.915489
_cell_angle_alpha 90.000000
_cell_angle_beta 88.999485
_cell_angle_gamma 90.000000
_cell_volume 3155.471555
_symmetry_space_group_name_H-M "C 2/M"
_symmetry_group_IT_number 12
_symmetry_cell_setting 'monoclinic'
loop_
_space_group_symop_operation_xyz
x,y,z
-x,y,-z
-x,-y,-z
x,-y,z
1/2+x,1/2+y,z
1/2-x,1/2+y,-z
1/2-x,1/2-y,-z
1/2+x,1/2-y,z
loop_
_atom_site_type_symbol
_atom_site_label
_atom_site_fract_x
_atom_site_fract_y
_atom_site_fract_z
Si Si1 0.676802 0.320173 0.005326
Si Si2 0.923747 0.180255 0.998946
Si Si3 0.701348 0.818021 0.237202
Si Si4 0.452897 0.682665 0.753587
Si Si5 0.621319 0.183973 0.389915
Si Si6 0.543888 0.182477 0.781629
Si Si7 0.372708 0.815769 0.358177
Si Si8 0.791080 0.317141 0.219643
O O1 0.684974 0.500000 0.034318
O O2 0.690508 0.216404 0.109113
O O3 0.626840 0.287463 0.977364
O O4 0.705860 0.270240 0.899070
O O5 0.951618 0.275298 0.087758
O O6 0.935692 0.000000 0.011525
O O7 0.936628 0.242473 0.875627
O O8 0.662033 0.754483 0.315639
O O9 0.744685 0.727974 0.274867
O O10 0.708600 0.000000 0.253868
O O11 0.448390 0.500000 0.745845
O O12 0.423684 0.756450 0.658402
O O13 0.502194 0.734429 0.730219
O O14 0.625903 0.250025 0.515681
O O15 0.620377 0.000000 0.389416
O O16 0.585709 0.246406 0.712408
O O17 0.538246 0.000000 0.768287
O O18 0.328740 0.755999 0.300823
O O19 0.373186 0.000000 0.359356
O O20 0.794806 0.500000 0.199342
#
# Coordination Sequence:
#
# PCOD8107310 Si02
#       8
#     8   8   8   8   8   8   8   8
#     4  11  21  37  61  88 120 156 193 236 294 351
#     4  10  21  37  59  86 121 156 187 236 298 351
#     4  11  23  38  60  90 120 152 195 243 292 348
#     4  11  23  40  60  88 123 155 192 239 298 349
#     4  10  22  42  64  84 113 155 202 245 288 344
#     4  11  22  38  62  90 119 154 198 239 287 349
#     4   9  21  41  62  85 115 154 198 245 291 341
#     4  11  22  39  62  88 120 156 195 239 293 350
#
# _framework density 20.282230999999999
#
# number of rings (size 3 to 8) (size 9 to 14) (size 15 to 20)
#    0.000    1.500    2.500    2.625    0.000    4.500 
#    0.000    5.000    0.000    0.000    0.000    0.000 
#    0.000    0.000    0.000    0.000    0.000    0.000 
#
# Total GULP energy -396994.884322 kJ/mol
# GULP energy per Si atom -12406.090135 kJ/mol
# Density = 2.023607 g / cm^3
# Si number density = 20.282231 Si / 1000 Ang^3
#
#
#
# Elastic Constant Matrix: (Units=GPa)
#
#
# Indices 1 2 3 4 5 6 
#
# 1 118.2593 16.9348 47.9063 0.0000 4.2260 0.0000
# 2 16.9348 26.6238 13.9454 0.0000 0.4956 0.0000
# 3 47.9063 13.9454 130.7618 0.0000 12.8026 0.0000
# 4 0.0000 0.0000 0.0000 16.1913 0.0000 0.5050
# 5 4.2260 0.4956 12.8026 0.0000 16.1378 0.0000
# 6 0.0000 0.0000 0.0000 0.5050 0.0000 34.4279
#
#
#
# Elastic Compliance Matrix: (Units=1/GPa)
#
#
# Indices 1 2 3 4 5 6 
#
# 1 0.010510 -0.004943 -0.003327 0.000000 0.000039 0.000000
# 2 -0.004943 0.042188 -0.002915 0.000000 0.002311 0.000000
# 3 -0.003327 -0.002915 0.009848 0.000000 -0.006852 0.000000
# 4 0.000000 0.000000 0.000000 0.061790 0.000000 -0.000906
# 5 0.000039 0.002311 -0.006852 0.000000 0.067321 0.000000
# 6 0.000000 0.000000 0.000000 -0.000906 0.000000 0.029059
#
#
# Mechanical properties :
#
#
# Convention : Reuss Voigt Hill
#
# Bulk Modulus (GPa) = 24.89008 48.13533 36.51271
# Shear Modulus (GPa) = 19.49474 26.47531 22.98502
#
# Velocity S-wave (km/s) = 3.10364 3.61688 3.37004
# Velocity P-wave (km/s) = 5.01418 6.42080 5.76058
#
# Compressibility (1/GPa) = 0.04017665
#
# Stress axis : x y z
#
# Youngs Moduli (GPa) = 95.14453 23.70327 101.54177
#
# Poissons Ratio (x) = 0.11717 0.33785
# Poissons Ratio (y) = 0.47033 0.29594
# Poissons Ratio (z) = 0.31657 0.06908
#
# Static dielectric constant tensor:
#      x y z
#    x 3.890270 0.000000 -0.059540 
#    y 0.000000 3.450010 0.000000 
#    z -0.059540 0.000000 3.734580 
# 
# 
# High freq. dielectric constant tensor:
#      x y z
#    x 1.810210 0.000000 0.001840 
#    y 0.000000 1.779030 0.000000 
#    z 0.001840 0.000000 1.787430 
# 
# From -- ./inp_files/187594.got.cif
#   From: 2010.06.25/outbox.cif.g09.slc.cpg/sg12_94_cif.got.tgz:187594.got - 2010.06.28 00:19:55.
