data_PCOD8107775
_publ_section_title
;
Structure prediction by ZEFSAII (Michael W. Deem and Ramdas Pophale) SiO2 
 PCOD8107775
Probable space group: C 2/M
;
_chemical_formula_sum "Si O2"
_cell_formula_units_Z 64
_cell_length_a 14.471704
_cell_length_b 9.010962
_cell_length_c 27.260171
_cell_angle_alpha 90.000000
_cell_angle_beta 108.921642
_cell_angle_gamma 90.000000
_cell_volume 3362.741839
_symmetry_space_group_name_H-M "C 2/M"
_symmetry_group_IT_number 12
_symmetry_cell_setting 'monoclinic'
loop_
_space_group_symop_operation_xyz
x,y,z
-x,y,-z
-x,-y,-z
x,-y,z
1/2+x,1/2+y,z
1/2-x,1/2+y,-z
1/2-x,1/2-y,-z
1/2+x,1/2-y,z
loop_
_atom_site_type_symbol
_atom_site_label
_atom_site_fract_x
_atom_site_fract_y
_atom_site_fract_z
Si Si1 0.279466 0.674565 0.858072
Si Si2 0.531297 0.331874 0.388306
Si Si3 0.860435 0.324998 0.673254
Si Si4 0.124075 0.326131 0.213016
Si Si5 0.422359 0.174430 0.129263
Si Si6 0.519180 0.674359 0.058141
Si Si7 0.342231 0.332708 0.408787
Si Si8 0.352508 0.823944 0.507439
O O1 0.272715 0.500000 0.848887
O O2 0.296760 0.747092 0.807984
O O3 0.178463 0.734730 0.864270
O O4 0.369991 0.718640 0.908706
O O5 0.572464 0.500000 0.397811
O O6 0.552298 0.259733 0.339183
O O7 0.414679 0.330431 0.374922
O O8 0.573838 0.233543 0.439256
O O9 0.879143 0.500000 0.673954
O O10 0.856998 0.270492 0.728590
O O11 0.762005 0.277055 0.628407
O O12 0.141524 0.500000 0.210663
O O13 0.012875 0.283247 0.180061
O O14 0.439610 0.249241 0.079552
O O15 0.414975 0.000000 0.119311
O O16 0.502572 0.500000 0.059708
O O17 0.500000 0.731834 0.000000
O O18 0.333546 0.500000 0.428562
O O19 0.384523 0.226068 0.458502
O O20 0.250000 0.750000 0.500000
O O21 0.346893 0.000000 0.509402
#
# Coordination Sequence:
#
# PCOD8107775 Si02
#       8
#     8   8   8   8   8   8   8   8
#     4   9  18  33  52  74 102 138 175 216 268 313
#     4  11  23  38  57  82 109 139 175 215 261 314
#     4  10  21  38  57  77 106 141 173 214 266 315
#     4   9  19  35  54  76 102 135 176 218 262 309
#     4   9  18  33  52  75 104 137 176 219 262 312
#     4   9  18  32  49  73 106 140 176 217 261 314
#     4  10  22  39  57  79 109 141 173 213 262 314
#     4  12  23  37  59  83 108 140 176 214 260 314
#
# _framework density 19.032088000000002
#
# number of rings (size 3 to 8) (size 9 to 14) (size 15 to 20)
#    0.000    2.125    1.250    1.875    0.000    5.250 
#    0.000    0.000    0.000    0.000    0.000    0.000 
#    0.000    0.000    0.000    0.000    0.000    0.000 
#
# Total GULP energy -396838.474662 kJ/mol
# GULP energy per Si atom -12401.202333 kJ/mol
# Density = 1.898877 g / cm^3
# Si number density = 19.032088 Si / 1000 Ang^3
#
#
#
# Elastic Constant Matrix: (Units=GPa)
#
#
# Indices 1 2 3 4 5 6 
#
# 1 105.4244 33.0216 44.6030 0.0000 -31.6516 0.0000
# 2 33.0216 68.1540 47.0708 0.0000 -10.9910 0.0000
# 3 44.6030 47.0708 140.9749 0.0000 -24.6025 0.0000
# 4 0.0000 0.0000 0.0000 31.7631 0.0000 -8.6979
# 5 -31.6516 -10.9910 -24.6025 0.0000 26.9379 0.0000
# 6 0.0000 0.0000 0.0000 -8.6979 0.0000 26.4540
#
#
#
# Elastic Compliance Matrix: (Units=1/GPa)
#
#
# Indices 1 2 3 4 5 6 
#
# 1 0.016202 -0.004728 -0.000668 0.000000 0.016498 0.000000
# 2 -0.004728 0.020575 -0.005803 0.000000 -0.002461 0.000000
# 3 -0.000668 -0.005803 0.010341 0.000000 0.006291 0.000000
# 4 0.000000 0.000000 0.000000 0.034598 0.000000 0.011376
# 5 0.016498 -0.002461 0.006291 0.000000 0.061249 0.000000
# 6 0.000000 0.000000 0.000000 0.011376 0.000000 0.041542
#
#
# Mechanical properties :
#
#
# Convention : Reuss Voigt Hill
#
# Bulk Modulus (GPa) = 40.45634 62.66046 51.55840
# Shear Modulus (GPa) = 23.24010 29.68818 26.46414
#
# Velocity S-wave (km/s) = 3.49822 3.95384 3.73299
# Velocity P-wave (km/s) = 6.13349 7.33750 6.76235
#
# Compressibility (1/GPa) = 0.02471801
#
# Stress axis : x y z
#
# Youngs Moduli (GPa) = 61.71912 48.60336 96.70705
#
# Poissons Ratio (x) = 0.22980 0.06464
# Poissons Ratio (y) = 0.29181 0.56122
# Poissons Ratio (z) = 0.04125 0.28206
#
# Static dielectric constant tensor:
#      x y z
#    x 3.684010 0.000000 -0.085770 
#    y 0.000000 3.453090 0.000000 
#    z -0.085770 0.000000 3.562370 
# 
# 
# High freq. dielectric constant tensor:
#      x y z
#    x 1.744340 0.000000 -0.010920 
#    y 0.000000 1.733100 0.000000 
#    z -0.010920 0.000000 1.736120 
# 
# From -- ./inp_files/338875.got.cif
#   From: 2010.06.25/outbox.cif.g09.slc.cpg/sg12_170_cif.got.tgz:338875.got - 2010.06.28 00:19:55.
