data_PCOD8107192
_publ_section_title
;
Structure prediction by ZEFSAII (Michael W. Deem and Ramdas Pophale) SiO2 
 PCOD8107192
Probable space group: C 2/M
;
_chemical_formula_sum "Si O2"
_cell_formula_units_Z 40
_cell_length_a 27.236751
_cell_length_b 8.819075
_cell_length_c 18.523284
_cell_angle_alpha 90.000000
_cell_angle_beta 153.052156
_cell_angle_gamma 90.000000
_cell_volume 2016.351872
_symmetry_space_group_name_H-M "C 2/M"
_symmetry_group_IT_number 12
_symmetry_cell_setting 'monoclinic'
loop_
_space_group_symop_operation_xyz
x,y,z
-x,y,-z
-x,-y,-z
x,-y,z
1/2+x,1/2+y,z
1/2-x,1/2+y,-z
1/2-x,1/2-y,-z
1/2+x,1/2-y,z
loop_
_atom_site_type_symbol
_atom_site_label
_atom_site_fract_x
_atom_site_fract_y
_atom_site_fract_z
Si Si1 0.931559 0.324162 0.572091
Si Si2 0.470438 0.176781 0.042672
Si Si3 0.746073 0.824084 0.781780
Si Si4 0.635731 0.321754 0.368663
Si Si5 0.168865 0.678264 0.837389
O O1 0.934299 0.500000 0.598756
O O2 0.845928 0.294798 0.397273
O O3 0.900882 0.223861 0.599926
O O4 0.047376 0.267865 0.695004
O O5 0.546611 0.271507 0.194698
O O6 0.487840 0.000000 0.081195
O O7 0.500000 0.219734 0.000000
O O8 0.346914 0.219857 0.894524
O O9 0.699728 0.769328 0.797615
O O10 0.781411 0.000000 0.829820
O O11 0.648996 0.500000 0.381903
O O12 0.750000 0.250000 0.500000
O O13 0.177890 0.500000 0.856265
O O14 0.250000 0.750000 0.000000
#
# Coordination Sequence:
#
# PCOD8107192 Si02
#       5
#     8   8   8   8   8
#     4  10  21  39  62  87 119 157 196 241 293 346
#     4  11  24  41  61  87 119 154 195 243 293 347
#     4  10  21  38  61  88 118 155 198 242 291 348
#     4  12  25  41  62  88 119 154 195 241 291 349
#     4  10  21  37  58  86 119 156 197 241 290 345
#
# _framework density 19.837806
#
# number of rings (size 3 to 8) (size 9 to 14) (size 15 to 20)
#    0.000    1.400    0.000    5.400    0.000   12.800 
#    0.000    0.000    0.000    3.600    0.000    0.000 
#    0.000    0.000    0.000    0.000    0.000    0.000 
#
# Total GULP energy -248121.796763 kJ/mol
# GULP energy per Si atom -12406.089838 kJ/mol
# Density = 1.979265 g / cm^3
# Si number density = 19.837806 Si / 1000 Ang^3
#
#
#
# Elastic Constant Matrix: (Units=GPa)
#
#
# Indices 1 2 3 4 5 6 
#
# 1 184.0225 69.1580 77.6521 0.0000 4.6472 0.0000
# 2 69.1580 85.5216 51.5089 0.0000 -1.6874 0.0000
# 3 77.6521 51.5089 147.3624 0.0000 6.1843 0.0000
# 4 0.0000 0.0000 0.0000 31.2066 0.0000 3.3469
# 5 4.6472 -1.6874 6.1843 0.0000 44.8595 0.0000
# 6 0.0000 0.0000 0.0000 3.3469 0.0000 21.5466
#
#
#
# Elastic Compliance Matrix: (Units=1/GPa)
#
#
# Indices 1 2 3 4 5 6 
#
# 1 0.008574 -0.005377 -0.002608 0.000000 -0.000731 0.000000
# 2 -0.005377 0.018256 -0.003621 0.000000 0.001743 0.000000
# 3 -0.002608 -0.003621 0.009475 0.000000 -0.001172 0.000000
# 4 0.000000 0.000000 0.000000 0.032587 0.000000 -0.005062
# 5 -0.000731 0.001743 -0.001172 0.000000 0.022595 0.000000
# 6 0.000000 0.000000 0.000000 -0.005062 0.000000 0.047197
#
#
# Mechanical properties :
#
#
# Convention : Reuss Voigt Hill
#
# Bulk Modulus (GPa) = 76.37365 90.39383 83.38374
# Shear Modulus (GPa) = 30.07320 34.09503 32.08412
#
# Velocity S-wave (km/s) = 3.89775 4.15021 4.02596
# Velocity P-wave (km/s) = 7.67067 8.28438 7.98343
#
# Compressibility (1/GPa) = 0.01309352
#
# Stress axis : x y z
#
# Youngs Moduli (GPa) = 116.63538 54.77503 105.54046
#
# Poissons Ratio (x) = 0.29453 0.27522
# Poissons Ratio (y) = 0.62715 0.38217
# Poissons Ratio (z) = 0.30415 0.19835
#
# Static dielectric constant tensor:
#      x y z
#    x 3.954530 0.000000 0.116900 
#    y 0.000000 3.591860 0.000000 
#    z 0.116900 0.000000 3.842190 
# 
# 
# High freq. dielectric constant tensor:
#      x y z
#    x 1.795160 0.000000 0.000570 
#    y 0.000000 1.769380 0.000000 
#    z 0.000570 0.000000 1.793800 
# 
# From -- ./inp_files/151670.got.cif
#   From: 2010.06.25/outbox.cif.g09.slc.cpg/sg12_76_cif.got.tgz:151670.got - 2010.06.28 00:19:55.
