data_PCOD8107952
_publ_section_title
;
Structure prediction by ZEFSAII (Michael W. Deem and Ramdas Pophale) SiO2 
 PCOD8107952
Probable space group: C 2/M
;
_chemical_formula_sum "Si O2"
_cell_formula_units_Z 40
_cell_length_a 9.262464
_cell_length_b 27.304540
_cell_length_c 15.661849
_cell_angle_alpha 90.000000
_cell_angle_beta 30.020768
_cell_angle_gamma 90.000000
_cell_volume 1981.741378
_symmetry_space_group_name_H-M "C 2/M"
_symmetry_group_IT_number 12
_symmetry_cell_setting 'monoclinic'
loop_
_space_group_symop_operation_xyz
x,y,z
-x,y,-z
-x,-y,-z
x,-y,z
1/2+x,1/2+y,z
1/2-x,1/2+y,-z
1/2-x,1/2-y,-z
1/2+x,1/2-y,z
loop_
_atom_site_type_symbol
_atom_site_label
_atom_site_fract_x
_atom_site_fract_y
_atom_site_fract_z
Si Si1 0.063263 0.689862 0.646390
Si Si2 0.904794 0.000000 0.642661
Si Si3 0.000000 0.734648 0.500000
Si Si4 0.000000 0.152641 0.000000
Si Si5 0.384536 0.588867 0.220216
Si Si6 0.261002 0.594176 0.468670
Si Si7 0.187253 0.500000 0.988940
O O1 0.934701 0.702091 0.617441
O O2 0.234027 0.732130 0.606663
O O3 0.260146 0.640473 0.534858
O O4 0.792207 0.683886 0.848116
O O5 0.556377 0.000000 0.813593
O O6 0.000000 0.000000 0.500000
O O7 0.017055 0.949743 0.627079
O O8 0.988265 0.122669 0.918376
O O9 0.357505 0.615339 0.326511
O O10 0.060418 0.570812 0.363714
O O11 0.606237 0.545437 0.111831
O O12 0.000000 0.500000 0.000000
#
# Coordination Sequence:
#
# PCOD8107952 Si02
#       7
#     8   4   4   4   8   8   4
#     4  10  22  40  65  91 122 157 204 251 306 365
#     4  12  27  37  58  91 125 159 205 245 299 350
#     4  10  22  42  64  90 120 160 198 252 314 368
#     4  10  22  37  64  90 114 154 202 251 296 368
#     4  10  21  38  59  82 120 163 206 237 300 353
#     4  10  21  42  62  84 123 168 195 242 300 368
#     4  12  23  38  53  85 125 159 207 256 287 340
#
# _framework density 20.184269
#
# number of rings (size 3 to 8) (size 9 to 14) (size 15 to 20)
#    0.000    1.600    2.000    3.000    7.000    2.800 
#    0.000    0.000    0.000    0.000    0.000    0.000 
#    0.000    0.000    0.000    0.000    0.000    0.000 
#
# Total GULP energy -247765.664145 kJ/mol
# GULP energy per Si atom -12388.283207 kJ/mol
# Density = 2.013833 g / cm^3
# Si number density = 20.184269 Si / 1000 Ang^3
#
#
#
# Elastic Constant Matrix: (Units=GPa)
#
#
# Indices 1 2 3 4 5 6 
#
# 1 75.7853 17.5970 32.9032 0.0000 13.3985 0.0000
# 2 17.5970 69.8362 34.0250 0.0000 1.5288 0.0000
# 3 32.9032 34.0250 152.1055 0.0000 17.8694 0.0000
# 4 0.0000 0.0000 0.0000 25.1549 0.0000 -10.0135
# 5 13.3985 1.5288 17.8694 0.0000 32.3510 0.0000
# 6 0.0000 0.0000 0.0000 -10.0135 0.0000 29.8474
#
#
#
# Elastic Compliance Matrix: (Units=1/GPa)
#
#
# Indices 1 2 3 4 5 6 
#
# 1 0.015697 -0.002788 -0.002164 0.000000 -0.005174 0.000000
# 2 -0.002788 0.016618 -0.003377 0.000000 0.002234 0.000000
# 3 -0.002164 -0.003377 0.008206 0.000000 -0.003477 0.000000
# 4 0.000000 0.000000 0.000000 0.045881 0.000000 0.015393
# 5 -0.005174 0.002234 -0.003477 0.000000 0.034869 0.000000
# 6 0.000000 0.000000 0.000000 0.015393 0.000000 0.038668
#
#
# Mechanical properties :
#
#
# Convention : Reuss Voigt Hill
#
# Bulk Modulus (GPa) = 41.90402 51.86417 46.88410
# Shear Modulus (GPa) = 27.09287 31.68412 29.38849
#
# Velocity S-wave (km/s) = 3.66768 3.96630 3.81991
# Velocity P-wave (km/s) = 6.22428 6.83568 6.53713
#
# Compressibility (1/GPa) = 0.02386406
#
# Stress axis : x y z
#
# Youngs Moduli (GPa) = 63.70761 60.17595 121.85647
#
# Poissons Ratio (x) = 0.16774 0.26371
# Poissons Ratio (y) = 0.17759 0.41149
# Poissons Ratio (z) = 0.13787 0.20320
#
# Static dielectric constant tensor:
#      x y z
#    x 3.542110 0.000000 0.320440 
#    y 0.000000 5.192330 0.000000 
#    z 0.320440 0.000000 4.100750 
# 
# 
# High freq. dielectric constant tensor:
#      x y z
#    x 1.784690 0.000000 0.010280 
#    y 0.000000 1.783520 0.000000 
#    z 0.010280 0.000000 1.804460 
# 
# From -- ./inp_files/68795.got.cif
#   From: 2010.06.25/outbox.cif.g09.slc.cpg/sg12_35_cif.got.tgz:68795.got - 2010.06.28 00:19:55.
