data_PCOD8107682
_publ_section_title
;
Structure prediction by ZEFSAII (Michael W. Deem and Ramdas Pophale) SiO2 
 PCOD8107682
Probable space group: C 2/M
;
_chemical_formula_sum "Si O2"
_cell_formula_units_Z 36
_cell_length_a 8.539014
_cell_length_b 18.376292
_cell_length_c 10.900889
_cell_angle_alpha 90.000000
_cell_angle_beta 76.520102
_cell_angle_gamma 90.000000
_cell_volume 1663.395777
_symmetry_space_group_name_H-M "C 2/M"
_symmetry_group_IT_number 12
_symmetry_cell_setting 'monoclinic'
loop_
_space_group_symop_operation_xyz
x,y,z
-x,y,-z
-x,-y,-z
x,-y,z
1/2+x,1/2+y,z
1/2-x,1/2+y,-z
1/2-x,1/2-y,-z
1/2+x,1/2-y,z
loop_
_atom_site_type_symbol
_atom_site_label
_atom_site_fract_x
_atom_site_fract_y
_atom_site_fract_z
Si Si1 0.612881 0.079583 0.718126
Si Si2 0.343005 0.580427 0.456410
Si Si3 0.880738 0.317963 0.636767
Si Si4 0.707826 0.690551 0.171353
Si Si5 0.000000 0.228666 0.000000
O O1 0.691302 0.070138 0.571662
O O2 0.462798 0.134285 0.729757
O O3 0.745567 0.111155 0.787330
O O4 0.555266 0.000000 0.775743
O O5 0.500000 0.609345 0.500000
O O6 0.379816 0.500000 0.391114
O O7 0.286379 0.641023 0.368679
O O8 0.834195 0.240855 0.703737
O O9 0.000000 0.304070 0.500000
O O10 0.856926 0.720098 0.068150
O O11 0.558239 0.680247 0.105214
#
# Coordination Sequence:
#
# PCOD8107682 Si02
#       5
#     8   8   8   8   4
#     4  10  21  38  60  89 125 160 195 244 305 367
#     4   9  19  33  54  89 131 161 189 241 310 365
#     4  10  21  37  63  94 123 158 199 244 302 369
#     4  11  22  42  64  90 117 163 204 256 290 366
#     4  10  24  42  64  82 122 160 212 246 308 332
#
# _framework density 21.642474
#
# number of rings (size 3 to 8) (size 9 to 14) (size 15 to 20)
#    0.000    2.000    2.222    0.667    3.111    7.111 
#    0.000    1.111    0.000    0.000    0.000    0.000 
#    0.000    0.000    0.000    0.000    0.000    0.000 
#
# Total GULP energy -223125.307906 kJ/mol
# GULP energy per Si atom -12395.850439 kJ/mol
# Density = 2.159321 g / cm^3
# Si number density = 21.642474 Si / 1000 Ang^3
#
#
#
# Elastic Constant Matrix: (Units=GPa)
#
#
# Indices 1 2 3 4 5 6 
#
# 1 109.8035 33.1189 21.1823 0.0000 29.7795 0.0000
# 2 33.1189 86.5047 31.0750 0.0000 17.9997 0.0000
# 3 21.1823 31.0750 64.7466 0.0000 13.2078 0.0000
# 4 0.0000 0.0000 0.0000 -10.5813 0.0000 -5.6890
# 5 29.7795 17.9997 13.2078 0.0000 42.9223 0.0000
# 6 0.0000 0.0000 0.0000 -5.6890 0.0000 22.8862
#
#
#
# Elastic Compliance Matrix: (Units=1/GPa)
#
#
# Indices 1 2 3 4 5 6 
#
# 1 0.012018 -0.002744 -0.001226 0.000000 -0.006810 0.000000
# 2 -0.002744 0.015287 -0.005890 0.000000 -0.002695 0.000000
# 3 -0.001226 -0.005890 0.019200 0.000000 -0.002588 0.000000
# 4 0.000000 0.000000 0.000000 -0.083365 0.000000 -0.020723
# 5 -0.006810 -0.002695 -0.002588 0.000000 0.029949 0.000000
# 6 0.000000 0.000000 0.000000 -0.020723 0.000000 0.038543
#
#
# Mechanical properties :
#
#
# Convention : Reuss Voigt Hill
#
# Bulk Modulus (GPa) = 37.33092 47.97859 42.65475
# Shear Modulus (GPa) = 82.94460 22.75734 52.85097
#
# Velocity S-wave (km/s) = 6.19743 3.24622 4.94702
# Velocity P-wave (km/s) = 8.27630 6.02225 7.23756
#
# Compressibility (1/GPa) = 0.02678745
#
# Stress axis : x y z
#
# Youngs Moduli (GPa) = 83.20666 65.41514 52.08210
#
# Poissons Ratio (x) = 0.17949 0.06384
# Poissons Ratio (y) = 0.22831 0.30674
# Poissons Ratio (z) = 0.10198 0.38527
#
# Static dielectric constant tensor:
#      x y z
#    x 4.272620 0.000000 0.264470 
#    y 0.000000 3.976740 0.000000 
#    z 0.264470 0.000000 3.778300 
# 
# 
# High freq. dielectric constant tensor:
#      x y z
#    x 1.866410 0.000000 0.008190 
#    y 0.000000 1.838350 0.000000 
#    z 0.008190 0.000000 1.817530 
# 
# From -- ./inp_files/118590.got.cif
#   From: 2010.06.25/outbox.cif.g09.slc.cpg/sg12_60_cif.got.tgz:118590.got - 2010.06.28 00:19:55.
