data_PCOD8107513
_publ_section_title
;
Structure prediction by ZEFSAII (Michael W. Deem and Ramdas Pophale) SiO2 
 PCOD8107513
Probable space group: C 2/M
;
_chemical_formula_sum "Si O2"
_cell_formula_units_Z 48
_cell_length_a 23.301683
_cell_length_b 11.486849
_cell_length_c 11.157364
_cell_angle_alpha 90.000000
_cell_angle_beta 53.088324
_cell_angle_gamma 90.000000
_cell_volume 2387.822853
_symmetry_space_group_name_H-M "C 2/M"
_symmetry_group_IT_number 12
_symmetry_cell_setting 'monoclinic'
loop_
_space_group_symop_operation_xyz
x,y,z
-x,y,-z
-x,-y,-z
x,-y,z
1/2+x,1/2+y,z
1/2-x,1/2+y,-z
1/2-x,1/2-y,-z
1/2+x,1/2-y,z
loop_
_atom_site_type_symbol
_atom_site_label
_atom_site_fract_x
_atom_site_fract_y
_atom_site_fract_z
Si Si1 0.648555 0.214783 0.700480
Si Si2 0.953517 0.500000 0.177672
Si Si3 0.224200 0.128369 0.147739
Si Si4 0.630264 0.206478 0.105285
Si Si5 0.960250 0.500000 0.682198
Si Si6 0.305284 0.629441 0.548591
Si Si7 0.425856 0.636368 0.022760
O O1 0.589238 0.117773 0.780914
O O2 0.641115 0.281034 0.582805
O O3 0.724299 0.152819 0.611571
O O4 0.638620 0.312897 0.815681
O O5 0.989923 0.500000 0.262501
O O6 0.000000 0.500000 0.000000
O O7 0.183823 0.217611 0.115727
O O8 0.185687 0.143734 0.322378
O O9 0.210321 0.000000 0.112862
O O10 0.311157 0.142559 0.053752
O O11 0.588156 0.116277 0.244044
O O12 0.574839 0.286996 0.099135
O O13 0.000000 0.500000 0.500000
O O14 0.326278 0.500000 0.480554
O O15 0.412859 0.500000 0.010379
O O16 0.500000 0.655762 0.000000
#
# Coordination Sequence:
#
# PCOD8107513 Si02
#       7
#     8   4   8   8   4   8   8
#     4  11  21  38  60  96 127 163 213 267 328 384
#     4  12  26  42  72  96 130 182 222 270 326 397
#     4  10  21  39  66  90 122 166 211 272 316 390
#     4  11  22  42  63  94 125 165 220 262 327 383
#     4  12  28  44  66  96 138 176 217 273 328 395
#     4  10  21  37  60  90 129 165 205 269 327 384
#     4  11  23  40  64  91 125 168 220 267 314 385
#
# _framework density 20.101994999999999
#
# number of rings (size 3 to 8) (size 9 to 14) (size 15 to 20)
#    0.000    1.167    3.333    3.500    2.333    0.000 
#    0.000    0.000    0.000    1.000    0.000    0.000 
#    0.000    0.000    0.000    0.000    0.000    0.000 
#
# Total GULP energy -297419.013230 kJ/mol
# GULP energy per Si atom -12392.458885 kJ/mol
# Density = 2.005624 g / cm^3
# Si number density = 20.101995 Si / 1000 Ang^3
#
#
#
# Elastic Constant Matrix: (Units=GPa)
#
#
# Indices 1 2 3 4 5 6 
#
# 1 78.9015 41.5085 27.5950 0.0000 5.2756 0.0000
# 2 41.5085 138.7695 75.0590 0.0000 4.7915 0.0000
# 3 27.5950 75.0590 117.3302 0.0000 3.6861 0.0000
# 4 0.0000 0.0000 0.0000 28.8006 0.0000 -0.9955
# 5 5.2756 4.7915 3.6861 0.0000 19.9365 0.0000
# 6 0.0000 0.0000 0.0000 -0.9955 0.0000 25.1052
#
#
#
# Elastic Compliance Matrix: (Units=1/GPa)
#
#
# Indices 1 2 3 4 5 6 
#
# 1 0.015285 -0.003940 -0.000983 0.000000 -0.002916 0.000000
# 2 -0.003940 0.012071 -0.006776 0.000000 -0.000606 0.000000
# 3 -0.000983 -0.006776 0.013106 0.000000 -0.000534 0.000000
# 4 0.000000 0.000000 0.000000 0.034769 0.000000 0.001379
# 5 -0.002916 -0.000606 -0.000534 0.000000 0.051175 0.000000
# 6 0.000000 0.000000 0.000000 0.001379 0.000000 0.039887
#
#
# Mechanical properties :
#
#
# Convention : Reuss Voigt Hill
#
# Bulk Modulus (GPa) = 58.60323 69.25848 63.93086
# Shear Modulus (GPa) = 25.59114 27.49104 26.54109
#
# Velocity S-wave (km/s) = 3.57187 3.70209 3.63756
# Velocity P-wave (km/s) = 6.79906 7.26652 7.03667
#
# Compressibility (1/GPa) = 0.01706391
#
# Stress axis : x y z
#
# Youngs Moduli (GPa) = 65.42171 82.84422 76.30109
#
# Poissons Ratio (x) = 0.32639 0.07501
# Poissons Ratio (y) = 0.25775 0.51705
# Poissons Ratio (z) = 0.06431 0.56139
#
# Static dielectric constant tensor:
#      x y z
#    x 3.384280 0.000000 0.111680 
#    y 0.000000 3.833180 0.000000 
#    z 0.111680 0.000000 3.796410 
# 
# 
# High freq. dielectric constant tensor:
#      x y z
#    x 1.772010 0.000000 0.004610 
#    y 0.000000 1.809170 0.000000 
#    z 0.004610 0.000000 1.783610 
# 
# From -- ./inp_files/174428.got.cif
#   From: 2010.06.25/outbox.cif.g09.slc.cpg/sg12_88_cif.got.tgz:174428.got - 2010.06.28 00:19:55.
