data_PCOD8107895
_publ_section_title
;
Structure prediction by ZEFSAII (Michael W. Deem and Ramdas Pophale) SiO2 
 PCOD8107895
Probable space group: C 2/M
;
_chemical_formula_sum "Si O2"
_cell_formula_units_Z 64
_cell_length_a 29.441982
_cell_length_b 9.032300
_cell_length_c 15.032876
_cell_angle_alpha 90.000000
_cell_angle_beta 50.239842
_cell_angle_gamma 90.000000
_cell_volume 3073.126433
_symmetry_space_group_name_H-M "C 2/M"
_symmetry_group_IT_number 12
_symmetry_cell_setting 'monoclinic'
loop_
_space_group_symop_operation_xyz
x,y,z
-x,y,-z
-x,-y,-z
x,-y,z
1/2+x,1/2+y,z
1/2-x,1/2+y,-z
1/2-x,1/2-y,-z
1/2+x,1/2-y,z
loop_
_atom_site_type_symbol
_atom_site_label
_atom_site_fract_x
_atom_site_fract_y
_atom_site_fract_z
Si Si1 0.307363 0.666712 0.556934
Si Si2 0.704798 0.668679 0.901665
Si Si3 0.834781 0.755125 0.715777
Si Si4 0.619937 0.333962 0.153964
Si Si5 0.049882 0.661663 0.506124
Si Si6 0.510283 0.325266 0.716716
Si Si7 0.891673 0.677242 0.315326
Si Si8 0.187385 0.822065 0.727111
O O1 0.304108 0.500000 0.521106
O O2 0.319473 0.648586 0.647626
O O3 0.356748 0.762538 0.445216
O O4 0.247097 0.754119 0.611718
O O5 0.686770 0.500000 0.926197
O O6 0.775335 0.677077 0.824334
O O7 0.682639 0.733189 0.835227
O O8 0.669310 0.745711 0.028509
O O9 0.859943 0.843068 0.768799
O O10 0.886626 0.644180 0.621471
O O11 0.611106 0.500000 0.132500
O O12 0.555628 0.260208 0.218464
O O13 0.035599 0.500000 0.565807
O O14 0.049760 0.788825 0.580383
O O15 0.000000 0.709729 0.500000
O O16 0.513230 0.500000 0.731323
O O17 0.540589 0.235267 0.760103
O O18 0.888652 0.500000 0.314569
O O19 0.867330 0.750850 0.255960
O O20 0.188798 0.000000 0.716652
#
# Coordination Sequence:
#
# PCOD8107895 Si02
#       8
#     8   8   8   8   8   8   8   8
#     4  11  22  35  56  89 127 161 196 240 295 361
#     4   9  20  38  60  86 117 154 204 254 298 348
#     4  11  20  34  59  89 123 164 200 241 293 351
#     4  10  21  38  58  85 119 159 205 252 294 346
#     4  11  22  36  55  84 124 163 201 244 297 356
#     4  11  23  38  59  86 119 159 202 247 298 357
#     4  12  24  39  60  85 118 155 196 249 306 365
#     4  10  21  39  62  86 116 155 200 250 303 357
#
# _framework density 20.825697000000002
#
# number of rings (size 3 to 8) (size 9 to 14) (size 15 to 20)
#    0.000    1.375    2.500    3.750    0.000    1.750 
#    0.000    0.625    0.000   14.250    0.000    0.000 
#    0.000    0.000    0.000    0.000    0.000    0.000 
#
# Total GULP energy -396480.719840 kJ/mol
# GULP energy per Si atom -12390.022495 kJ/mol
# Density = 2.077830 g / cm^3
# Si number density = 20.825697 Si / 1000 Ang^3
#
#
#
# Elastic Constant Matrix: (Units=GPa)
#
#
# Indices 1 2 3 4 5 6 
#
# 1 160.8424 34.6307 46.6596 0.0000 -7.1488 0.0000
# 2 34.6307 99.4213 13.1380 0.0000 2.1696 0.0002
# 3 46.6596 13.1380 96.6464 0.0000 -10.4755 0.0000
# 4 0.0000 0.0000 0.0000 14.6180 0.0000 -3.7837
# 5 -7.1488 2.1696 -10.4755 0.0000 22.9846 0.0000
# 6 0.0000 0.0002 0.0000 -3.7837 0.0000 20.9497
#
#
#
# Elastic Compliance Matrix: (Units=1/GPa)
#
#
# Indices 1 2 3 4 5 6 
#
# 1 0.007712 -0.002275 -0.003293 0.000000 0.001112 0.000000
# 2 -0.002275 0.010976 -0.000613 0.000000 -0.002023 0.000000
# 3 -0.003293 -0.000613 0.012535 0.000000 0.004746 0.000000
# 4 0.000000 0.000000 0.000000 0.071763 0.000000 0.012961
# 5 0.001112 -0.002023 0.004746 0.000000 0.046208 0.000000
# 6 0.000000 0.000000 0.000000 0.012961 0.000000 0.050074
#
#
# Mechanical properties :
#
#
# Convention : Reuss Voigt Hill
#
# Bulk Modulus (GPa) = 53.02347 60.64077 56.83212
# Shear Modulus (GPa) = 22.94445 29.20924 26.07685
#
# Velocity S-wave (km/s) = 3.32284 3.74914 3.54241
# Velocity P-wave (km/s) = 6.34331 6.92263 6.63929
#
# Compressibility (1/GPa) = 0.01885957
#
# Stress axis : x y z
#
# Youngs Moduli (GPa) = 129.66809 91.10882 79.77818
#
# Poissons Ratio (x) = 0.20730 0.26274
# Poissons Ratio (y) = 0.29504 0.04889
# Poissons Ratio (z) = 0.42704 0.05583
#
# Static dielectric constant tensor:
#      x y z
#    x 4.056770 0.000000 -0.100370 
#    y 0.000000 3.460430 0.000000 
#    z -0.100370 0.000000 3.990710 
# 
# 
# High freq. dielectric constant tensor:
#      x y z
#    x 1.836880 0.000000 -0.003320 
#    y 0.000000 1.793270 0.000000 
#    z -0.003320 0.000000 1.797410 
# 
# From -- ./inp_files/249728.got.cif
#   From: 2010.06.25/outbox.cif.g09.slc.cpg/sg12_125_cif.got.tgz:249728.got - 2010.06.28 00:19:55.
