data_PCOD8107891
_publ_section_title
;
Structure prediction by ZEFSAII (Michael W. Deem and Ramdas Pophale) SiO2 
 PCOD8107891
Probable space group: C 2/M
;
_chemical_formula_sum "Si O2"
_cell_formula_units_Z 64
_cell_length_a 14.646272
_cell_length_b 8.759119
_cell_length_c 33.570104
_cell_angle_alpha 90.000000
_cell_angle_beta 130.072835
_cell_angle_gamma 90.000000
_cell_volume 3295.568377
_symmetry_space_group_name_H-M "C 2/M"
_symmetry_group_IT_number 12
_symmetry_cell_setting 'monoclinic'
loop_
_space_group_symop_operation_xyz
x,y,z
-x,y,-z
-x,-y,-z
x,-y,z
1/2+x,1/2+y,z
1/2-x,1/2+y,-z
1/2-x,1/2-y,-z
1/2+x,1/2-y,z
loop_
_atom_site_type_symbol
_atom_site_label
_atom_site_fract_x
_atom_site_fract_y
_atom_site_fract_z
Si Si1 0.883172 0.179498 0.920817
Si Si2 0.231997 0.825321 0.810427
Si Si3 0.940068 0.321820 0.371222
Si Si4 0.725868 0.176220 0.266631
Si Si5 0.891271 0.822939 0.440465
Si Si6 0.149592 0.180721 0.999930
Si Si7 0.651207 0.321780 0.387053
Si Si8 0.456937 0.677714 0.728844
O O1 0.793828 0.224951 0.861081
O O2 0.833277 0.237831 0.949519
O O3 0.890873 0.000000 0.925654
O O4 0.017608 0.238879 0.949503
O O5 0.296210 0.796365 0.786312
O O6 0.094792 0.777016 0.767507
O O7 0.243095 0.000000 0.826806
O O8 0.967955 0.500000 0.375376
O O9 0.834329 0.280506 0.311468
O O10 0.899682 0.282538 0.404224
O O11 0.057651 0.225348 0.394541
O O12 0.604795 0.221100 0.254742
O O13 0.759309 0.000000 0.284340
O O14 0.770057 0.775372 0.428700
O O15 0.000000 0.786769 0.500000
O O16 0.887657 0.000000 0.427099
O O17 0.160361 0.000000 0.999700
O O18 0.250000 0.250000 0.000000
O O19 0.679548 0.500000 0.398935
O O20 0.598062 0.279297 0.329139
O O21 0.436700 0.500000 0.732589
#
# Coordination Sequence:
#
# PCOD8107891 Si02
#       8
#     8   8   8   8   8   8   8   8
#     4   9  20  38  57  82 117 154 193 240 292 345
#     4  10  22  39  57  83 122 157 193 242 294 346
#     4  12  24  39  63  91 120 157 199 242 295 356
#     4  11  22  38  59  85 118 156 198 244 293 350
#     4  11  25  44  65  91 122 155 196 249 304 357
#     4   9  19  37  60  84 114 152 195 242 291 346
#     4  11  22  40  65  90 120 156 197 245 295 353
#     4  10  21  38  58  85 117 154 195 240 294 350
#
# _framework density 19.420020000000001
#
# number of rings (size 3 to 8) (size 9 to 14) (size 15 to 20)
#    0.000    1.625    2.500    3.000    0.000    5.500 
#    0.000    6.250    0.000    0.000    0.000    0.000 
#    0.000    0.000    0.000    0.000    0.000    0.000 
#
# Total GULP energy -396905.538024 kJ/mol
# GULP energy per Si atom -12403.298063 kJ/mol
# Density = 1.937582 g / cm^3
# Si number density = 19.420020 Si / 1000 Ang^3
#
#
#
# Elastic Constant Matrix: (Units=GPa)
#
#
# Indices 1 2 3 4 5 6 
#
# 1 100.2759 22.1219 4.7813 0.0000 2.6908 0.0000
# 2 22.1219 56.3722 28.5146 0.0000 -0.4006 0.0000
# 3 4.7813 28.5146 63.6811 0.0000 9.0673 0.0000
# 4 0.0000 0.0000 0.0000 25.7719 0.0000 2.6865
# 5 2.6908 -0.4006 9.0673 0.0000 23.8761 0.0000
# 6 0.0000 0.0000 0.0000 2.6865 0.0000 37.9055
#
#
#
# Elastic Compliance Matrix: (Units=1/GPa)
#
#
# Indices 1 2 3 4 5 6 
#
# 1 0.011109 -0.005299 0.001828 0.000000 -0.002035 0.000000
# 2 -0.005299 0.025934 -0.012011 0.000000 0.005594 0.000000
# 3 0.001828 -0.012011 0.022203 0.000000 -0.008839 0.000000
# 4 0.000000 0.000000 0.000000 0.039091 0.000000 -0.002771
# 5 -0.002035 0.005594 -0.008839 0.000000 0.045563 0.000000
# 6 0.000000 0.000000 0.000000 -0.002771 0.000000 0.026578
#
#
# Mechanical properties :
#
#
# Convention : Reuss Voigt Hill
#
# Bulk Modulus (GPa) = 35.35737 36.79606 36.07671
# Shear Modulus (GPa) = 23.71157 28.50479 26.10818
#
# Velocity S-wave (km/s) = 3.49805 3.83535 3.67058
# Velocity P-wave (km/s) = 5.87889 6.21304 6.04827
#
# Compressibility (1/GPa) = 0.02828265
#
# Stress axis : x y z
#
# Youngs Moduli (GPa) = 90.01819 38.55961 45.03934
#
# Poissons Ratio (x) = 0.20431 -0.08235
# Poissons Ratio (y) = 0.47698 0.54097
# Poissons Ratio (z) = -0.16458 0.46314
#
# Static dielectric constant tensor:
#      x y z
#    x 3.758680 0.000000 0.021210 
#    y 0.000000 3.454620 0.000000 
#    z 0.021210 0.000000 3.481390 
# 
# 
# High freq. dielectric constant tensor:
#      x y z
#    x 1.770000 0.000000 0.000950 
#    y 0.000000 1.753800 0.000000 
#    z 0.000950 0.000000 1.749930 
# 
# From -- ./inp_files/375551.got.cif
#   From: 2010.06.25/outbox.cif.g09.slc.cpg/sg12_188_cif.got.tgz:375551.got - 2010.06.28 00:19:55.
