data_PCOD8107036
_publ_section_title
;
Structure prediction by ZEFSAII (Michael W. Deem and Ramdas Pophale) SiO2 
 PCOD8107036
Probable space group: C 2/M
;
_chemical_formula_sum "Si O2"
_cell_formula_units_Z 56
_cell_length_a 21.627064
_cell_length_b 8.719477
_cell_length_c 16.407028
_cell_angle_alpha 90.000000
_cell_angle_beta 119.820398
_cell_angle_gamma 90.000000
_cell_volume 2684.303963
_symmetry_space_group_name_H-M "C 2/M"
_symmetry_group_IT_number 12
_symmetry_cell_setting 'monoclinic'
loop_
_space_group_symop_operation_xyz
x,y,z
-x,y,-z
-x,-y,-z
x,-y,z
1/2+x,1/2+y,z
1/2-x,1/2+y,-z
1/2-x,1/2-y,-z
1/2+x,1/2-y,z
loop_
_atom_site_type_symbol
_atom_site_label
_atom_site_fract_x
_atom_site_fract_y
_atom_site_fract_z
Si Si1 0.167957 0.678795 0.112206
Si Si2 0.290748 0.819158 0.285927
Si Si3 0.457324 0.330058 0.888962
Si Si4 0.085588 0.679549 0.897537
Si Si5 0.542528 0.677165 0.451352
Si Si6 0.296925 0.682538 0.458255
Si Si7 0.909116 0.822928 0.265551
O O1 0.185981 0.500000 0.127665
O O2 0.237969 0.776596 0.177257
O O3 0.109593 0.718366 0.142979
O O4 0.140238 0.729187 0.004602
O O5 0.263133 0.743518 0.351685
O O6 0.367292 0.746025 0.315374
O O7 0.296876 0.000000 0.299604
O O8 0.431436 0.500000 0.845234
O O9 0.509281 0.262378 0.854753
O O10 0.500000 0.339931 0.000000
O O11 0.072312 0.500000 0.893399
O O12 0.116383 0.730338 0.830917
O O13 0.500000 0.753835 0.500000
O O14 0.554588 0.500000 0.481424
O O15 0.621046 0.746221 0.484024
O O16 0.493305 0.697741 0.338776
O O17 0.293169 0.500000 0.460133
O O18 0.250000 0.750000 0.500000
O O19 0.888721 0.000000 0.240397
#
# Coordination Sequence:
#
# PCOD8107036 Si02
#       7
#     8   8   8   8   8   8   8
#     4  10  21  38  60  84 118 166 209 253 309 367
#     4  12  25  41  61  89 123 160 205 257 319 383
#     4   9  17  32  55  82 113 152 198 248 304 364
#     4  10  21  37  57  87 124 160 206 258 305 364
#     4   9  18  38  67  92 117 159 207 251 303 368
#     4  11  23  43  68  96 131 165 208 260 316 378
#     4  11  22  39  64  90 118 159 209 258 312 373
#
# _framework density 20.862020999999999
#
# number of rings (size 3 to 8) (size 9 to 14) (size 15 to 20)
#    0.000    1.714    1.429    3.429    0.000    5.143 
#    0.000    7.857    0.000    0.000    0.000    0.000 
#    0.000    0.000    0.000    0.000    0.000    0.000 
#
# Total GULP energy -347206.289103 kJ/mol
# GULP energy per Si atom -12400.224611 kJ/mol
# Density = 2.081454 g / cm^3
# Si number density = 20.862021 Si / 1000 Ang^3
#
#
#
# Elastic Constant Matrix: (Units=GPa)
#
#
# Indices 1 2 3 4 5 6 
#
# 1 114.4672 24.3995 45.7359 0.0000 -4.1794 0.0000
# 2 24.3995 81.1959 35.7367 0.0000 0.5896 0.0000
# 3 45.7359 35.7367 94.7045 0.0000 -5.1435 0.0000
# 4 0.0000 0.0000 0.0000 27.6070 0.0000 -3.0571
# 5 -4.1794 0.5896 -5.1435 0.0000 34.3217 0.0000
# 6 0.0000 0.0000 0.0000 -3.0571 0.0000 37.2566
#
#
#
# Elastic Compliance Matrix: (Units=1/GPa)
#
#
# Indices 1 2 3 4 5 6 
#
# 1 0.010927 -0.001176 -0.004799 0.000000 0.000632 0.000000
# 2 -0.001176 0.014936 -0.005132 0.000000 -0.001169 0.000000
# 3 -0.004799 -0.005132 0.014908 0.000000 0.001738 0.000000
# 4 0.000000 0.000000 0.000000 0.036555 0.000000 0.003000
# 5 0.000632 -0.001169 0.001738 0.000000 0.029494 0.000000
# 6 0.000000 0.000000 0.000000 0.003000 0.000000 0.027087
#
#
# Mechanical properties :
#
#
# Convention : Reuss Voigt Hill
#
# Bulk Modulus (GPa) = 53.88629 55.79022 54.83826
# Shear Modulus (GPa) = 30.80590 32.13677 31.47133
#
# Velocity S-wave (km/s) = 3.84689 3.92911 3.88822
# Velocity P-wave (km/s) = 6.75406 6.88363 6.81915
#
# Compressibility (1/GPa) = 0.01855759
#
# Stress axis : x y z
#
# Youngs Moduli (GPa) = 91.51326 66.95043 67.07961
#
# Poissons Ratio (x) = 0.07874 0.32192
# Poissons Ratio (y) = 0.10762 0.34424
# Poissons Ratio (z) = 0.43918 0.34357
#
# Static dielectric constant tensor:
#      x y z
#    x 3.877930 0.000000 0.072630 
#    y 0.000000 3.660200 0.000000 
#    z 0.072630 0.000000 3.659870 
# 
# 
# High freq. dielectric constant tensor:
#      x y z
#    x 1.815860 0.000000 0.001820 
#    y 0.000000 1.808780 0.000000 
#    z 0.001820 0.000000 1.811810 
# 
# From -- ./inp_files/281734.got.cif
#   From: 2010.06.25/outbox.cif.g09.slc.cpg/sg12_141_cif.got.tgz:281734.got - 2010.06.28 00:19:55.
