data_PCOD8107420
_publ_section_title
;
Structure prediction by ZEFSAII (Michael W. Deem and Ramdas Pophale) SiO2 
 PCOD8107420
Probable space group: C 2/M
;
_chemical_formula_sum "Si O2"
_cell_formula_units_Z 64
_cell_length_a 21.899063
_cell_length_b 16.987925
_cell_length_c 25.586853
_cell_angle_alpha 90.000000
_cell_angle_beta 20.981393
_cell_angle_gamma 90.000000
_cell_volume 3408.350954
_symmetry_space_group_name_H-M "C 2/M"
_symmetry_group_IT_number 12
_symmetry_cell_setting 'monoclinic'
loop_
_space_group_symop_operation_xyz
x,y,z
-x,y,-z
-x,-y,-z
x,-y,z
1/2+x,1/2+y,z
1/2-x,1/2+y,-z
1/2-x,1/2-y,-z
1/2+x,1/2-y,z
loop_
_atom_site_type_symbol
_atom_site_label
_atom_site_fract_x
_atom_site_fract_y
_atom_site_fract_z
Si Si1 0.468930 0.286081 0.081747
Si Si2 0.466536 0.170060 0.176618
Si Si3 0.694979 0.585851 0.329138
Si Si4 0.577436 0.709694 0.695722
Si Si5 0.385949 0.742936 0.642513
Si Si6 0.205750 0.910108 0.043005
Si Si7 0.258607 0.409829 0.107594
Si Si8 0.961809 0.697519 0.374782
O O1 0.522671 0.226418 0.084294
O O2 0.266076 0.305814 0.246165
O O3 0.500000 0.247418 0.000000
O O4 0.578425 0.365344 0.998905
O O5 0.308279 0.113537 0.288389
O O6 0.411978 0.220562 0.270498
O O7 0.629703 0.116603 0.056735
O O8 0.500000 0.575204 0.500000
O O9 0.761433 0.500000 0.255668
O O10 0.703356 0.656124 0.279673
O O11 0.458690 0.640342 0.810797
O O12 0.763989 0.672776 0.535720
O O13 0.502290 0.743599 0.701864
O O14 0.500000 0.744196 0.500000
O O15 0.494970 0.758554 0.606219
O O16 0.163623 0.000000 0.090446
O O17 0.246849 0.898294 0.949753
O O18 0.276883 0.500000 0.109560
O O19 0.080903 0.378567 0.273426
#
# Coordination Sequence:
#
# PCOD8107420 Si02
#       8
#     8   8   8   8   8   8   8   8
#     4  11  21  36  61  88 112 153 197 245 286 348
#     4  11  20  37  63  88 115 154 198 242 288 356
#     4   9  18  33  55  84 116 148 184 228 283 344
#     4  11  22  37  64  87 116 156 203 243 301 346
#     4  10  21  37  60  84 120 152 198 241 291 347
#     4  11  23  39  62  89 121 156 195 245 301 356
#     4  11  23  40  61  87 120 154 196 251 302 350
#     4  11  22  39  60  89 118 155 200 251 290 355
#
# _framework density 18.77741
#
# number of rings (size 3 to 8) (size 9 to 14) (size 15 to 20)
#    0.000    1.375    3.750    3.750    0.000    0.750 
#    0.000    0.625    0.000    2.625    0.000    0.000 
#    0.000    0.000    0.000    0.000    0.000    0.000 
#
# Total GULP energy -396674.038255 kJ/mol
# GULP energy per Si atom -12396.063695 kJ/mol
# Density = 1.873467 g / cm^3
# Si number density = 18.777410 Si / 1000 Ang^3
#
#
#
# Elastic Constant Matrix: (Units=GPa)
#
#
# Indices 1 2 3 4 5 6 
#
# 1 118.1416 50.1236 35.4822 -0.0171 3.2788 0.0030
# 2 50.1236 111.7188 64.0640 0.0082 -5.6473 0.0031
# 3 35.4822 64.0640 101.5249 -0.1150 -11.1317 0.0106
# 4 -0.0171 0.0082 -0.1150 11.4481 0.0242 -1.4617
# 5 3.2788 -5.6473 -11.1317 0.0242 37.2685 -0.0038
# 6 0.0030 0.0031 0.0106 -1.4617 -0.0038 15.8852
#
#
#
# Elastic Compliance Matrix: (Units=1/GPa)
#
#
# Indices 1 2 3 4 5 6 
#
# 1 0.010669 -0.004112 -0.001349 0.000009 -0.001965 0.000000
# 2 -0.004112 0.015622 -0.008396 -0.000103 0.000221 -0.000006
# 3 -0.001349 -0.008396 0.016018 0.000158 0.003631 0.000007
# 4 0.000009 -0.000103 0.000158 0.088391 -0.000026 0.008133
# 5 -0.001965 0.000221 0.003631 -0.000026 0.028123 0.000002
# 6 0.000000 -0.000006 0.000007 0.008133 0.000002 0.063700
#
#
# Mechanical properties :
#
#
# Convention : Reuss Voigt Hill
#
# Bulk Modulus (GPa) = 68.52611 70.08055 69.30333
# Shear Modulus (GPa) = 19.59993 25.03474 22.31733
#
# Velocity S-wave (km/s) = 3.23430 3.65531 3.45123
# Velocity P-wave (km/s) = 7.10779 7.43087 7.27113
#
# Compressibility (1/GPa) = 0.01459298
#
# Stress axis : x y z
#
# Youngs Moduli (GPa) = 93.73059 64.01178 62.43022
#
# Poissons Ratio (x) = 0.26324 0.08423
# Poissons Ratio (y) = 0.38545 0.52419
# Poissons Ratio (z) = 0.12646 0.53747
#
# Static dielectric constant tensor:
#      x y z
#    x 3.606760 -0.000120 -0.127790 
#    y -0.000120 3.594760 0.000290 
#    z -0.127790 0.000290 3.567310 
# 
# 
# High freq. dielectric constant tensor:
#      x y z
#    x 1.741190 -0.000010 -0.014740 
#    y -0.000010 1.713780 0.000020 
#    z -0.014740 0.000020 1.736300 
# 
# From -- ./inp_files/347879.got.cif
#   From: 2010.06.25/outbox.cif.g09.slc.cpg/sg12_174_cif.got.tgz:347879.got - 2010.06.28 00:19:55.
