data_PCOD8107699
_publ_section_title
;
Structure prediction by ZEFSAII (Michael W. Deem and Ramdas Pophale) SiO2 
 PCOD8107699
Probable space group: C 2/M
;
_chemical_formula_sum "Si O2"
_cell_formula_units_Z 64
_cell_length_a 18.477628
_cell_length_b 15.206753
_cell_length_c 23.273496
_cell_angle_alpha 90.000000
_cell_angle_beta 28.429250
_cell_angle_gamma 90.000000
_cell_volume 3113.279304
_symmetry_space_group_name_H-M "C 2/M"
_symmetry_group_IT_number 12
_symmetry_cell_setting 'monoclinic'
loop_
_space_group_symop_operation_xyz
x,y,z
-x,y,-z
-x,-y,-z
x,-y,z
1/2+x,1/2+y,z
1/2-x,1/2+y,-z
1/2-x,1/2-y,-z
1/2+x,1/2-y,z
loop_
_atom_site_type_symbol
_atom_site_label
_atom_site_fract_x
_atom_site_fract_y
_atom_site_fract_z
Si Si1 0.259553 0.898502 0.037919
Si Si2 0.041387 0.261064 0.037874
Si Si3 0.739932 0.101602 0.091376
Si Si4 0.920972 0.900881 0.270954
Si Si5 0.444071 0.099787 0.367913
Si Si6 0.125477 0.903558 0.564498
Si Si7 0.752102 0.228115 0.310762
Si Si8 0.964784 0.746762 0.440320
O O1 0.089292 0.859245 0.153285
O O2 0.263380 0.000000 0.056504
O O3 0.347770 0.840327 0.022690
O O4 0.325003 0.888599 0.927913
O O5 0.892885 0.275990 0.181670
O O6 0.117729 0.165598 0.995473
O O7 0.000000 0.269312 0.000000
O O8 0.600063 0.129492 0.229267
O O9 0.791093 0.000000 0.066454
O O10 0.858456 0.891738 0.378490
O O11 0.811576 0.859609 0.299578
O O12 0.936759 0.000000 0.238987
O O13 0.302749 0.106400 0.421185
O O14 0.401961 0.164550 0.449094
O O15 0.456821 0.000000 0.382505
O O16 0.013292 0.832155 0.615324
O O17 0.059855 0.000000 0.594530
O O18 0.625867 0.211095 0.350451
O O19 0.658413 0.279675 0.426012
#
# Coordination Sequence:
#
# PCOD8107699 Si02
#       8
#     8   8   8   8   8   8   8   8
#     4  10  23  42  65  93 122 160 208 258 303 359
#     4  12  26  41  63  90 126 166 205 248 311 368
#     4  10  22  40  65  95 125 159 203 254 307 365
#     4  10  21  40  66  94 120 155 207 259 307 361
#     4  10  21  37  63  98 126 157 201 251 311 365
#     4  10  22  39  65  94 122 163 209 252 303 362
#     4  11  25  40  60  92 120 165 209 246 311 367
#     4  11  24  41  61  89 130 163 203 254 307 360
#
# _framework density 20.557102
#
# number of rings (size 3 to 8) (size 9 to 14) (size 15 to 20)
#    0.000    1.500    2.500    1.500    5.250    1.000 
#    0.000    3.125    0.000    0.000    0.000    0.000 
#    0.000    0.000    0.000    0.000    0.000    0.000 
#
# Total GULP energy -396542.902103 kJ/mol
# GULP energy per Si atom -12391.965691 kJ/mol
# Density = 2.051031 g / cm^3
# Si number density = 20.557102 Si / 1000 Ang^3
#
#
#
# Elastic Constant Matrix: (Units=GPa)
#
#
# Indices 1 2 3 4 5 6 
#
# 1 121.1967 73.3212 31.8244 0.0035 -14.8906 0.0000
# 2 73.3212 112.4569 34.0431 -0.0159 -10.2986 -0.0006
# 3 31.8244 34.0431 100.7444 -0.0144 -11.3855 -0.0036
# 4 0.0035 -0.0159 -0.0144 24.0199 0.0043 -2.9349
# 5 -14.8906 -10.2986 -11.3855 0.0043 23.6413 0.0012
# 6 0.0000 -0.0006 -0.0036 -2.9349 0.0012 18.8942
#
#
#
# Elastic Compliance Matrix: (Units=1/GPa)
#
#
# Indices 1 2 3 4 5 6 
#
# 1 0.014298 -0.008557 -0.001088 -0.000010 0.004754 -0.000002
# 2 -0.008557 0.015213 -0.002430 0.000010 0.000067 0.000002
# 3 -0.001088 -0.002430 0.011521 0.000005 0.003805 0.000003
# 4 -0.000010 0.000010 0.000005 0.042438 -0.000007 0.006592
# 5 0.004754 0.000067 0.003805 -0.000007 0.047155 -0.000003
# 6 -0.000002 0.000002 0.000003 0.006592 -0.000003 0.053950
#
#
# Mechanical properties :
#
#
# Convention : Reuss Voigt Hill
#
# Bulk Modulus (GPa) = 59.23527 68.08614 63.66071
# Shear Modulus (GPa) = 23.32611 26.32505 24.82558
#
# Velocity S-wave (km/s) = 3.37218 3.58240 3.47888
# Velocity P-wave (km/s) = 6.63624 7.09252 6.86817
#
# Compressibility (1/GPa) = 0.01688183
#
# Stress axis : x y z
#
# Youngs Moduli (GPa) = 69.94094 65.73123 86.79939
#
# Poissons Ratio (x) = 0.56249 0.09440
# Poissons Ratio (y) = 0.59852 0.21093
# Poissons Ratio (z) = 0.07607 0.15973
#
# Static dielectric constant tensor:
#      x y z
#    x 3.598250 0.000000 0.047360 
#    y 0.000000 3.563590 0.000030 
#    z 0.047360 0.000030 4.000430 
# 
# 
# High freq. dielectric constant tensor:
#      x y z
#    x 1.789850 0.000000 0.002220 
#    y 0.000000 1.791210 0.000000 
#    z 0.002220 0.000000 1.822210 
# 
# From -- ./inp_files/344011.got.cif
#   From: 2010.06.25/outbox.cif.g09.slc.cpg/sg12_173_cif.got.tgz:344011.got - 2010.06.28 00:19:55.
