data_PCOD8107330
_publ_section_title
;
Structure prediction by ZEFSAII (Michael W. Deem and Ramdas Pophale) SiO2 
 PCOD8107330
Probable space group: C 2/M
;
_chemical_formula_sum "Si O2"
_cell_formula_units_Z 64
_cell_length_a 29.404946
_cell_length_b 8.802025
_cell_length_c 14.855221
_cell_angle_alpha 90.000000
_cell_angle_beta 59.103284
_cell_angle_gamma 90.000000
_cell_volume 3299.264529
_symmetry_space_group_name_H-M "C 2/M"
_symmetry_group_IT_number 12
_symmetry_cell_setting 'monoclinic'
loop_
_space_group_symop_operation_xyz
x,y,z
-x,y,-z
-x,-y,-z
x,-y,z
1/2+x,1/2+y,z
1/2-x,1/2+y,-z
1/2-x,1/2-y,-z
1/2+x,1/2-y,z
loop_
_atom_site_type_symbol
_atom_site_label
_atom_site_fract_x
_atom_site_fract_y
_atom_site_fract_z
Si Si1 0.117588 0.321345 0.061168
Si Si2 0.019137 0.323932 0.577578
Si Si3 0.637628 0.175494 0.508496
Si Si4 0.394241 0.321119 0.282352
Si Si5 0.489132 0.321418 0.785265
Si Si6 0.200649 0.179560 0.102460
Si Si7 0.216282 0.675031 0.276305
Si Si8 0.338768 0.674850 0.158207
O O1 0.119527 0.500000 0.074729
O O2 0.057273 0.264483 0.114692
O O3 0.146005 0.240094 0.116115
O O4 0.147667 0.280708 0.939199
O O5 0.005339 0.500000 0.608929
O O6 0.081405 0.292307 0.519351
O O7 0.000000 0.269164 0.500000
O O8 0.987551 0.223859 0.682106
O O9 0.641716 0.258299 0.600138
O O10 0.682319 0.236906 0.395035
O O11 0.646724 0.000000 0.519219
O O12 0.390922 0.500000 0.292084
O O13 0.455105 0.265791 0.228882
O O14 0.371310 0.263801 0.210885
O O15 0.480947 0.500000 0.804688
O O16 0.202314 0.223301 0.204877
O O17 0.203361 0.000000 0.088209
O O18 0.250000 0.250000 0.000000
O O19 0.201798 0.500000 0.268895
O O20 0.277073 0.691597 0.242650
O O21 0.353348 0.500000 0.120823
#
# Coordination Sequence:
#
# PCOD8107330 Si02
#       8
#     8   8   8   8   8   8   8   8
#     4  12  25  40  60  87 118 153 196 242 296 354
#     4   9  18  33  53  79 112 151 192 238 292 349
#     4   9  19  35  55  83 117 153 193 240 291 343
#     4   9  20  39  61  84 115 156 196 244 297 348
#     4  10  21  38  58  83 115 151 195 243 295 350
#     4  12  24  40  61  87 120 157 194 239 291 345
#     4  10  21  37  59  87 119 157 199 241 288 346
#     4  10  21  39  61  84 115 155 200 244 293 350
#
# _framework density 19.398261999999999
#
# number of rings (size 3 to 8) (size 9 to 14) (size 15 to 20)
#    0.000    1.875    1.250    2.625    1.750    2.750 
#    0.000    2.500    0.000    0.000    0.000    0.000 
#    0.000    0.000    0.000    0.000    0.000    0.000 
#
# Total GULP energy -396947.060131 kJ/mol
# GULP energy per Si atom -12404.595629 kJ/mol
# Density = 1.935411 g / cm^3
# Si number density = 19.398262 Si / 1000 Ang^3
#
#
#
# Elastic Constant Matrix: (Units=GPa)
#
#
# Indices 1 2 3 4 5 6 
#
# 1 101.6406 34.5964 36.1071 0.0000 11.1114 0.0000
# 2 34.5964 86.4741 32.7009 0.0000 -1.9904 0.0000
# 3 36.1071 32.7009 84.6690 0.0000 -15.6336 0.0000
# 4 0.0000 0.0000 0.0000 35.8397 0.0000 2.0028
# 5 11.1114 -1.9904 -15.6336 0.0000 31.5689 0.0000
# 6 0.0000 0.0000 0.0000 2.0028 0.0000 24.3987
#
#
#
# Elastic Compliance Matrix: (Units=1/GPa)
#
#
# Indices 1 2 3 4 5 6 
#
# 1 0.014138 -0.003501 -0.006204 0.000000 -0.008269 0.000000
# 2 -0.003501 0.014514 -0.004090 0.000000 0.000122 0.000000
# 3 -0.006204 -0.004090 0.018042 0.000000 0.010860 0.000000
# 4 0.000000 0.000000 0.000000 0.028031 0.000000 -0.002301
# 5 -0.008269 0.000122 0.010860 0.000000 0.039973 0.000000
# 6 0.000000 0.000000 0.000000 -0.002301 0.000000 0.041175
#
#
# Mechanical properties :
#
#
# Convention : Reuss Voigt Hill
#
# Bulk Modulus (GPa) = 52.34583 53.28805 52.81694
# Shear Modulus (GPa) = 26.33931 29.65342 27.99636
#
# Velocity S-wave (km/s) = 3.68886 3.91405 3.80312
# Velocity P-wave (km/s) = 6.72212 6.92507 6.82435
#
# Compressibility (1/GPa) = 0.01910372
#
# Stress axis : x y z
#
# Youngs Moduli (GPa) = 70.73111 68.89763 55.42774
#
# Poissons Ratio (x) = 0.24118 0.34388
# Poissons Ratio (y) = 0.24760 0.22673
# Poissons Ratio (z) = 0.43882 0.28182
#
# Static dielectric constant tensor:
#      x y z
#    x 3.771620 0.000000 -0.013450 
#    y 0.000000 3.468340 0.000000 
#    z -0.013450 0.000000 3.622600 
# 
# 
# High freq. dielectric constant tensor:
#      x y z
#    x 1.759110 0.000000 -0.002580 
#    y 0.000000 1.748810 0.000000 
#    z -0.002580 0.000000 1.759340 
# 
# From -- ./inp_files/249825.got.cif
#   From: 2010.06.25/outbox.cif.g09.slc.cpg/sg12_125_cif.got.tgz:249825.got - 2010.06.28 00:19:55.
