data_PCOD8107087
_publ_section_title
;
Structure prediction by ZEFSAII (Michael W. Deem and Ramdas Pophale) SiO2 
 PCOD8107087
Probable space group: C 2/M
;
_chemical_formula_sum "Si O2"
_cell_formula_units_Z 64
_cell_length_a 30.838625
_cell_length_b 9.028892
_cell_length_c 16.745442
_cell_angle_alpha 90.000000
_cell_angle_beta 132.085563
_cell_angle_gamma 90.000000
_cell_volume 3460.307525
_symmetry_space_group_name_H-M "C 2/M"
_symmetry_group_IT_number 12
_symmetry_cell_setting 'monoclinic'
loop_
_space_group_symop_operation_xyz
x,y,z
-x,y,-z
-x,-y,-z
x,-y,z
1/2+x,1/2+y,z
1/2-x,1/2+y,-z
1/2-x,1/2-y,-z
1/2+x,1/2-y,z
loop_
_atom_site_type_symbol
_atom_site_label
_atom_site_fract_x
_atom_site_fract_y
_atom_site_fract_z
Si Si1 0.834164 0.171503 0.564511
Si Si2 0.254652 0.165998 0.088287
Si Si3 0.576653 0.830719 0.907729
Si Si4 0.466177 0.324439 0.707866
Si Si5 0.514153 0.672240 0.602113
Si Si6 0.814954 0.324146 0.860313
Si Si7 0.616007 0.161131 0.783879
Si Si8 0.267066 0.672177 0.644691
O O1 0.901164 0.228299 0.651061
O O2 0.797283 0.261848 0.452834
O O3 0.807982 0.198182 0.619187
O O4 0.831615 0.000000 0.536096
O O5 0.228437 0.257849 0.128081
O O6 0.323419 0.153886 0.187297
O O7 0.227116 0.000000 0.049860
O O8 0.250000 0.250000 0.000000
O O9 0.516070 0.739300 0.828693
O O10 0.618689 0.805245 0.882414
O O11 0.557426 0.000000 0.892758
O O12 0.617641 0.783665 0.033365
O O13 0.472197 0.500000 0.719994
O O14 0.477039 0.264170 0.631017
O O15 0.500000 0.749579 0.500000
O O16 0.502124 0.500000 0.581065
O O17 0.581622 0.705678 0.700518
O O18 0.806264 0.500000 0.847525
O O19 0.799243 0.255883 0.755831
O O20 0.584816 0.000000 0.735016
O O21 0.260118 0.500000 0.657749
#
# Coordination Sequence:
#
# PCOD8107087 Si02
#       8
#     8   8   8   8   8   8   8   8
#     4   9  19  38  60  81 110 143 180 226 279 336
#     4  11  21  34  52  77 108 143 183 223 265 318
#     4   9  18  34  52  74 106 142 177 218 268 323
#     4   9  18  33  55  79 102 139 183 221 268 325
#     4   9  18  31  47  72 104 135 173 217 259 310
#     4  11  22  37  55  79 112 147 184 228 280 332
#     4   9  18  33  49  69 100 136 176 215 257 308
#     4  10  21  37  58  84 109 140 181 228 280 333
#
# _framework density 18.495464999999999
#
# number of rings (size 3 to 8) (size 9 to 14) (size 15 to 20)
#    0.000    2.375    1.250    1.125    0.000    4.250 
#    0.000    1.875    0.000    3.750    0.000    0.000 
#    0.000    0.000    0.000    0.000    0.000    0.000 
#
# Total GULP energy -396587.300225 kJ/mol
# GULP energy per Si atom -12393.353132 kJ/mol
# Density = 1.845337 g / cm^3
# Si number density = 18.495465 Si / 1000 Ang^3
#
#
#
# Elastic Constant Matrix: (Units=GPa)
#
#
# Indices 1 2 3 4 5 6 
#
# 1 79.9256 40.3750 56.1557 0.0000 20.4030 0.0000
# 2 40.3750 76.1880 58.2946 0.0000 2.3733 0.0000
# 3 56.1557 58.2946 139.7211 0.0000 7.7253 0.0000
# 4 0.0000 0.0000 0.0000 34.6982 0.0000 2.0725
# 5 20.4030 2.3733 7.7253 0.0000 27.9431 0.0000
# 6 0.0000 0.0000 0.0000 2.0725 0.0000 25.3068
#
#
#
# Elastic Compliance Matrix: (Units=1/GPa)
#
#
# Indices 1 2 3 4 5 6 
#
# 1 0.024638 -0.008308 -0.005566 0.000000 -0.015746 0.000000
# 2 -0.008308 0.022091 -0.006205 0.000000 0.005905 0.000000
# 3 -0.005566 -0.006205 0.011911 0.000000 0.001298 0.000000
# 4 0.000000 0.000000 0.000000 0.028962 0.000000 -0.002372
# 5 -0.015746 0.005905 0.001298 0.000000 0.046423 0.000000
# 6 0.000000 0.000000 0.000000 -0.002372 0.000000 0.039709
#
#
# Mechanical properties :
#
#
# Convention : Reuss Voigt Hill
#
# Bulk Modulus (GPa) = 54.09879 67.27615 60.68747
# Shear Modulus (GPa) = 22.72187 26.99025 24.85606
#
# Velocity S-wave (km/s) = 3.50881 3.82421 3.66990
# Velocity P-wave (km/s) = 6.76232 7.48016 7.13028
#
# Compressibility (1/GPa) = 0.01848470
#
# Stress axis : x y z
#
# Youngs Moduli (GPa) = 40.58734 45.26642 83.95652
#
# Poissons Ratio (x) = 0.37606 0.46727
# Poissons Ratio (y) = 0.33719 0.52091
# Poissons Ratio (z) = 0.22590 0.28086
#
# Static dielectric constant tensor:
#      x y z
#    x 3.711020 0.000000 -0.070620 
#    y 0.000000 3.490860 0.000000 
#    z -0.070620 0.000000 3.526170 
# 
# 
# High freq. dielectric constant tensor:
#      x y z
#    x 1.703220 0.000000 0.006840 
#    y 0.000000 1.718990 0.000000 
#    z 0.006840 0.000000 1.716680 
# 
# From -- ./inp_files/249999.got.cif
#   From: 2010.06.25/outbox.cif.g09.slc.cpg/sg12_125_cif.got.tgz:249999.got - 2010.06.28 00:19:55.
