data_PCOD8107137
_publ_section_title
;
Structure prediction by ZEFSAII (Michael W. Deem and Ramdas Pophale) SiO2 
 PCOD8107137
Probable space group: C 2/M
;
_chemical_formula_sum "Si O2"
_cell_formula_units_Z 56
_cell_length_a 29.708727
_cell_length_b 9.149272
_cell_length_c 12.174780
_cell_angle_alpha 90.000000
_cell_angle_beta 121.287802
_cell_angle_gamma 90.000000
_cell_volume 2827.997681
_symmetry_space_group_name_H-M "C 2/M"
_symmetry_group_IT_number 12
_symmetry_cell_setting 'monoclinic'
loop_
_space_group_symop_operation_xyz
x,y,z
-x,y,-z
-x,-y,-z
x,-y,z
1/2+x,1/2+y,z
1/2-x,1/2+y,-z
1/2-x,1/2-y,-z
1/2+x,1/2-y,z
loop_
_atom_site_type_symbol
_atom_site_label
_atom_site_fract_x
_atom_site_fract_y
_atom_site_fract_z
Si Si1 0.800994 0.162743 0.529933
Si Si2 0.107246 0.831735 0.627048
Si Si3 0.504935 0.170821 0.880775
Si Si4 0.722515 0.657793 0.749946
Si Si5 0.901642 0.671764 0.611190
Si Si6 0.708948 0.671151 0.028751
Si Si7 0.909463 0.171704 0.154881
O O1 0.750000 0.250000 0.500000
O O2 0.798216 0.147063 0.397825
O O3 0.854295 0.253010 0.620070
O O4 0.803222 0.000000 0.586941
O O5 0.167929 0.809177 0.745815
O O6 0.090811 0.730726 0.503736
O O7 0.074833 0.792660 0.697551
O O8 0.097601 0.000000 0.579652
O O9 0.452761 0.208684 0.746746
O O10 0.553061 0.248522 0.882453
O O11 0.516974 0.000000 0.895801
O O12 0.500000 0.227777 0.000000
O O13 0.745470 0.500000 0.816535
O O14 0.767439 0.781063 0.822190
O O15 0.890178 0.500000 0.589090
O O16 0.712551 0.500000 0.015625
O O17 0.750000 0.750000 0.000000
O O18 0.649525 0.727653 0.945730
O O19 0.913785 0.000000 0.139015
#
# Coordination Sequence:
#
# PCOD8107137 Si02
#       7
#     8   8   8   8   8   8   8
#     4  10  21  37  58  84 117 153 193 238 290 348
#     4   9  18  36  58  84 120 152 185 233 295 356
#     4  10  24  45  63  82 114 155 199 247 298 350
#     4   9  18  34  53  78 115 154 187 230 284 341
#     4  10  21  38  61  87 115 149 195 246 294 350
#     4  11  21  34  54  84 120 155 191 233 284 345
#     4  10  22  39  59  86 119 155 199 244 290 353
#
# _framework density 19.801995999999999
#
# number of rings (size 3 to 8) (size 9 to 14) (size 15 to 20)
#    0.000    2.143    1.429    2.143    0.000    7.714 
#    0.000    7.143    0.000    0.000    0.000    0.000 
#    0.000    0.000    0.000    0.000    0.000    0.000 
#
# Total GULP energy -346994.339523 kJ/mol
# GULP energy per Si atom -12392.654983 kJ/mol
# Density = 1.975693 g / cm^3
# Si number density = 19.801996 Si / 1000 Ang^3
#
#
#
# Elastic Constant Matrix: (Units=GPa)
#
#
# Indices 1 2 3 4 5 6 
#
# 1 147.9759 67.2954 58.4911 0.0000 3.6817 0.0000
# 2 67.2954 99.7945 50.9937 0.0000 10.5609 0.0000
# 3 58.4911 50.9937 94.0657 0.0000 13.4435 0.0000
# 4 0.0000 0.0000 0.0000 30.3586 0.0000 -0.9354
# 5 3.6817 10.5609 13.4435 0.0000 24.4568 0.0000
# 6 0.0000 0.0000 0.0000 -0.9354 0.0000 36.7458
#
#
#
# Elastic Compliance Matrix: (Units=1/GPa)
#
#
# Indices 1 2 3 4 5 6 
#
# 1 0.010836 -0.005483 -0.004201 0.000000 0.003046 0.000000
# 2 -0.005483 0.016726 -0.005148 0.000000 -0.003567 0.000000
# 3 -0.004201 -0.005148 0.016958 0.000000 -0.006466 0.000000
# 4 0.000000 0.000000 0.000000 0.032965 0.000000 0.000839
# 5 0.003046 -0.003567 -0.006466 0.000000 0.045525 0.000000
# 6 0.000000 0.000000 0.000000 0.000839 0.000000 0.027235
#
#
# Mechanical properties :
#
#
# Convention : Reuss Voigt Hill
#
# Bulk Modulus (GPa) = 67.31197 77.26629 72.28913
# Shear Modulus (GPa) = 27.04724 29.31597 28.18160
#
# Velocity S-wave (km/s) = 3.69980 3.85184 3.77659
# Velocity P-wave (km/s) = 7.23309 7.67375 7.45668
#
# Compressibility (1/GPa) = 0.01485620
#
# Stress axis : x y z
#
# Youngs Moduli (GPa) = 92.28434 59.78688 58.96907
#
# Poissons Ratio (x) = 0.32780 0.24773
# Poissons Ratio (y) = 0.50598 0.30358
# Poissons Ratio (z) = 0.38768 0.30779
#
# Static dielectric constant tensor:
#      x y z
#    x 0.529090 0.000000 0.777830 
#    y 0.000000 3.934330 0.000000 
#    z 0.777830 0.000000 3.748630 
# 
# 
# High freq. dielectric constant tensor:
#      x y z
#    x 1.768430 0.000000 -0.002270 
#    y 0.000000 1.770360 0.000000 
#    z -0.002270 0.000000 1.774540 
# 
# From -- ./inp_files/187713.got.cif
#   From: 2010.06.25/outbox.cif.g09.slc.cpg/sg12_94_cif.got.tgz:187713.got - 2010.06.28 00:19:55.
