data_PCOD8107621
_publ_section_title
;
Structure prediction by ZEFSAII (Michael W. Deem and Ramdas Pophale) SiO2 
 PCOD8107621
Probable space group: C 2/M
;
_chemical_formula_sum "Si O2"
_cell_formula_units_Z 52
_cell_length_a 27.106676
_cell_length_b 14.312037
_cell_length_c 19.077975
_cell_angle_alpha 90.000000
_cell_angle_beta 159.411299
_cell_angle_gamma 90.000000
_cell_volume 2602.731177
_symmetry_space_group_name_H-M "C 2/M"
_symmetry_group_IT_number 12
_symmetry_cell_setting 'monoclinic'
loop_
_space_group_symop_operation_xyz
x,y,z
-x,y,-z
-x,-y,-z
x,-y,z
1/2+x,1/2+y,z
1/2-x,1/2+y,-z
1/2-x,1/2-y,-z
1/2+x,1/2-y,z
loop_
_atom_site_type_symbol
_atom_site_label
_atom_site_fract_x
_atom_site_fract_y
_atom_site_fract_z
Si Si1 0.426254 0.890527 0.311676
Si Si2 0.200897 0.294252 0.737272
Si Si3 0.500000 0.172274 0.000000
Si Si4 0.705707 0.704886 0.369651
Si Si5 0.542606 0.399795 0.976208
Si Si6 0.832694 0.606201 0.905617
Si Si7 0.515854 0.106933 0.282151
O O1 0.569722 0.838830 0.523681
O O2 0.300622 0.836455 0.185221
O O3 0.408516 0.879190 0.204557
O O4 0.430825 0.000000 0.339128
O O5 0.343602 0.320847 0.887558
O O6 0.202987 0.180412 0.737667
O O7 0.383940 0.231844 0.803143
O O8 0.414889 0.108220 0.941330
O O9 0.750000 0.750000 0.500000
O O10 0.845524 0.667628 0.517834
O O11 0.602156 0.621395 0.256948
O O12 0.603195 0.500000 0.033188
O O13 0.500000 0.399065 0.000000
O O14 0.776501 0.500000 0.842477
O O15 0.939351 0.636796 0.109192
O O16 0.565328 0.000000 0.343569
#
# Coordination Sequence:
#
# PCOD8107621 Si02
#       7
#     8   8   4   8   8   8   8
#     4  10  21  37  62  88 117 155 195 250 308 368
#     4  11  20  37  57  86 119 153 200 247 300 365
#     4  12  21  40  59  84 118 162 203 244 295 356
#     4  12  21  36  58  87 124 156 198 244 299 361
#     4  11  20  32  55  87 120 150 186 244 311 365
#     4  11  23  39  59  83 115 162 209 248 290 348
#     4  10  21  38  57  86 121 157 201 244 297 363
#
# _framework density 19.979013999999999
#
# number of rings (size 3 to 8) (size 9 to 14) (size 15 to 20)
#    0.000    1.077    3.846    4.385    0.000    3.077 
#    0.000    1.538    0.000    0.000    0.000    2.154 
#    0.000    0.000    0.000    0.000    0.000    0.000 
#
# Total GULP energy -322176.736026 kJ/mol
# GULP energy per Si atom -12391.412924 kJ/mol
# Density = 1.993354 g / cm^3
# Si number density = 19.979014 Si / 1000 Ang^3
#
#
#
# Elastic Constant Matrix: (Units=GPa)
#
#
# Indices 1 2 3 4 5 6 
#
# 1 116.4144 38.9311 35.8696 -0.0002 -4.7688 -0.0001
# 2 38.9311 132.2846 39.5313 -0.0001 4.2867 0.0000
# 3 35.8696 39.5313 63.5317 -0.0003 -6.9780 -0.0001
# 4 -0.0002 -0.0001 -0.0003 14.7145 -0.0002 10.7856
# 5 -4.7688 4.2867 -6.9780 -0.0002 33.8674 -0.0001
# 6 -0.0001 0.0000 -0.0001 10.7856 -0.0001 22.2660
#
#
#
# Elastic Compliance Matrix: (Units=1/GPa)
#
#
# Indices 1 2 3 4 5 6 
#
# 1 0.010700 -0.001708 -0.004900 0.000000 0.000713 0.000000
# 2 -0.001708 0.009757 -0.005391 0.000000 -0.002586 0.000000
# 3 -0.004900 -0.005391 0.022366 0.000000 0.004601 0.000000
# 4 0.000000 0.000000 0.000000 0.105374 0.000001 -0.051043
# 5 0.000713 -0.002586 0.004601 0.000001 0.030903 0.000000
# 6 0.000000 0.000000 0.000000 -0.051043 0.000000 0.069637
#
#
# Mechanical properties :
#
#
# Convention : Reuss Voigt Hill
#
# Bulk Modulus (GPa) = 53.11886 60.09941 56.60914
# Shear Modulus (GPa) = 17.92048 27.36283 22.64166
#
# Velocity S-wave (km/s) = 2.99819 3.70480 3.37006
# Velocity P-wave (km/s) = 6.21535 6.96041 6.59840
#
# Compressibility (1/GPa) = 0.01882570
#
# Stress axis : x y z
#
# Youngs Moduli (GPa) = 93.45612 102.49237 44.70975
#
# Poissons Ratio (x) = 0.17503 0.21909
# Poissons Ratio (y) = 0.15960 0.24102
# Poissons Ratio (z) = 0.45796 0.55252
#
# Static dielectric constant tensor:
#      x y z
#    x 4.001700 0.000000 -0.023710 
#    y 0.000000 3.959840 0.000000 
#    z -0.023710 0.000000 3.662280 
# 
# 
# High freq. dielectric constant tensor:
#      x y z
#    x 1.791260 0.000000 -0.002590 
#    y 0.000000 1.784450 0.000000 
#    z -0.002590 0.000000 1.751780 
# 
# From -- ./inp_files/330214.got.cif
#   From: 2010.06.25/outbox.cif.g09.slc.cpg/sg12_166_cif.got.tgz:330214.got - 2010.06.28 00:19:55.
