data_PCOD8107161
_publ_section_title
;
Structure prediction by ZEFSAII (Michael W. Deem and Ramdas Pophale) SiO2 
 PCOD8107161
Probable space group: C 2/M
;
_chemical_formula_sum "Si O2"
_cell_formula_units_Z 40
_cell_length_a 10.055253
_cell_length_b 9.102126
_cell_length_c 23.378814
_cell_angle_alpha 90.000000
_cell_angle_beta 71.187749
_cell_angle_gamma 90.000000
_cell_volume 2025.423280
_symmetry_space_group_name_H-M "C 2/M"
_symmetry_group_IT_number 12
_symmetry_cell_setting 'monoclinic'
loop_
_space_group_symop_operation_xyz
x,y,z
-x,y,-z
-x,-y,-z
x,-y,z
1/2+x,1/2+y,z
1/2-x,1/2+y,-z
1/2-x,1/2-y,-z
1/2+x,1/2-y,z
loop_
_atom_site_type_symbol
_atom_site_label
_atom_site_fract_x
_atom_site_fract_y
_atom_site_fract_z
Si Si1 0.537735 0.169760 0.431301
Si Si2 0.180518 0.670459 0.636147
Si Si3 0.158149 0.671875 0.966072
Si Si4 0.218053 0.670479 0.829866
Si Si5 0.459840 0.328936 0.238862
O O1 0.500000 0.223703 0.500000
O O2 0.663834 0.265843 0.389413
O O3 0.400258 0.195806 0.412060
O O4 0.584666 0.000000 0.424577
O O5 0.192544 0.500000 0.650332
O O6 0.096275 0.749347 0.697544
O O7 0.181339 0.500000 0.969695
O O8 0.204553 0.724775 0.896845
O O9 0.250000 0.750000 0.000000
O O10 0.000000 0.719453 0.000000
O O11 0.176144 0.500000 0.830220
O O12 0.374489 0.699344 0.786091
O O13 0.110394 0.765082 0.808045
O O14 0.423261 0.500000 0.247746
#
# Coordination Sequence:
#
# PCOD8107161 Si02
#       5
#     8   8   8   8   8
#     4  10  22  40  61  87 118 151 190 234 280 335
#     4  11  23  38  59  86 115 150 190 233 284 338
#     4  10  21  37  58  85 116 150 189 234 284 339
#     4  10  22  39  58  84 116 149 190 237 284 338
#     4  11  23  38  58  83 112 149 191 235 284 338
#
# _framework density 19.748957999999998
#
# number of rings (size 3 to 8) (size 9 to 14) (size 15 to 20)
#    0.000    1.600    0.000    4.200    0.000    8.000 
#    0.000    0.000    0.000    0.000    0.000    0.000 
#    0.000    0.000    0.000    0.000    0.000    0.000 
#
# Total GULP energy -248133.277118 kJ/mol
# GULP energy per Si atom -12406.663856 kJ/mol
# Density = 1.970401 g / cm^3
# Si number density = 19.748958 Si / 1000 Ang^3
#
#
#
# Elastic Constant Matrix: (Units=GPa)
#
#
# Indices 1 2 3 4 5 6 
#
# 1 56.2828 33.5146 4.8068 0.0000 4.3621 0.0000
# 2 33.5146 75.8092 28.0686 0.0000 -0.6977 0.0000
# 3 4.8068 28.0686 102.6595 0.0000 -2.7015 0.0000
# 4 0.0000 0.0000 0.0000 21.3839 0.0000 23.3555
# 5 4.3621 -0.6977 -2.7015 0.0000 39.7007 0.0000
# 6 0.0000 0.0000 0.0000 23.3555 0.0000 5.8672
#
#
#
# Elastic Compliance Matrix: (Units=1/GPa)
#
#
# Indices 1 2 3 4 5 6 
#
# 1 0.024792 -0.011715 0.001969 0.000000 -0.002796 0.000000
# 2 -0.011715 0.020212 -0.004943 0.000000 0.001306 0.000000
# 3 0.001969 -0.004943 0.011012 0.000000 0.000446 0.000000
# 4 0.000000 0.000000 0.000000 -0.013969 0.000000 0.055606
# 5 -0.002796 0.001306 0.000446 0.000000 0.025549 0.000000
# 6 0.000000 0.000000 0.000000 0.055606 0.000000 -0.050912
#
#
# Mechanical properties :
#
#
# Convention : Reuss Voigt Hill
#
# Bulk Modulus (GPa) = 37.54192 40.83683 39.18938
# Shear Modulus (GPa) = 91.00414 24.61447 57.80930
#
# Velocity S-wave (km/s) = 6.79562 3.53422 5.41624
# Velocity P-wave (km/s) = 8.97913 6.11369 7.68121
#
# Compressibility (1/GPa) = 0.02663689
#
# Stress axis : x y z
#
# Youngs Moduli (GPa) = 40.33596 49.47457 90.80896
#
# Poissons Ratio (x) = 0.57959 -0.17877
# Poissons Ratio (y) = 0.47253 0.44891
# Poissons Ratio (z) = -0.07941 0.24458
#
# Static dielectric constant tensor:
#      x y z
#    x 3.610980 0.000000 0.019570 
#    y 0.000000 3.633980 0.000000 
#    z 0.019570 0.000000 3.784800 
# 
# 
# High freq. dielectric constant tensor:
#      x y z
#    x 1.781280 0.000000 0.001000 
#    y 0.000000 1.770800 0.000000 
#    z 0.001000 0.000000 1.789760 
# 
# From -- ./inp_files/261024.got.cif
#   From: 2010.06.25/outbox.cif.g09.slc.cpg/sg12_131_cif.got.tgz:261024.got - 2010.06.28 00:19:55.
