data_PCOD8107439
_publ_section_title
;
Structure prediction by ZEFSAII (Michael W. Deem and Ramdas Pophale) SiO2 
 PCOD8107439
Probable space group: C 2/M
;
_chemical_formula_sum "Si O2"
_cell_formula_units_Z 56
_cell_length_a 18.007726
_cell_length_b 8.777121
_cell_length_c 19.850441
_cell_angle_alpha 90.000000
_cell_angle_beta 62.181124
_cell_angle_gamma 90.000000
_cell_volume 2774.873870
_symmetry_space_group_name_H-M "C 2/M"
_symmetry_group_IT_number 12
_symmetry_cell_setting 'monoclinic'
loop_
_space_group_symop_operation_xyz
x,y,z
-x,y,-z
-x,-y,-z
x,-y,z
1/2+x,1/2+y,z
1/2-x,1/2+y,-z
1/2-x,1/2-y,-z
1/2+x,1/2-y,z
loop_
_atom_site_type_symbol
_atom_site_label
_atom_site_fract_x
_atom_site_fract_y
_atom_site_fract_z
Si Si1 0.808235 0.676495 0.212249
Si Si2 0.205500 0.177121 0.918227
Si Si3 0.836918 0.322560 0.647567
Si Si4 0.023495 0.676541 0.780611
Si Si5 0.825346 0.178765 0.509403
Si Si6 0.365024 0.322829 0.908363
Si Si7 0.018673 0.322452 0.627905
O O1 0.783095 0.500000 0.223372
O O2 0.834248 0.727785 0.126239
O O3 0.729026 0.777479 0.267235
O O4 0.884321 0.709312 0.230454
O O5 0.301719 0.226164 0.889265
O O6 0.203652 0.000000 0.900865
O O7 0.149533 0.215567 0.007082
O O8 0.829281 0.500000 0.633589
O O9 0.816869 0.226098 0.590201
O O10 0.928506 0.281691 0.636184
O O11 0.998306 0.500000 0.798671
O O12 0.021986 0.729071 0.703926
O O13 0.959318 0.777777 0.850338
O O14 0.750000 0.250000 0.500000
O O15 0.914469 0.229042 0.442894
O O16 0.816564 0.000000 0.507865
O O17 0.348977 0.500000 0.900775
O O18 0.040182 0.500000 0.611506
#
# Coordination Sequence:
#
# PCOD8107439 Si02
#       7
#     8   8   8   8   8   8   8
#     4  11  23  38  59  88 121 157 199 244 289 346
#     4  10  21  38  59  84 117 155 195 243 299 354
#     4  11  23  40  64  91 121 157 195 241 295 349
#     4  10  22  39  59  85 119 156 193 241 298 350
#     4  12  25  41  63  90 122 158 197 243 293 347
#     4  10  21  37  60  87 114 150 198 248 295 352
#     4  10  22  41  63  88 119 155 196 241 293 352
#
# _framework density 20.181097999999999
#
# number of rings (size 3 to 8) (size 9 to 14) (size 15 to 20)
#    0.000    1.429    0.000    5.143    0.000    9.143 
#    0.000    2.857    0.000    0.000    0.000    0.000 
#    0.000    0.000    0.000    0.000    0.000    0.000 
#
# Total GULP energy -347423.347313 kJ/mol
# GULP energy per Si atom -12407.976690 kJ/mol
# Density = 2.013516 g / cm^3
# Si number density = 20.181098 Si / 1000 Ang^3
#
#
#
# Elastic Constant Matrix: (Units=GPa)
#
#
# Indices 1 2 3 4 5 6 
#
# 1 81.9701 37.4136 31.1306 0.0000 15.8751 0.0001
# 2 37.4136 70.6652 28.7285 0.0000 4.6450 0.0003
# 3 31.1306 28.7285 94.4803 0.0000 12.1445 0.0000
# 4 0.0000 0.0000 0.0000 36.0946 0.0000 -0.0271
# 5 15.8751 4.6450 12.1445 0.0000 37.9989 0.0000
# 6 0.0001 0.0003 0.0000 -0.0271 0.0000 33.6249
#
#
#
# Elastic Compliance Matrix: (Units=1/GPa)
#
#
# Indices 1 2 3 4 5 6 
#
# 1 0.018016 -0.008043 -0.002763 0.000000 -0.005661 0.000000
# 2 -0.008043 0.019745 -0.003624 0.000000 0.002105 0.000000
# 3 -0.002763 -0.003624 0.012922 0.000000 -0.002533 0.000000
# 4 0.000000 0.000000 0.000000 0.027705 0.000000 0.000022
# 5 -0.005661 0.002105 -0.002533 0.000000 0.029234 0.000000
# 6 0.000000 0.000000 0.000000 0.000022 0.000000 0.029740
#
#
# Mechanical properties :
#
#
# Convention : Reuss Voigt Hill
#
# Bulk Modulus (GPa) = 45.82445 49.07345 47.44895
# Shear Modulus (GPa) = 28.81895 31.53319 30.17607
#
# Velocity S-wave (km/s) = 3.78301 3.95715 3.87106
# Velocity P-wave (km/s) = 6.46819 6.72667 6.59869
#
# Compressibility (1/GPa) = 0.02182241
#
# Stress axis : x y z
#
# Youngs Moduli (GPa) = 55.50482 50.64621 77.38680
#
# Poissons Ratio (x) = 0.40737 0.21381
# Poissons Ratio (y) = 0.44645 0.28046
# Poissons Ratio (z) = 0.15336 0.18355
#
# Static dielectric constant tensor:
#      x y z
#    x 3.651090 0.000000 0.090180 
#    y 0.000000 3.674270 0.000000 
#    z 0.090180 0.000000 3.763810 
# 
# 
# High freq. dielectric constant tensor:
#      x y z
#    x 1.793270 0.000000 0.004530 
#    y 0.000000 1.793140 0.000000 
#    z 0.004530 0.000000 1.802100 
# 
# From -- ./inp_files/275302.got.cif
#   From: 2010.06.25/outbox.cif.g09.slc.cpg/sg12_138_cif.got.tgz:275302.got - 2010.06.28 00:19:55.
