data_PCOD8107125
_publ_section_title
;
Structure prediction by ZEFSAII (Michael W. Deem and Ramdas Pophale) SiO2 
 PCOD8107125
Probable space group: C 2/M
;
_chemical_formula_sum "Si O2"
_cell_formula_units_Z 48
_cell_length_a 28.808869
_cell_length_b 8.881393
_cell_length_c 18.892664
_cell_angle_alpha 90.000000
_cell_angle_beta 31.062679
_cell_angle_gamma 90.000000
_cell_volume 2494.190105
_symmetry_space_group_name_H-M "C 2/M"
_symmetry_group_IT_number 12
_symmetry_cell_setting 'monoclinic'
loop_
_space_group_symop_operation_xyz
x,y,z
-x,y,-z
-x,-y,-z
x,-y,z
1/2+x,1/2+y,z
1/2-x,1/2+y,-z
1/2-x,1/2-y,-z
1/2+x,1/2-y,z
loop_
_atom_site_type_symbol
_atom_site_label
_atom_site_fract_x
_atom_site_fract_y
_atom_site_fract_z
Si Si1 0.914184 0.827553 0.425643
Si Si2 0.592922 0.676472 0.841416
Si Si3 0.743138 0.175167 0.739776
Si Si4 0.616809 0.325027 0.174795
Si Si5 0.234891 0.677887 0.910584
Si Si6 0.152565 0.677210 0.624849
O O1 0.844111 0.798556 0.580120
O O2 0.896007 0.717018 0.384516
O O3 0.012868 0.790845 0.327359
O O4 0.908003 0.000000 0.406758
O O5 0.602319 0.500000 0.815126
O O6 0.675635 0.728780 0.781019
O O7 0.592432 0.761673 0.767479
O O8 0.500000 0.718902 0.000000
O O9 0.739373 0.237771 0.824576
O O10 0.715928 0.000000 0.770498
O O11 0.634391 0.500000 0.139054
O O12 0.676058 0.266554 0.163672
O O13 0.646070 0.241747 0.064518
O O14 0.229103 0.500000 0.917525
O O15 0.163451 0.500000 0.618075
O O16 0.250000 0.750000 0.500000
#
# Coordination Sequence:
#
# PCOD8107125 Si02
#       6
#     8   8   8   8   8   8
#     4  10  21  37  58  85 115 153 195 236 286 341
#     4  11  25  42  60  85 117 154 195 239 288 346
#     4  10  21  37  58  84 115 151 192 240 287 340
#     4   9  19  36  58  83 114 151 191 236 287 344
#     4   9  19  36  57  84 115 149 192 238 287 341
#     4  12  24  40  62  86 117 155 193 238 288 344
#
# _framework density 19.244724999999999
#
# number of rings (size 3 to 8) (size 9 to 14) (size 15 to 20)
#    0.000    1.833    1.667    2.000    2.333    3.333 
#    0.000    3.333    0.000    0.000    0.000    7.000 
#    0.000    0.000    0.000    0.000    0.000    0.000 
#
# Total GULP energy -297691.116097 kJ/mol
# GULP energy per Si atom -12403.796504 kJ/mol
# Density = 1.920092 g / cm^3
# Si number density = 19.244725 Si / 1000 Ang^3
#
#
#
# Elastic Constant Matrix: (Units=GPa)
#
#
# Indices 1 2 3 4 5 6 
#
# 1 49.9148 3.9777 22.5414 -0.0155 8.1448 0.0043
# 2 3.9777 58.5148 28.0018 -0.0209 3.4180 0.0078
# 3 22.5414 28.0018 111.0413 -0.0332 -0.4965 0.0151
# 4 -0.0155 -0.0209 -0.0332 29.2853 0.0131 3.0314
# 5 8.1448 3.4180 -0.4965 0.0131 42.1121 -0.0073
# 6 0.0043 0.0078 0.0151 3.0314 -0.0073 27.4835
#
#
#
# Elastic Compliance Matrix: (Units=1/GPa)
#
#
# Indices 1 2 3 4 5 6 
#
# 1 0.022930 0.001076 -0.004947 0.000010 -0.004580 -0.000003
# 2 0.001076 0.019599 -0.005169 0.000010 -0.001860 -0.000004
# 3 -0.004947 -0.005169 0.011320 0.000006 0.001510 -0.000004
# 4 0.000010 0.000010 0.000006 0.034541 -0.000014 -0.003810
# 5 -0.004580 -0.001860 0.001510 -0.000014 0.024801 0.000009
# 6 -0.000003 -0.000004 -0.000004 -0.003810 0.000009 0.036806
#
#
# Mechanical properties :
#
#
# Convention : Reuss Voigt Hill
#
# Bulk Modulus (GPa) = 27.95696 36.50142 32.22919
# Shear Modulus (GPa) = 27.77800 30.77284 29.27542
#
# Velocity S-wave (km/s) = 3.80334 4.00312 3.90451
# Velocity P-wave (km/s) = 5.81772 6.35412 6.09182
#
# Compressibility (1/GPa) = 0.03576927
#
# Stress axis : x y z
#
# Youngs Moduli (GPa) = 43.61165 51.02350 88.33873
#
# Poissons Ratio (x) = -0.05490 0.43697
# Poissons Ratio (y) = -0.04692 0.45663
# Poissons Ratio (z) = 0.21573 0.26374
#
# Static dielectric constant tensor:
#      x y z
#    x 3.722920 -0.000030 0.045710 
#    y -0.000030 3.476850 0.000040 
#    z 0.045710 0.000040 3.737420 
# 
# 
# High freq. dielectric constant tensor:
#      x y z
#    x 1.750160 0.000000 0.000420 
#    y 0.000000 1.743170 0.000000 
#    z 0.000420 0.000000 1.759090 
# 
# From -- ./inp_files/244660.got.cif
#   From: 2010.06.25/outbox.cif.g09.slc.cpg/sg12_123_cif.got.tgz:244660.got - 2010.06.28 00:19:55.
