data_PCOD8107826
_publ_section_title
;
Structure prediction by ZEFSAII (Michael W. Deem and Ramdas Pophale) SiO2 
 PCOD8107826
Probable space group: C 2/M
;
_chemical_formula_sum "Si O2"
_cell_formula_units_Z 48
_cell_length_a 9.271647
_cell_length_b 18.094376
_cell_length_c 22.285747
_cell_angle_alpha 90.000000
_cell_angle_beta 145.123289
_cell_angle_gamma 90.000000
_cell_volume 2137.870078
_symmetry_space_group_name_H-M "C 2/M"
_symmetry_group_IT_number 12
_symmetry_cell_setting 'monoclinic'
loop_
_space_group_symop_operation_xyz
x,y,z
-x,y,-z
-x,-y,-z
x,-y,z
1/2+x,1/2+y,z
1/2-x,1/2+y,-z
1/2-x,1/2-y,-z
1/2+x,1/2-y,z
loop_
_atom_site_type_symbol
_atom_site_label
_atom_site_fract_x
_atom_site_fract_y
_atom_site_fract_z
Si Si1 0.974758 0.728419 0.927712
Si Si2 0.773287 0.637610 0.749714
Si Si3 0.639801 0.081699 0.707656
Si Si4 0.765419 0.124545 0.619904
Si Si5 0.206279 0.889446 0.116561
Si Si6 0.748923 0.203473 0.382087
O O1 0.828720 0.679227 0.830650
O O2 0.805704 0.800656 0.883672
O O3 0.000000 0.685241 0.000000
O O4 0.250000 0.750000 0.000000
O O5 0.514462 0.589880 0.672071
O O6 0.723192 0.696055 0.679660
O O7 0.015086 0.587792 0.813488
O O8 0.780733 0.101200 0.694288
O O9 0.835044 0.077510 0.830805
O O10 0.452178 0.147864 0.658246
O O11 0.513330 0.000000 0.658130
O O12 0.500000 0.097758 0.500000
O O13 0.808565 0.211534 0.623523
O O14 0.000000 0.921853 0.000000
O O15 0.000000 0.177725 0.500000
#
# Coordination Sequence:
#
# PCOD8107826 Si02
#       6
#     8   8   8   8   8   8
#     4  11  20  32  56  96 127 160 207 269 321 367
#     4  11  20  34  58  89 127 163 206 267 319 375
#     4  11  25  42  63  92 131 174 212 266 330 384
#     4  11  23  39  64  96 131 169 213 269 326 379
#     4  10  21  38  57  87 124 167 218 256 315 388
#     4  10  21  40  66  93 124 169 221 268 319 385
#
# _framework density 22.452252999999999
#
# number of rings (size 3 to 8) (size 9 to 14) (size 15 to 20)
#    0.000    1.333    3.333    5.000    2.333    3.667 
#    0.000    3.333    0.000    1.000    0.000    0.000 
#    0.000    0.000    0.000    0.000    0.000    0.000 
#
# Total GULP energy -297389.760964 kJ/mol
# GULP energy per Si atom -12391.240040 kJ/mol
# Density = 2.240115 g / cm^3
# Si number density = 22.452253 Si / 1000 Ang^3
#
#
#
# Elastic Constant Matrix: (Units=GPa)
#
#
# Indices 1 2 3 4 5 6 
#
# 1 157.5997 6.5324 70.7528 0.0011 3.9508 0.0007
# 2 6.5324 65.1896 5.6810 0.0019 -0.6485 0.0011
# 3 70.7528 5.6810 147.8117 0.0034 3.5444 0.0024
# 4 0.0011 0.0019 0.0034 -5.0077 0.0015 1.2534
# 5 3.9508 -0.6485 3.5444 0.0015 44.4908 0.0003
# 6 0.0007 0.0011 0.0024 1.2534 0.0003 -0.3200
#
#
#
# Elastic Compliance Matrix: (Units=1/GPa)
#
#
# Indices 1 2 3 4 5 6 
#
# 1 0.008104 -0.000481 -0.003851 -0.000211 -0.000420 -0.000837
# 2 -0.000481 0.015423 -0.000370 0.000889 0.000297 0.003529
# 3 -0.003851 -0.000370 0.008631 0.000920 -0.000351 0.003657
# 4 -0.000211 0.000889 0.000920-10.114326 0.000612-39.613170
# 5 -0.000420 0.000297 -0.000351 0.000612 0.022546 0.002417
# 6 -0.000837 0.003529 0.003657-39.613170 0.002417**********
#
#
# Mechanical properties :
#
#
# Convention : Reuss Voigt Hill
#
# Bulk Modulus (GPa) = 43.94439 59.61483 51.77961
# Shear Modulus (GPa) = -0.02971 27.00826 13.48928
#
# Velocity S-wave (km/s) = -0.11515 3.47208 2.45378
# Velocity P-wave (km/s) = 4.42687 6.53324 5.58034
#
# Compressibility (1/GPa) = 0.02275603
#
# Stress axis : x y z
#
# Youngs Moduli (GPa) = 123.38962 64.83767 115.85929
#
# Poissons Ratio (x) = 0.03117 0.44615
# Poissons Ratio (y) = 0.05931 0.04285
# Poissons Ratio (z) = 0.47514 0.02398
#
# Static dielectric constant tensor:
#      x y z
#    x 4.355240 0.000000 -0.292430 
#    y 0.000000 3.568040 0.000000 
#    z -0.292430 0.000000 5.027070 
# 
# 
# High freq. dielectric constant tensor:
#      x y z
#    x 1.897130 0.000000 -0.011930 
#    y 0.000000 1.835550 0.000000 
#    z -0.011930 0.000000 1.905770 
# 
# From -- ./inp_files/301821.got.cif
#   From: 2010.06.25/outbox.cif.g09.slc.cpg/sg12_151_cif.got.tgz:301821.got - 2010.06.28 00:19:55.
