data_PCOD8107562
_publ_section_title
;
Structure prediction by ZEFSAII (Michael W. Deem and Ramdas Pophale) SiO2 
 PCOD8107562
Probable space group: C 2/M
;
_chemical_formula_sum "Si O2"
_cell_formula_units_Z 64
_cell_length_a 11.912940
_cell_length_b 14.513033
_cell_length_c 30.293830
_cell_angle_alpha 90.000000
_cell_angle_beta 145.762646
_cell_angle_gamma 90.000000
_cell_volume 2946.784638
_symmetry_space_group_name_H-M "C 2/M"
_symmetry_group_IT_number 12
_symmetry_cell_setting 'monoclinic'
loop_
_space_group_symop_operation_xyz
x,y,z
-x,y,-z
-x,-y,-z
x,-y,z
1/2+x,1/2+y,z
1/2-x,1/2+y,-z
1/2-x,1/2-y,-z
1/2+x,1/2-y,z
loop_
_atom_site_type_symbol
_atom_site_label
_atom_site_fract_x
_atom_site_fract_y
_atom_site_fract_z
Si Si1 0.181749 0.894492 0.837021
Si Si2 0.575237 0.397364 0.654286
Si Si3 0.752783 0.104008 0.380703
Si Si4 0.712667 0.713093 0.089107
Si Si5 0.933597 0.395958 0.832462
Si Si6 0.639487 0.774892 0.419577
Si Si7 0.690192 0.105037 0.792782
Si Si8 0.241924 0.394865 0.711448
O O1 0.258875 0.823751 0.899291
O O2 0.299319 0.871772 0.830737
O O3 0.945884 0.877941 0.750636
O O4 0.216896 0.000000 0.864491
O O5 0.497493 0.500000 0.641002
O O6 0.581584 0.382049 0.603239
O O7 0.797646 0.383608 0.745067
O O8 0.423561 0.321752 0.624252
O O9 0.784988 0.170706 0.433288
O O10 0.541612 0.125361 0.289902
O O11 0.760659 0.000000 0.401690
O O12 0.724834 0.671406 0.142127
O O13 0.878823 0.671611 0.110356
O O14 0.500000 0.688483 0.000000
O O15 0.015701 0.500000 0.862107
O O16 0.750000 0.750000 0.500000
O O17 0.436596 0.831387 0.364610
O O18 0.796761 0.126143 0.780622
O O19 0.725850 0.000000 0.819808
O O20 0.166883 0.500000 0.682704
#
# Coordination Sequence:
#
# PCOD8107562 Si02
#       8
#     8   8   8   8   8   8   8   8
#     4  10  24  44  64  87 125 174 218 262 312 377
#     4  10  21  37  61  89 118 158 206 252 305 368
#     4   9  19  39  64  85 115 163 210 253 298 362
#     4  12  25  37  65  98 132 164 208 266 336 384
#     4  10  22  42  65  93 125 161 212 269 322 377
#     4  11  23  35  57  95 130 158 196 258 322 367
#     4   9  18  36  63  93 122 158 211 266 311 368
#     4   9  20  41  68  92 120 171 227 263 304 380
#
# _framework density 21.718589000000001
#
# number of rings (size 3 to 8) (size 9 to 14) (size 15 to 20)
#    0.000    2.000    1.250    2.250    5.250    3.250 
#    0.000    1.250    0.000    0.750    0.000    7.875 
#    0.000    0.000    0.000    0.000    0.000    0.000 
#
# Total GULP energy -396742.343258 kJ/mol
# GULP energy per Si atom -12398.198227 kJ/mol
# Density = 2.166916 g / cm^3
# Si number density = 21.718589 Si / 1000 Ang^3
#
#
#
# Elastic Constant Matrix: (Units=GPa)
#
#
# Indices 1 2 3 4 5 6 
#
# 1 92.9710 39.6851 14.3231 0.0000 4.4591 0.0000
# 2 39.6851 128.0957 38.1327 0.0000 -0.9753 0.0000
# 3 14.3231 38.1327 74.4799 0.0000 -5.1064 0.0000
# 4 0.0000 0.0000 0.0000 16.9312 0.0000 -8.0470
# 5 4.4591 -0.9753 -5.1064 0.0000 18.4838 0.0000
# 6 0.0000 0.0000 0.0000 -8.0470 0.0000 29.2393
#
#
#
# Elastic Compliance Matrix: (Units=1/GPa)
#
#
# Indices 1 2 3 4 5 6 
#
# 1 0.012623 -0.003709 -0.000765 0.000000 -0.003452 0.000000
# 2 -0.003709 0.010313 -0.004554 0.000000 0.000181 0.000000
# 3 -0.000765 -0.004554 0.016209 0.000000 0.004422 0.000000
# 4 0.000000 0.000000 0.000000 0.067951 0.000000 0.018701
# 5 -0.003452 0.000181 0.004422 0.000000 0.056165 0.000000
# 6 0.000000 0.000000 0.000000 0.018701 0.000000 0.039347
#
#
# Mechanical properties :
#
#
# Convention : Reuss Voigt Hill
#
# Bulk Modulus (GPa) = 47.42272 53.31427 50.36850
# Shear Modulus (GPa) = 21.95931 26.49125 24.22528
#
# Velocity S-wave (km/s) = 3.18320 3.49628 3.34341
# Velocity P-wave (km/s) = 5.94919 6.39529 6.17627
#
# Compressibility (1/GPa) = 0.02108694
#
# Stress axis : x y z
#
# Youngs Moduli (GPa) = 79.22193 96.96526 61.69585
#
# Poissons Ratio (x) = 0.35966 0.04720
# Poissons Ratio (y) = 0.29385 0.28099
# Poissons Ratio (z) = 0.06061 0.44162
#
# Static dielectric constant tensor:
#      x y z
#    x 4.114390 0.000000 0.032000 
#    y 0.000000 4.223330 0.000000 
#    z 0.032000 0.000000 3.532540 
# 
# 
# High freq. dielectric constant tensor:
#      x y z
#    x 1.849170 0.000000 0.001470 
#    y 0.000000 1.870140 0.000000 
#    z 0.001470 0.000000 1.819820 
# 
# From -- ./inp_files/374128.got.cif
#   From: 2010.06.25/outbox.cif.g09.slc.cpg/sg12_188_cif.got.tgz:374128.got - 2010.06.28 00:19:55.
