data_PCOD8107899
_publ_section_title
;
Structure prediction by ZEFSAII (Michael W. Deem and Ramdas Pophale) SiO2 
 PCOD8107899
Probable space group: C 2/M
;
_chemical_formula_sum "Si O2"
_cell_formula_units_Z 56
_cell_length_a 26.615309
_cell_length_b 9.126057
_cell_length_c 11.684864
_cell_angle_alpha 90.000000
_cell_angle_beta 76.639592
_cell_angle_gamma 90.000000
_cell_volume 2761.356820
_symmetry_space_group_name_H-M "C 2/M"
_symmetry_group_IT_number 12
_symmetry_cell_setting 'monoclinic'
loop_
_space_group_symop_operation_xyz
x,y,z
-x,y,-z
-x,-y,-z
x,-y,z
1/2+x,1/2+y,z
1/2-x,1/2+y,-z
1/2-x,1/2-y,-z
1/2+x,1/2-y,z
loop_
_atom_site_type_symbol
_atom_site_label
_atom_site_fract_x
_atom_site_fract_y
_atom_site_fract_z
Si Si1 0.891855 0.830038 0.293960
Si Si2 0.417044 0.172710 0.806124
Si Si3 0.114713 0.330600 0.925521
Si Si4 0.005321 0.830480 0.626330
Si Si5 0.734678 0.829609 0.892776
Si Si6 0.803875 0.667936 0.468801
Si Si7 0.181757 0.667029 0.280692
O O1 0.910207 0.767028 0.161745
O O2 0.936375 0.804608 0.363508
O O3 0.840899 0.743760 0.358060
O O4 0.877992 0.000000 0.288680
O O5 0.468224 0.245067 0.730992
O O6 0.367190 0.229945 0.762682
O O7 0.421877 0.000000 0.788239
O O8 0.411263 0.217376 0.941591
O O9 0.103061 0.500000 0.905819
O O10 0.175369 0.299349 0.897985
O O11 0.000000 0.769483 0.500000
O O12 0.989556 0.000000 0.639017
O O13 0.768122 0.764972 0.771191
O O14 0.746491 0.000000 0.900500
O O15 0.750000 0.750000 0.000000
O O16 0.795109 0.500000 0.435343
O O17 0.750000 0.750000 0.500000
O O18 0.830673 0.676602 0.578691
O O19 0.193317 0.500000 0.236386
#
# Coordination Sequence:
#
# PCOD8107899 Si02
#       7
#     8   8   8   8   8   8   8
#     4  11  24  41  62  88 122 159 199 248 298 356
#     4  10  21  39  62  88 117 151 198 250 296 352
#     4  10  22  40  60  86 123 160 199 246 297 358
#     4  10  23  43  64  88 119 154 196 247 302 358
#     4  11  21  35  57  85 121 161 198 241 291 349
#     4  11  23  39  62  89 121 158 199 246 296 355
#     4  10  21  38  58  86 120 154 199 249 296 352
#
# _framework density 20.279886999999999
#
# number of rings (size 3 to 8) (size 9 to 14) (size 15 to 20)
#    0.000    1.571    1.429    3.000    0.000    7.714 
#    0.000    2.857    0.000    0.000    0.000    0.000 
#    0.000    0.000    0.000    0.000    0.000    0.000 
#
# Total GULP energy -347365.630554 kJ/mol
# GULP energy per Si atom -12405.915377 kJ/mol
# Density = 2.023373 g / cm^3
# Si number density = 20.279887 Si / 1000 Ang^3
#
#
#
# Elastic Constant Matrix: (Units=GPa)
#
#
# Indices 1 2 3 4 5 6 
#
# 1 74.0728 47.6077 46.5275 0.0000 -2.4756 0.0000
# 2 47.6077 95.3786 55.4649 0.0000 -2.0110 0.0000
# 3 46.5275 55.4649 131.1987 0.0000 -1.1023 0.0000
# 4 0.0000 0.0000 0.0000 35.0776 0.0000 -2.9668
# 5 -2.4756 -2.0110 -1.1023 0.0000 41.2384 0.0000
# 6 0.0000 0.0000 0.0000 -2.9668 0.0000 33.5874
#
#
#
# Elastic Compliance Matrix: (Units=1/GPa)
#
#
# Indices 1 2 3 4 5 6 
#
# 1 0.021428 -0.008306 -0.004081 0.000000 0.000772 0.000000
# 2 -0.008306 0.017133 -0.004296 0.000000 0.000222 0.000000
# 3 -0.004081 -0.004296 0.010884 0.000000 -0.000164 0.000000
# 4 0.000000 0.000000 0.000000 0.028723 0.000000 0.002537
# 5 0.000772 0.000222 -0.000164 0.000000 0.024302 0.000000
# 6 0.000000 0.000000 0.000000 0.002537 0.000000 0.029997
#
#
# Mechanical properties :
#
#
# Convention : Reuss Voigt Hill
#
# Bulk Modulus (GPa) = 62.19159 66.65004 64.42082
# Shear Modulus (GPa) = 29.20684 32.05068 30.62876
#
# Velocity S-wave (km/s) = 3.79910 3.97976 3.89048
# Velocity P-wave (km/s) = 7.06947 7.35217 7.21221
#
# Compressibility (1/GPa) = 0.01607934
#
# Stress axis : x y z
#
# Youngs Moduli (GPa) = 46.66791 58.36630 91.87820
#
# Poissons Ratio (x) = 0.48480 0.37497
# Poissons Ratio (y) = 0.38763 0.39468
# Poissons Ratio (z) = 0.19046 0.25072
#
# Static dielectric constant tensor:
#      x y z
#    x 3.474750 0.000000 0.108420 
#    y 0.000000 3.718140 0.000000 
#    z 0.108420 0.000000 3.845060 
# 
# 
# High freq. dielectric constant tensor:
#      x y z
#    x 1.789260 0.000000 0.007400 
#    y 0.000000 1.790240 0.000000 
#    z 0.007400 0.000000 1.807530 
# 
# From -- ./inp_files/180834.got.cif
#   From: 2010.06.25/outbox.cif.g09.slc.cpg/sg12_91_cif.got.tgz:180834.got - 2010.06.28 00:19:55.
