data_PCOD8107842
_publ_section_title
;
Structure prediction by ZEFSAII (Michael W. Deem and Ramdas Pophale) SiO2 
 PCOD8107842
Probable space group: C 2/M
;
_chemical_formula_sum "Si O2"
_cell_formula_units_Z 48
_cell_length_a 32.294609
_cell_length_b 9.169837
_cell_length_c 16.109550
_cell_angle_alpha 90.000000
_cell_angle_beta 32.384228
_cell_angle_gamma 90.000000
_cell_volume 2555.118496
_symmetry_space_group_name_H-M "C 2/M"
_symmetry_group_IT_number 12
_symmetry_cell_setting 'monoclinic'
loop_
_space_group_symop_operation_xyz
x,y,z
-x,y,-z
-x,-y,-z
x,-y,z
1/2+x,1/2+y,z
1/2-x,1/2+y,-z
1/2-x,1/2-y,-z
1/2+x,1/2-y,z
loop_
_atom_site_type_symbol
_atom_site_label
_atom_site_fract_x
_atom_site_fract_y
_atom_site_fract_z
Si Si1 0.859142 0.835518 0.863922
Si Si2 0.317726 0.164547 0.781265
Si Si3 0.032037 0.332199 0.854626
Si Si4 0.272622 0.669466 0.702868
Si Si5 0.186605 0.172046 0.552181
Si Si6 0.897881 0.331069 0.954603
O O1 0.870760 0.749580 0.757941
O O2 0.909489 0.759927 0.850636
O O3 0.888816 0.000000 0.801668
O O4 0.770118 0.831879 0.040151
O O5 0.324416 0.241340 0.680614
O O6 0.348594 0.000000 0.721436
O O7 0.058374 0.500000 0.799148
O O8 0.102811 0.224971 0.721067
O O9 0.966022 0.289152 0.901342
O O10 0.000000 0.304895 0.000000
O O11 0.286888 0.500000 0.696472
O O12 0.299643 0.716114 0.566246
O O13 0.182314 0.709186 0.864419
O O14 0.250000 0.250000 0.500000
O O15 0.193892 0.000000 0.553075
O O16 0.899079 0.500000 0.927904
#
# Coordination Sequence:
#
# PCOD8107842 Si02
#       6
#     8   8   8   8   8   8
#     4   9  16  26  43  70 104 137 170 211 256 302
#     4   9  16  26  44  72 103 135 172 212 254 302
#     4  10  21  38  58  79 106 140 176 216 266 319
#     4   9  18  33  52  75 104 138 174 213 260 309
#     4  11  23  38  57  80 107 139 176 218 264 316
#     4   9  17  31  52  75 102 137 175 214 257 309
#
# _framework density 18.785823000000001
#
# number of rings (size 3 to 8) (size 9 to 14) (size 15 to 20)
#    0.000    2.500    0.000    2.500    0.000    9.000 
#    0.000    3.333    0.000    1.000    0.000    7.000 
#    0.000    0.000    0.000    0.000    0.000    0.000 
#
# Total GULP energy -297650.132525 kJ/mol
# GULP energy per Si atom -12402.088855 kJ/mol
# Density = 1.874307 g / cm^3
# Si number density = 18.785823 Si / 1000 Ang^3
#
#
#
# Elastic Constant Matrix: (Units=GPa)
#
#
# Indices 1 2 3 4 5 6 
#
# 1 170.7834 86.5395 55.6450 0.0000 25.5779 0.0000
# 2 86.5395 113.5263 44.5788 0.0000 19.2758 0.0000
# 3 55.6450 44.5788 66.2000 0.0000 13.2799 0.0000
# 4 0.0000 0.0000 0.0000 24.3997 0.0000 4.7947
# 5 25.5779 19.2758 13.2799 0.0000 27.5830 0.0000
# 6 0.0000 0.0000 0.0000 4.7947 0.0000 37.7828
#
#
#
# Elastic Compliance Matrix: (Units=1/GPa)
#
#
# Indices 1 2 3 4 5 6 
#
# 1 0.010842 -0.005897 -0.004375 0.000000 -0.003827 0.000000
# 2 -0.005897 0.015830 -0.005071 0.000000 -0.003153 0.000000
# 3 -0.004375 -0.005071 0.022883 0.000000 -0.003417 0.000000
# 4 0.000000 0.000000 0.000000 0.042032 0.000000 -0.005334
# 5 -0.003827 -0.003153 -0.003417 0.000000 0.043651 0.000000
# 6 0.000000 0.000000 0.000000 -0.005334 0.000000 0.027144
#
#
# Mechanical properties :
#
#
# Convention : Reuss Voigt Hill
#
# Bulk Modulus (GPa) = 52.99330 80.44850 66.72090
# Shear Modulus (GPa) = 25.08058 28.86954 26.97506
#
# Velocity S-wave (km/s) = 3.65784 3.92442 3.79347
# Velocity P-wave (km/s) = 6.79045 7.96566 7.40142
#
# Compressibility (1/GPa) = 0.01887031
#
# Stress axis : x y z
#
# Youngs Moduli (GPa) = 92.23333 63.16975 43.70086
#
# Poissons Ratio (x) = 0.37253 0.19117
# Poissons Ratio (y) = 0.54392 0.22159
# Poissons Ratio (z) = 0.40348 0.32031
#
# Static dielectric constant tensor:
#      x y z
#    x 3.596390 0.000000 0.180840 
#    y 0.000000 3.521870 0.000000 
#    z 0.180840 0.000000 3.156300 
# 
# 
# High freq. dielectric constant tensor:
#      x y z
#    x 1.742060 0.000000 0.019270 
#    y 0.000000 1.734300 0.000000 
#    z 0.019270 0.000000 1.694460 
# 
# From -- ./inp_files/230408.got.cif
#   From: 2010.06.25/outbox.cif.g09.slc.cpg/sg12_116_cif.got.tgz:230408.got - 2010.06.28 00:19:55.
