data_PCOD8107019
_publ_section_title
;
Structure prediction by ZEFSAII (Michael W. Deem and Ramdas Pophale) SiO2 
 PCOD8107019
Probable space group: C 2/M
;
_chemical_formula_sum "Si O2"
_cell_formula_units_Z 64
_cell_length_a 13.552823
_cell_length_b 13.757556
_cell_length_c 15.756783
_cell_angle_alpha 90.000000
_cell_angle_beta 63.405348
_cell_angle_gamma 90.000000
_cell_volume 2627.068189
_symmetry_space_group_name_H-M "C 2/M"
_symmetry_group_IT_number 12
_symmetry_cell_setting 'monoclinic'
loop_
_space_group_symop_operation_xyz
x,y,z
-x,y,-z
-x,-y,-z
x,-y,z
1/2+x,1/2+y,z
1/2-x,1/2+y,-z
1/2-x,1/2-y,-z
1/2+x,1/2-y,z
loop_
_atom_site_type_symbol
_atom_site_label
_atom_site_fract_x
_atom_site_fract_y
_atom_site_fract_z
Si Si1 0.377576 0.386808 0.354867
Si Si2 0.628907 0.388962 0.839338
Si Si3 0.515995 0.202829 0.900134
Si Si4 0.064633 0.605955 0.380557
Si Si5 0.859635 0.607460 0.832040
Si Si6 0.197704 0.610803 0.718326
Si Si7 0.179918 0.609362 0.542364
Si Si8 0.066907 0.818707 0.390839
O O1 0.401886 0.500000 0.364835
O O2 0.344977 0.372657 0.269820
O O3 0.274010 0.343943 0.447851
O O4 0.483290 0.323479 0.343050
O O5 0.594655 0.500000 0.870972
O O6 0.527130 0.319947 0.904430
O O7 0.738244 0.358331 0.849537
O O8 0.410098 0.178846 0.883141
O O9 0.632211 0.166816 0.816909
O O10 0.500000 0.157666 0.000000
O O11 0.121196 0.500000 0.386892
O O12 0.059854 0.604028 0.280145
O O13 0.116288 0.709359 0.387608
O O14 0.936807 0.609705 0.463564
O O15 0.853192 0.500000 0.875102
O O16 0.157465 0.500000 0.740881
O O17 0.168766 0.660920 0.638313
O O18 0.330298 0.614878 0.675464
O O19 0.216878 0.500000 0.549532
O O20 0.000000 0.856237 0.500000
#
# Coordination Sequence:
#
# PCOD8107019 Si02
#       8
#     8   8   8   8   8   8   8   8
#     4  10  21  39  64  98 139 184 233 280 338 419
#     4  10  24  46  71  99 139 188 232 285 348 418
#     4  12  26  44  74 109 139 176 235 296 354 416
#     4  10  21  37  57  85 127 181 232 279 329 394
#     4  10  21  43  71  97 134 182 231 289 356 415
#     4  11  23  42  66  99 140 177 219 280 356 416
#     4   9  18  35  61  89 125 174 222 273 328 394
#     4  12  24  37  62 100 139 187 228 278 347 418
#
# _framework density 24.361758999999999
#
# number of rings (size 3 to 8) (size 9 to 14) (size 15 to 20)
#    0.000    1.500    2.500    2.250    0.000    5.000 
#    0.000    2.500    0.000    2.250    0.000    0.000 
#    0.000    0.000    0.000    0.000    0.000    0.000 
#
# Total GULP energy -396668.736312 kJ/mol
# GULP energy per Si atom -12395.898010 kJ/mol
# Density = 2.430631 g / cm^3
# Si number density = 24.361759 Si / 1000 Ang^3
#
#
#
# Elastic Constant Matrix: (Units=GPa)
#
#
# Indices 1 2 3 4 5 6 
#
# 1 144.1817 46.2922 31.1168 0.0000 10.0611 0.0000
# 2 46.2922 95.3168 32.0924 0.0000 5.9801 0.0000
# 3 31.1168 32.0924 108.0821 0.0000 16.2273 0.0000
# 4 0.0000 0.0000 0.0000 18.3116 0.0000 -0.8289
# 5 10.0611 5.9801 16.2273 0.0000 24.7054 0.0000
# 6 0.0000 0.0000 0.0000 -0.8289 0.0000 34.2973
#
#
#
# Elastic Compliance Matrix: (Units=1/GPa)
#
#
# Indices 1 2 3 4 5 6 
#
# 1 0.008464 -0.003631 -0.001080 0.000000 -0.001859 0.000000
# 2 -0.003631 0.013222 -0.002909 0.000000 0.000189 0.000000
# 3 -0.001080 -0.002909 0.011377 0.000000 -0.006329 0.000000
# 4 0.000000 0.000000 0.000000 0.054670 0.000000 0.001321
# 5 -0.001859 0.000189 -0.006329 0.000000 0.045345 0.000000
# 6 0.000000 0.000000 0.000000 0.001321 0.000000 0.029189
#
#
# Mechanical properties :
#
#
# Convention : Reuss Voigt Hill
#
# Bulk Modulus (GPa) = 56.10226 62.95370 59.52798
# Shear Modulus (GPa) = 27.25571 31.33481 29.29526
#
# Velocity S-wave (km/s) = 3.34846 3.59029 3.47148
# Velocity P-wave (km/s) = 6.16672 6.56386 6.36839
#
# Compressibility (1/GPa) = 0.01782460
#
# Stress axis : x y z
#
# Youngs Moduli (GPa) = 118.14615 75.63025 87.89589
#
# Poissons Ratio (x) = 0.27458 0.09490
# Poissons Ratio (y) = 0.42894 0.25570
# Poissons Ratio (z) = 0.12756 0.22002
#
# Static dielectric constant tensor:
#      x y z
#    x 4.125820 0.000000 0.102020 
#    y 0.000000 4.503030 0.000000 
#    z 0.102020 0.000000 4.185550 
# 
# 
# High freq. dielectric constant tensor:
#      x y z
#    x 1.962050 0.000000 0.008000 
#    y 0.000000 1.976830 0.000000 
#    z 0.008000 0.000000 1.945780 
# 
# From -- ./inp_files/270271.got.cif
#   From: 2010.06.25/outbox.cif.g09.slc.cpg/sg12_136_cif.got.tgz:270271.got - 2010.06.28 00:19:55.
