data_PCOD8107764
_publ_section_title
;
Structure prediction by ZEFSAII (Michael W. Deem and Ramdas Pophale) SiO2 
 PCOD8107764
Probable space group: C 2/M
;
_chemical_formula_sum "Si O2"
_cell_formula_units_Z 56
_cell_length_a 14.489456
_cell_length_b 18.285032
_cell_length_c 16.168530
_cell_angle_alpha 90.000000
_cell_angle_beta 46.831468
_cell_angle_gamma 90.000000
_cell_volume 3124.287887
_symmetry_space_group_name_H-M "C 2/M"
_symmetry_group_IT_number 12
_symmetry_cell_setting 'monoclinic'
loop_
_space_group_symop_operation_xyz
x,y,z
-x,y,-z
-x,-y,-z
x,-y,z
1/2+x,1/2+y,z
1/2-x,1/2+y,-z
1/2-x,1/2-y,-z
1/2+x,1/2-y,z
loop_
_atom_site_type_symbol
_atom_site_label
_atom_site_fract_x
_atom_site_fract_y
_atom_site_fract_z
Si Si1 0.801771 0.308496 0.585347
Si Si2 0.125153 0.916340 0.605402
Si Si3 0.125097 0.415973 0.970631
Si Si4 0.136140 0.147950 0.257851
Si Si5 0.943479 0.309064 0.666258
Si Si6 0.021426 0.583523 0.211819
Si Si7 0.745441 0.643391 0.368080
O O1 0.696689 0.368451 0.630021
O O2 0.857800 0.328285 0.640198
O O3 0.737229 0.229211 0.624449
O O4 0.909268 0.309293 0.449015
O O5 0.168396 0.895258 0.487427
O O6 0.975232 0.904578 0.705427
O O7 0.158595 0.000000 0.603324
O O8 0.152432 0.500000 0.928918
O O9 0.241065 0.365208 0.873086
O O10 0.110103 0.407195 0.077905
O O11 0.000000 0.388235 0.000000
O O12 0.092721 0.231302 0.273227
O O13 0.163394 0.130443 0.336597
O O14 0.919417 0.369993 0.750114
O O15 0.016448 0.500000 0.244695
O O16 0.881735 0.608379 0.272257
#
# Coordination Sequence:
#
# PCOD8107764 Si02
#       7
#     8   8   8   8   8   8   8
#     4  10  21  38  56  79 117 154 182 227 283 332
#     4  12  23  33  54  87 117 149 185 227 281 339
#     4  10  21  38  57  82 117 151 181 226 284 333
#     4  11  22  37  58  83 114 149 185 229 278 340
#     4  10  21  38  59  81 109 151 194 229 276 325
#     4  11  22  36  59  84 111 147 188 234 278 327
#     4  11  20  35  56  83 113 145 183 224 283 340
#
# _framework density 17.924083
#
# number of rings (size 3 to 8) (size 9 to 14) (size 15 to 20)
#    0.000    1.286    4.286    2.571    0.000    3.429 
#    0.000    1.429    0.000    0.000    0.000    3.000 
#    0.000    0.000    0.000    0.000    0.000    0.000 
#
# Total GULP energy -347375.469279 kJ/mol
# GULP energy per Si atom -12406.266760 kJ/mol
# Density = 1.788329 g / cm^3
# Si number density = 17.924083 Si / 1000 Ang^3
#
#
#
# Elastic Constant Matrix: (Units=GPa)
#
#
# Indices 1 2 3 4 5 6 
#
# 1 72.6967 50.9906 35.5989 0.0000 -5.9278 0.0000
# 2 50.9906 111.3928 46.7888 0.0000 0.3493 0.0000
# 3 35.5989 46.7888 82.0082 0.0000 -9.0097 0.0001
# 4 0.0000 0.0000 0.0000 21.5860 0.0000 4.9014
# 5 -5.9278 0.3493 -9.0097 0.0000 27.1023 0.0000
# 6 0.0000 0.0000 0.0001 4.9014 0.0000 21.6419
#
#
#
# Elastic Compliance Matrix: (Units=1/GPa)
#
#
# Indices 1 2 3 4 5 6 
#
# 1 0.021974 -0.008181 -0.004496 0.000000 0.003417 0.000000
# 2 -0.008181 0.015016 -0.005432 0.000000 -0.003789 0.000000
# 3 -0.004496 -0.005432 0.017794 0.000000 0.005002 0.000000
# 4 0.000000 0.000000 0.000000 0.048838 0.000000 -0.011061
# 5 0.003417 -0.003789 0.005002 0.000000 0.039356 0.000000
# 6 0.000000 0.000000 0.000000 -0.011061 0.000000 0.048712
#
#
# Mechanical properties :
#
#
# Convention : Reuss Voigt Hill
#
# Bulk Modulus (GPa) = 53.86044 59.20604 56.53324
# Shear Modulus (GPa) = 21.35872 22.91400 22.13636
#
# Velocity S-wave (km/s) = 3.45573 3.57934 3.51808
# Velocity P-wave (km/s) = 6.78507 7.08417 6.93623
#
# Compressibility (1/GPa) = 0.01856650
#
# Stress axis : x y z
#
# Youngs Moduli (GPa) = 45.50750 66.59698 56.19848
#
# Poissons Ratio (x) = 0.54485 0.25265
# Poissons Ratio (y) = 0.37231 0.30526
# Poissons Ratio (z) = 0.20459 0.36175
#
# Static dielectric constant tensor:
#      x y z
#    x 3.363700 0.000000 0.001930 
#    y 0.000000 3.330090 0.000000 
#    z 0.001930 0.000000 3.225100 
# 
# 
# High freq. dielectric constant tensor:
#      x y z
#    x 1.699220 0.000000 -0.001680 
#    y 0.000000 1.695610 0.000000 
#    z -0.001680 0.000000 1.683770 
# 
# From -- ./inp_files/145650.got.cif
#   From: 2010.06.25/outbox.cif.g09.slc.cpg/sg12_73_cif.got.tgz:145650.got - 2010.06.28 00:19:55.
