data_PCOD8107282
_publ_section_title
;
Structure prediction by ZEFSAII (Michael W. Deem and Ramdas Pophale) SiO2 
 PCOD8107282
Probable space group: C 2/M
;
_chemical_formula_sum "Si O2"
_cell_formula_units_Z 56
_cell_length_a 14.212179
_cell_length_b 13.402490
_cell_length_c 28.997022
_cell_angle_alpha 90.000000
_cell_angle_beta 150.557234
_cell_angle_gamma 90.000000
_cell_volume 2715.005430
_symmetry_space_group_name_H-M "C 2/M"
_symmetry_group_IT_number 12
_symmetry_cell_setting 'monoclinic'
loop_
_space_group_symop_operation_xyz
x,y,z
-x,y,-z
-x,-y,-z
x,-y,z
1/2+x,1/2+y,z
1/2-x,1/2+y,-z
1/2-x,1/2-y,-z
1/2+x,1/2-y,z
loop_
_atom_site_type_symbol
_atom_site_label
_atom_site_fract_x
_atom_site_fract_y
_atom_site_fract_z
Si Si1 0.895840 0.618938 0.089258
Si Si2 0.256301 0.115077 0.218335
Si Si3 0.792228 0.293323 0.408940
Si Si4 0.797823 0.390614 0.577170
Si Si5 0.070680 0.111881 0.392506
Si Si6 0.519219 0.733570 0.955135
Si Si7 0.289870 0.232852 0.727961
O O1 0.893243 0.500000 0.082367
O O2 0.955961 0.667778 0.065807
O O3 0.047666 0.649986 0.193696
O O4 0.690662 0.656704 0.018676
O O5 0.482317 0.128911 0.317779
O O6 0.160300 0.168045 0.221559
O O7 0.176245 0.173203 0.139572
O O8 0.194441 0.000000 0.191210
O O9 0.829491 0.188223 0.450185
O O10 0.636323 0.359814 0.369093
O O11 0.709571 0.271066 0.323671
O O12 0.000000 0.347620 0.500000
O O13 0.735937 0.500000 0.568047
O O14 0.757077 0.380214 0.505101
O O15 0.913045 0.187813 0.343600
O O16 0.986216 0.000000 0.355730
O O17 0.500000 0.767381 0.000000
#
# Coordination Sequence:
#
# PCOD8107282 Si02
#       7
#     8   8   8   8   8   8   8
#     4  10  23  42  64  93 125 159 201 248 301 363
#     4  10  21  39  62  85 118 159 199 246 303 356
#     4  12  23  37  62  88 122 161 209 252 298 354
#     4  10  21  37  59  85 118 160 204 247 298 356
#     4  11  23  41  60  86 125 164 202 252 305 355
#     4  10  23  42  65  93 124 157 199 252 305 358
#     4  11  23  39  62  88 125 161 202 251 301 358
#
# _framework density 20.626109
#
# number of rings (size 3 to 8) (size 9 to 14) (size 15 to 20)
#    0.000    1.429    2.857    2.143    2.000    3.714 
#    0.000    0.000    0.000    5.143    0.000    0.000 
#    0.000    0.000    0.000    0.000    0.000    0.000 
#
# Total GULP energy -347171.171166 kJ/mol
# GULP energy per Si atom -12398.970399 kJ/mol
# Density = 2.057916 g / cm^3
# Si number density = 20.626109 Si / 1000 Ang^3
#
#
#
# Elastic Constant Matrix: (Units=GPa)
#
#
# Indices 1 2 3 4 5 6 
#
# 1 85.1554 0.5436 35.5940 0.0001 -23.4135 -0.0001
# 2 0.5436 64.9831 19.7406 0.0001 -8.6901 -0.0003
# 3 35.5940 19.7406 112.5052 0.0002 -10.8544 0.0003
# 4 0.0001 0.0001 0.0002 27.3153 0.0001 -0.0599
# 5 -23.4135 -8.6901 -10.8544 0.0001 37.2428 -0.0001
# 6 -0.0001 -0.0003 0.0003 -0.0599 -0.0001 9.1593
#
#
#
# Elastic Compliance Matrix: (Units=1/GPa)
#
#
# Indices 1 2 3 4 5 6 
#
# 1 0.016291 0.002555 -0.004688 0.000000 0.009471 0.000001
# 2 0.002555 0.016999 -0.003347 0.000000 0.004597 0.000001
# 3 -0.004688 -0.003347 0.010906 0.000000 -0.000550 -0.000001
# 4 0.000000 0.000000 0.000000 0.036610 0.000000 0.000239
# 5 0.009471 0.004597 -0.000550 0.000000 0.033717 0.000001
# 6 0.000001 0.000001 -0.000001 0.000239 0.000001 0.109181
#
#
# Mechanical properties :
#
#
# Convention : Reuss Voigt Hill
#
# Bulk Modulus (GPa) = 30.09053 41.60001 35.84527
# Shear Modulus (GPa) = 20.34638 28.52783 24.43711
#
# Velocity S-wave (km/s) = 3.14417 3.72303 3.44578
# Velocity P-wave (km/s) = 5.27269 6.22042 5.76606
#
# Compressibility (1/GPa) = 0.03323305
#
# Stress axis : x y z
#
# Youngs Moduli (GPa) = 61.38458 58.82757 91.69197
#
# Poissons Ratio (x) = -0.15028 0.42989
# Poissons Ratio (y) = -0.15681 0.30693
# Poissons Ratio (z) = 0.28780 0.19692
#
# Static dielectric constant tensor:
#      x y z
#    x 3.558120 0.000000 -0.096390 
#    y 0.000000 3.867030 0.000000 
#    z -0.096390 0.000000 3.919370 
# 
# 
# High freq. dielectric constant tensor:
#      x y z
#    x 1.792670 0.000000 -0.002440 
#    y 0.000000 1.810390 0.000000 
#    z -0.002440 0.000000 1.818240 
# 
# From -- ./inp_files/376396.got.cif
#   From: 2010.06.25/outbox.cif.g09.slc.cpg/sg12_189_cif.got.tgz:376396.got - 2010.06.28 00:19:55.
