data_PCOD8107357
_publ_section_title
;
Structure prediction by ZEFSAII (Michael W. Deem and Ramdas Pophale) SiO2 
 PCOD8107357
Probable space group: C 2/M
;
_chemical_formula_sum "Si O2"
_cell_formula_units_Z 44
_cell_length_a 19.598441
_cell_length_b 21.090928
_cell_length_c 4.933442
_cell_angle_alpha 90.000000
_cell_angle_beta 64.528987
_cell_angle_gamma 90.000000
_cell_volume 1841.027272
_symmetry_space_group_name_H-M "C 2/M"
_symmetry_group_IT_number 12
_symmetry_cell_setting 'monoclinic'
loop_
_space_group_symop_operation_xyz
x,y,z
-x,y,-z
-x,-y,-z
x,-y,z
1/2+x,1/2+y,z
1/2-x,1/2+y,-z
1/2-x,1/2-y,-z
1/2+x,1/2-y,z
loop_
_atom_site_type_symbol
_atom_site_label
_atom_site_fract_x
_atom_site_fract_y
_atom_site_fract_z
Si Si1 0.586684 0.630995 0.256178
Si Si2 0.298695 0.071076 0.757586
Si Si3 0.910574 0.319916 0.637880
Si Si4 0.088545 0.756755 0.871671
Si Si5 0.302118 0.427485 0.557991
Si Si6 0.553329 0.500000 0.155339
O O1 0.500000 0.643834 0.500000
O O2 0.635368 0.624786 0.450917
O O3 0.602549 0.564044 0.073179
O O4 0.617342 0.680534 0.980907
O O5 0.371765 0.115682 0.608927
O O6 0.233186 0.094995 0.665728
O O7 0.324308 0.000000 0.631948
O O8 0.266826 0.072632 0.113600
O O9 0.885563 0.260832 0.479332
O O10 0.000000 0.330769 0.500000
O O11 0.884507 0.301394 0.984155
O O12 0.000000 0.763847 0.000000
O O13 0.337010 0.500000 0.478766
O O14 0.500000 0.500000 0.500000
O O15 0.500000 0.500000 0.000000
#
# Coordination Sequence:
#
# PCOD8107357 Si02
#       6
#     8   8   8   8   8   4
#     4  11  22  40  61  90 122 165 211 251 291 346
#     4  10  22  41  64  88 122 157 197 250 313 365
#     4  10  21  40  64  90 118 155 199 246 303 371
#     4  10  21  37  59  88 123 158 195 247 305 352
#     4  10  22  40  59  88 125 164 198 250 308 354
#     4  10  22  34  54  84 114 148 201 256 283 322
#
# _framework density 23.899699999999999
#
# number of rings (size 3 to 8) (size 9 to 14) (size 15 to 20)
#    0.000    1.818    0.909    3.273    0.000    7.636 
#    0.000    5.455    0.000    6.545    0.000    0.000 
#    0.000    0.000    0.000    0.000    0.000    0.000 
#
# Total GULP energy -272636.458696 kJ/mol
# GULP energy per Si atom -12392.566304 kJ/mol
# Density = 2.384530 g / cm^3
# Si number density = 23.899700 Si / 1000 Ang^3
#
#
#
# Elastic Constant Matrix: (Units=GPa)
#
#
# Indices 1 2 3 4 5 6 
#
# 1 110.3689 58.5163 19.1659 0.0000 17.9853 0.0000
# 2 58.5163 95.0062 -10.6328 0.0000 -0.4299 0.0000
# 3 19.1659 -10.6328 43.9084 0.0000 19.6138 0.0000
# 4 0.0000 0.0000 0.0000 21.3703 0.0000 11.6937
# 5 17.9853 -0.4299 19.6138 0.0000 32.4540 0.0000
# 6 0.0000 0.0000 0.0000 11.6937 0.0000 35.0293
#
#
#
# Elastic Compliance Matrix: (Units=1/GPa)
#
#
# Indices 1 2 3 4 5 6 
#
# 1 0.017524 -0.011748 -0.008337 0.000000 -0.004828 0.000000
# 2 -0.011748 0.018788 0.009121 0.000000 0.001247 0.000000
# 3 -0.008337 0.009121 0.036306 0.000000 -0.017201 0.000000
# 4 0.000000 0.000000 0.000000 0.057252 0.000000 -0.019112
# 5 -0.004828 0.001247 -0.017201 0.000000 0.043900 0.000000
# 6 0.000000 0.000000 0.000000 -0.019112 0.000000 0.034928
#
#
# Mechanical properties :
#
#
# Convention : Reuss Voigt Hill
#
# Bulk Modulus (GPa) = 19.72860 42.59803 31.16332
# Shear Modulus (GPa) = 20.20007 29.91966 25.05987
#
# Velocity S-wave (km/s) = 2.91039 3.54204 3.24163
# Velocity P-wave (km/s) = 4.42340 5.88136 5.20369
#
# Compressibility (1/GPa) = 0.05068782
#
# Stress axis : x y z
#
# Youngs Moduli (GPa) = 57.06487 53.22537 27.54368
#
# Poissons Ratio (x) = 0.62531 0.22964
# Poissons Ratio (y) = 0.67041 -0.25121
# Poissons Ratio (z) = 0.47577 -0.48544
#
# Static dielectric constant tensor:
#      x y z
#    x 4.150130 0.000000 0.524560 
#    y 0.000000 4.655350 0.000000 
#    z 0.524560 0.000000 4.552250 
# 
# 
# High freq. dielectric constant tensor:
#      x y z
#    x 1.929910 0.000000 0.036850 
#    y 0.000000 1.941000 0.000000 
#    z 0.036850 0.000000 1.960300 
# 
# From -- ./inp_files/20897.got.cif
#   From: 2010.06.25/outbox.cif.g09.slc.cpg/sg12_11_cif.got.tgz:20897.got - 2010.06.28 00:19:55.
