data_PCOD8107696
_publ_section_title
;
Structure prediction by ZEFSAII (Michael W. Deem and Ramdas Pophale) SiO2 
 PCOD8107696
Probable space group: C 2/M
;
_chemical_formula_sum "Si O2"
_cell_formula_units_Z 64
_cell_length_a 10.350788
_cell_length_b 32.693843
_cell_length_c 8.667826
_cell_angle_alpha 90.000000
_cell_angle_beta 85.090813
_cell_angle_gamma 90.000000
_cell_volume 2922.492937
_symmetry_space_group_name_H-M "C 2/M"
_symmetry_group_IT_number 12
_symmetry_cell_setting 'monoclinic'
loop_
_space_group_symop_operation_xyz
x,y,z
-x,y,-z
-x,-y,-z
x,-y,z
1/2+x,1/2+y,z
1/2-x,1/2+y,-z
1/2-x,1/2-y,-z
1/2+x,1/2-y,z
loop_
_atom_site_type_symbol
_atom_site_label
_atom_site_fract_x
_atom_site_fract_y
_atom_site_fract_z
Si Si1 0.022138 0.454405 0.316977
Si Si2 0.987859 0.045430 0.683275
Si Si3 0.768664 0.324118 0.197751
Si Si4 0.472985 0.758096 0.174136
Si Si5 0.371166 0.328396 0.099846
Si Si6 0.731171 0.090472 0.678962
Si Si7 0.363412 0.267711 0.594815
Si Si8 0.768140 0.097211 0.311520
O O1 0.056534 0.500000 0.252645
O O2 0.136420 0.422913 0.257045
O O3 0.000000 0.455361 0.500000
O O4 0.883270 0.440741 0.266408
O O5 0.115068 0.066474 0.739631
O O6 0.000000 0.041848 0.500000
O O7 0.861971 0.072042 0.737821
O O8 0.974973 0.000000 0.756075
O O9 0.875796 0.292064 0.247586
O O10 0.810653 0.370267 0.218645
O O11 0.657079 0.313437 0.334856
O O12 0.729975 0.316644 0.024553
O O13 0.409042 0.712616 0.189793
O O14 0.608268 0.760657 0.256444
O O15 0.500000 0.771639 0.000000
O O16 0.303171 0.359896 0.225655
O O17 0.500000 0.346503 0.000000
O O18 0.748705 0.102359 0.497361
O O19 0.500000 0.268502 0.500000
O O20 0.250000 0.250000 0.500000
#
# Coordination Sequence:
#
# PCOD8107696 Si02
#       8
#     8   8   8   8   8   8   8   8
#     4   9  18  38  63  92 129 168 209 262 329 393
#     4   9  17  32  60  94 124 162 210 263 323 389
#     4  12  25  43  64  94 131 177 221 269 329 396
#     4  11  25  47  69  91 129 182 229 266 327 400
#     4  11  23  41  65  90 128 177 225 268 325 397
#     4  10  22  37  60  95 132 163 211 270 332 382
#     4  12  26  45  69 100 128 167 217 288 333 386
#     4  10  21  37  63  97 127 164 214 273 322 388
#
# _framework density 21.899111999999999
#
# number of rings (size 3 to 8) (size 9 to 14) (size 15 to 20)
#    0.000    1.500    3.750    1.875    1.750    4.500 
#    6.750    0.000    0.000    9.000    0.000    0.000 
#    0.000    0.000    0.000    0.000    0.000    0.000 
#
# Total GULP energy -396532.627604 kJ/mol
# GULP energy per Si atom -12391.644613 kJ/mol
# Density = 2.184927 g / cm^3
# Si number density = 21.899112 Si / 1000 Ang^3
#
#
#
# Elastic Constant Matrix: (Units=GPa)
#
#
# Indices 1 2 3 4 5 6 
#
# 1 143.0112 56.3883 30.4878 0.0000 9.0914 0.0000
# 2 56.3883 135.9529 26.9021 0.0000 -0.5785 0.0000
# 3 30.4878 26.9021 65.3552 0.0000 13.6722 0.0000
# 4 0.0000 0.0000 0.0000 16.1394 0.0000 -4.4351
# 5 9.0914 -0.5785 13.6722 0.0000 32.2931 0.0000
# 6 0.0000 0.0000 0.0000 -4.4351 0.0000 29.4648
#
#
#
# Elastic Compliance Matrix: (Units=1/GPa)
#
#
# Indices 1 2 3 4 5 6 
#
# 1 0.008883 -0.003192 -0.002518 0.000000 -0.001492 0.000000
# 2 -0.003192 0.009240 -0.002783 0.000000 0.002243 0.000000
# 3 -0.002518 -0.002783 0.019182 0.000000 -0.007462 0.000000
# 4 0.000000 0.000000 0.000000 0.064634 0.000000 0.009729
# 5 -0.001492 0.002243 -0.007462 0.000000 0.034586 0.000000
# 6 0.000000 0.000000 0.000000 0.009729 0.000000 0.035403
#
#
# Mechanical properties :
#
#
# Convention : Reuss Voigt Hill
#
# Bulk Modulus (GPa) = 49.21660 63.54174 56.37917
# Shear Modulus (GPa) = 25.55101 30.94888 28.24994
#
# Velocity S-wave (km/s) = 3.41949 3.76340 3.59556
# Velocity P-wave (km/s) = 6.17362 6.92552 6.56035
#
# Compressibility (1/GPa) = 0.02031835
#
# Stress axis : x y z
#
# Youngs Moduli (GPa) = 112.57765 108.22640 52.13158
#
# Poissons Ratio (x) = 0.34551 0.13124
# Poissons Ratio (y) = 0.35940 0.14510
# Poissons Ratio (z) = 0.28342 0.30123
#
# Static dielectric constant tensor:
#      x y z
#    x 3.963660 0.000000 -0.152720 
#    y 0.000000 3.931820 0.000000 
#    z -0.152720 0.000000 3.707660 
# 
# 
# High freq. dielectric constant tensor:
#      x y z
#    x 1.874460 0.000000 0.002460 
#    y 0.000000 1.854640 0.000000 
#    z 0.002460 0.000000 1.838330 
# 
# From -- ./inp_files/54707.got.cif
#   From: 2010.06.25/outbox.cif.g09.slc.cpg/sg12_28_cif.got.tgz:54707.got - 2010.06.28 00:19:55.
