data_PCOD8107561
_publ_section_title
;
Structure prediction by ZEFSAII (Michael W. Deem and Ramdas Pophale) SiO2 
 PCOD8107561
Probable space group: C 2/M
;
_chemical_formula_sum "Si O2"
_cell_formula_units_Z 56
_cell_length_a 31.172320
_cell_length_b 8.511179
_cell_length_c 21.239064
_cell_angle_alpha 90.000000
_cell_angle_beta 151.966966
_cell_angle_gamma 90.000000
_cell_volume 2648.342249
_symmetry_space_group_name_H-M "C 2/M"
_symmetry_group_IT_number 12
_symmetry_cell_setting 'monoclinic'
loop_
_space_group_symop_operation_xyz
x,y,z
-x,y,-z
-x,-y,-z
x,-y,z
1/2+x,1/2+y,z
1/2-x,1/2+y,-z
1/2-x,1/2-y,-z
1/2+x,1/2-y,z
loop_
_atom_site_type_symbol
_atom_site_label
_atom_site_fract_x
_atom_site_fract_y
_atom_site_fract_z
Si Si1 0.428277 0.181220 0.454008
Si Si2 0.888035 0.680789 0.895514
Si Si3 0.832487 0.814501 0.064934
Si Si4 0.533161 0.812806 0.357320
Si Si5 0.727589 0.320294 0.151891
Si Si6 0.073223 0.817904 0.176272
Si Si7 0.153722 0.317204 0.398456
O O1 0.500000 0.264594 0.500000
O O2 0.433218 0.252889 0.531033
O O3 0.335010 0.201625 0.295631
O O4 0.454504 0.000000 0.496861
O O5 0.919058 0.500000 0.933306
O O6 0.807505 0.703270 0.840025
O O7 0.858854 0.740620 0.787936
O O8 0.969613 0.795194 0.021319
O O9 0.930771 0.746563 0.211071
O O10 0.835043 0.000000 0.075969
O O11 0.750000 0.750000 0.000000
O O12 0.810259 0.765804 0.964401
O O13 0.608755 0.749419 0.404830
O O14 0.530194 0.000000 0.349955
O O15 0.698921 0.500000 0.128964
O O16 0.080802 0.724400 0.250836
O O17 0.097745 0.000000 0.217208
O O18 0.168189 0.500000 0.425250
O O19 0.250000 0.250000 0.500000
#
# Coordination Sequence:
#
# PCOD8107561 Si02
#       7
#     8   8   8   8   8   8   8
#     4   9  18  36  62  89 118 155 202 253 302 363
#     4  11  22  37  59  89 121 153 193 251 314 368
#     4  11  23  39  63  93 124 162 206 259 317 378
#     4  10  22  40  63  91 124 165 208 256 316 377
#     4  10  21  37  61  89 118 155 206 251 300 371
#     4  11  22  39  61  84 116 159 205 251 302 361
#     4  11  24  40  60  90 126 166 212 260 313 375
#
# _framework density 21.145303999999999
#
# number of rings (size 3 to 8) (size 9 to 14) (size 15 to 20)
#    0.000    1.571    0.000    6.000    2.000    6.857 
#    0.000    0.714    0.000    1.714    0.000    0.000 
#    0.000    0.000    0.000    0.000    0.000    0.000 
#
# Total GULP energy -347072.956364 kJ/mol
# GULP energy per Si atom -12395.462727 kJ/mol
# Density = 2.109718 g / cm^3
# Si number density = 21.145304 Si / 1000 Ang^3
#
#
#
# Elastic Constant Matrix: (Units=GPa)
#
#
# Indices 1 2 3 4 5 6 
#
# 1 162.9236 27.8798 37.1345 0.0000 -0.7411 0.0000
# 2 27.8798 49.2453 11.2975 0.0000 5.5404 0.0000
# 3 37.1345 11.2975 81.0420 0.0000 -8.5475 0.0000
# 4 0.0000 0.0000 0.0000 29.8980 0.0000 2.8145
# 5 -0.7411 5.5404 -8.5475 0.0000 42.0166 0.0000
# 6 0.0000 0.0000 0.0000 2.8145 0.0000 28.5646
#
#
#
# Elastic Compliance Matrix: (Units=1/GPa)
#
#
# Indices 1 2 3 4 5 6 
#
# 1 0.007402 -0.003526 -0.002900 0.000000 0.000006 0.000000
# 2 -0.003526 0.023154 -0.001983 0.000000 -0.003519 0.000000
# 3 -0.002900 -0.001983 0.014273 0.000000 0.003114 0.000000
# 4 0.000000 0.000000 0.000000 0.033760 0.000000 -0.003326
# 5 0.000006 -0.003519 0.003114 0.000000 0.024898 0.000000
# 6 0.000000 0.000000 0.000000 -0.003326 0.000000 0.035336
#
#
# Mechanical properties :
#
#
# Convention : Reuss Voigt Hill
#
# Bulk Modulus (GPa) = 35.70033 49.53715 42.61874
# Shear Modulus (GPa) = 30.30722 34.55576 32.43149
#
# Velocity S-wave (km/s) = 3.78998 4.04692 3.92055
# Velocity P-wave (km/s) = 6.00599 6.73161 6.37913
#
# Compressibility (1/GPa) = 0.02801095
#
# Stress axis : x y z
#
# Youngs Moduli (GPa) = 135.09555 43.18981 70.06332
#
# Poissons Ratio (x) = 0.15229 0.20316
# Poissons Ratio (y) = 0.47636 0.13894
# Poissons Ratio (z) = 0.39173 0.08565
#
# Static dielectric constant tensor:
#      x y z
#    x 4.666990 0.000000 -0.231260 
#    y 0.000000 3.665360 0.000000 
#    z -0.231260 0.000000 3.800670 
# 
# 
# High freq. dielectric constant tensor:
#      x y z
#    x 1.852520 0.000000 -0.005120 
#    y 0.000000 1.808430 0.000000 
#    z -0.005120 0.000000 1.829290 
# 
# From -- ./inp_files/329675.got.cif
#   From: 2010.06.25/outbox.cif.g09.slc.cpg/sg12_165_cif.got.tgz:329675.got - 2010.06.28 00:19:55.
