data_PCOD8107641
_publ_section_title
;
Structure prediction by ZEFSAII (Michael W. Deem and Ramdas Pophale) SiO2 
 PCOD8107641
Probable space group: C 2/M
;
_chemical_formula_sum "Si O2"
_cell_formula_units_Z 64
_cell_length_a 26.219729
_cell_length_b 13.921232
_cell_length_c 9.168655
_cell_angle_alpha 90.000000
_cell_angle_beta 115.810437
_cell_angle_gamma 90.000000
_cell_volume 3012.794803
_symmetry_space_group_name_H-M "C 2/M"
_symmetry_group_IT_number 12
_symmetry_cell_setting 'monoclinic'
loop_
_space_group_symop_operation_xyz
x,y,z
-x,y,-z
-x,-y,-z
x,-y,z
1/2+x,1/2+y,z
1/2-x,1/2+y,-z
1/2-x,1/2-y,-z
1/2+x,1/2-y,z
loop_
_atom_site_type_symbol
_atom_site_label
_atom_site_fract_x
_atom_site_fract_y
_atom_site_fract_z
Si Si1 0.247418 0.360794 0.517114
Si Si2 0.982460 0.714150 0.815484
Si Si3 0.031050 0.107062 0.386343
Si Si4 0.673528 0.246410 0.865456
Si Si5 0.910560 0.390674 0.122950
Si Si6 0.376447 0.894276 0.756204
Si Si7 0.338768 0.604605 0.397941
Si Si8 0.731788 0.610716 0.118641
O O1 0.250000 0.250000 0.500000
O O2 0.186800 0.395233 0.384214
O O3 0.298602 0.405349 0.488795
O O4 0.255124 0.390002 0.694080
O O5 0.994920 0.813761 0.751342
O O6 0.916981 0.680322 0.721101
O O7 0.022479 0.629219 0.804316
O O8 0.000000 0.735690 0.000000
O O9 0.097558 0.126998 0.476920
O O10 0.000000 0.119881 0.500000
O O11 0.019297 0.000000 0.309791
O O12 0.614279 0.189052 0.796682
O O13 0.681584 0.309685 0.730506
O O14 0.719302 0.160233 0.918588
O O15 0.678310 0.320456 0.009965
O O16 0.901882 0.500000 0.167978
O O17 0.877153 0.372636 0.929688
O O18 0.402640 0.000000 0.765283
O O19 0.336980 0.500000 0.316214
O O20 0.723254 0.500000 0.057586
#
# Coordination Sequence:
#
# PCOD8107641 Si02
#       8
#     8   8   8   8   8   8   8   8
#     4  12  22  40  61  90 126 163 205 252 306 366
#     4  10  21  39  63  92 120 154 202 255 305 355
#     4  10  22  41  63  88 121 161 204 249 302 362
#     4  11  23  40  60  89 121 166 202 250 304 365
#     4  10  21  39  64  91 121 158 205 254 306 368
#     4  10  21  37  62  91 122 161 200 245 305 368
#     4  11  23  40  64  91 121 164 209 251 302 366
#     4  11  24  40  59  88 127 163 202 253 303 361
#
# _framework density 21.242735
#
# number of rings (size 3 to 8) (size 9 to 14) (size 15 to 20)
#    0.000    1.375    1.250    4.500    1.750    2.750 
#    0.000    0.625    0.000    2.250    0.000    0.000 
#    0.000    0.000    0.000    0.000    0.000    0.000 
#
# Total GULP energy -396641.708418 kJ/mol
# GULP energy per Si atom -12395.053388 kJ/mol
# Density = 2.119439 g / cm^3
# Si number density = 21.242735 Si / 1000 Ang^3
#
#
#
# Elastic Constant Matrix: (Units=GPa)
#
#
# Indices 1 2 3 4 5 6 
#
# 1 115.6533 42.6436 43.4670 0.0000 4.6192 0.0000
# 2 42.6436 169.1763 32.9226 0.0000 -5.5650 0.0000
# 3 43.4670 32.9226 55.1663 0.0000 -1.4849 0.0000
# 4 0.0000 0.0000 0.0000 31.6814 0.0000 -5.2161
# 5 4.6192 -5.5650 -1.4849 0.0000 20.8401 0.0000
# 6 0.0000 0.0000 0.0000 -5.2161 0.0000 35.0087
#
#
#
# Elastic Compliance Matrix: (Units=1/GPa)
#
#
# Indices 1 2 3 4 5 6 
#
# 1 0.012885 -0.001563 -0.009326 0.000000 -0.003938 0.000000
# 2 -0.001563 0.006925 -0.002848 0.000000 0.001993 0.000000
# 3 -0.009326 -0.002848 0.027262 0.000000 0.003249 0.000000
# 4 0.000000 0.000000 0.000000 0.032358 0.000000 0.004821
# 5 -0.003938 0.001993 0.003249 0.000000 0.049621 0.000000
# 6 0.000000 0.000000 0.000000 0.004821 0.000000 0.029283
#
#
# Mechanical properties :
#
#
# Convention : Reuss Voigt Hill
#
# Bulk Modulus (GPa) = 51.02216 64.22915 57.62566
# Shear Modulus (GPa) = 25.99581 32.23688 29.11635
#
# Velocity S-wave (km/s) = 3.50201 3.89980 3.70624
# Velocity P-wave (km/s) = 6.35790 7.11192 6.74545
#
# Compressibility (1/GPa) = 0.01959933
#
# Stress axis : x y z
#
# Youngs Moduli (GPa) = 77.60974 144.41324 36.68097
#
# Poissons Ratio (x) = 0.22565 0.34208
# Poissons Ratio (y) = 0.12127 0.10446
# Poissons Ratio (z) = 0.72378 0.41125
#
# Static dielectric constant tensor:
#      x y z
#    x 4.521630 0.000000 -0.328100 
#    y 0.000000 4.158530 0.000000 
#    z -0.328100 0.000000 3.612150 
# 
# 
# High freq. dielectric constant tensor:
#      x y z
#    x 1.833460 0.000000 0.001170 
#    y 0.000000 1.859770 0.000000 
#    z 0.001170 0.000000 1.809550 
# 
# From -- ./inp_files/104667.got.cif
#   From: 2010.06.25/outbox.cif.g09.slc.cpg/sg12_53_cif.got.tgz:104667.got - 2010.06.28 00:19:55.
