data_PCOD8107026
_publ_section_title
;
Structure prediction by ZEFSAII (Michael W. Deem and Ramdas Pophale) SiO2 
 PCOD8107026
Probable space group: C 2/M
;
_chemical_formula_sum "Si O2"
_cell_formula_units_Z 64
_cell_length_a 14.601007
_cell_length_b 17.661588
_cell_length_c 16.462186
_cell_angle_alpha 90.000000
_cell_angle_beta 132.519818
_cell_angle_gamma 90.000000
_cell_volume 3128.911290
_symmetry_space_group_name_H-M "C 2/M"
_symmetry_group_IT_number 12
_symmetry_cell_setting 'monoclinic'
loop_
_space_group_symop_operation_xyz
x,y,z
-x,y,-z
-x,-y,-z
x,-y,z
1/2+x,1/2+y,z
1/2-x,1/2+y,-z
1/2-x,1/2-y,-z
1/2+x,1/2-y,z
loop_
_atom_site_type_symbol
_atom_site_label
_atom_site_fract_x
_atom_site_fract_y
_atom_site_fract_z
Si Si1 0.765259 0.846506 0.171593
Si Si2 0.177895 0.680762 0.801907
Si Si3 0.794742 0.586970 0.028028
Si Si4 0.505995 0.587895 0.597723
Si Si5 0.585729 0.086447 0.185195
Si Si6 0.870552 0.414526 0.385077
Si Si7 0.395141 0.200726 0.666275
Si Si8 0.784409 0.144903 0.572101
O O1 0.739826 0.756438 0.158039
O O2 0.646068 0.890533 0.135761
O O3 0.887494 0.863131 0.296925
O O4 0.785432 0.874896 0.091582
O O5 0.238470 0.628048 0.907467
O O6 0.173478 0.636325 0.715436
O O7 0.042062 0.705810 0.748143
O O8 0.755443 0.500000 0.013598
O O9 0.938859 0.595829 0.091753
O O10 0.500000 0.612264 0.500000
O O11 0.539721 0.500000 0.626404
O O12 0.375983 0.604965 0.563532
O O13 0.645059 0.141318 0.288506
O O14 0.621556 0.000000 0.228814
O O15 0.888944 0.500000 0.364392
O O16 0.762416 0.413666 0.388129
O O17 0.000000 0.383911 0.500000
O O18 0.338308 0.173436 0.547494
O O19 0.346302 0.284670 0.656774
#
# Coordination Sequence:
#
# PCOD8107026 Si02
#       8
#     8   8   8   8   8   8   8   8
#     4  12  22  38  61  90 122 157 201 247 304 370
#     4  11  22  40  60  89 121 158 200 251 305 360
#     4  10  22  40  64  89 119 155 200 254 307 359
#     4  11  24  39  59  90 127 165 201 244 304 368
#     4  10  21  37  61  90 119 152 197 252 309 361
#     4  11  23  38  61  88 119 159 205 252 299 353
#     4  10  21  37  57  86 120 158 199 247 300 358
#     4  11  21  39  58  86 121 163 206 248 295 361
#
# _framework density 20.4544
#
# number of rings (size 3 to 8) (size 9 to 14) (size 15 to 20)
#    0.000    1.250    2.500    4.125    0.000    5.000 
#    0.000    0.000    0.000    0.000    0.000    2.625 
#    0.000    0.000    0.000    0.000    0.000    0.000 
#
# Total GULP energy -396938.159110 kJ/mol
# GULP energy per Si atom -12404.317472 kJ/mol
# Density = 2.040784 g / cm^3
# Si number density = 20.454400 Si / 1000 Ang^3
#
#
#
# Elastic Constant Matrix: (Units=GPa)
#
#
# Indices 1 2 3 4 5 6 
#
# 1 85.0915 28.2320 27.0293 0.0000 -20.2773 0.0000
# 2 28.2320 120.9958 52.2393 0.0000 -17.8094 0.0000
# 3 27.0293 52.2393 103.8277 0.0000 -26.2085 0.0000
# 4 0.0000 0.0000 0.0000 32.0287 0.0000 -8.5485
# 5 -20.2773 -17.8094 -26.2085 0.0000 27.0411 0.0000
# 6 0.0000 0.0000 0.0000 -8.5485 0.0000 32.6132
#
#
#
# Elastic Compliance Matrix: (Units=1/GPa)
#
#
# Indices 1 2 3 4 5 6 
#
# 1 0.014758 -0.001826 -0.000574 0.000000 0.009308 0.000000
# 2 -0.001826 0.010902 -0.004691 0.000000 0.001265 0.000000
# 3 -0.000574 -0.004691 0.014897 0.000000 0.010919 0.000000
# 4 0.000000 0.000000 0.000000 0.033571 0.000000 0.008799
# 5 0.009308 0.001265 0.010919 0.000000 0.055376 0.000000
# 6 0.000000 0.000000 0.000000 0.008799 0.000000 0.032969
#
#
# Mechanical properties :
#
#
# Convention : Reuss Voigt Hill
#
# Bulk Modulus (GPa) = 37.91209 58.32405 48.11807
# Shear Modulus (GPa) = 26.96210 31.83088 29.39649
#
# Velocity S-wave (km/s) = 3.63458 3.94913 3.79512
# Velocity P-wave (km/s) = 6.01571 7.02640 6.54061
#
# Compressibility (1/GPa) = 0.02637681
#
# Stress axis : x y z
#
# Youngs Moduli (GPa) = 67.75892 91.72552 67.12825
#
# Poissons Ratio (x) = 0.16747 0.03852
# Poissons Ratio (y) = 0.12371 0.31487
# Poissons Ratio (z) = 0.03888 0.43025
#
# Static dielectric constant tensor:
#      x y z
#    x 3.581400 0.000000 -0.125720 
#    y 0.000000 3.808420 0.000000 
#    z -0.125720 0.000000 3.635310 
# 
# 
# High freq. dielectric constant tensor:
#      x y z
#    x 1.787580 0.000000 -0.011900 
#    y 0.000000 1.810950 0.000000 
#    z -0.011900 0.000000 1.796650 
# 
# From -- ./inp_files/216809.got.cif
#   From: 2010.06.25/outbox.cif.g09.slc.cpg/sg12_109_cif.got.tgz:216809.got - 2010.06.28 00:19:55.
