data_PCOD8107101
_publ_section_title
;
Structure prediction by ZEFSAII (Michael W. Deem and Ramdas Pophale) SiO2 
 PCOD8107101
Probable space group: C 2/M
;
_chemical_formula_sum "Si O2"
_cell_formula_units_Z 56
_cell_length_a 31.812221
_cell_length_b 8.842502
_cell_length_c 13.699466
_cell_angle_alpha 90.000000
_cell_angle_beta 130.557396
_cell_angle_gamma 90.000000
_cell_volume 2927.833417
_symmetry_space_group_name_H-M "C 2/M"
_symmetry_group_IT_number 12
_symmetry_cell_setting 'monoclinic'
loop_
_space_group_symop_operation_xyz
x,y,z
-x,y,-z
-x,-y,-z
x,-y,z
1/2+x,1/2+y,z
1/2-x,1/2+y,-z
1/2-x,1/2-y,-z
1/2+x,1/2-y,z
loop_
_atom_site_type_symbol
_atom_site_label
_atom_site_fract_x
_atom_site_fract_y
_atom_site_fract_z
Si Si1 0.918435 0.822725 0.046232
Si Si2 0.702224 0.825882 0.811500
Si Si3 0.684275 0.176036 0.005340
Si Si4 0.308545 0.678021 0.569401
Si Si5 0.594438 0.824400 0.175496
Si Si6 0.523943 0.827194 0.259648
Si Si7 0.134554 0.324967 0.522518
O O1 0.861195 0.771508 0.006929
O O2 0.970172 0.777626 0.193609
O O3 0.916804 0.000000 0.027310
O O4 0.929540 0.740129 0.960769
O O5 0.678719 0.785324 0.882404
O O6 0.652895 0.792719 0.660950
O O7 0.721325 0.000000 0.836292
O O8 0.755163 0.723991 0.865127
O O9 0.675248 0.000000 0.013679
O O10 0.304147 0.500000 0.571227
O O11 0.250000 0.750000 0.500000
O O12 0.349357 0.737555 0.714538
O O13 0.328643 0.722784 0.492220
O O14 0.549675 0.797418 0.192086
O O15 0.608335 0.000000 0.184018
O O16 0.569600 0.785102 0.411096
O O17 0.504722 0.000000 0.241906
O O18 0.143737 0.500000 0.506080
#
# Coordination Sequence:
#
# PCOD8107101 Si02
#       7
#     8   8   8   8   8   8   8
#     4  12  24  36  55  82 114 150 188 233 278 331
#     4   9  19  38  62  85 111 143 184 232 284 337
#     4  10  21  37  58  84 113 146 185 232 281 334
#     4  11  22  35  52  79 115 150 186 227 270 327
#     4  10  21  38  58  80 109 147 189 232 280 330
#     4   9  19  37  58  81 110 146 185 229 279 336
#     4   9  19  37  60  82 109 145 184 229 283 335
#
# _framework density 19.126771999999999
#
# number of rings (size 3 to 8) (size 9 to 14) (size 15 to 20)
#    0.000    2.000    0.000    4.714    2.000    5.714 
#    0.000    0.714    0.000    4.286    0.000    0.000 
#    0.000    0.000    0.000    0.000    0.000    0.000 
#
# Total GULP energy -347287.461923 kJ/mol
# GULP energy per Si atom -12403.123640 kJ/mol
# Density = 1.908324 g / cm^3
# Si number density = 19.126772 Si / 1000 Ang^3
#
#
#
# Elastic Constant Matrix: (Units=GPa)
#
#
# Indices 1 2 3 4 5 6 
#
# 1 44.6255 25.5907 29.6957 0.0000 3.7067 0.0000
# 2 25.5907 104.0371 32.1640 0.0000 2.8565 0.0000
# 3 29.6957 32.1640 119.0716 0.0000 -4.2112 0.0000
# 4 0.0000 0.0000 0.0000 30.8379 0.0000 5.4574
# 5 3.7067 2.8565 -4.2112 0.0000 19.8644 0.0000
# 6 0.0000 0.0000 0.0000 5.4574 0.0000 29.3368
#
#
#
# Elastic Compliance Matrix: (Units=1/GPa)
#
#
# Indices 1 2 3 4 5 6 
#
# 1 0.030161 -0.005298 -0.006310 0.000000 -0.006204 0.000000
# 2 -0.005298 0.011508 -0.001825 0.000000 -0.001053 0.000000
# 3 -0.006310 -0.001825 0.010595 0.000000 0.003686 0.000000
# 4 0.000000 0.000000 0.000000 0.033532 0.000000 -0.006238
# 5 -0.006204 -0.001053 0.003686 0.000000 0.052432 0.000000
# 6 0.000000 0.000000 0.000000 -0.006238 0.000000 0.035247
#
#
# Mechanical properties :
#
#
# Convention : Reuss Voigt Hill
#
# Bulk Modulus (GPa) = 39.37140 49.18166 44.27653
# Shear Modulus (GPa) = 23.94557 28.02675 25.98616
#
# Velocity S-wave (km/s) = 3.54211 3.83210 3.68996
# Velocity P-wave (km/s) = 6.11211 6.73419 6.43068
#
# Compressibility (1/GPa) = 0.02539915
#
# Stress axis : x y z
#
# Youngs Moduli (GPa) = 33.15521 86.89552 94.38138
#
# Poissons Ratio (x) = 0.46035 0.59558
# Poissons Ratio (y) = 0.17565 0.17221
# Poissons Ratio (z) = 0.20922 0.15855
#
# Static dielectric constant tensor:
#      x y z
#    x 3.330520 0.000000 -0.113870 
#    y 0.000000 3.482810 0.000000 
#    z -0.113870 0.000000 3.943600 
# 
# 
# High freq. dielectric constant tensor:
#      x y z
#    x 1.724890 0.000000 0.009220 
#    y 0.000000 1.746870 0.000000 
#    z 0.009220 0.000000 1.754600 
# 
# From -- ./inp_files/249297.got.cif
#   From: 2010.06.25/outbox.cif.g09.slc.cpg/sg12_125_cif.got.tgz:249297.got - 2010.06.28 00:19:55.
