data_PCOD8107226
_publ_section_title
;
Structure prediction by ZEFSAII (Michael W. Deem and Ramdas Pophale) SiO2 
 PCOD8107226
Probable space group: C 2/M
;
_chemical_formula_sum "Si O2"
_cell_formula_units_Z 64
_cell_length_a 14.249508
_cell_length_b 25.696477
_cell_length_c 9.471614
_cell_angle_alpha 90.000000
_cell_angle_beta 110.338130
_cell_angle_gamma 90.000000
_cell_volume 3251.934852
_symmetry_space_group_name_H-M "C 2/M"
_symmetry_group_IT_number 12
_symmetry_cell_setting 'monoclinic'
loop_
_space_group_symop_operation_xyz
x,y,z
-x,y,-z
-x,-y,-z
x,-y,z
1/2+x,1/2+y,z
1/2-x,1/2+y,-z
1/2-x,1/2-y,-z
1/2+x,1/2-y,z
loop_
_atom_site_type_symbol
_atom_site_label
_atom_site_fract_x
_atom_site_fract_y
_atom_site_fract_z
Si Si1 0.413423 0.557058 0.853768
Si Si2 0.687959 0.651996 0.803640
Si Si3 0.950968 0.942191 0.332576
Si Si4 0.792305 0.148678 0.701229
Si Si5 0.402871 0.169958 0.880233
Si Si6 0.889360 0.212530 0.973583
Si Si7 0.097046 0.682216 0.453183
Si Si8 0.608933 0.301396 0.496566
O O1 0.380023 0.500000 0.894528
O O2 0.456393 0.551186 0.721464
O O3 0.316479 0.594040 0.792070
O O4 0.500000 0.580702 0.000000
O O5 0.630995 0.596988 0.774201
O O6 0.805315 0.638951 0.884486
O O7 0.689149 0.680426 0.653017
O O8 0.640197 0.694428 0.884558
O O9 0.000000 0.918840 0.500000
O O10 0.903068 0.000000 0.333638
O O11 0.800563 0.191522 0.827578
O O12 0.684548 0.147658 0.569986
O O13 0.879476 0.162644 0.634824
O O14 0.392711 0.226180 0.950017
O O15 0.419598 0.168115 0.719382
O O16 0.500000 0.142580 0.000000
O O17 0.000000 0.189003 0.000000
O O18 0.131313 0.741908 0.471068
O O19 0.000000 0.673088 0.500000
O O20 0.500000 0.310693 0.500000
#
# Coordination Sequence:
#
# PCOD8107226 Si02
#       8
#     8   8   8   8   8   8   8   8
#     4  10  21  37  58  88 122 149 180 234 296 354
#     4  12  22  36  59  84 115 159 192 233 288 349
#     4  10  21  37  58  89 120 146 184 235 293 351
#     4  12  20  37  59  82 113 153 199 231 282 353
#     4  11  25  41  54  80 117 154 198 246 287 335
#     4  11  23  35  54  88 120 152 191 231 285 351
#     4  11  25  40  57  80 113 156 201 246 286 331
#     4  11  21  34  57  82 115 148 187 237 286 345
#
# _framework density 19.680592000000001
#
# number of rings (size 3 to 8) (size 9 to 14) (size 15 to 20)
#    0.000    1.000    2.500    6.000    7.000    0.000 
#    0.000    0.000    0.000    0.750    0.000    0.000 
#    0.000    0.000    0.000    0.000    0.000    0.000 
#
# Total GULP energy -396646.934329 kJ/mol
# GULP energy per Si atom -12395.216698 kJ/mol
# Density = 1.963580 g / cm^3
# Si number density = 19.680592 Si / 1000 Ang^3
#
#
#
# Elastic Constant Matrix: (Units=GPa)
#
#
# Indices 1 2 3 4 5 6 
#
# 1 83.9411 21.8875 18.9552 0.0000 15.8075 0.0000
# 2 21.8875 60.5130 24.8892 0.0000 13.5704 0.0000
# 3 18.9552 24.8892 100.3340 0.0000 12.9567 0.0000
# 4 0.0000 0.0000 0.0000 22.6923 0.0000 -0.5122
# 5 15.8075 13.5704 12.9567 0.0000 39.3757 0.0000
# 6 0.0000 0.0000 0.0000 -0.5122 0.0000 6.8583
#
#
#
# Elastic Compliance Matrix: (Units=1/GPa)
#
#
# Indices 1 2 3 4 5 6 
#
# 1 0.013874 -0.003641 -0.001212 0.000000 -0.003916 0.000000
# 2 -0.003641 0.020375 -0.003810 0.000000 -0.004306 0.000000
# 3 -0.001212 -0.003810 0.011393 0.000000 -0.001949 0.000000
# 4 0.000000 0.000000 0.000000 0.044142 0.000000 0.003297
# 5 -0.003916 -0.004306 -0.001949 0.000000 0.029094 0.000000
# 6 0.000000 0.000000 0.000000 0.003297 0.000000 0.146056
#
#
# Mechanical properties :
#
#
# Convention : Reuss Voigt Hill
#
# Bulk Modulus (GPa) = 35.31813 41.80577 38.56195
# Shear Modulus (GPa) = 17.14094 25.72234 21.43164
#
# Velocity S-wave (km/s) = 2.95440 3.61915 3.30354
# Velocity P-wave (km/s) = 5.44266 6.22516 5.84702
#
# Compressibility (1/GPa) = 0.02831407
#
# Stress axis : x y z
#
# Youngs Moduli (GPa) = 72.07864 49.07871 87.77639
#
# Poissons Ratio (x) = 0.17872 0.10639
# Poissons Ratio (y) = 0.26247 0.33446
# Poissons Ratio (z) = 0.08736 0.18701
#
# Static dielectric constant tensor:
#      x y z
#    x 3.569310 0.000000 0.032890 
#    y 0.000000 3.519020 0.000000 
#    z 0.032890 0.000000 3.909460 
# 
# 
# High freq. dielectric constant tensor:
#      x y z
#    x 1.753500 0.000000 -0.009020 
#    y 0.000000 1.734610 0.000000 
#    z -0.009020 0.000000 1.788940 
# 
# From -- ./inp_files/68276.got.cif
#   From: 2010.06.25/outbox.cif.g09.slc.cpg/sg12_35_cif.got.tgz:68276.got - 2010.06.28 00:19:55.
