data_PCOD8107009
_publ_section_title
;
Structure prediction by ZEFSAII (Michael W. Deem and Ramdas Pophale) SiO2 
 PCOD8107009
Probable space group: C 2/M
;
_chemical_formula_sum "Si O2"
_cell_formula_units_Z 56
_cell_length_a 14.672713
_cell_length_b 9.092709
_cell_length_c 24.433079
_cell_angle_alpha 90.000000
_cell_angle_beta 64.086134
_cell_angle_gamma 90.000000
_cell_volume 2931.972733
_symmetry_space_group_name_H-M "C 2/M"
_symmetry_group_IT_number 12
_symmetry_cell_setting 'monoclinic'
loop_
_space_group_symop_operation_xyz
x,y,z
-x,y,-z
-x,-y,-z
x,-y,z
1/2+x,1/2+y,z
1/2-x,1/2+y,-z
1/2-x,1/2-y,-z
1/2+x,1/2-y,z
loop_
_atom_site_type_symbol
_atom_site_label
_atom_site_fract_x
_atom_site_fract_y
_atom_site_fract_z
Si Si1 0.311866 0.829085 0.908004
Si Si2 0.431976 0.339106 0.563137
Si Si3 0.671421 0.674650 0.308254
Si Si4 0.388378 0.829676 0.008526
Si Si5 0.222507 0.658500 0.559828
Si Si6 0.622118 0.824760 0.692528
Si Si7 0.419619 0.674665 0.780305
O O1 0.375016 0.804721 0.947235
O O2 0.374243 0.743694 0.846353
O O3 0.304214 0.000000 0.895194
O O4 0.197849 0.765760 0.939176
O O5 0.500000 0.249898 0.500000
O O6 0.484784 0.500000 0.557189
O O7 0.415568 0.260497 0.626647
O O8 0.319906 0.361930 0.571160
O O9 0.663345 0.500000 0.316014
O O10 0.783237 0.726743 0.295163
O O11 0.648976 0.726882 0.252834
O O12 0.371334 0.000000 0.028561
O O13 0.500000 0.778550 0.000000
O O14 0.185102 0.500000 0.548211
O O15 0.250000 0.750000 0.500000
O O16 0.138570 0.723547 0.624132
O O17 0.531173 0.735118 0.742067
O O18 0.604087 0.000000 0.701144
O O19 0.422466 0.500000 0.785594
#
# Coordination Sequence:
#
# PCOD8107009 Si02
#       7
#     8   8   8   8   8   8   8
#     4  10  21  37  57  85 118 148 180 222 269 317
#     4   8  14  26  46  70  92 120 165 217 260 311
#     4   8  17  33  50  71 100 137 179 220 265 320
#     4   9  19  38  63  87 114 149 187 223 259 305
#     4   9  18  30  48  72  97 126 163 215 272 327
#     4   9  19  37  53  71 103 140 178 222 275 328
#     4  11  22  35  56  82 108 143 186 228 267 318
#
# _framework density 19.099768000000001
#
# number of rings (size 3 to 8) (size 9 to 14) (size 15 to 20)
#    0.000    2.857    0.000    2.571    2.000    2.571 
#    0.000    7.143    0.000    2.143    0.000    0.000 
#    0.000    0.000    0.000    0.000    0.000    0.000 
#
# Total GULP energy -346871.231030 kJ/mol
# GULP energy per Si atom -12388.258251 kJ/mol
# Density = 1.905630 g / cm^3
# Si number density = 19.099768 Si / 1000 Ang^3
#
#
#
# Elastic Constant Matrix: (Units=GPa)
#
#
# Indices 1 2 3 4 5 6 
#
# 1 107.1596 39.2483 62.7108 0.0000 -9.2214 0.0000
# 2 39.2483 66.5087 64.2000 0.0000 -5.8828 0.0000
# 3 62.7108 64.2000 168.7408 0.0000 -13.4598 0.0000
# 4 0.0000 0.0000 0.0000 25.6658 0.0000 -5.4853
# 5 -9.2214 -5.8828 -13.4598 0.0000 26.5674 0.0000
# 6 0.0000 0.0000 0.0000 -5.4853 0.0000 24.4973
#
#
#
# Elastic Compliance Matrix: (Units=1/GPa)
#
#
# Indices 1 2 3 4 5 6 
#
# 1 0.012884 -0.004675 -0.002850 0.000000 0.001993 0.000000
# 2 -0.004675 0.025472 -0.007955 0.000000 -0.000013 0.000000
# 3 -0.002850 -0.007955 0.010205 0.000000 0.002419 0.000000
# 4 0.000000 0.000000 0.000000 0.040921 0.000000 0.009163
# 5 0.001993 -0.000013 0.002419 0.000000 0.039555 0.000000
# 6 0.000000 0.000000 0.000000 0.009163 0.000000 0.042873
#
#
# Mechanical properties :
#
#
# Convention : Reuss Voigt Hill
#
# Bulk Modulus (GPa) = 56.81790 74.96971 65.89380
# Shear Modulus (GPa) = 23.95365 27.09610 25.52487
#
# Velocity S-wave (km/s) = 3.54522 3.77060 3.65964
# Velocity P-wave (km/s) = 6.82427 7.63501 7.24099
#
# Compressibility (1/GPa) = 0.01760009
#
# Stress axis : x y z
#
# Youngs Moduli (GPa) = 77.61680 39.25856 97.99074
#
# Poissons Ratio (x) = 0.18355 0.27931
# Poissons Ratio (y) = 0.36289 0.77949
# Poissons Ratio (z) = 0.22124 0.31229
#
# Static dielectric constant tensor:
#      x y z
#    x 3.565330 0.000000 0.131230 
#    y 0.000000 3.194310 0.000000 
#    z 0.131230 0.000000 3.769810 
# 
# 
# High freq. dielectric constant tensor:
#      x y z
#    x 1.738090 0.000000 -0.002280 
#    y 0.000000 1.710540 0.000000 
#    z -0.002280 0.000000 1.757130 
# 
# From -- ./inp_files/338521.got.cif
#   From: 2010.06.25/outbox.cif.g09.slc.cpg/sg12_170_cif.got.tgz:338521.got - 2010.06.28 00:19:55.
