data_PCOD8107510
_publ_section_title
;
Structure prediction by ZEFSAII (Michael W. Deem and Ramdas Pophale) SiO2 
 PCOD8107510
Probable space group: C 2/M
;
_chemical_formula_sum "Si O2"
_cell_formula_units_Z 56
_cell_length_a 25.331551
_cell_length_b 8.265594
_cell_length_c 12.432848
_cell_angle_alpha 90.000000
_cell_angle_beta 75.761000
_cell_angle_gamma 90.000000
_cell_volume 2523.218718
_symmetry_space_group_name_H-M "C 2/M"
_symmetry_group_IT_number 12
_symmetry_cell_setting 'monoclinic'
loop_
_space_group_symop_operation_xyz
x,y,z
-x,y,-z
-x,-y,-z
x,-y,z
1/2+x,1/2+y,z
1/2-x,1/2+y,-z
1/2-x,1/2-y,-z
1/2+x,1/2-y,z
loop_
_atom_site_type_symbol
_atom_site_label
_atom_site_fract_x
_atom_site_fract_y
_atom_site_fract_z
Si Si1 0.353948 0.808249 0.229431
Si Si2 0.612285 0.686072 0.015471
Si Si3 0.935135 0.690365 0.376123
Si Si4 0.732935 0.318055 0.304394
Si Si5 0.882432 0.190147 0.611724
Si Si6 0.450593 0.810954 0.772911
Si Si7 0.294148 0.815606 0.899389
O O1 0.388811 0.758834 0.314874
O O2 0.292662 0.732457 0.279546
O O3 0.350336 0.000000 0.213343
O O4 0.384939 0.734468 0.110725
O O5 0.629719 0.500000 0.016557
O O6 0.555597 0.718818 0.107838
O O7 0.649538 0.806216 0.066162
O O8 0.935950 0.500000 0.394998
O O9 0.923944 0.774020 0.495281
O O10 0.993083 0.754315 0.305522
O O11 0.743128 0.500000 0.337475
O O12 0.679274 0.247691 0.394290
O O13 0.709433 0.308773 0.196350
O O14 0.902010 0.277502 0.711619
O O15 0.880078 0.000000 0.636719
O O16 0.454961 0.000000 0.794328
O O17 0.283190 0.000000 0.867678
O O18 0.250000 0.750000 0.000000
#
# Coordination Sequence:
#
# PCOD8107510 Si02
#       7
#     8   8   8   8   8   8   8
#     4  10  22  42  64  87 123 168 207 247 300 369
#     4  12  24  38  60  93 127 158 202 254 310 371
#     4  10  24  44  64  87 119 164 214 256 302 366
#     4  10  21  37  60  90 124 160 201 248 301 365
#     4  11  23  39  63  94 124 156 202 260 315 363
#     4  11  23  41  65  91 120 159 208 259 310 366
#     4  12  22  34  57  89 125 163 200 248 305 364
#
# _framework density 22.193874000000001
#
# number of rings (size 3 to 8) (size 9 to 14) (size 15 to 20)
#    0.000    1.143    2.857    3.857    0.000    5.143 
#    0.000    2.857    0.000    0.000    0.000    0.000 
#    0.000    0.000    0.000    0.000    0.000    0.000 
#
# Total GULP energy -346944.019600 kJ/mol
# GULP energy per Si atom -12390.857843 kJ/mol
# Density = 2.214336 g / cm^3
# Si number density = 22.193874 Si / 1000 Ang^3
#
#
#
# Elastic Constant Matrix: (Units=GPa)
#
#
# Indices 1 2 3 4 5 6 
#
# 1 87.9076 12.9546 19.7418 0.0000 -18.1380 0.0000
# 2 12.9546 57.8479 13.1240 0.0000 -4.7603 0.0000
# 3 19.7418 13.1240 77.2939 0.0000 -20.1717 0.0000
# 4 0.0000 0.0000 0.0000 28.3528 0.0000 -1.8958
# 5 -18.1380 -4.7603 -20.1717 0.0000 41.2377 0.0000
# 6 0.0000 0.0000 0.0000 -1.8958 0.0000 23.8711
#
#
#
# Elastic Compliance Matrix: (Units=1/GPa)
#
#
# Indices 1 2 3 4 5 6 
#
# 1 0.013041 -0.002140 -0.001760 0.000000 0.004628 0.000000
# 2 -0.002140 0.018347 -0.002592 0.000000 -0.000092 0.000000
# 3 -0.001760 -0.002592 0.015530 0.000000 0.006523 0.000000
# 4 0.000000 0.000000 0.000000 0.035458 0.000000 0.002816
# 5 0.004628 -0.000092 0.006523 0.000000 0.029466 0.000000
# 6 0.000000 0.000000 0.000000 0.002816 0.000000 0.042115
#
#
# Mechanical properties :
#
#
# Convention : Reuss Voigt Hill
#
# Bulk Modulus (GPa) = 29.47015 34.96557 32.21786
# Shear Modulus (GPa) = 28.05015 30.50757 29.27886
#
# Velocity S-wave (km/s) = 3.55895 3.71157 3.63606
# Velocity P-wave (km/s) = 5.49504 5.84436 5.67239
#
# Compressibility (1/GPa) = 0.03393264
#
# Stress axis : x y z
#
# Youngs Moduli (GPa) = 76.68060 54.50591 64.39312
#
# Poissons Ratio (x) = 0.11666 0.11331
# Poissons Ratio (y) = 0.16413 0.16693
# Poissons Ratio (z) = 0.13493 0.14130
#
# Static dielectric constant tensor:
#      x y z
#    x 4.220370 0.000000 -0.453500 
#    y 0.000000 3.884110 0.000000 
#    z -0.453500 0.000000 4.140020 
# 
# 
# High freq. dielectric constant tensor:
#      x y z
#    x 1.874390 0.000000 -0.028800 
#    y 0.000000 1.855100 0.000000 
#    z -0.028800 0.000000 1.881790 
# 
# From -- ./inp_files/180686.got.cif
#   From: 2010.06.25/outbox.cif.g09.slc.cpg/sg12_91_cif.got.tgz:180686.got - 2010.06.28 00:19:55.
