data_PCOD8107050
_publ_section_title
;
Structure prediction by ZEFSAII (Michael W. Deem and Ramdas Pophale) SiO2 
 PCOD8107050
Probable space group: C 2/M
;
_chemical_formula_sum "Si O2"
_cell_formula_units_Z 56
_cell_length_a 17.543654
_cell_length_b 14.790023
_cell_length_c 12.592469
_cell_angle_alpha 90.000000
_cell_angle_beta 111.957359
_cell_angle_gamma 90.000000
_cell_volume 3030.373088
_symmetry_space_group_name_H-M "C 2/M"
_symmetry_group_IT_number 12
_symmetry_cell_setting 'monoclinic'
loop_
_space_group_symop_operation_xyz
x,y,z
-x,y,-z
-x,-y,-z
x,-y,z
1/2+x,1/2+y,z
1/2-x,1/2+y,-z
1/2-x,1/2-y,-z
1/2+x,1/2-y,z
loop_
_atom_site_type_symbol
_atom_site_label
_atom_site_fract_x
_atom_site_fract_y
_atom_site_fract_z
Si Si1 0.640590 0.400346 0.334939
Si Si2 0.565652 0.254799 0.450165
Si Si3 0.305119 0.180053 0.329006
Si Si4 0.708303 0.248590 0.090828
Si Si5 0.913985 0.100456 0.923488
Si Si6 0.581140 0.897343 0.973995
Si Si7 0.454207 0.104432 0.284548
O O1 0.644837 0.500000 0.390488
O O2 0.591735 0.332015 0.383424
O O3 0.732446 0.373007 0.349256
O O4 0.585387 0.403982 0.202250
O O5 0.500000 0.294051 0.500000
O O6 0.649373 0.232088 0.553815
O O7 0.526054 0.167362 0.370758
O O8 0.271247 0.251446 0.223184
O O9 0.369348 0.112414 0.305754
O O10 0.659626 0.342134 0.068146
O O11 0.750000 0.250000 0.000000
O O12 0.650054 0.161687 0.068802
O O13 0.906095 0.000000 0.969032
O O14 0.000000 0.146413 0.000000
O O15 0.562747 0.864026 0.844826
O O16 0.613606 0.000000 0.988601
O O17 0.500000 0.888025 0.000000
O O18 0.484039 0.000000 0.304728
#
# Coordination Sequence:
#
# PCOD8107050 Si02
#       7
#     8   8   8   8   8   8   8
#     4  10  21  37  58  81 111 151 184 230 284 329
#     4  10  23  38  57  85 114 145 194 233 279 340
#     4  10  21  38  57  85 114 144 191 236 279 336
#     4  11  21  34  59  83 114 151 176 228 293 324
#     4   9  20  35  55  82 107 140 190 228 266 328
#     4  10  22  38  57  85 117 153 192 228 279 345
#     4  10  21  38  61  85 114 150 190 239 284 329
#
# _framework density 18.479572999999998
#
# number of rings (size 3 to 8) (size 9 to 14) (size 15 to 20)
#    0.000    2.000    1.429    1.286    6.000    4.571 
#    0.000    0.714    0.000    0.857    0.000    0.000 
#    0.000    0.000    0.000    0.000    0.000    0.000 
#
# Total GULP energy -347136.505018 kJ/mol
# GULP energy per Si atom -12397.732322 kJ/mol
# Density = 1.843751 g / cm^3
# Si number density = 18.479573 Si / 1000 Ang^3
#
#
#
# Elastic Constant Matrix: (Units=GPa)
#
#
# Indices 1 2 3 4 5 6 
#
# 1 89.1640 56.7764 52.0395 0.0000 0.5374 0.0000
# 2 56.7764 111.1841 59.2834 0.0000 -0.4538 0.0000
# 3 52.0395 59.2834 99.1282 0.0000 14.0808 0.0000
# 4 0.0000 0.0000 0.0000 22.7931 0.0000 -10.5077
# 5 0.5374 -0.4538 14.0808 0.0000 38.8613 0.0000
# 6 0.0000 0.0000 0.0000 -10.5077 0.0000 18.1213
#
#
#
# Elastic Compliance Matrix: (Units=1/GPa)
#
#
# Indices 1 2 3 4 5 6 
#
# 1 0.018961 -0.006184 -0.006545 0.000000 0.002037 0.000000
# 2 -0.006184 0.015605 -0.006456 0.000000 0.002607 0.000000
# 3 -0.006545 -0.006456 0.018326 0.000000 -0.006625 0.000000
# 4 0.000000 0.000000 0.000000 0.059879 0.000000 0.034721
# 5 0.002037 0.002607 -0.006625 0.000000 0.028135 0.000000
# 6 0.000000 0.000000 0.000000 0.034721 0.000000 0.075317
#
#
# Mechanical properties :
#
#
# Convention : Reuss Voigt Hill
#
# Bulk Modulus (GPa) = 68.86504 70.63054 69.74779
# Shear Modulus (GPa) = 19.27267 24.71362 21.99314
#
# Velocity S-wave (km/s) = 3.23293 3.66094 3.45357
# Velocity P-wave (km/s) = 7.16116 7.49492 7.32994
#
# Compressibility (1/GPa) = 0.01452116
#
# Stress axis : x y z
#
# Youngs Moduli (GPa) = 52.74066 64.08035 54.56730
#
# Poissons Ratio (x) = 0.39630 0.35712
# Poissons Ratio (y) = 0.32617 0.35231
# Poissons Ratio (z) = 0.34517 0.41373
#
# Static dielectric constant tensor:
#      x y z
#    x 3.409770 0.000000 0.081990 
#    y 0.000000 3.550970 0.000000 
#    z 0.081990 0.000000 3.608840 
# 
# 
# High freq. dielectric constant tensor:
#      x y z
#    x 1.723100 0.000000 0.001830 
#    y 0.000000 1.711270 0.000000 
#    z 0.001830 0.000000 1.723290 
# 
# From -- ./inp_files/156195.got.cif
#   From: 2010.06.25/outbox.cif.g09.slc.cpg/sg12_79_cif.got.tgz:156195.got - 2010.06.28 00:19:55.
