data_PCOD8107995
_publ_section_title
;
Structure prediction by ZEFSAII (Michael W. Deem and Ramdas Pophale) SiO2 
 PCOD8107995
Probable space group: C 2/M
;
_chemical_formula_sum "Si O2"
_cell_formula_units_Z 56
_cell_length_a 14.568668
_cell_length_b 8.080740
_cell_length_c 29.393897
_cell_angle_alpha 90.000000
_cell_angle_beta 51.053899
_cell_angle_gamma 90.000000
_cell_volume 2691.294721
_symmetry_space_group_name_H-M "C 2/M"
_symmetry_group_IT_number 12
_symmetry_cell_setting 'monoclinic'
loop_
_space_group_symop_operation_xyz
x,y,z
-x,y,-z
-x,-y,-z
x,-y,z
1/2+x,1/2+y,z
1/2-x,1/2+y,-z
1/2-x,1/2-y,-z
1/2+x,1/2-y,z
loop_
_atom_site_type_symbol
_atom_site_label
_atom_site_fract_x
_atom_site_fract_y
_atom_site_fract_z
Si Si1 0.475846 0.000000 0.931697
Si Si2 0.630901 0.818211 0.114645
Si Si3 0.900081 0.314069 0.563779
Si Si4 0.194553 0.813226 0.317552
Si Si5 0.186922 0.182791 0.564060
Si Si6 0.305235 0.000000 0.069927
Si Si7 0.454889 0.686171 0.240921
Si Si8 0.011174 0.682193 0.315501
O O1 0.441687 0.836271 0.911350
O O2 0.613380 0.000000 0.908472
O O3 0.392350 0.000000 0.000930
O O4 0.724100 0.666193 0.090019
O O5 0.532878 0.798066 0.183796
O O6 0.693418 0.000000 0.103208
O O7 0.938821 0.500000 0.566269
O O8 0.885076 0.200755 0.612407
O O9 0.776182 0.319540 0.577671
O O10 0.000000 0.235504 0.500000
O O11 0.325310 0.756131 0.285464
O O12 0.142633 0.698084 0.294163
O O13 0.191161 0.000000 0.301484
O O14 0.250000 0.250000 0.500000
O O15 0.076644 0.290868 0.614557
O O16 0.139708 0.000000 0.568034
O O17 0.457198 0.500000 0.221438
O O18 0.501565 0.686716 0.277959
O O19 0.990808 0.500000 0.301551
#
# Coordination Sequence:
#
# PCOD8107995 Si02
#       8
#     4   8   8   8   8   4   8   8
#     4   9  24  42  75 111 155 195 256 293 354 436
#     4  10  23  43  69 107 145 194 247 294 353 423
#     4  10  21  38  59  84 117 156 201 261 331 403
#     4  12  25  41  64  92 125 165 215 271 335 409
#     4  11  22  37  59  86 120 155 203 264 328 406
#     4  11  20  48  71 111 157 201 238 312 356 403
#     4  12  24  45  68  95 135 176 224 284 343 405
#     4  12  25  42  64  91 123 167 216 269 337 405
#
# _framework density 20.807829999999999
#
# number of rings (size 3 to 8) (size 9 to 14) (size 15 to 20)
#    0.429    0.571    2.143    5.571    0.000    3.143 
#    1.286    2.143    0.000    0.000    0.000    0.000 
#    0.000    0.000    0.000    0.000    0.000    0.000 
#
# Total GULP energy -346983.682591 kJ/mol
# GULP energy per Si atom -12392.274378 kJ/mol
# Density = 2.076047 g / cm^3
# Si number density = 20.807830 Si / 1000 Ang^3
#
#
#
# Elastic Constant Matrix: (Units=GPa)
#
#
# Indices 1 2 3 4 5 6 
#
# 1 118.3301 38.6278 47.3429 -0.0006 -1.2000 -0.0007
# 2 38.6278 127.4253 25.7542 -0.0013 -3.5360 -0.0007
# 3 47.3429 25.7542 95.4848 0.0001 10.7480 0.0000
# 4 -0.0006 -0.0013 0.0001 27.9601 -0.0006 2.6999
# 5 -1.2000 -3.5360 10.7480 -0.0006 14.4975 -0.0007
# 6 -0.0007 -0.0007 0.0000 2.6999 -0.0007 28.2052
#
#
#
# Elastic Compliance Matrix: (Units=1/GPa)
#
#
# Indices 1 2 3 4 5 6 
#
# 1 0.011460 -0.002216 -0.005597 0.000000 0.004558 0.000000
# 2 -0.002216 0.008949 -0.001680 0.000000 0.003245 0.000000
# 3 -0.005597 -0.001680 0.015056 0.000000 -0.012035 0.000000
# 4 0.000000 0.000000 0.000000 0.036099 0.000002 -0.003456
# 5 0.004558 0.003245 -0.012035 0.000002 0.079069 0.000002
# 6 0.000000 0.000000 0.000000 -0.003456 0.000002 0.035785
#
#
# Mechanical properties :
#
#
# Convention : Reuss Voigt Hill
#
# Bulk Modulus (GPa) = 60.68804 62.74334 61.71569
# Shear Modulus (GPa) = 23.70809 29.43358 26.57084
#
# Velocity S-wave (km/s) = 3.37914 3.76512 3.57734
# Velocity P-wave (km/s) = 6.66739 7.00862 6.84013
#
# Compressibility (1/GPa) = 0.01647771
#
# Stress axis : x y z
#
# Youngs Moduli (GPa) = 87.25936 111.74181 66.41859
#
# Poissons Ratio (x) = 0.24765 0.37177
# Poissons Ratio (y) = 0.19339 0.11160
# Poissons Ratio (z) = 0.48842 0.18775
#
# Static dielectric constant tensor:
#      x y z
#    x 4.004820 0.000000 0.006940 
#    y 0.000000 3.827610 0.000000 
#    z 0.006940 0.000000 3.683560 
# 
# 
# High freq. dielectric constant tensor:
#      x y z
#    x 1.819810 0.000000 0.001750 
#    y 0.000000 1.815480 0.000000 
#    z 0.001750 0.000000 1.808280 
# 
# From -- ./inp_files/374970.got.cif
#   From: 2010.06.25/outbox.cif.g09.slc.cpg/sg12_188_cif.got.tgz:374970.got - 2010.06.28 00:19:55.
