data_PCOD8107139
_publ_section_title
;
Structure prediction by ZEFSAII (Michael W. Deem and Ramdas Pophale) SiO2 
 PCOD8107139
Probable space group: C 2/M
;
_chemical_formula_sum "Si O2"
_cell_formula_units_Z 40
_cell_length_a 13.130656
_cell_length_b 13.742191
_cell_length_c 14.114150
_cell_angle_alpha 90.000000
_cell_angle_beta 135.201692
_cell_angle_gamma 90.000000
_cell_volume 1794.518508
_symmetry_space_group_name_H-M "C 2/M"
_symmetry_group_IT_number 12
_symmetry_cell_setting 'monoclinic'
loop_
_space_group_symop_operation_xyz
x,y,z
-x,y,-z
-x,-y,-z
x,-y,z
1/2+x,1/2+y,z
1/2-x,1/2+y,-z
1/2-x,1/2-y,-z
1/2+x,1/2-y,z
loop_
_atom_site_type_symbol
_atom_site_label
_atom_site_fract_x
_atom_site_fract_y
_atom_site_fract_z
Si Si1 0.162326 0.616001 0.085253
Si Si2 0.583594 0.388362 0.276357
Si Si3 0.194827 0.885293 0.008880
Si Si4 0.173859 0.612131 0.708924
Si Si5 0.449804 0.694091 0.366806
O O1 0.171808 0.500000 0.099387
O O2 0.195695 0.653948 0.000311
O O3 0.286004 0.658154 0.236971
O O4 0.000000 0.652823 0.000000
O O5 0.551582 0.500000 0.279650
O O6 0.466137 0.350395 0.122909
O O7 0.738486 0.374534 0.330776
O O8 0.567430 0.332064 0.364555
O O9 0.204330 0.000000 0.015833
O O10 0.232946 0.850312 0.139239
O O11 0.120080 0.500000 0.684026
O O12 0.042282 0.687723 0.618461
O O13 0.500000 0.647929 0.500000
#
# Coordination Sequence:
#
# PCOD8107139 Si02
#       5
#     8   8   8   8   8
#     4   9  19  36  59  91 126 154 190 246 304 355
#     4   9  19  37  60  86 116 151 195 246 300 360
#     4   8  15  31  56  84 112 146 191 242 296 351
#     4  10  21  37  58  84 117 158 202 248 296 347
#     4  11  24  38  58  87 122 160 202 243 292 354
#
# _framework density 22.290102000000001
#
# number of rings (size 3 to 8) (size 9 to 14) (size 15 to 20)
#    0.000    2.600    0.000    2.400    0.000   11.600 
#    0.000    0.000    0.000    6.000    0.000    0.000 
#    0.000    0.000    0.000    0.000    0.000    0.000 
#
# Total GULP energy -247845.838322 kJ/mol
# GULP energy per Si atom -12392.291916 kJ/mol
# Density = 2.223937 g / cm^3
# Si number density = 22.290102 Si / 1000 Ang^3
#
#
#
# Elastic Constant Matrix: (Units=GPa)
#
#
# Indices 1 2 3 4 5 6 
#
# 1 111.7080 46.3768 46.4277 0.0000 -22.4748 0.0000
# 2 46.3768 74.7157 25.9805 0.0000 -5.3570 0.0000
# 3 46.4277 25.9805 99.2065 0.0000 -30.5044 0.0000
# 4 0.0000 0.0000 0.0000 10.2687 0.0000 -3.1383
# 5 -22.4748 -5.3570 -30.5044 0.0000 30.8701 0.0000
# 6 0.0000 0.0000 0.0000 -3.1383 0.0000 33.1328
#
#
#
# Elastic Compliance Matrix: (Units=1/GPa)
#
#
# Indices 1 2 3 4 5 6 
#
# 1 0.014599 -0.007608 -0.002841 0.000000 0.006501 0.000000
# 2 -0.007608 0.018760 -0.002951 0.000000 -0.005200 0.000000
# 3 -0.002841 -0.002951 0.016360 0.000000 0.013585 0.000000
# 4 0.000000 0.000000 0.000000 0.100286 0.000000 0.009499
# 5 0.006501 -0.005200 0.013585 0.000000 0.049649 0.000000
# 6 0.000000 0.000000 0.000000 0.009499 0.000000 0.031081
#
#
# Mechanical properties :
#
#
# Convention : Reuss Voigt Hill
#
# Bulk Modulus (GPa) = 43.63261 58.13336 50.88298
# Shear Modulus (GPa) = 18.85549 25.97735 22.41642
#
# Velocity S-wave (km/s) = 2.91161 3.41753 3.17467
# Velocity P-wave (km/s) = 5.56064 6.45830 6.02621
#
# Compressibility (1/GPa) = 0.02291864
#
# Stress axis : x y z
#
# Youngs Moduli (GPa) = 68.49725 53.30557 61.12605
#
# Poissons Ratio (x) = 0.40554 0.17365
# Poissons Ratio (y) = 0.52112 0.18040
# Poissons Ratio (z) = 0.19459 0.15732
#
# Static dielectric constant tensor:
#      x y z
#    x 4.034470 0.000000 -0.291570 
#    y 0.000000 4.059770 0.000000 
#    z -0.291570 0.000000 3.990860 
# 
# 
# High freq. dielectric constant tensor:
#      x y z
#    x 1.870750 0.000000 -0.017110 
#    y 0.000000 1.885020 0.000000 
#    z -0.017110 0.000000 1.859420 
# 
# From -- ./inp_files/204686.got.cif
#   From: 2010.06.25/outbox.cif.g09.slc.cpg/sg12_103_cif.got.tgz:204686.got - 2010.06.28 00:19:55.
