data_PCOD8107598
_publ_section_title
;
Structure prediction by ZEFSAII (Michael W. Deem and Ramdas Pophale) SiO2 
 PCOD8107598
Probable space group: C 2/M
;
_chemical_formula_sum "Si O2"
_cell_formula_units_Z 56
_cell_length_a 30.273891
_cell_length_b 8.695630
_cell_length_c 11.457537
_cell_angle_alpha 90.000000
_cell_angle_beta 63.841932
_cell_angle_gamma 90.000000
_cell_volume 2707.287222
_symmetry_space_group_name_H-M "C 2/M"
_symmetry_group_IT_number 12
_symmetry_cell_setting 'monoclinic'
loop_
_space_group_symop_operation_xyz
x,y,z
-x,y,-z
-x,-y,-z
x,-y,z
1/2+x,1/2+y,z
1/2-x,1/2+y,-z
1/2-x,1/2-y,-z
1/2+x,1/2-y,z
loop_
_atom_site_type_symbol
_atom_site_label
_atom_site_fract_x
_atom_site_fract_y
_atom_site_fract_z
Si Si1 0.013731 0.320168 0.352093
Si Si2 0.446303 0.322821 0.050988
Si Si3 0.896855 0.817606 0.876439
Si Si4 0.678110 0.177601 0.540098
Si Si5 0.725362 0.323033 0.707490
Si Si6 0.578877 0.677382 0.661805
Si Si7 0.793662 0.680599 0.023850
O O1 0.019818 0.500000 0.321774
O O2 0.064991 0.235279 0.266954
O O3 0.000000 0.282500 0.500000
O O4 0.971514 0.255000 0.318132
O O5 0.455275 0.500000 0.008127
O O6 0.415856 0.303196 0.204984
O O7 0.500000 0.242714 0.000000
O O8 0.415501 0.251410 0.980024
O O9 0.891464 0.000000 0.881258
O O10 0.844189 0.744322 0.911452
O O11 0.692177 0.276178 0.636618
O O12 0.717411 0.202448 0.391104
O O13 0.625873 0.237008 0.551076
O O14 0.674957 0.000000 0.580152
O O15 0.713954 0.500000 0.750555
O O16 0.711826 0.221941 0.834141
O O17 0.578505 0.500000 0.624023
O O18 0.792832 0.500000 0.009656
O O19 0.750000 0.750000 0.000000
#
# Coordination Sequence:
#
# PCOD8107598 Si02
#       7
#     8   8   8   8   8   8   8
#     4  11  25  43  60  83 122 166 207 254 305 360
#     4   9  17  33  58  90 123 154 190 241 301 358
#     4  11  22  41  68  94 124 160 203 254 312 373
#     4  10  21  37  61  92 127 163 202 254 313 372
#     4  10  21  40  63  90 125 164 206 256 314 369
#     4  11  21  36  61  90 121 160 205 252 306 372
#     4  12  26  44  66  92 124 163 212 262 315 374
#
# _framework density 20.684911
#
# number of rings (size 3 to 8) (size 9 to 14) (size 15 to 20)
#    0.000    1.429    1.429    4.286    0.000    5.143 
#    0.000    4.286    0.000    0.000    0.000    0.000 
#    0.000    0.000    0.000    0.000    0.000    0.000 
#
# Total GULP energy -347325.505299 kJ/mol
# GULP energy per Si atom -12404.482332 kJ/mol
# Density = 2.063783 g / cm^3
# Si number density = 20.684911 Si / 1000 Ang^3
#
#
#
# Elastic Constant Matrix: (Units=GPa)
#
#
# Indices 1 2 3 4 5 6 
#
# 1 123.9550 51.9750 46.8147 0.0000 -31.5037 0.0000
# 2 51.9750 115.2101 50.5644 0.0000 -11.5973 0.0000
# 3 46.8147 50.5644 91.4148 0.0000 -15.8354 0.0000
# 4 0.0000 0.0000 0.0000 33.4617 0.0000 -3.4834
# 5 -31.5037 -11.5973 -15.8354 0.0000 36.9498 0.0000
# 6 0.0000 0.0000 0.0000 -3.4834 0.0000 34.2269
#
#
#
# Elastic Compliance Matrix: (Units=1/GPa)
#
#
# Indices 1 2 3 4 5 6 
#
# 1 0.012939 -0.003590 -0.003159 0.000000 0.008551 0.000000
# 2 -0.003590 0.012490 -0.005316 0.000000 -0.001419 0.000000
# 3 -0.003159 -0.005316 0.015924 0.000000 0.002462 0.000000
# 4 0.000000 0.000000 0.000000 0.030205 0.000000 0.003074
# 5 0.008551 -0.001419 0.002462 0.000000 0.034965 0.000000
# 6 0.000000 0.000000 0.000000 0.003074 0.000000 0.029530
#
#
# Mechanical properties :
#
#
# Convention : Reuss Voigt Hill
#
# Bulk Modulus (GPa) = 58.06263 69.92091 63.99177
# Shear Modulus (GPa) = 30.13447 33.00937 31.57192
#
# Velocity S-wave (km/s) = 3.82099 3.99910 3.91106
# Velocity P-wave (km/s) = 6.89910 7.42967 7.16930
#
# Compressibility (1/GPa) = 0.01722278
#
# Stress axis : x y z
#
# Youngs Moduli (GPa) = 77.28382 80.06725 62.79866
#
# Poissons Ratio (x) = 0.28744 0.19840
# Poissons Ratio (y) = 0.27744 0.33382
# Poissons Ratio (z) = 0.24417 0.42561
#
# Static dielectric constant tensor:
#      x y z
#    x 3.825820 0.000000 -0.135310 
#    y 0.000000 3.762610 0.000000 
#    z -0.135310 0.000000 3.753330 
# 
# 
# High freq. dielectric constant tensor:
#      x y z
#    x 1.815440 0.000000 -0.016000 
#    y 0.000000 1.806500 0.000000 
#    z -0.016000 0.000000 1.811190 
# 
# From -- ./inp_files/187224.got.cif
#   From: 2010.06.25/outbox.cif.g09.slc.cpg/sg12_94_cif.got.tgz:187224.got - 2010.06.28 00:19:55.
