data_PCOD8107062
_publ_section_title
;
Structure prediction by ZEFSAII (Michael W. Deem and Ramdas Pophale) SiO2 
 PCOD8107062
Probable space group: C 2/M
;
_chemical_formula_sum "Si O2"
_cell_formula_units_Z 64
_cell_length_a 15.433653
_cell_length_b 8.708592
_cell_length_c 24.017213
_cell_angle_alpha 90.000000
_cell_angle_beta 90.630476
_cell_angle_gamma 90.000000
_cell_volume 3227.847377
_symmetry_space_group_name_H-M "C 2/M"
_symmetry_group_IT_number 12
_symmetry_cell_setting 'monoclinic'
loop_
_space_group_symop_operation_xyz
x,y,z
-x,y,-z
-x,-y,-z
x,-y,z
1/2+x,1/2+y,z
1/2-x,1/2+y,-z
1/2-x,1/2-y,-z
1/2+x,1/2-y,z
loop_
_atom_site_type_symbol
_atom_site_label
_atom_site_fract_x
_atom_site_fract_y
_atom_site_fract_z
Si Si1 0.346096 0.817986 0.134342
Si Si2 0.652666 0.318314 0.137921
Si Si3 0.343988 0.177255 0.637121
Si Si4 0.150501 0.824431 0.633163
Si Si5 0.000153 0.681320 0.437952
Si Si6 0.495594 0.317666 0.063050
Si Si7 0.903157 0.319718 0.256758
Si Si8 0.588020 0.679965 0.256960
O O1 0.248191 0.760530 0.121096
O O2 0.407448 0.741698 0.089400
O O3 0.372374 0.761787 0.196115
O O4 0.354805 0.000000 0.129906
O O5 0.651043 0.500000 0.134911
O O6 0.579447 0.250395 0.096145
O O7 0.632972 0.264755 0.200428
O O8 0.248086 0.194545 0.610421
O O9 0.414159 0.240361 0.593392
O O10 0.347671 0.281979 0.692236
O O11 0.362738 0.000000 0.652920
O O12 0.151655 0.766825 0.696750
O O13 0.086554 0.727438 0.594612
O O14 0.119648 0.000000 0.631521
O O15 0.002406 0.500000 0.441744
O O16 0.000000 0.753215 0.500000
O O17 0.494889 0.500000 0.065691
O O18 0.500000 0.257505 0.000000
O O19 0.887917 0.500000 0.263575
O O20 0.002980 0.279921 0.266285
O O21 0.565122 0.500000 0.255081
#
# Coordination Sequence:
#
# PCOD8107062 Si02
#       8
#     8   8   8   8   8   8   8   8
#     4  10  21  37  58  82 112 149 187 231 280 338
#     4   9  19  36  56  81 114 148 184 228 282 341
#     4  10  22  39  58  85 121 152 186 238 288 338
#     4  11  23  38  59  88 118 152 192 238 287 337
#     4  10  22  41  62  83 114 158 199 240 291 339
#     4  10  21  38  58  80 111 150 191 238 288 335
#     4  11  21  35  57  85 117 150 185 233 293 346
#     4  11  20  34  60  87 114 152 190 228 285 351
#
# _framework density 19.827455
#
# number of rings (size 3 to 8) (size 9 to 14) (size 15 to 20)
#    0.000    1.750    2.500    1.875    0.000    4.000 
#    0.000    1.875    0.000    0.000    0.000    0.000 
#    0.000    0.000    0.000    0.000    0.000    0.000 
#
# Total GULP energy -396871.347312 kJ/mol
# GULP energy per Si atom -12402.229604 kJ/mol
# Density = 1.978233 g / cm^3
# Si number density = 19.827455 Si / 1000 Ang^3
#
#
#
# Elastic Constant Matrix: (Units=GPa)
#
#
# Indices 1 2 3 4 5 6 
#
# 1 143.3649 7.8789 63.1209 0.0000 -7.7523 0.0000
# 2 7.8789 6.8240 14.0802 0.0000 -2.3799 0.0000
# 3 63.1209 14.0802 152.3416 0.0000 -9.2750 0.0000
# 4 0.0000 0.0000 0.0000 22.5470 0.0000 -1.5585
# 5 -7.7523 -2.3799 -9.2750 0.0000 16.1518 0.0000
# 6 0.0000 0.0000 0.0000 -1.5585 0.0000 24.6342
#
#
#
# Elastic Compliance Matrix: (Units=1/GPa)
#
#
# Indices 1 2 3 4 5 6 
#
# 1 0.008642 -0.002674 -0.003217 0.000000 0.001906 0.000000
# 2 -0.002674 0.186911 -0.015096 0.000000 0.017588 0.000000
# 3 -0.003217 -0.015096 0.009391 0.000000 0.001624 0.000000
# 4 0.000000 0.000000 0.000000 0.044547 0.000000 0.002818
# 5 0.001906 0.017588 0.001624 0.000000 0.066352 0.000000
# 6 0.000000 0.000000 0.000000 0.002818 0.000000 0.040772
#
#
# Mechanical properties :
#
#
# Convention : Reuss Voigt Hill
#
# Bulk Modulus (GPa) = 6.13618 52.52117 29.32867
# Shear Modulus (GPa) = 11.03963 27.16331 19.10147
#
# Velocity S-wave (km/s) = 2.36219 3.70535 3.10721
# Velocity P-wave (km/s) = 3.24676 6.69722 5.26280
#
# Compressibility (1/GPa) = 0.16296792
#
# Stress axis : x y z
#
# Youngs Moduli (GPa) = 115.71642 5.35014 106.47952
#
# Poissons Ratio (x) = 0.01431 0.34259
# Poissons Ratio (y) = 0.30946 1.60746
# Poissons Ratio (z) = 0.37231 0.08077
#
# Static dielectric constant tensor:
#      x y z
#    x 3.780160 0.000000 -0.021080 
#    y 0.000000 3.362240 0.000000 
#    z -0.021080 0.000000 3.793040 
# 
# 
# High freq. dielectric constant tensor:
#      x y z
#    x 1.787490 0.000000 -0.002050 
#    y 0.000000 1.752810 0.000000 
#    z -0.002050 0.000000 1.771090 
# 
# From -- ./inp_files/338757.got.cif
#   From: 2010.06.25/outbox.cif.g09.slc.cpg/sg12_170_cif.got.tgz:338757.got - 2010.06.28 00:19:55.
