data_PCOD8107624
_publ_section_title
;
Structure prediction by ZEFSAII (Michael W. Deem and Ramdas Pophale) SiO2 
 PCOD8107624
Probable space group: C 2/M
;
_chemical_formula_sum "Si O2"
_cell_formula_units_Z 56
_cell_length_a 21.858994
_cell_length_b 29.318246
_cell_length_c 9.243122
_cell_angle_alpha 90.000000
_cell_angle_beta 152.925535
_cell_angle_gamma 90.000000
_cell_volume 2696.122340
_symmetry_space_group_name_H-M "C 2/M"
_symmetry_group_IT_number 12
_symmetry_cell_setting 'monoclinic'
loop_
_space_group_symop_operation_xyz
x,y,z
-x,y,-z
-x,-y,-z
x,-y,z
1/2+x,1/2+y,z
1/2-x,1/2+y,-z
1/2-x,1/2-y,-z
1/2+x,1/2-y,z
loop_
_atom_site_type_symbol
_atom_site_label
_atom_site_fract_x
_atom_site_fract_y
_atom_site_fract_z
Si Si1 0.132360 0.848723 0.703930
Si Si2 0.610132 0.549373 0.113767
Si Si3 0.893514 0.389541 0.157869
Si Si4 0.380140 0.053288 0.845150
Si Si5 0.719874 0.288310 0.144060
Si Si6 0.980801 0.710621 0.293381
Si Si7 0.538814 0.354146 0.914660
O O1 0.000000 0.870656 0.500000
O O2 0.083685 0.833735 0.440287
O O3 0.251469 0.885295 0.942632
O O4 0.184718 0.804853 0.905165
O O5 0.630902 0.500000 0.074299
O O6 0.744369 0.565502 0.476952
O O7 0.500000 0.539466 0.000000
O O8 0.563664 0.592616 0.919899
O O9 0.936578 0.341452 0.179119
O O10 0.000000 0.407161 0.500000
O O11 0.880520 0.425646 0.004472
O O12 0.398457 0.000000 0.908033
O O13 0.500000 0.073390 0.000000
O O14 0.879244 0.280415 0.496429
O O15 0.638382 0.242808 0.015692
O O16 0.675171 0.326975 0.164876
O O17 0.000000 0.722572 0.500000
O O18 0.500000 0.349584 0.000000
#
# Coordination Sequence:
#
# PCOD8107624 Si02
#       7
#     8   8   8   8   8   8   8
#     4  10  21  38  60  89 117 160 200 250 296 361
#     4   9  18  36  61  86 113 155 206 243 287 358
#     4  11  22  38  61  93 125 154 206 255 306 349
#     4  10  23  41  64  91 124 166 204 243 301 374
#     4  11  23  39  62  86 121 160 209 247 297 368
#     4  11  22  37  61  91 115 161 204 249 294 361
#     4  10  21  37  62  88 122 159 200 255 311 349
#
# _framework density 20.770571
#
# number of rings (size 3 to 8) (size 9 to 14) (size 15 to 20)
#    0.000    1.714    2.857    3.429    6.000    0.286 
#    0.000    1.429    0.000    7.714    0.000    0.000 
#    0.000    0.000    0.000    0.000    0.000    0.000 
#
# Total GULP energy -347031.700855 kJ/mol
# GULP energy per Si atom -12393.989316 kJ/mol
# Density = 2.072330 g / cm^3
# Si number density = 20.770571 Si / 1000 Ang^3
#
#
#
# Elastic Constant Matrix: (Units=GPa)
#
#
# Indices 1 2 3 4 5 6 
#
# 1 82.3144 15.1970 44.1104 0.0000 17.6874 0.0000
# 2 15.1970 72.5250 5.6783 0.0000 0.9640 0.0000
# 3 44.1104 5.6783 91.8516 0.0000 31.5749 0.0000
# 4 0.0000 0.0000 0.0000 19.9147 0.0000 1.7513
# 5 17.6874 0.9640 31.5749 0.0000 43.9060 0.0000
# 6 0.0000 0.0000 0.0000 1.7513 0.0000 27.6374
#
#
#
# Elastic Compliance Matrix: (Units=1/GPa)
#
#
# Indices 1 2 3 4 5 6 
#
# 1 0.017019 -0.002960 -0.007513 0.000000 -0.001388 0.000000
# 2 -0.002960 0.014376 0.000307 0.000000 0.000656 0.000000
# 3 -0.007513 0.000307 0.017851 0.000000 -0.009818 0.000000
# 4 0.000000 0.000000 0.000000 0.050496 0.000000 -0.003200
# 5 -0.001388 0.000656 -0.009818 0.000000 0.030381 0.000000
# 6 0.000000 0.000000 0.000000 -0.003200 0.000000 0.036386
#
#
# Mechanical properties :
#
#
# Convention : Reuss Voigt Hill
#
# Bulk Modulus (GPa) = 34.58392 41.85136 38.21764
# Shear Modulus (GPa) = 25.44813 30.40530 27.92672
#
# Velocity S-wave (km/s) = 3.50409 3.83020 3.67077
# Velocity P-wave (km/s) = 5.74961 6.30505 6.03373
#
# Compressibility (1/GPa) = 0.02891517
#
# Stress axis : x y z
#
# Youngs Moduli (GPa) = 58.75664 69.56163 56.01882
#
# Poissons Ratio (x) = 0.20587 0.42088
# Poissons Ratio (y) = 0.17390 -0.01721
# Poissons Ratio (z) = 0.44145 -0.02137
#
# Static dielectric constant tensor:
#      x y z
#    x 3.701080 0.000000 0.338240 
#    y 0.000000 3.857390 0.000000 
#    z 0.338240 0.000000 3.919670 
# 
# 
# High freq. dielectric constant tensor:
#      x y z
#    x 1.796270 0.000000 0.029950 
#    y 0.000000 1.806360 0.000000 
#    z 0.029950 0.000000 1.814530 
# 
# From -- ./inp_files/91659.got.cif
#   From: 2010.06.25/outbox.cif.g09.slc.cpg/sg12_46_cif.got.tgz:91659.got - 2010.06.28 00:19:55.
