data_PCOD8107555
_publ_section_title
;
Structure prediction by ZEFSAII (Michael W. Deem and Ramdas Pophale) SiO2 
 PCOD8107555
Probable space group: C 2/M
;
_chemical_formula_sum "Si O2"
_cell_formula_units_Z 64
_cell_length_a 18.666703
_cell_length_b 8.999865
_cell_length_c 29.844199
_cell_angle_alpha 90.000000
_cell_angle_beta 140.723567
_cell_angle_gamma 90.000000
_cell_volume 3174.023539
_symmetry_space_group_name_H-M "C 2/M"
_symmetry_group_IT_number 12
_symmetry_cell_setting 'monoclinic'
loop_
_space_group_symop_operation_xyz
x,y,z
-x,y,-z
-x,-y,-z
x,-y,z
1/2+x,1/2+y,z
1/2-x,1/2+y,-z
1/2-x,1/2-y,-z
1/2+x,1/2-y,z
loop_
_atom_site_type_symbol
_atom_site_label
_atom_site_fract_x
_atom_site_fract_y
_atom_site_fract_z
Si Si1 0.370648 0.324760 0.562880
Si Si2 0.380299 0.674553 0.921238
Si Si3 0.055461 0.174110 0.302450
Si Si4 0.038654 0.176658 0.567058
Si Si5 0.671710 0.333406 0.851400
Si Si6 0.413024 0.176011 0.847963
Si Si7 0.705668 0.176219 0.300595
Si Si8 0.135520 0.167689 0.934640
O O1 0.354845 0.500000 0.550512
O O2 0.250000 0.250000 0.500000
O O3 0.422707 0.280758 0.635866
O O4 0.454309 0.263043 0.564702
O O5 0.379836 0.500000 0.912582
O O6 0.278126 0.721594 0.904548
O O7 0.349121 0.759597 0.860204
O O8 0.500000 0.726541 0.000000
O O9 0.142812 0.259059 0.313132
O O10 0.925665 0.220798 0.229857
O O11 0.072204 0.000000 0.301873
O O12 0.165402 0.234020 0.637785
O O13 0.000000 0.238529 0.500000
O O14 0.036461 0.000000 0.566303
O O15 0.714026 0.500000 0.859942
O O16 0.611573 0.332656 0.870365
O O17 0.351212 0.231189 0.773073
O O18 0.538111 0.242236 0.912181
O O19 0.417928 0.000000 0.852791
O O20 0.699889 0.000000 0.301728
O O21 0.138566 0.000000 0.955492
O O22 0.250000 0.250000 0.000000
#
# Coordination Sequence:
#
# PCOD8107555 Si02
#       8
#     8   8   8   8   8   8   8   8
#     4  10  21  37  61  88 120 157 196 240 292 350
#     4  11  25  42  60  84 116 155 200 252 305 358
#     4  10  21  38  60  86 119 158 195 242 300 352
#     4   9  18  34  58  87 117 153 194 238 284 336
#     4  10  22  39  60  85 116 155 197 243 299 358
#     4  11  23  38  60  88 119 156 200 247 300 362
#     4  10  21  37  61  89 117 154 200 245 289 348
#     4  11  22  38  61  87 118 154 197 247 301 358
#
# _framework density 20.163682000000001
#
# number of rings (size 3 to 8) (size 9 to 14) (size 15 to 20)
#    0.000    1.750    1.250    2.625    1.750    6.500 
#    0.000    0.625    0.000    2.250    0.000    0.000 
#    0.000    0.000    0.000    0.000    0.000    0.000 
#
# Total GULP energy -396898.165248 kJ/mol
# GULP energy per Si atom -12403.067664 kJ/mol
# Density = 2.011779 g / cm^3
# Si number density = 20.163682 Si / 1000 Ang^3
#
#
#
# Elastic Constant Matrix: (Units=GPa)
#
#
# Indices 1 2 3 4 5 6 
#
# 1 114.0513 29.4826 39.6254 0.0000 2.1193 -0.0001
# 2 29.4826 53.1494 32.2478 0.0001 0.9497 -0.0003
# 3 39.6254 32.2478 117.2615 0.0000 6.5770 0.0000
# 4 0.0000 0.0001 0.0000 26.7845 0.0000 2.4238
# 5 2.1193 0.9497 6.5770 0.0000 40.9047 0.0000
# 6 -0.0001 -0.0003 0.0000 2.4238 0.0000 35.3168
#
#
#
# Elastic Compliance Matrix: (Units=1/GPa)
#
#
# Indices 1 2 3 4 5 6 
#
# 1 0.010769 -0.004521 -0.002392 0.000000 -0.000068 0.000000
# 2 -0.004521 0.024491 -0.005236 0.000000 0.000507 0.000000
# 3 -0.002392 -0.005236 0.010860 0.000000 -0.001501 0.000000
# 4 0.000000 0.000000 0.000000 0.037568 0.000000 -0.002578
# 5 -0.000068 0.000507 -0.001501 0.000000 0.024680 0.000000
# 6 0.000000 0.000000 0.000000 -0.002578 0.000000 0.028492
#
#
# Mechanical properties :
#
#
# Convention : Reuss Voigt Hill
#
# Bulk Modulus (GPa) = 45.82502 54.13041 49.97772
# Shear Modulus (GPa) = 29.68557 32.80830 31.24693
#
# Velocity S-wave (km/s) = 3.84113 4.03811 3.94085
# Velocity P-wave (km/s) = 6.51523 6.97463 6.74884
#
# Compressibility (1/GPa) = 0.02182214
#
# Stress axis : x y z
#
# Youngs Moduli (GPa) = 92.85887 40.83214 92.07885
#
# Poissons Ratio (x) = 0.18461 0.22024
# Poissons Ratio (y) = 0.41984 0.48210
# Poissons Ratio (z) = 0.22211 0.21378
#
# Static dielectric constant tensor:
#      x y z
#    x 3.818710 0.000000 -0.190180 
#    y 0.000000 3.466800 0.000000 
#    z -0.190180 0.000000 3.912530 
# 
# 
# High freq. dielectric constant tensor:
#      x y z
#    x 1.798450 0.000000 -0.003370 
#    y 0.000000 1.766980 0.000000 
#    z -0.003370 0.000000 1.799690 
# 
# From -- ./inp_files/378434.got.cif
#   From: 2010.06.25/outbox.cif.g09.slc.cpg/sg12_190_cif.got.tgz:378434.got - 2010.06.28 00:19:55.
