data_PCOD8107953
_publ_section_title
;
Structure prediction by ZEFSAII (Michael W. Deem and Ramdas Pophale) SiO2 
 PCOD8107953
Probable space group: C 2/M
;
_chemical_formula_sum "Si O2"
_cell_formula_units_Z 64
_cell_length_a 14.599531
_cell_length_b 8.712433
_cell_length_c 25.815926
_cell_angle_alpha 90.000000
_cell_angle_beta 92.160181
_cell_angle_gamma 90.000000
_cell_volume 3281.386023
_symmetry_space_group_name_H-M "C 2/M"
_symmetry_group_IT_number 12
_symmetry_cell_setting 'monoclinic'
loop_
_space_group_symop_operation_xyz
x,y,z
-x,y,-z
-x,-y,-z
x,-y,z
1/2+x,1/2+y,z
1/2-x,1/2+y,-z
1/2-x,1/2-y,-z
1/2+x,1/2-y,z
loop_
_atom_site_type_symbol
_atom_site_label
_atom_site_fract_x
_atom_site_fract_y
_atom_site_fract_z
Si Si1 0.572515 0.179586 0.254876
Si Si2 0.090339 0.175447 0.618523
Si Si3 0.264853 0.821191 0.444810
Si Si4 0.603305 0.318542 0.995272
Si Si5 0.224104 0.179665 0.193048
Si Si6 0.384925 0.320282 0.639143
Si Si7 0.758972 0.680440 0.076923
Si Si8 0.879085 0.178727 0.263646
O O1 0.635921 0.222324 0.207730
O O2 0.626653 0.224212 0.308438
O O3 0.480765 0.278410 0.247679
O O4 0.549350 0.000000 0.254149
O O5 0.135546 0.280704 0.575601
O O6 0.132091 0.213769 0.675706
O O7 0.982993 0.211836 0.615540
O O8 0.109367 0.000000 0.604136
O O9 0.250000 0.750000 0.500000
O O10 0.189588 0.757958 0.402870
O O11 0.253606 0.000000 0.451115
O O12 0.598376 0.500000 0.991482
O O13 0.648795 0.257096 0.943420
O O14 0.500000 0.251848 0.000000
O O15 0.667630 0.264680 0.044417
O O16 0.249390 0.232454 0.135863
O O17 0.308779 0.214789 0.232087
O O18 0.200693 0.000000 0.195239
O O19 0.372967 0.500000 0.652302
O O20 0.771305 0.500000 0.071777
O O21 0.861269 0.000000 0.251158
#
# Coordination Sequence:
#
# PCOD8107953 Si02
#       8
#     8   8   8   8   8   8   8   8
#     4  11  22  36  57  85 114 147 186 226 274 333
#     4   9  19  37  58  78 103 136 176 221 269 323
#     4  11  23  37  55  79 107 139 177 222 273 326
#     4   9  18  35  58  80 104 140 185 228 272 325
#     4  11  22  36  54  80 118 154 185 228 277 327
#     4   9  20  39  59  78 106 146 183 220 271 328
#     4   9  20  36  53  79 111 142 180 227 276 322
#     4  10  21  38  59  83 111 146 187 229 275 329
#
# _framework density 19.503954
#
# number of rings (size 3 to 8) (size 9 to 14) (size 15 to 20)
#    0.000    2.125    0.000    3.750    0.000    8.250 
#    0.000    3.750    0.000    0.000    0.000    0.000 
#    0.000    0.000    0.000    0.000    0.000    0.000 
#
# Total GULP energy -396909.277104 kJ/mol
# GULP energy per Si atom -12403.414909 kJ/mol
# Density = 1.945956 g / cm^3
# Si number density = 19.503954 Si / 1000 Ang^3
#
#
#
# Elastic Constant Matrix: (Units=GPa)
#
#
# Indices 1 2 3 4 5 6 
#
# 1 89.4940 13.4658 38.6478 0.0000 -20.3551 0.0000
# 2 13.4658 44.6590 26.7818 0.0000 -7.4359 0.0000
# 3 38.6478 26.7818 84.2203 0.0000 -27.9356 0.0000
# 4 0.0000 0.0000 0.0000 32.4083 0.0000 -4.0469
# 5 -20.3551 -7.4359 -27.9356 0.0000 25.3576 0.0000
# 6 0.0000 0.0000 0.0000 -4.0469 0.0000 33.0094
#
#
#
# Elastic Compliance Matrix: (Units=1/GPa)
#
#
# Indices 1 2 3 4 5 6 
#
# 1 0.014677 -0.000756 -0.004192 0.000000 0.006941 0.000000
# 2 -0.000756 0.027807 -0.009443 0.000000 -0.002855 0.000000
# 3 -0.004192 -0.009443 0.023268 0.000000 0.019499 0.000000
# 4 0.000000 0.000000 0.000000 0.031336 0.000000 0.003842
# 5 0.006941 -0.002855 0.019499 0.000000 0.065652 0.000000
# 6 0.000000 0.000000 0.000000 0.003842 0.000000 0.030765
#
#
# Mechanical properties :
#
#
# Convention : Reuss Voigt Hill
#
# Bulk Modulus (GPa) = 27.04865 41.79601 34.42233
# Shear Modulus (GPa) = 21.31185 27.45360 24.38272
#
# Velocity S-wave (km/s) = 3.30918 3.75586 3.53957
# Velocity P-wave (km/s) = 5.33847 6.34702 5.86447
#
# Compressibility (1/GPa) = 0.03697042
#
# Stress axis : x y z
#
# Youngs Moduli (GPa) = 68.13449 35.96189 42.97714
#
# Poissons Ratio (x) = 0.02717 0.18018
# Poissons Ratio (y) = 0.05148 0.40583
# Poissons Ratio (z) = 0.28565 0.33959
#
# Static dielectric constant tensor:
#      x y z
#    x 3.750810 0.000000 0.020840 
#    y 0.000000 3.457110 0.000000 
#    z 0.020840 0.000000 3.588460 
# 
# 
# High freq. dielectric constant tensor:
#      x y z
#    x 1.767550 0.000000 -0.006640 
#    y 0.000000 1.755420 0.000000 
#    z -0.006640 0.000000 1.755140 
# 
# From -- ./inp_files/338936.got.cif
#   From: 2010.06.25/outbox.cif.g09.slc.cpg/sg12_170_cif.got.tgz:338936.got - 2010.06.28 00:19:55.
