data_PCOD8107207
_publ_section_title
;
Structure prediction by ZEFSAII (Michael W. Deem and Ramdas Pophale) SiO2 
 PCOD8107207
Probable space group: C 2/M
;
_chemical_formula_sum "Si O2"
_cell_formula_units_Z 64
_cell_length_a 14.584190
_cell_length_b 8.880070
_cell_length_c 29.393499
_cell_angle_alpha 90.000000
_cell_angle_beta 118.746486
_cell_angle_gamma 90.000000
_cell_volume 3337.558315
_symmetry_space_group_name_H-M "C 2/M"
_symmetry_group_IT_number 12
_symmetry_cell_setting 'monoclinic'
loop_
_space_group_symop_operation_xyz
x,y,z
-x,y,-z
-x,-y,-z
x,-y,z
1/2+x,1/2+y,z
1/2-x,1/2+y,-z
1/2-x,1/2-y,-z
1/2+x,1/2-y,z
loop_
_atom_site_type_symbol
_atom_site_label
_atom_site_fract_x
_atom_site_fract_y
_atom_site_fract_z
Si Si1 0.388336 0.174853 0.493934
Si Si2 0.941777 0.325766 0.125788
Si Si3 0.325561 0.826589 0.245318
Si Si4 0.601105 0.327056 0.227965
Si Si5 0.267495 0.322277 0.137525
Si Si6 0.967201 0.823259 0.687765
Si Si7 0.176403 0.674506 0.420064
Si Si8 0.043134 0.324693 0.056910
O O1 0.500000 0.227582 0.500000
O O2 0.296425 0.271428 0.449248
O O3 0.384129 0.203559 0.547003
O O4 0.368654 0.000000 0.477898
O O5 0.917899 0.500000 0.130245
O O6 0.844048 0.222190 0.114962
O O7 0.044806 0.279221 0.178162
O O8 0.959649 0.297466 0.076659
O O9 0.224751 0.803934 0.252722
O O10 0.312800 0.746689 0.194106
O O11 0.421962 0.755222 0.295795
O O12 0.349077 0.000000 0.241255
O O13 0.568592 0.500000 0.210777
O O14 0.570028 0.276787 0.270883
O O15 0.263794 0.500000 0.143151
O O16 0.154054 0.253326 0.098345
O O17 0.881893 0.768392 0.632011
O O18 0.981080 0.000000 0.685925
O O19 0.175084 0.500000 0.406739
O O20 0.063417 0.500000 0.052911
O O21 0.000000 0.249584 0.000000
#
# Coordination Sequence:
#
# PCOD8107207 Si02
#       8
#     8   8   8   8   8   8   8   8
#     4   9  19  38  63  86 114 156 199 237 289 348
#     4  11  21  35  59  85 110 146 190 234 280 339
#     4  11  22  37  58  84 112 147 191 239 285 340
#     4  10  22  38  57  81 113 150 189 234 287 344
#     4  11  21  36  58  83 112 148 186 230 287 345
#     4  11  23  39  58  83 119 159 192 233 289 349
#     4  10  21  37  58  87 120 152 192 246 289 334
#     4   9  20  38  58  82 114 150 188 234 289 346
#
# _framework density 19.175695000000001
#
# number of rings (size 3 to 8) (size 9 to 14) (size 15 to 20)
#    0.000    1.750    2.500    1.875    0.000    3.250 
#    0.000    5.000    0.000    5.250    0.000    0.000 
#    0.000    0.000    0.000    0.000    0.000    0.000 
#
# Total GULP energy -396911.684685 kJ/mol
# GULP energy per Si atom -12403.490146 kJ/mol
# Density = 1.913205 g / cm^3
# Si number density = 19.175695 Si / 1000 Ang^3
#
#
#
# Elastic Constant Matrix: (Units=GPa)
#
#
# Indices 1 2 3 4 5 6 
#
# 1 98.9315 27.8887 21.5573 0.0000 9.7131 0.0000
# 2 27.8887 72.7711 28.6666 0.0000 1.9015 0.0000
# 3 21.5573 28.6666 80.4548 0.0000 4.0167 0.0000
# 4 0.0000 0.0000 0.0000 19.4732 0.0000 1.1054
# 5 9.7131 1.9015 4.0167 0.0000 23.5411 0.0000
# 6 0.0000 0.0000 0.0000 1.1054 0.0000 29.9339
#
#
#
# Elastic Compliance Matrix: (Units=1/GPa)
#
#
# Indices 1 2 3 4 5 6 
#
# 1 0.011970 -0.003834 -0.001624 0.000000 -0.004352 0.000000
# 2 -0.003834 0.017216 -0.005160 0.000000 0.001072 0.000000
# 3 -0.001624 -0.005160 0.014775 0.000000 -0.001434 0.000000
# 4 0.000000 0.000000 0.000000 0.051460 0.000000 -0.001900
# 5 -0.004352 0.001072 -0.001434 0.000000 0.044433 0.000000
# 6 0.000000 0.000000 0.000000 -0.001900 0.000000 0.033477
#
#
# Mechanical properties :
#
#
# Convention : Reuss Voigt Hill
#
# Bulk Modulus (GPa) = 44.00619 45.37586 44.69103
# Shear Modulus (GPa) = 24.73510 26.19262 25.46386
#
# Velocity S-wave (km/s) = 3.59544 3.69986 3.64802
# Velocity P-wave (km/s) = 6.34311 6.47816 6.41099
#
# Compressibility (1/GPa) = 0.02272407
#
# Stress axis : x y z
#
# Youngs Moduli (GPa) = 83.54275 58.08606 67.68312
#
# Poissons Ratio (x) = 0.22270 0.10991
# Poissons Ratio (y) = 0.32030 0.34927
# Poissons Ratio (z) = 0.13567 0.29975
#
# Static dielectric constant tensor:
#      x y z
#    x 3.718390 0.000000 0.055780 
#    y 0.000000 3.460400 0.000000 
#    z 0.055780 0.000000 3.496920 
# 
# 
# High freq. dielectric constant tensor:
#      x y z
#    x 1.757580 0.000000 0.003060 
#    y 0.000000 1.741540 0.000000 
#    z 0.003060 0.000000 1.741530 
# 
# From -- ./inp_files/375087.got.cif
#   From: 2010.06.25/outbox.cif.g09.slc.cpg/sg12_188_cif.got.tgz:375087.got - 2010.06.28 00:19:55.
