data_PCOD8107159
_publ_section_title
;
Structure prediction by ZEFSAII (Michael W. Deem and Ramdas Pophale) SiO2 
 PCOD8107159
Probable space group: C 2/M
;
_chemical_formula_sum "Si O2"
_cell_formula_units_Z 48
_cell_length_a 10.171480
_cell_length_b 9.075114
_cell_length_c 27.028347
_cell_angle_alpha 90.000000
_cell_angle_beta 100.932187
_cell_angle_gamma 90.000000
_cell_volume 2449.637939
_symmetry_space_group_name_H-M "C 2/M"
_symmetry_group_IT_number 12
_symmetry_cell_setting 'monoclinic'
loop_
_space_group_symop_operation_xyz
x,y,z
-x,y,-z
-x,-y,-z
x,-y,z
1/2+x,1/2+y,z
1/2-x,1/2+y,-z
1/2-x,1/2-y,-z
1/2+x,1/2-y,z
loop_
_atom_site_type_symbol
_atom_site_label
_atom_site_fract_x
_atom_site_fract_y
_atom_site_fract_z
Si Si1 0.978050 0.171876 0.141916
Si Si2 0.382617 0.172299 0.526557
Si Si3 0.737525 0.173126 0.197173
Si Si4 0.617659 0.327267 0.972846
Si Si5 0.292646 0.826595 0.303271
Si Si6 0.411394 0.828616 0.642135
O O1 0.872492 0.210375 0.177226
O O2 0.914049 0.219183 0.085404
O O3 0.111187 0.266469 0.158200
O O4 0.016402 0.000000 0.145049
O O5 0.500000 0.232451 0.500000
O O6 0.250000 0.250000 0.500000
O O7 0.419607 0.212593 0.585229
O O8 0.361912 0.000000 0.517769
O O9 0.741978 0.249825 0.250284
O O10 0.719173 0.000000 0.203468
O O11 0.639911 0.500000 0.979160
O O12 0.500000 0.271923 0.000000
O O13 0.750000 0.250000 0.000000
O O14 0.447262 0.787048 0.323146
O O15 0.205229 0.768503 0.342554
O O16 0.270217 0.000000 0.296916
O O17 0.377717 0.000000 0.647714
#
# Coordination Sequence:
#
# PCOD8107159 Si02
#       6
#     8   8   8   8   8   8
#     4  10  22  39  58  84 116 149 189 234 279 333
#     4  10  21  38  59  85 117 150 188 233 278 330
#     4  11  23  38  58  84 113 147 188 233 282 336
#     4  10  21  37  58  85 116 150 189 232 279 333
#     4  11  23  39  60  84 112 148 188 232 283 336
#     4  10  22  39  59  85 116 150 189 232 279 333
#
# _framework density 19.594733000000002
#
# number of rings (size 3 to 8) (size 9 to 14) (size 15 to 20)
#    0.000    1.667    0.000    4.000    0.000    8.667 
#    0.000    0.000    0.000    0.000    0.000    0.000 
#    0.000    0.000    0.000    0.000    0.000    0.000 
#
# Total GULP energy -297749.897283 kJ/mol
# GULP energy per Si atom -12406.245720 kJ/mol
# Density = 1.955013 g / cm^3
# Si number density = 19.594733 Si / 1000 Ang^3
#
#
#
# Elastic Constant Matrix: (Units=GPa)
#
#
# Indices 1 2 3 4 5 6 
#
# 1 104.5453 45.8560 29.0390 0.0000 3.4361 0.0000
# 2 45.8560 63.1820 33.9396 0.0000 3.6448 0.0000
# 3 29.0390 33.9396 101.1311 0.0000 -0.3499 0.0000
# 4 0.0000 0.0000 0.0000 26.9974 0.0000 7.8125
# 5 3.4361 3.6448 -0.3499 0.0000 41.9135 0.0000
# 6 0.0000 0.0000 0.0000 7.8125 0.0000 36.2227
#
#
#
# Elastic Compliance Matrix: (Units=1/GPa)
#
#
# Indices 1 2 3 4 5 6 
#
# 1 0.014083 -0.009796 -0.000757 0.000000 -0.000309 0.000000
# 2 -0.009796 0.026249 -0.006002 0.000000 -0.001530 0.000000
# 3 -0.000757 -0.006002 0.012122 0.000000 0.000685 0.000000
# 4 0.000000 0.000000 0.000000 0.039506 0.000000 -0.008521
# 5 -0.000309 -0.001530 0.000685 0.000000 0.024023 0.000000
# 6 0.000000 0.000000 0.000000 -0.008521 0.000000 0.029445
#
#
# Mechanical properties :
#
#
# Convention : Reuss Voigt Hill
#
# Bulk Modulus (GPa) = 51.69591 54.05862 52.87727
# Shear Modulus (GPa) = 27.02911 31.69498 29.36205
#
# Velocity S-wave (km/s) = 3.71807 4.02621 3.87520
# Velocity P-wave (km/s) = 6.69865 7.01869 6.86054
#
# Compressibility (1/GPa) = 0.01934389
#
# Stress axis : x y z
#
# Youngs Moduli (GPa) = 71.00988 38.09621 82.49406
#
# Poissons Ratio (x) = 0.37320 0.06246
# Poissons Ratio (y) = 0.69563 0.49510
# Poissons Ratio (z) = 0.05376 0.22864
#
# Static dielectric constant tensor:
#      x y z
#    x 3.669930 0.000000 -0.053630 
#    y 0.000000 3.471590 0.000000 
#    z -0.053630 0.000000 3.667320 
# 
# 
# High freq. dielectric constant tensor:
#      x y z
#    x 1.777900 0.000000 -0.001990 
#    y 0.000000 1.760630 0.000000 
#    z -0.001990 0.000000 1.782330 
# 
# From -- ./inp_files/334657.got.cif
#   From: 2010.06.25/outbox.cif.g09.slc.cpg/sg12_168_cif.got.tgz:334657.got - 2010.06.28 00:19:55.
