data_PCOD8107683
_publ_section_title
;
Structure prediction by ZEFSAII (Michael W. Deem and Ramdas Pophale) SiO2 
 PCOD8107683
Probable space group: C 2/M
;
_chemical_formula_sum "Si O2"
_cell_formula_units_Z 48
_cell_length_a 29.491069
_cell_length_b 8.881069
_cell_length_c 14.932024
_cell_angle_alpha 90.000000
_cell_angle_beta 140.585458
_cell_angle_gamma 90.000000
_cell_volume 2483.121513
_symmetry_space_group_name_H-M "C 2/M"
_symmetry_group_IT_number 12
_symmetry_cell_setting 'monoclinic'
loop_
_space_group_symop_operation_xyz
x,y,z
-x,y,-z
-x,-y,-z
x,-y,z
1/2+x,1/2+y,z
1/2-x,1/2+y,-z
1/2-x,1/2-y,-z
1/2+x,1/2-y,z
loop_
_atom_site_type_symbol
_atom_site_label
_atom_site_fract_x
_atom_site_fract_y
_atom_site_fract_z
Si Si1 0.174238 0.171883 0.654519
Si Si2 0.586535 0.176930 0.875378
Si Si3 0.676411 0.674032 0.363046
Si Si4 0.324657 0.324595 0.138321
Si Si5 0.817746 0.174051 0.831242
Si Si6 0.563246 0.674458 0.334332
O O1 0.155881 0.207110 0.729193
O O2 0.234789 0.283142 0.710959
O O3 0.102751 0.199657 0.488948
O O4 0.201090 0.000000 0.683852
O O5 0.611713 0.255619 0.822662
O O6 0.506462 0.224107 0.774787
O O7 0.591739 0.000000 0.869830
O O8 0.637209 0.222613 0.034259
O O9 0.688335 0.500000 0.401493
O O10 0.750000 0.750000 0.500000
O O11 0.654841 0.703926 0.227482
O O12 0.612935 0.733862 0.329205
O O13 0.318310 0.500000 0.107246
O O14 0.250000 0.250000 0.000000
O O15 0.827133 0.000000 0.872607
O O16 0.541939 0.500000 0.288358
#
# Coordination Sequence:
#
# PCOD8107683 Si02
#       6
#     8   8   8   8   8   8
#     4  10  21  38  64  92 121 158 201 247 301 366
#     4  12  26  42  60  87 124 165 207 256 309 358
#     4  10  21  37  63  94 123 159 201 248 303 365
#     4  11  22  38  63  94 123 158 203 251 304 365
#     4  11  22  37  62  93 123 159 203 252 303 362
#     4  10  22  42  63  88 125 163 199 249 308 366
#
# _framework density 19.330507999999998
#
# number of rings (size 3 to 8) (size 9 to 14) (size 15 to 20)
#    0.000    1.333    3.333    2.500    0.000    4.000 
#    0.000    6.667    0.000    0.000    0.000    0.000 
#    0.000    0.000    0.000    0.000    0.000    0.000 
#
# Total GULP energy -297727.775430 kJ/mol
# GULP energy per Si atom -12405.323976 kJ/mol
# Density = 1.928651 g / cm^3
# Si number density = 19.330508 Si / 1000 Ang^3
#
#
#
# Elastic Constant Matrix: (Units=GPa)
#
#
# Indices 1 2 3 4 5 6 
#
# 1 120.1329 37.9624 14.5781 0.0000 1.5228 0.0000
# 2 37.9624 86.4985 14.9935 0.0000 2.7805 0.0000
# 3 14.5781 14.9935 41.3182 0.0000 3.8352 0.0000
# 4 0.0000 0.0000 0.0000 33.6786 0.0000 6.2201
# 5 1.5228 2.7805 3.8352 0.0000 36.2281 0.0000
# 6 0.0000 0.0000 0.0000 6.2201 0.0000 30.8366
#
#
#
# Elastic Compliance Matrix: (Units=1/GPa)
#
#
# Indices 1 2 3 4 5 6 
#
# 1 0.009822 -0.003961 -0.002038 0.000000 0.000107 0.000000
# 2 -0.003961 0.013942 -0.003614 0.000000 -0.000521 0.000000
# 3 -0.002038 -0.003614 0.026459 0.000000 -0.002438 0.000000
# 4 0.000000 0.000000 0.000000 0.030841 0.000000 -0.006221
# 5 0.000107 -0.000521 -0.002438 0.000000 0.027896 0.000000
# 6 0.000000 0.000000 0.000000 -0.006221 0.000000 0.033684
#
#
# Mechanical properties :
#
#
# Convention : Reuss Voigt Hill
#
# Bulk Modulus (GPa) = 32.25966 42.55750 37.40858
# Shear Modulus (GPa) = 29.03564 32.17635 30.60600
#
# Velocity S-wave (km/s) = 3.87985 4.08430 3.98339
# Velocity P-wave (km/s) = 6.06594 6.65624 6.36794
#
# Compressibility (1/GPa) = 0.03099847
#
# Stress axis : x y z
#
# Youngs Moduli (GPa) = 101.81575 71.72428 37.79430
#
# Poissons Ratio (x) = 0.28408 0.07703
# Poissons Ratio (y) = 0.40326 0.13657
# Poissons Ratio (z) = 0.20750 0.25918
#
# Static dielectric constant tensor:
#      x y z
#    x 3.923920 0.000000 -0.316880 
#    y 0.000000 3.595920 0.000000 
#    z -0.316880 0.000000 3.683680 
# 
# 
# High freq. dielectric constant tensor:
#      x y z
#    x 1.765880 0.000000 -0.011490 
#    y 0.000000 1.753960 0.000000 
#    z -0.011490 0.000000 1.752100 
# 
# From -- ./inp_files/230403.got.cif
#   From: 2010.06.25/outbox.cif.g09.slc.cpg/sg12_116_cif.got.tgz:230403.got - 2010.06.28 00:19:55.
