data_PCOD8107299
_publ_section_title
;
Structure prediction by ZEFSAII (Michael W. Deem and Ramdas Pophale) SiO2 
 PCOD8107299
Probable space group: C 2/M
;
_chemical_formula_sum "Si O2"
_cell_formula_units_Z 40
_cell_length_a 27.260405
_cell_length_b 15.117808
_cell_length_c 9.098551
_cell_angle_alpha 90.000000
_cell_angle_beta 148.234464
_cell_angle_gamma 90.000000
_cell_volume 1973.994508
_symmetry_space_group_name_H-M "C 2/M"
_symmetry_group_IT_number 12
_symmetry_cell_setting 'monoclinic'
loop_
_space_group_symop_operation_xyz
x,y,z
-x,y,-z
-x,-y,-z
x,-y,z
1/2+x,1/2+y,z
1/2-x,1/2+y,-z
1/2-x,1/2-y,-z
1/2+x,1/2-y,z
loop_
_atom_site_type_symbol
_atom_site_label
_atom_site_fract_x
_atom_site_fract_y
_atom_site_fract_z
Si Si1 0.088074 0.396159 0.638164
Si Si2 0.771239 0.833283 0.651074
Si Si3 0.913921 0.601675 0.694209
Si Si4 0.891963 0.101870 0.709596
Si Si5 0.754141 0.709002 0.851045
O O1 0.079394 0.500000 0.602432
O O2 0.096595 0.353989 0.494844
O O3 0.000000 0.355835 0.500000
O O4 0.177212 0.374431 0.964992
O O5 0.750000 0.750000 0.500000
O O6 0.678637 0.890488 0.444111
O O7 0.847615 0.892239 0.761141
O O8 0.802490 0.789773 0.884494
O O9 0.938247 0.500000 0.731237
O O10 0.000000 0.647437 0.000000
O O11 0.841237 0.170480 0.466681
O O12 0.882802 0.000000 0.631271
O O13 0.000000 0.129282 0.000000
O O14 0.750000 0.750000 0.000000
#
# Coordination Sequence:
#
# PCOD8107299 Si02
#       5
#     8   8   8   8   8
#     4  10  22  38  59  88 120 157 195 241 305 363
#     4  10  22  37  60  85 118 157 199 246 301 353
#     4  10  21  37  59  86 117 155 199 244 293 357
#     4  10  23  43  65  87 118 166 215 250 288 353
#     4  11  22  40  61  92 124 155 195 252 314 359
#
# _framework density 20.263480999999999
#
# number of rings (size 3 to 8) (size 9 to 14) (size 15 to 20)
#    0.000    1.800    2.000    1.200    5.600    4.800 
#    0.000    0.000    0.000    2.400    0.000    0.000 
#    0.000    0.000    0.000    0.000    0.000    0.000 
#
# Total GULP energy -247771.732286 kJ/mol
# GULP energy per Si atom -12388.586614 kJ/mol
# Density = 2.021736 g / cm^3
# Si number density = 20.263481 Si / 1000 Ang^3
#
#
#
# Elastic Constant Matrix: (Units=GPa)
#
#
# Indices 1 2 3 4 5 6 
#
# 1 143.3006 23.8166 72.4843 0.0000 7.2714 0.0000
# 2 23.8166 51.5119 31.3681 0.0000 -6.5234 0.0000
# 3 72.4843 31.3681 153.0299 0.0000 5.0414 0.0000
# 4 0.0000 0.0000 0.0000 24.0998 0.0000 -6.0021
# 5 7.2714 -6.5234 5.0414 0.0000 38.3217 0.0000
# 6 0.0000 0.0000 0.0000 -6.0021 0.0000 26.5342
#
#
#
# Elastic Compliance Matrix: (Units=1/GPa)
#
#
# Indices 1 2 3 4 5 6 
#
# 1 0.009427 -0.002147 -0.003971 0.000000 -0.001632 0.000000
# 2 -0.002147 0.023432 -0.003948 0.000000 0.004916 0.000000
# 3 -0.003971 -0.003948 0.009262 0.000000 -0.001137 0.000000
# 4 0.000000 0.000000 0.000000 0.043971 0.000000 0.009946
# 5 -0.001632 0.004916 -0.001137 0.000000 0.027391 0.000000
# 6 0.000000 0.000000 0.000000 0.009946 0.000000 0.039937
#
#
# Mechanical properties :
#
#
# Convention : Reuss Voigt Hill
#
# Bulk Modulus (GPa) = 45.47746 67.02005 56.24875
# Shear Modulus (GPa) = 27.64219 32.46936 30.05578
#
# Velocity S-wave (km/s) = 3.69743 4.00729 3.85547
# Velocity P-wave (km/s) = 6.38121 7.38629 6.90207
#
# Compressibility (1/GPa) = 0.02198892
#
# Stress axis : x y z
#
# Youngs Moduli (GPa) = 106.08207 42.67602 107.96261
#
# Poissons Ratio (x) = 0.09162 0.42875
# Poissons Ratio (y) = 0.22774 0.42626
# Poissons Ratio (z) = 0.42128 0.16850
#
# Static dielectric constant tensor:
#      x y z
#    x 4.745660 0.000000 -0.212460 
#    y 0.000000 -5.839450 0.000000 
#    z -0.212460 0.000000 3.830540 
# 
# 
# High freq. dielectric constant tensor:
#      x y z
#    x 1.805320 0.000000 -0.003910 
#    y 0.000000 1.786980 0.000000 
#    z -0.003910 0.000000 1.780600 
# 
# From -- ./inp_files/46970.got.cif
#   From: 2010.06.25/outbox.cif.g09.slc.cpg/sg12_24_cif.got.tgz:46970.got - 2010.06.28 00:19:55.
