data_PCOD8107094
_publ_section_title
;
Structure prediction by ZEFSAII (Michael W. Deem and Ramdas Pophale) SiO2 
 PCOD8107094
Probable space group: C 2/M
;
_chemical_formula_sum "Si O2"
_cell_formula_units_Z 64
_cell_length_a 20.117539
_cell_length_b 9.232819
_cell_length_c 17.393717
_cell_angle_alpha 90.000000
_cell_angle_beta 90.818680
_cell_angle_gamma 90.000000
_cell_volume 3230.406964
_symmetry_space_group_name_H-M "C 2/M"
_symmetry_group_IT_number 12
_symmetry_cell_setting 'monoclinic'
loop_
_space_group_symop_operation_xyz
x,y,z
-x,y,-z
-x,-y,-z
x,-y,z
1/2+x,1/2+y,z
1/2-x,1/2+y,-z
1/2-x,1/2-y,-z
1/2+x,1/2-y,z
loop_
_atom_site_type_symbol
_atom_site_label
_atom_site_fract_x
_atom_site_fract_y
_atom_site_fract_z
Si Si1 0.575686 0.168381 0.809476
Si Si2 0.172477 0.165634 0.700082
Si Si3 0.055831 0.667640 0.282564
Si Si4 0.298460 0.668140 0.943693
Si Si5 0.552695 0.670028 0.438559
Si Si6 0.306815 0.166381 0.788361
Si Si7 0.685389 0.331054 0.526356
Si Si8 0.931230 0.832891 0.034743
O O1 0.626305 0.231130 0.748614
O O2 0.500350 0.196878 0.781872
O O3 0.588315 0.242898 0.890958
O O4 0.591068 0.000000 0.819082
O O5 0.249180 0.183127 0.724793
O O6 0.165295 0.215554 0.611961
O O7 0.148805 0.000000 0.711071
O O8 0.060493 0.500000 0.305342
O O9 0.037151 0.754825 0.358093
O O10 0.125330 0.723022 0.248959
O O11 0.278576 0.500000 0.941773
O O12 0.288629 0.734031 0.859699
O O13 0.250000 0.750000 0.000000
O O14 0.374494 0.689741 0.970425
O O15 0.500000 0.727117 0.500000
O O16 0.544020 0.500000 0.425972
O O17 0.626067 0.711168 0.468257
O O18 0.314260 0.000000 0.816144
O O19 0.701343 0.500000 0.524822
O O20 0.750000 0.250000 0.500000
O O21 0.937933 0.000000 0.059486
O O22 0.000000 0.774814 0.000000
#
# Coordination Sequence:
#
# PCOD8107094 Si02
#       8
#     8   8   8   8   8   8   8   8
#     4  11  23  37  57  86 115 144 182 230 280 328
#     4  10  21  38  59  81 110 150 188 224 273 331
#     4  10  22  39  58  83 114 147 184 228 281 333
#     4  11  23  38  58  84 113 146 184 227 276 328
#     4  10  21  37  58  84 112 146 190 233 273 325
#     4  10  21  38  59  82 110 146 187 228 273 328
#     4  10  21  37  58  84 113 147 187 231 279 329
#     4  10  22  40  60  82 110 147 188 226 271 330
#
# _framework density 19.811745999999999
#
# number of rings (size 3 to 8) (size 9 to 14) (size 15 to 20)
#    0.000    1.750    0.000    3.750    0.000    9.500 
#    0.000    0.000    0.000    0.000    0.000    0.000 
#    0.000    0.000    0.000    0.000    0.000    0.000 
#
# Total GULP energy -397012.040446 kJ/mol
# GULP energy per Si atom -12406.626264 kJ/mol
# Density = 1.976665 g / cm^3
# Si number density = 19.811746 Si / 1000 Ang^3
#
#
#
# Elastic Constant Matrix: (Units=GPa)
#
#
# Indices 1 2 3 4 5 6 
#
# 1 66.0186 19.6782 -10.4134 0.0000 -13.1490 0.0000
# 2 19.6782 65.3696 31.5893 0.0000 -4.6233 0.0000
# 3 -10.4134 31.5893 77.8158 0.0000 -5.2251 0.0000
# 4 0.0000 0.0000 0.0000 34.0837 0.0000 -1.6195
# 5 -13.1490 -4.6233 -5.2251 0.0000 34.5292 0.0000
# 6 0.0000 0.0000 0.0000 -1.6195 0.0000 33.0117
#
#
#
# Elastic Compliance Matrix: (Units=1/GPa)
#
#
# Indices 1 2 3 4 5 6 
#
# 1 0.020405 -0.008921 0.006863 0.000000 0.007615 0.000000
# 2 -0.008921 0.022997 -0.010659 0.000000 -0.001931 0.000000
# 3 0.006863 -0.010659 0.018363 0.000000 0.003965 0.000000
# 4 0.000000 0.000000 0.000000 0.029408 0.000000 0.001443
# 5 0.007615 -0.001931 0.003965 0.000000 0.032202 0.000000
# 6 0.000000 0.000000 0.000000 0.001443 0.000000 0.030363
#
#
# Mechanical properties :
#
#
# Convention : Reuss Voigt Hill
#
# Bulk Modulus (GPa) = 27.52365 32.32356 29.92361
# Shear Modulus (GPa) = 26.13926 31.54825 28.84375
#
# Velocity S-wave (km/s) = 3.63627 3.99482 3.81975
# Velocity P-wave (km/s) = 5.61718 6.13424 5.88139
#
# Compressibility (1/GPa) = 0.03633239
#
# Stress axis : x y z
#
# Youngs Moduli (GPa) = 49.00641 43.48304 54.45819
#
# Poissons Ratio (x) = 0.38790 -0.37377
# Poissons Ratio (y) = 0.43718 0.58048
# Poissons Ratio (z) = -0.33635 0.46350
#
# Static dielectric constant tensor:
#      x y z
#    x 3.977300 0.000000 0.002340 
#    y 0.000000 3.573470 0.000000 
#    z 0.002340 0.000000 3.659370 
# 
# 
# High freq. dielectric constant tensor:
#      x y z
#    x 1.789390 0.000000 0.002300 
#    y 0.000000 1.767040 0.000000 
#    z 0.002300 0.000000 1.780570 
# 
# From -- ./inp_files/281365.got.cif
#   From: 2010.06.25/outbox.cif.g09.slc.cpg/sg12_141_cif.got.tgz:281365.got - 2010.06.28 00:19:55.
