data_PCOD8107481
_publ_section_title
;
Structure prediction by ZEFSAII (Michael W. Deem and Ramdas Pophale) SiO2 
 PCOD8107481
Probable space group: C 2/M
;
_chemical_formula_sum "Si O2"
_cell_formula_units_Z 56
_cell_length_a 10.725859
_cell_length_b 33.349986
_cell_length_c 8.501751
_cell_angle_alpha 90.000000
_cell_angle_beta 57.129786
_cell_angle_gamma 90.000000
_cell_volume 2554.258234
_symmetry_space_group_name_H-M "C 2/M"
_symmetry_group_IT_number 12
_symmetry_cell_setting 'monoclinic'
loop_
_space_group_symop_operation_xyz
x,y,z
-x,y,-z
-x,-y,-z
x,-y,z
1/2+x,1/2+y,z
1/2-x,1/2+y,-z
1/2-x,1/2-y,-z
1/2+x,1/2-y,z
loop_
_atom_site_type_symbol
_atom_site_label
_atom_site_fract_x
_atom_site_fract_y
_atom_site_fract_z
Si Si1 0.197905 0.363654 0.702496
Si Si2 0.788482 0.912803 0.940209
Si Si3 0.411150 0.578931 0.401491
Si Si4 0.201004 0.000000 0.012075
Si Si5 0.817106 0.728954 0.301147
Si Si6 0.599181 0.777313 0.282941
Si Si7 0.086751 0.631456 0.287038
Si Si8 0.148679 0.000000 0.700293
O O1 0.224900 0.383982 0.850590
O O2 0.302406 0.383406 0.497366
O O3 0.237299 0.316792 0.675975
O O4 0.026299 0.370234 0.781286
O O5 0.968160 0.910719 0.817069
O O6 0.734906 0.959223 0.953092
O O7 0.726821 0.896981 0.150407
O O8 0.500000 0.568963 0.500000
O O9 0.312063 0.540136 0.424616
O O10 0.240049 0.000000 0.799887
O O11 0.025888 0.000000 0.151516
O O12 0.750000 0.750000 0.500000
O O13 0.751781 0.751173 0.189082
O O14 0.998472 0.730468 0.194242
O O15 0.500000 0.764873 0.500000
O O16 0.646567 0.823525 0.268053
O O17 0.000000 0.616010 0.500000
#
# Coordination Sequence:
#
# PCOD8107481 Si02
#       8
#     8   8   8   4   8   8   8   4
#     4  10  21  37  60  89 118 158 196 246 302 363
#     4  10  21  39  60  84 118 155 198 246 298 366
#     4   9  19  34  59  90 115 150 199 244 297 366
#     4   9  20  36  57  83 116 158 193 246 304 359
#     4   9  17  32  56  84 120 158 201 245 304 359
#     4   8  16  31  54  81 112 157 196 244 298 357
#     4  10  21  38  59  83 117 158 202 247 306 362
#     4   9  17  34  57  82 122 155 187 241 313 358
#
# _framework density 21.924173
#
# number of rings (size 3 to 8) (size 9 to 14) (size 15 to 20)
#    0.000    2.714    0.000    1.500    2.000    6.857 
#    0.000    3.214    0.000    3.429    0.000    0.000 
#    0.000    0.000    0.000    0.000    0.000    0.000 
#
# Total GULP energy -346985.156293 kJ/mol
# GULP energy per Si atom -12392.327010 kJ/mol
# Density = 2.187427 g / cm^3
# Si number density = 21.924173 Si / 1000 Ang^3
#
#
#
# Elastic Constant Matrix: (Units=GPa)
#
#
# Indices 1 2 3 4 5 6 
#
# 1 75.6973 56.7855 16.1959 0.0000 3.4386 0.0000
# 2 56.7855 170.8625 57.3417 0.0000 -0.7034 0.0000
# 3 16.1959 57.3417 76.9176 0.0000 -16.7319 0.0000
# 4 0.0000 0.0000 0.0000 28.3015 0.0000 11.9917
# 5 3.4386 -0.7034 -16.7319 0.0000 24.7277 0.0000
# 6 0.0000 0.0000 0.0000 11.9917 0.0000 25.0231
#
#
#
# Elastic Compliance Matrix: (Units=1/GPa)
#
#
# Indices 1 2 3 4 5 6 
#
# 1 0.017770 -0.005969 0.000157 0.000000 -0.002535 0.000000
# 2 -0.005969 0.010232 -0.007185 0.000000 -0.003741 0.000000
# 3 0.000157 -0.007185 0.021429 0.000000 0.014274 0.000000
# 4 0.000000 0.000000 0.000000 0.044336 0.000000 -0.021247
# 5 -0.002535 -0.003741 0.014274 0.000000 0.050345 0.000000
# 6 0.000000 0.000000 0.000000 -0.021247 0.000000 0.050145
#
#
# Mechanical properties :
#
#
# Convention : Reuss Voigt Hill
#
# Bulk Modulus (GPa) = 42.66740 64.90260 53.78500
# Shear Modulus (GPa) = 21.92362 28.48741 25.20552
#
# Velocity S-wave (km/s) = 3.16567 3.60858 3.39435
# Velocity P-wave (km/s) = 5.73285 6.85784 6.32042
#
# Compressibility (1/GPa) = 0.02343710
#
# Stress axis : x y z
#
# Youngs Moduli (GPa) = 56.27574 97.73047 46.66495
#
# Poissons Ratio (x) = 0.58332 -0.00731
# Poissons Ratio (y) = 0.33589 0.33529
# Poissons Ratio (z) = -0.00881 0.70219
#
# Static dielectric constant tensor:
#      x y z
#    x 4.248730 0.000000 0.056330 
#    y 0.000000 4.117450 0.000000 
#    z 0.056330 0.000000 3.846310 
# 
# 
# High freq. dielectric constant tensor:
#      x y z
#    x 1.843680 0.000000 0.010460 
#    y 0.000000 1.867480 0.000000 
#    z 0.010460 0.000000 1.844250 
# 
# From -- ./inp_files/54635.got.cif
#   From: 2010.06.25/outbox.cif.g09.slc.cpg/sg12_28_cif.got.tgz:54635.got - 2010.06.28 00:19:55.
