data_PCOD8107604
_publ_section_title
;
Structure prediction by ZEFSAII (Michael W. Deem and Ramdas Pophale) SiO2 
 PCOD8107604
Probable space group: C 2/M
;
_chemical_formula_sum "Si O2"
_cell_formula_units_Z 44
_cell_length_a 24.681067
_cell_length_b 15.374650
_cell_length_c 16.493211
_cell_angle_alpha 90.000000
_cell_angle_beta 160.437895
_cell_angle_gamma 90.000000
_cell_volume 2095.543623
_symmetry_space_group_name_H-M "C 2/M"
_symmetry_group_IT_number 12
_symmetry_cell_setting 'monoclinic'
loop_
_space_group_symop_operation_xyz
x,y,z
-x,y,-z
-x,-y,-z
x,-y,z
1/2+x,1/2+y,z
1/2-x,1/2+y,-z
1/2-x,1/2-y,-z
1/2+x,1/2-y,z
loop_
_atom_site_type_symbol
_atom_site_label
_atom_site_fract_x
_atom_site_fract_y
_atom_site_fract_z
Si Si1 0.843963 0.901683 0.739477
Si Si2 0.327885 0.799047 0.965206
Si Si3 0.173441 0.599969 0.203514
Si Si4 0.517784 0.896697 0.358179
Si Si5 0.635531 0.684746 0.387571
Si Si6 0.500000 0.198093 0.500000
O O1 0.676528 0.858407 0.534652
O O2 0.863746 0.899498 0.670272
O O3 0.839002 0.000000 0.763627
O O4 0.000000 0.853796 0.000000
O O5 0.338541 0.860242 0.902208
O O6 0.151303 0.760308 0.727617
O O7 0.362765 0.858168 0.093233
O O8 0.454702 0.720166 0.140255
O O9 0.231875 0.500000 0.279870
O O10 0.300183 0.656727 0.434019
O O11 0.000000 0.605673 0.000000
O O12 0.526514 0.864960 0.461912
O O13 0.507770 0.000000 0.341599
O O14 0.750000 0.750000 0.500000
#
# Coordination Sequence:
#
# PCOD8107604 Si02
#       6
#     8   8   8   8   8   4
#     4  10  21  37  61  93 129 162 199 252 319 383
#     4  12  25  43  65  94 128 167 213 264 312 369
#     4  11  23  41  65  98 133 168 202 251 320 387
#     4  11  23  44  66  90 124 170 213 261 317 373
#     4  12  22  36  65  97 129 155 205 253 319 367
#     4  12  27  44  65  90 126 168 222 264 311 366
#
# _framework density 20.996939000000001
#
# number of rings (size 3 to 8) (size 9 to 14) (size 15 to 20)
#    0.000    0.727    3.636    4.091    2.545    2.909 
#    0.000    6.364    0.000    0.000    0.000    0.000 
#    0.000    0.000    0.000    0.000    0.000    0.000 
#
# Total GULP energy -272859.094426 kJ/mol
# GULP energy per Si atom -12402.686110 kJ/mol
# Density = 2.094915 g / cm^3
# Si number density = 20.996939 Si / 1000 Ang^3
#
#
#
# Elastic Constant Matrix: (Units=GPa)
#
#
# Indices 1 2 3 4 5 6 
#
# 1 76.1702 39.7153 50.1681 0.0002 -16.1829 0.0003
# 2 39.7153 95.7934 56.7591 0.0000 1.4093 0.0001
# 3 50.1681 56.7591 151.7056 0.0002 -0.0701 0.0002
# 4 0.0002 0.0000 0.0002 65.3029 0.0002 -80.4740
# 5 -16.1829 1.4093 -0.0701 0.0002 48.9435 0.0002
# 6 0.0003 0.0001 0.0002 -80.4740 0.0002 176.9088
#
#
#
# Elastic Compliance Matrix: (Units=1/GPa)
#
#
# Indices 1 2 3 4 5 6 
#
# 1 0.020795 -0.005978 -0.004637 0.000000 0.007041 0.000000
# 2 -0.005978 0.015138 -0.003688 0.000000 -0.002418 0.000000
# 3 -0.004637 -0.003688 0.009504 0.000000 -0.001413 0.000000
# 4 0.000000 0.000000 0.000000 0.034848 0.000000 0.015852
# 5 0.007041 -0.002418 -0.001413 0.000000 0.022828 0.000000
# 6 0.000000 0.000000 0.000000 0.015852 0.000000 0.012864
#
#
# Mechanical properties :
#
#
# Convention : Reuss Voigt Hill
#
# Bulk Modulus (GPa) = 59.41014 68.55046 63.98030
# Shear Modulus (GPa) = 33.29032 70.03283 51.66157
#
# Velocity S-wave (km/s) = 3.98613 5.78154 4.96566
# Velocity P-wave (km/s) = 7.03859 8.79130 7.96332
#
# Compressibility (1/GPa) = 0.01683214
#
# Stress axis : x y z
#
# Youngs Moduli (GPa) = 48.08749 66.05763 105.21386
#
# Poissons Ratio (x) = 0.39487 0.48790
# Poissons Ratio (y) = 0.28745 0.38805
# Poissons Ratio (z) = 0.22299 0.24363
#
# Static dielectric constant tensor:
#      x y z
#    x 3.946150 0.000000 -0.141810 
#    y 0.000000 3.824350 0.000000 
#    z -0.141810 0.000000 4.082600 
# 
# 
# High freq. dielectric constant tensor:
#      x y z
#    x 1.818590 0.000000 -0.015080 
#    y 0.000000 1.828510 0.000000 
#    z -0.015080 0.000000 1.835380 
# 
# From -- ./inp_files/241555.got.cif
#   From: 2010.06.25/outbox.cif.g09.slc.cpg/sg12_121_cif.got.tgz:241555.got - 2010.06.28 00:19:55.
