data_PCOD8107063
_publ_section_title
;
Structure prediction by ZEFSAII (Michael W. Deem and Ramdas Pophale) SiO2 
 PCOD8107063
Probable space group: C 2/M
;
_chemical_formula_sum "Si O2"
_cell_formula_units_Z 56
_cell_length_a 18.450034
_cell_length_b 13.958416
_cell_length_c 12.196659
_cell_angle_alpha 90.000000
_cell_angle_beta 60.191437
_cell_angle_gamma 90.000000
_cell_volume 2725.457209
_symmetry_space_group_name_H-M "C 2/M"
_symmetry_group_IT_number 12
_symmetry_cell_setting 'monoclinic'
loop_
_space_group_symop_operation_xyz
x,y,z
-x,y,-z
-x,-y,-z
x,-y,z
1/2+x,1/2+y,z
1/2-x,1/2+y,-z
1/2-x,1/2-y,-z
1/2+x,1/2-y,z
loop_
_atom_site_type_symbol
_atom_site_label
_atom_site_fract_x
_atom_site_fract_y
_atom_site_fract_z
Si Si1 0.651384 0.887413 0.425732
Si Si2 0.699163 0.388187 0.526265
Si Si3 0.740587 0.390853 0.252247
Si Si4 0.029000 0.605790 0.863118
Si Si5 0.864722 0.732227 0.774611
Si Si6 0.344393 0.103474 0.975100
Si Si7 0.558057 0.764526 0.656557
O O1 0.736723 0.860314 0.425803
O O2 0.653115 0.849406 0.301643
O O3 0.574834 0.836160 0.543775
O O4 0.635365 0.000000 0.438657
O O5 0.676774 0.500000 0.546604
O O6 0.742891 0.358151 0.377555
O O7 0.612839 0.331470 0.607188
O O8 0.710749 0.500000 0.270874
O O9 0.673842 0.332395 0.232312
O O10 0.828951 0.375238 0.118927
O O11 0.073759 0.500000 0.839980
O O12 0.083058 0.679740 0.750750
O O13 0.940689 0.590211 0.869118
O O14 0.000000 0.650735 0.000000
O O15 0.815658 0.691215 0.919140
O O16 0.960628 0.760428 0.725173
O O17 0.299973 0.000000 0.983118
#
# Coordination Sequence:
#
# PCOD8107063 Si02
#       7
#     8   8   8   8   8   8   8
#     4  11  23  37  57  84 116 152 189 234 287 343
#     4  10  23  40  59  85 114 153 199 238 277 331
#     4  10  21  37  58  82 112 151 196 237 277 330
#     4   9  19  33  54  84 114 147 186 234 290 342
#     4  11  22  36  57  86 117 150 188 234 291 346
#     4   9  19  35  54  80 114 147 186 237 287 339
#     4  11  22  37  57  85 118 151 187 236 292 342
#
# _framework density 20.547011999999999
#
# number of rings (size 3 to 8) (size 9 to 14) (size 15 to 20)
#    0.000    1.857    1.429    2.143    2.000    2.857 
#    0.000    1.429    0.000    0.429    0.000    0.000 
#    0.000    0.000    0.000    0.000    0.000    0.000 
#
# Total GULP energy -346951.776589 kJ/mol
# GULP energy per Si atom -12391.134878 kJ/mol
# Density = 2.050025 g / cm^3
# Si number density = 20.547012 Si / 1000 Ang^3
#
#
#
# Elastic Constant Matrix: (Units=GPa)
#
#
# Indices 1 2 3 4 5 6 
#
# 1 42.1338 17.0072 15.5195 0.0000 -3.3169 0.0000
# 2 17.0072 76.1867 35.4759 0.0000 -4.7263 0.0000
# 3 15.5195 35.4759 107.4505 0.0000 8.9064 0.0000
# 4 0.0000 0.0000 0.0000 32.0386 0.0000 2.7139
# 5 -3.3169 -4.7263 8.9064 0.0000 34.3916 0.0000
# 6 0.0000 0.0000 0.0000 2.7139 0.0000 14.8396
#
#
#
# Elastic Compliance Matrix: (Units=1/GPa)
#
#
# Indices 1 2 3 4 5 6 
#
# 1 0.026744 -0.004619 -0.002554 0.000000 0.002606 0.000000
# 2 -0.004619 0.016740 -0.005123 0.000000 0.003182 0.000000
# 3 -0.002554 -0.005123 0.011697 0.000000 -0.003979 0.000000
# 4 0.000000 0.000000 0.000000 0.031704 0.000000 -0.005798
# 5 0.002606 0.003182 -0.003979 0.000000 0.030796 0.000000
# 6 0.000000 0.000000 0.000000 -0.005798 0.000000 0.068448
#
#
# Mechanical properties :
#
#
# Convention : Reuss Voigt Hill
#
# Bulk Modulus (GPa) = 32.69241 40.19738 36.44489
# Shear Modulus (GPa) = 22.63294 26.77184 24.70239
#
# Velocity S-wave (km/s) = 3.32252 3.61356 3.47109
# Velocity P-wave (km/s) = 5.53754 6.08412 5.81726
#
# Compressibility (1/GPa) = 0.03058814
#
# Stress axis : x y z
#
# Youngs Moduli (GPa) = 37.39122 59.73746 85.49322
#
# Poissons Ratio (x) = 0.27595 0.21832
# Poissons Ratio (y) = 0.17273 0.43802
# Poissons Ratio (z) = 0.09548 0.30606
#
# Static dielectric constant tensor:
#      x y z
#    x 3.627320 0.000000 0.109990 
#    y 0.000000 3.827680 0.000000 
#    z 0.109990 0.000000 3.928460 
# 
# 
# High freq. dielectric constant tensor:
#      x y z
#    x 1.792960 0.000000 0.008780 
#    y 0.000000 1.800850 0.000000 
#    z 0.008780 0.000000 1.812030 
# 
# From -- ./inp_files/156529.got.cif
#   From: 2010.06.25/outbox.cif.g09.slc.cpg/sg12_79_cif.got.tgz:156529.got - 2010.06.28 00:19:55.
