data_PCOD8107459
_publ_section_title
;
Structure prediction by ZEFSAII (Michael W. Deem and Ramdas Pophale) SiO2 
 PCOD8107459
Probable space group: C 2/M
;
_chemical_formula_sum "Si O2"
_cell_formula_units_Z 40
_cell_length_a 14.220736
_cell_length_b 21.641145
_cell_length_c 13.666887
_cell_angle_alpha 90.000000
_cell_angle_beta 150.673070
_cell_angle_gamma 90.000000
_cell_volume 2060.078894
_symmetry_space_group_name_H-M "C 2/M"
_symmetry_group_IT_number 12
_symmetry_cell_setting 'monoclinic'
loop_
_space_group_symop_operation_xyz
x,y,z
-x,y,-z
-x,-y,-z
x,-y,z
1/2+x,1/2+y,z
1/2-x,1/2+y,-z
1/2-x,1/2-y,-z
1/2+x,1/2-y,z
loop_
_atom_site_type_symbol
_atom_site_label
_atom_site_fract_x
_atom_site_fract_y
_atom_site_fract_z
Si Si1 0.223720 0.330640 0.443149
Si Si2 0.209132 0.738921 0.228023
Si Si3 0.217856 0.118039 0.220689
Si Si4 0.456570 0.070610 0.609469
Si Si5 0.424799 0.265349 0.230418
O O1 0.236434 0.306470 0.344025
O O2 0.144224 0.400123 0.384589
O O3 0.442161 0.323213 0.685572
O O4 0.073860 0.291027 0.371240
O O5 0.233951 0.811511 0.273314
O O6 0.358124 0.719861 0.279254
O O7 0.000000 0.725066 0.000000
O O8 0.302139 0.074346 0.381609
O O9 0.346624 0.106696 0.240234
O O10 0.000000 0.099288 0.000000
O O11 0.505096 0.000000 0.677398
O O12 0.250000 0.250000 0.000000
#
# Coordination Sequence:
#
# PCOD8107459 Si02
#       5
#     8   8   8   8   8
#     4  11  23  36  58  85 122 158 189 239 299 351
#     4  11  21  36  61  92 122 148 185 248 312 364
#     4  10  21  37  60  88 118 152 194 251 310 354
#     4  11  24  39  56  83 120 164 207 238 281 352
#     4  11  21  36  59  90 120 149 190 242 308 359
#
# _framework density 19.416732
#
# number of rings (size 3 to 8) (size 9 to 14) (size 15 to 20)
#    0.000    1.200    4.000    4.200    5.600    1.600 
#    0.000    0.000    0.000    3.000    0.000    0.000 
#    0.000    0.000    0.000    0.000    0.000    0.000 
#
# Total GULP energy -247820.026741 kJ/mol
# GULP energy per Si atom -12391.001337 kJ/mol
# Density = 1.937254 g / cm^3
# Si number density = 19.416732 Si / 1000 Ang^3
#
#
#
# Elastic Constant Matrix: (Units=GPa)
#
#
# Indices 1 2 3 4 5 6 
#
# 1 149.7512 59.6182 50.5364 0.0000 15.6361 0.0000
# 2 59.6182 74.1892 33.9012 0.0000 4.8998 0.0000
# 3 50.5364 33.9012 129.9582 0.0000 26.7124 0.0000
# 4 0.0000 0.0000 0.0000 12.5201 0.0000 -0.9362
# 5 15.6361 4.8998 26.7124 0.0000 31.7563 0.0000
# 6 0.0000 0.0000 0.0000 -0.9362 0.0000 26.5527
#
#
#
# Elastic Compliance Matrix: (Units=1/GPa)
#
#
# Indices 1 2 3 4 5 6 
#
# 1 0.010484 -0.007535 -0.001559 0.000000 -0.002689 0.000000
# 2 -0.007535 0.020757 -0.003130 0.000000 0.003140 0.000000
# 3 -0.001559 -0.003130 0.010713 0.000000 -0.007761 0.000000
# 4 0.000000 0.000000 0.000000 0.080082 0.000000 0.002824
# 5 -0.002689 0.003140 -0.007761 0.000000 0.038857 0.000000
# 6 0.000000 0.000000 0.000000 0.002824 0.000000 0.037760
#
#
# Mechanical properties :
#
#
# Convention : Reuss Voigt Hill
#
# Bulk Modulus (GPa) = 57.12324 71.33445 64.22884
# Shear Modulus (GPa) = 21.83996 28.15535 24.99765
#
# Velocity S-wave (km/s) = 3.35744 3.81209 3.59197
# Velocity P-wave (km/s) = 6.67183 7.49630 7.09605
#
# Compressibility (1/GPa) = 0.01750601
#
# Stress axis : x y z
#
# Youngs Moduli (GPa) = 95.37934 48.17567 93.34794
#
# Poissons Ratio (x) = 0.36302 0.14550
# Poissons Ratio (y) = 0.71872 0.29218
# Poissons Ratio (z) = 0.14867 0.15079
#
# Static dielectric constant tensor:
#      x y z
#    x 3.780180 0.000000 0.375750 
#    y 0.000000 3.260510 0.000000 
#    z 0.375750 0.000000 3.825790 
# 
# 
# High freq. dielectric constant tensor:
#      x y z
#    x 1.764150 0.000000 0.023550 
#    y 0.000000 1.705610 0.000000 
#    z 0.023550 0.000000 1.771220 
# 
# From -- ./inp_files/217496.got.cif
#   From: 2010.06.25/outbox.cif.g09.slc.cpg/sg12_109_cif.got.tgz:217496.got - 2010.06.28 00:19:55.
