data_PCOD8107983
_publ_section_title
;
Structure prediction by ZEFSAII (Michael W. Deem and Ramdas Pophale) SiO2 
 PCOD8107983
Probable space group: C 2/M
;
_chemical_formula_sum "Si O2"
_cell_formula_units_Z 48
_cell_length_a 13.169530
_cell_length_b 22.624387
_cell_length_c 8.164926
_cell_angle_alpha 90.000000
_cell_angle_beta 105.658500
_cell_angle_gamma 90.000000
_cell_volume 2342.474628
_symmetry_space_group_name_H-M "C 2/M"
_symmetry_group_IT_number 12
_symmetry_cell_setting 'monoclinic'
loop_
_space_group_symop_operation_xyz
x,y,z
-x,y,-z
-x,-y,-z
x,-y,z
1/2+x,1/2+y,z
1/2-x,1/2+y,-z
1/2-x,1/2-y,-z
1/2+x,1/2-y,z
loop_
_atom_site_type_symbol
_atom_site_label
_atom_site_fract_x
_atom_site_fract_y
_atom_site_fract_z
Si Si1 0.497403 0.068894 0.693299
Si Si2 0.901399 0.862184 0.556320
Si Si3 0.203006 0.232048 0.304546
Si Si4 0.908032 0.932352 0.847847
Si Si5 0.707815 0.865668 0.871702
Si Si6 0.802911 0.639137 0.757826
O O1 0.500000 0.075332 0.500000
O O2 0.591620 0.108415 0.801323
O O3 0.391312 0.094874 0.728042
O O4 0.507490 0.000000 0.749307
O O5 0.889033 0.814458 0.697715
O O6 0.932127 0.922740 0.664495
O O7 0.798249 0.869434 0.401312
O O8 0.000000 0.838718 0.500000
O O9 0.250000 0.250000 0.500000
O O10 0.283574 0.200179 0.208894
O O11 0.155926 0.293020 0.214885
O O12 0.791732 0.907004 0.821039
O O13 0.902145 0.000000 0.890875
O O14 0.000000 0.902892 0.000000
O O15 0.734111 0.871874 0.074243
#
# Coordination Sequence:
#
# PCOD8107983 Si02
#       6
#     8   8   8   8   8   8
#     4  11  24  42  63  87 120 163 207 251 302 364
#     4  10  21  38  59  84 116 153 195 243 297 357
#     4   9  20  38  60  87 118 155 197 243 297 358
#     4  10  21  38  59  84 115 152 195 244 299 357
#     4  11  22  39  62  88 120 155 198 248 302 360
#     4  11  23  38  59  90 121 154 198 248 303 361
#
# _framework density 20.491150999999999
#
# number of rings (size 3 to 8) (size 9 to 14) (size 15 to 20)
#    0.000    1.667    0.000    5.500    0.000    7.667 
#    0.000    8.333    0.000    0.000    0.000    0.000 
#    0.000    0.000    0.000    0.000    0.000    0.000 
#
# Total GULP energy -297360.095386 kJ/mol
# GULP energy per Si atom -12390.003974 kJ/mol
# Density = 2.044451 g / cm^3
# Si number density = 20.491151 Si / 1000 Ang^3
#
#
#
# Elastic Constant Matrix: (Units=GPa)
#
#
# Indices 1 2 3 4 5 6 
#
# 1 109.7619 35.0302 30.3721 0.0000 -2.7063 0.0000
# 2 35.0302 98.6840 32.2221 0.0000 -6.4131 0.0000
# 3 30.3721 32.2221 111.0190 0.0000 -6.9358 0.0000
# 4 0.0000 0.0000 0.0000 18.5913 0.0000 -1.1583
# 5 -2.7063 -6.4131 -6.9358 0.0000 40.0447 0.0000
# 6 0.0000 0.0000 0.0000 -1.1583 0.0000 29.4618
#
#
#
# Elastic Compliance Matrix: (Units=1/GPa)
#
#
# Indices 1 2 3 4 5 6 
#
# 1 0.010666 -0.003137 -0.002016 0.000000 -0.000131 0.000000
# 2 -0.003137 0.012178 -0.002596 0.000000 0.001289 0.000000
# 3 -0.002016 -0.002596 0.010390 0.000000 0.001248 0.000000
# 4 0.000000 0.000000 0.000000 0.053921 0.000000 0.002120
# 5 -0.000131 0.001289 0.001248 0.000000 0.025386 0.000000
# 6 0.000000 0.000000 0.000000 0.002120 0.000000 0.034026
#
#
# Mechanical properties :
#
#
# Convention : Reuss Voigt Hill
#
# Bulk Modulus (GPa) = 56.37607 57.19042 56.78324
# Shear Modulus (GPa) = 29.76614 32.40893 31.08753
#
# Velocity S-wave (km/s) = 3.81548 3.98126 3.89925
# Velocity P-wave (km/s) = 6.85439 7.00744 6.93134
#
# Compressibility (1/GPa) = 0.01773802
#
# Stress axis : x y z
#
# Youngs Moduli (GPa) = 93.75399 82.11454 96.24309
#
# Poissons Ratio (x) = 0.25755 0.19401
# Poissons Ratio (y) = 0.29406 0.24985
# Poissons Ratio (z) = 0.18899 0.21317
#
# Static dielectric constant tensor:
#      x y z
#    x 3.656680 0.000000 -0.166730 
#    y 0.000000 4.249640 0.000000 
#    z -0.166730 0.000000 4.164260 
# 
# 
# High freq. dielectric constant tensor:
#      x y z
#    x 1.797520 0.000000 -0.012000 
#    y 0.000000 1.804950 0.000000 
#    z -0.012000 0.000000 1.813290 
# 
# From -- ./inp_files/51446.got.cif
#   From: 2010.06.25/outbox.cif.g09.slc.cpg/sg12_26_cif.got.tgz:51446.got - 2010.06.28 00:19:55.
