data_PCOD8107977
_publ_section_title
;
Structure prediction by ZEFSAII (Michael W. Deem and Ramdas Pophale) SiO2 
 PCOD8107977
Probable space group: C 2/M
;
_chemical_formula_sum "Si O2"
_cell_formula_units_Z 56
_cell_length_a 14.227300
_cell_length_b 8.535512
_cell_length_c 32.052579
_cell_angle_alpha 90.000000
_cell_angle_beta 133.706526
_cell_angle_gamma 90.000000
_cell_volume 2813.755334
_symmetry_space_group_name_H-M "C 2/M"
_symmetry_group_IT_number 12
_symmetry_cell_setting 'monoclinic'
loop_
_space_group_symop_operation_xyz
x,y,z
-x,y,-z
-x,-y,-z
x,-y,z
1/2+x,1/2+y,z
1/2-x,1/2+y,-z
1/2-x,1/2-y,-z
1/2+x,1/2-y,z
loop_
_atom_site_type_symbol
_atom_site_label
_atom_site_fract_x
_atom_site_fract_y
_atom_site_fract_z
Si Si1 0.728014 0.817922 0.639952
Si Si2 0.649834 0.316679 0.936618
Si Si3 0.209119 0.680739 0.425507
Si Si4 0.870395 0.316862 0.760429
Si Si5 0.643333 0.683332 0.153950
Si Si6 0.144934 0.816233 0.841772
Si Si7 0.543835 0.321772 0.445905
O O1 0.807950 0.739743 0.626787
O O2 0.765825 0.730344 0.693850
O O3 0.575056 0.796368 0.585222
O O4 0.762936 0.000000 0.653568
O O5 0.661792 0.500000 0.942399
O O6 0.503134 0.265198 0.903239
O O7 0.684608 0.259079 0.900492
O O8 0.750000 0.250000 0.000000
O O9 0.166445 0.500000 0.416289
O O10 0.358632 0.703119 0.485470
O O11 0.117037 0.787556 0.425282
O O12 0.862239 0.500000 0.767330
O O13 0.832256 0.223168 0.790376
O O14 0.013846 0.272301 0.787872
O O15 0.666606 0.500000 0.153996
O O16 0.739962 0.779634 0.154537
O O17 0.114151 0.000000 0.832286
O O18 0.491896 0.500000 0.429265
#
# Coordination Sequence:
#
# PCOD8107977 Si02
#       7
#     8   8   8   8   8   8   8
#     4  12  24  38  58  84 114 148 187 232 281 336
#     4   9  20  36  56  84 120 153 189 234 276 325
#     4  10  21  38  59  84 114 147 185 230 280 336
#     4  11  23  40  60  83 111 146 188 236 285 335
#     4  10  21  39  60  85 115 151 191 233 281 333
#     4  10  21  39  60  85 115 151 191 233 281 333
#     4  10  21  38  59  84 114 147 185 230 280 336
#
# _framework density 19.902227
#
# number of rings (size 3 to 8) (size 9 to 14) (size 15 to 20)
#    0.000    1.714    0.000    5.571    0.000    8.571 
#    0.000    8.571    0.000    0.000    0.000    0.000 
#    0.000    0.000    0.000    0.000    0.000    0.000 
#
# Total GULP energy -347321.966396 kJ/mol
# GULP energy per Si atom -12404.355943 kJ/mol
# Density = 1.985693 g / cm^3
# Si number density = 19.902227 Si / 1000 Ang^3
#
#
#
# Elastic Constant Matrix: (Units=GPa)
#
#
# Indices 1 2 3 4 5 6 
#
# 1 78.6059 9.8824 25.0489 0.0000 -4.0564 0.0000
# 2 9.8824 61.4252 20.6629 0.0000 1.8734 0.0000
# 3 25.0489 20.6629 73.9291 0.0000 -10.2914 0.0000
# 4 0.0000 0.0000 0.0000 33.2374 0.0000 -0.1629
# 5 -4.0564 1.8734 -10.2914 0.0000 17.4022 0.0000
# 6 0.0000 0.0000 0.0000 -0.1629 0.0000 35.4183
#
#
#
# Elastic Compliance Matrix: (Units=1/GPa)
#
#
# Indices 1 2 3 4 5 6 
#
# 1 0.014301 -0.000804 -0.004516 0.000000 0.000749 0.000000
# 2 -0.000804 0.018483 -0.005663 0.000000 -0.005526 0.000000
# 3 -0.004516 -0.005663 0.018065 0.000000 0.010240 0.000000
# 4 0.000000 0.000000 0.000000 0.030087 0.000000 0.000138
# 5 0.000749 -0.005526 0.010240 0.000000 0.064289 0.000000
# 6 0.000000 0.000000 0.000000 0.000138 0.000000 0.028235
#
#
# Mechanical properties :
#
#
# Convention : Reuss Voigt Hill
#
# Bulk Modulus (GPa) = 34.62389 36.12763 35.37576
# Shear Modulus (GPa) = 24.38393 27.76932 26.07663
#
# Velocity S-wave (km/s) = 3.50406 3.73941 3.62365
# Velocity P-wave (km/s) = 5.81430 6.06928 5.94316
#
# Compressibility (1/GPa) = 0.02888179
#
# Stress axis : x y z
#
# Youngs Moduli (GPa) = 69.92688 54.10456 55.35610
#
# Poissons Ratio (x) = 0.04352 0.25000
# Poissons Ratio (y) = 0.05625 0.31346
# Poissons Ratio (z) = 0.31581 0.30637
#
# Static dielectric constant tensor:
#      x y z
#    x 3.587640 0.000000 -0.006260 
#    y 0.000000 3.635400 0.000000 
#    z -0.006260 0.000000 3.238600 
# 
# 
# High freq. dielectric constant tensor:
#      x y z
#    x 1.778860 0.000000 -0.006900 
#    y 0.000000 1.785340 0.000000 
#    z -0.006900 0.000000 1.773620 
# 
# From -- ./inp_files/375132.got.cif
#   From: 2010.06.25/outbox.cif.g09.slc.cpg/sg12_188_cif.got.tgz:375132.got - 2010.06.28 00:19:55.
