data_PCOD8107540
_publ_section_title
;
Structure prediction by ZEFSAII (Michael W. Deem and Ramdas Pophale) SiO2 
 PCOD8107540
Probable space group: C 2/M
;
_chemical_formula_sum "Si O2"
_cell_formula_units_Z 44
_cell_length_a 8.891391
_cell_length_b 27.304905
_cell_length_c 9.177930
_cell_angle_alpha 90.000000
_cell_angle_beta 104.050251
_cell_angle_gamma 90.000000
_cell_volume 2161.544061
_symmetry_space_group_name_H-M "C 2/M"
_symmetry_group_IT_number 12
_symmetry_cell_setting 'monoclinic'
loop_
_space_group_symop_operation_xyz
x,y,z
-x,y,-z
-x,-y,-z
x,-y,z
1/2+x,1/2+y,z
1/2-x,1/2+y,-z
1/2-x,1/2-y,-z
1/2+x,1/2-y,z
loop_
_atom_site_type_symbol
_atom_site_label
_atom_site_fract_x
_atom_site_fract_y
_atom_site_fract_z
Si Si1 0.366007 0.811357 0.732437
Si Si2 0.165782 0.596237 0.067032
Si Si3 0.500000 0.141201 0.500000
Si Si4 0.759893 0.873554 0.770442
Si Si5 0.519902 0.553512 0.832898
Si Si6 0.307179 0.767666 0.169495
O O1 0.364848 0.858361 0.835293
O O2 0.380056 0.826195 0.566514
O O3 0.513699 0.778952 0.810473
O O4 0.216013 0.777463 0.723217
O O5 0.299793 0.562437 0.169228
O O6 0.231854 0.612668 0.929128
O O7 0.000000 0.568912 0.000000
O O8 0.389228 0.110716 0.364213
O O9 0.782213 0.814740 0.781009
O O10 0.909656 0.903048 0.743925
O O11 0.472852 0.500000 0.757356
O O12 0.500000 0.551759 0.000000
O O13 0.250000 0.750000 0.000000
#
# Coordination Sequence:
#
# PCOD8107540 Si02
#       6
#     8   8   4   8   8   8
#     4  11  23  35  56  86 120 157 204 238 292 351
#     4  11  18  37  61  88 115 152 199 248 295 355
#     4  10  22  40  57  82 126 164 195 242 294 364
#     4  10  21  37  61  84 122 158 197 244 300 357
#     4   9  21  38  62  93 118 147 200 260 307 349
#     4  11  20  33  57  86 116 157 200 242 282 352
#
# _framework density 20.355819
#
# number of rings (size 3 to 8) (size 9 to 14) (size 15 to 20)
#    0.000    1.636    5.455    0.545    2.545    4.727 
#    0.000    1.364    0.000    2.182    0.000    0.000 
#    0.000    0.000    0.000    0.000    0.000    0.000 
#
# Total GULP energy -272540.201079 kJ/mol
# GULP energy per Si atom -12388.190958 kJ/mol
# Density = 2.030949 g / cm^3
# Si number density = 20.355819 Si / 1000 Ang^3
#
#
#
# Elastic Constant Matrix: (Units=GPa)
#
#
# Indices 1 2 3 4 5 6 
#
# 1 107.7246 47.6778 15.8698 0.0000 2.8543 0.0000
# 2 47.6778 83.3010 19.3820 0.0000 12.1110 0.0000
# 3 15.8698 19.3820 69.3472 0.0000 -1.3900 0.0000
# 4 0.0000 0.0000 0.0000 -225.1085 0.0000 59.1926
# 5 2.8543 12.1110 -1.3900 0.0000 28.4324 0.0000
# 6 0.0000 0.0000 0.0000 59.1926 0.0000 15.3350
#
#
#
# Elastic Compliance Matrix: (Units=1/GPa)
#
#
# Indices 1 2 3 4 5 6 
#
# 1 0.012571 -0.007268 -0.000810 0.000000 0.001794 0.000000
# 2 -0.007268 0.018017 -0.003515 0.000000 -0.007117 0.000000
# 3 -0.000810 -0.003515 0.015635 0.000000 0.002343 0.000000
# 4 0.000000 0.000000 0.000000 -0.002205 0.000000 0.008510
# 5 0.001794 -0.007117 0.002343 0.000000 0.038137 0.000000
# 6 0.000000 0.000000 0.000000 0.008510 0.000000 0.032363
#
#
# Mechanical properties :
#
#
# Convention : Reuss Voigt Hill
#
# Bulk Modulus (GPa) = 43.40608 47.35912 45.38260
# Shear Modulus (GPa) = 34.39209 -24.43867 4.97671
#
# Velocity S-wave (km/s) = 4.11487 -3.46869 1.56530
# Velocity P-wave (km/s) = 6.62919 2.69699 5.06063
#
# Compressibility (1/GPa) = 0.02303825
#
# Stress axis : x y z
#
# Youngs Moduli (GPa) = 79.54640 55.50336 63.95957
#
# Poissons Ratio (x) = 0.40338 0.05178
# Poissons Ratio (y) = 0.57812 0.22482
# Poissons Ratio (z) = 0.06440 0.19510
#
# Static dielectric constant tensor:
#      x y z
#    x 4.213500 0.000000 0.048440 
#    y 0.000000 3.873030 0.000000 
#    z 0.048440 0.000000 3.532300 
# 
# 
# High freq. dielectric constant tensor:
#      x y z
#    x 1.801780 0.000000 -0.000910 
#    y 0.000000 1.773430 0.000000 
#    z -0.000910 0.000000 1.770730 
# 
# From -- ./inp_files/41841.got.cif
#   From: 2010.06.25/outbox.cif.g09.slc.cpg/sg12_21_cif.got.tgz:41841.got - 2010.06.28 00:19:55.
