data_PCOD8107133
_publ_section_title
;
Structure prediction by ZEFSAII (Michael W. Deem and Ramdas Pophale) SiO2 
 PCOD8107133
Probable space group: C 2/M
;
_chemical_formula_sum "Si O2"
_cell_formula_units_Z 48
_cell_length_a 18.718897
_cell_length_b 8.684342
_cell_length_c 15.148754
_cell_angle_alpha 90.000000
_cell_angle_beta 89.594902
_cell_angle_gamma 90.000000
_cell_volume 2462.539644
_symmetry_space_group_name_H-M "C 2/M"
_symmetry_group_IT_number 12
_symmetry_cell_setting 'monoclinic'
loop_
_space_group_symop_operation_xyz
x,y,z
-x,y,-z
-x,-y,-z
x,-y,z
1/2+x,1/2+y,z
1/2-x,1/2+y,-z
1/2-x,1/2-y,-z
1/2+x,1/2-y,z
loop_
_atom_site_type_symbol
_atom_site_label
_atom_site_fract_x
_atom_site_fract_y
_atom_site_fract_z
Si Si1 0.302801 0.321028 0.569614
Si Si2 0.705072 0.679884 0.921328
Si Si3 0.041310 0.820216 0.233178
Si Si4 0.206338 0.824139 0.229573
Si Si5 0.048789 0.319297 0.918884
Si Si6 0.453142 0.179459 0.583641
O O1 0.318728 0.500000 0.549756
O O2 0.250000 0.250000 0.500000
O O3 0.271536 0.302687 0.668596
O O4 0.373190 0.221031 0.558791
O O5 0.703259 0.500000 0.935120
O O6 0.742116 0.717560 0.827990
O O7 0.624722 0.738819 0.924053
O O8 0.750000 0.750000 0.000000
O O9 0.123921 0.775494 0.215371
O O10 0.020125 0.778014 0.333180
O O11 0.990724 0.722427 0.170850
O O12 0.028089 0.000000 0.217445
O O13 0.217325 0.000000 0.199487
O O14 0.061818 0.500000 0.923320
O O15 0.000000 0.261000 0.000000
O O16 0.500000 0.226660 0.500000
O O17 0.459521 0.000000 0.606829
#
# Coordination Sequence:
#
# PCOD8107133 Si02
#       6
#     8   8   8   8   8   8
#     4  10  21  37  59  85 115 152 192 238 288 338
#     4  12  25  40  61  87 116 151 189 233 284 338
#     4  10  21  38  61  87 116 151 189 235 288 338
#     4   9  20  39  60  84 116 151 189 235 285 337
#     4  11  24  41  62  87 115 150 191 234 281 336
#     4  10  21  37  58  84 116 154 193 236 285 337
#
# _framework density 19.492073000000001
#
# number of rings (size 3 to 8) (size 9 to 14) (size 15 to 20)
#    0.000    1.667    0.000    5.500    0.000   10.667 
#    0.000    1.667    0.000    0.000    0.000    0.000 
#    0.000    0.000    0.000    0.000    0.000    0.000 
#
# Total GULP energy -297701.553548 kJ/mol
# GULP energy per Si atom -12404.231398 kJ/mol
# Density = 1.944771 g / cm^3
# Si number density = 19.492073 Si / 1000 Ang^3
#
#
#
# Elastic Constant Matrix: (Units=GPa)
#
#
# Indices 1 2 3 4 5 6 
#
# 1 114.0533 45.0726 76.4723 0.0000 -0.4835 0.0000
# 2 45.0726 82.7552 40.8472 0.0000 -10.1235 0.0000
# 3 76.4723 40.8472 121.0832 0.0000 1.3253 0.0000
# 4 0.0000 0.0000 0.0000 32.3990 0.0000 5.6796
# 5 -0.4835 -10.1235 1.3253 0.0000 41.9242 0.0000
# 6 0.0000 0.0000 0.0000 5.6796 0.0000 34.0234
#
#
#
# Elastic Compliance Matrix: (Units=1/GPa)
#
#
# Indices 1 2 3 4 5 6 
#
# 1 0.016583 -0.004737 -0.008868 0.000000 -0.000672 0.000000
# 2 -0.004737 0.016434 -0.002596 0.000000 0.003996 0.000000
# 3 -0.008868 -0.002596 0.014748 0.000000 -0.001195 0.000000
# 4 0.000000 0.000000 0.000000 0.031796 0.000000 -0.005308
# 5 -0.000672 0.003996 -0.001195 0.000000 0.024847 0.000000
# 6 0.000000 0.000000 0.000000 -0.005308 0.000000 0.030278
#
#
# Mechanical properties :
#
#
# Convention : Reuss Voigt Hill
#
# Bulk Modulus (GPa) = 65.08933 71.40840 68.24887
# Shear Modulus (GPa) = 29.03459 32.03596 30.53527
#
# Velocity S-wave (km/s) = 3.86367 4.05845 3.96226
# Velocity P-wave (km/s) = 7.30542 7.66000 7.48481
#
# Compressibility (1/GPa) = 0.01536350
#
# Stress axis : x y z
#
# Youngs Moduli (GPa) = 60.30339 60.84946 67.80474
#
# Poissons Ratio (x) = 0.28824 0.60128
# Poissons Ratio (y) = 0.28566 0.17602
# Poissons Ratio (z) = 0.53476 0.15796
#
# Static dielectric constant tensor:
#      x y z
#    x 3.489470 0.000000 -0.000140 
#    y 0.000000 3.679250 0.000000 
#    z -0.000140 0.000000 3.620490 
# 
# 
# High freq. dielectric constant tensor:
#      x y z
#    x 1.759030 0.000000 0.001940 
#    y 0.000000 1.770530 0.000000 
#    z 0.001940 0.000000 1.772400 
# 
# From -- ./inp_files/221712.got.cif
#   From: 2010.06.25/outbox.cif.g09.slc.cpg/sg12_111_cif.got.tgz:221712.got - 2010.06.28 00:19:55.
