data_PCOD8107926
_publ_section_title
;
Structure prediction by ZEFSAII (Michael W. Deem and Ramdas Pophale) SiO2 
 PCOD8107926
Probable space group: C 2/M
;
_chemical_formula_sum "Si O2"
_cell_formula_units_Z 48
_cell_length_a 15.403960
_cell_length_b 8.784565
_cell_length_c 18.427208
_cell_angle_alpha 90.000000
_cell_angle_beta 91.336981
_cell_angle_gamma 90.000000
_cell_volume 2492.837284
_symmetry_space_group_name_H-M "C 2/M"
_symmetry_group_IT_number 12
_symmetry_cell_setting 'monoclinic'
loop_
_space_group_symop_operation_xyz
x,y,z
-x,y,-z
-x,-y,-z
x,-y,z
1/2+x,1/2+y,z
1/2-x,1/2+y,-z
1/2-x,1/2-y,-z
1/2+x,1/2-y,z
loop_
_atom_site_type_symbol
_atom_site_label
_atom_site_fract_x
_atom_site_fract_y
_atom_site_fract_z
Si Si1 0.156670 0.679926 0.918526
Si Si2 0.650494 0.677193 0.423397
Si Si3 0.671467 0.676947 0.592389
Si Si4 0.335408 0.820086 0.916247
Si Si5 0.005570 0.319301 0.174229
Si Si6 0.990840 0.320022 0.338917
O O1 0.162535 0.500000 0.912676
O O2 0.244984 0.749168 0.888573
O O3 0.078593 0.746468 0.868666
O O4 0.141775 0.731241 0.001393
O O5 0.661592 0.500000 0.406426
O O6 0.647468 0.708918 0.508783
O O7 0.731042 0.766250 0.388880
O O8 0.560378 0.736770 0.390415
O O9 0.664724 0.500000 0.612094
O O10 0.605714 0.771761 0.640532
O O11 0.409120 0.755427 0.864179
O O12 0.328152 0.000000 0.910798
O O13 0.003799 0.500000 0.168866
O O14 0.006178 0.264864 0.257075
O O15 0.001422 0.500000 0.347744
#
# Coordination Sequence:
#
# PCOD8107926 Si02
#       6
#     8   8   8   8   8   8
#     4   9  17  32  54  76  99 131 172 215 256 300
#     4  10  21  38  59  81 105 136 177 222 265 312
#     4  10  21  38  59  81 105 136 177 222 265 312
#     4   9  17  32  54  76  99 131 172 215 256 300
#     4   9  19  34  51  74 104 139 174 206 250 309
#     4  11  22  35  53  79 112 145 176 214 262 317
#
# _framework density 19.255167
#
# number of rings (size 3 to 8) (size 9 to 14) (size 15 to 20)
#    0.000    2.333    0.000    2.500    0.000    7.333 
#    0.000    7.500    0.000    4.000    0.000    0.000 
#    0.000    0.000    0.000    0.000    0.000    0.000 
#
# Total GULP energy -297671.362432 kJ/mol
# GULP energy per Si atom -12402.973435 kJ/mol
# Density = 1.921134 g / cm^3
# Si number density = 19.255167 Si / 1000 Ang^3
#
#
#
# Elastic Constant Matrix: (Units=GPa)
#
#
# Indices 1 2 3 4 5 6 
#
# 1 122.8256 20.8290 43.5673 0.0000 -21.0216 0.0000
# 2 20.8290 33.0779 30.1162 0.0000 -2.9086 0.0000
# 3 43.5673 30.1162 66.3026 0.0000 -18.6847 0.0000
# 4 0.0000 0.0000 0.0000 19.2037 0.0000 -1.7080
# 5 -21.0216 -2.9086 -18.6847 0.0000 21.1509 0.0000
# 6 0.0000 0.0000 0.0000 -1.7080 0.0000 38.3029
#
#
#
# Elastic Compliance Matrix: (Units=1/GPa)
#
#
# Indices 1 2 3 4 5 6 
#
# 1 0.011310 -0.002666 -0.004203 0.000000 0.007162 0.000000
# 2 -0.002666 0.057969 -0.030730 0.000000 -0.021824 0.000000
# 3 -0.004203 -0.030730 0.039191 0.000000 0.026218 0.000000
# 4 0.000000 0.000000 0.000000 0.052281 0.000000 0.002331
# 5 0.007162 -0.021824 0.026218 0.000000 0.074557 0.000000
# 6 0.000000 0.000000 0.000000 0.002331 0.000000 0.026212
#
#
# Mechanical properties :
#
#
# Convention : Reuss Voigt Hill
#
# Bulk Modulus (GPa) = 30.05368 45.69233 37.87301
# Shear Modulus (GPa) = 14.37576 24.24439 19.31008
#
# Velocity S-wave (km/s) = 2.73535 3.55225 3.17022
# Velocity P-wave (km/s) = 5.06144 6.37229 5.75431
#
# Compressibility (1/GPa) = 0.03327379
#
# Stress axis : x y z
#
# Youngs Moduli (GPa) = 88.41591 17.25048 25.51620
#
# Poissons Ratio (x) = 0.04598 0.10724
# Poissons Ratio (y) = 0.23569 0.78411
# Poissons Ratio (z) = 0.37160 0.53010
#
# Static dielectric constant tensor:
#      x y z
#    x 3.690600 0.000000 -0.042180 
#    y 0.000000 3.329760 0.000000 
#    z -0.042180 0.000000 3.560580 
# 
# 
# High freq. dielectric constant tensor:
#      x y z
#    x 1.765060 0.000000 -0.003220 
#    y 0.000000 1.733810 0.000000 
#    z -0.003220 0.000000 1.742200 
# 
# From -- ./inp_files/267666.got.cif
#   From: 2010.06.25/outbox.cif.g09.slc.cpg/sg12_134_cif.got.tgz:267666.got - 2010.06.28 00:19:55.
