data_PCOD8107273
_publ_section_title
;
Structure prediction by ZEFSAII (Michael W. Deem and Ramdas Pophale) SiO2 
 PCOD8107273
Probable space group: C 2/M
;
_chemical_formula_sum "Si O2"
_cell_formula_units_Z 64
_cell_length_a 17.099935
_cell_length_b 19.068600
_cell_length_c 15.271344
_cell_angle_alpha 90.000000
_cell_angle_beta 38.501942
_cell_angle_gamma 90.000000
_cell_volume 3099.977920
_symmetry_space_group_name_H-M "C 2/M"
_symmetry_group_IT_number 12
_symmetry_cell_setting 'monoclinic'
loop_
_space_group_symop_operation_xyz
x,y,z
-x,y,-z
-x,-y,-z
x,-y,z
1/2+x,1/2+y,z
1/2-x,1/2+y,-z
1/2-x,1/2-y,-z
1/2+x,1/2-y,z
loop_
_atom_site_type_symbol
_atom_site_label
_atom_site_fract_x
_atom_site_fract_y
_atom_site_fract_z
Si Si1 0.705647 0.079986 0.667937
Si Si2 0.774187 0.422332 0.825222
Si Si3 0.358705 0.315227 0.642291
Si Si4 0.722705 0.421026 0.583257
Si Si5 0.139309 0.336961 0.404476
Si Si6 0.444201 0.421712 0.856486
Si Si7 0.080148 0.581314 0.127752
Si Si8 0.780379 0.186085 0.905420
O O1 0.756464 0.127637 0.702108
O O2 0.792669 0.093121 0.506842
O O3 0.564381 0.099310 0.762747
O O4 0.712478 0.000000 0.694892
O O5 0.801499 0.500000 0.763910
O O6 0.772164 0.367037 0.749072
O O7 0.877878 0.404046 0.808766
O O8 0.633392 0.418283 0.986035
O O9 0.500000 0.344444 0.500000
O O10 0.343423 0.245705 0.597565
O O11 0.327312 0.289421 0.768772
O O12 0.771680 0.500000 0.554473
O O13 0.827094 0.370368 0.531893
O O14 0.590347 0.407837 0.747192
O O15 0.000000 0.358672 0.500000
O O16 0.427694 0.500000 0.828692
O O17 0.396169 0.360984 0.835540
O O18 0.110729 0.500000 0.077019
O O19 0.159796 0.635331 0.998805
O O20 0.750000 0.250000 0.000000
#
# Coordination Sequence:
#
# PCOD8107273 Si02
#       8
#     8   8   8   8   8   8   8   8
#     4  10  22  40  61  86 115 148 193 243 289 342
#     4   9  17  33  58  85 113 148 190 236 287 344
#     4  11  25  41  58  84 117 154 193 237 292 346
#     4  10  21  37  59  85 113 151 194 236 287 345
#     4  11  23  37  54  80 116 152 191 239 289 346
#     4   9  19  36  57  82 113 148 188 236 290 344
#     4   9  19  37  61  86 114 148 186 237 296 342
#     4  11  22  38  62  88 116 153 195 236 283 346
#
# _framework density 20.645309000000001
#
# number of rings (size 3 to 8) (size 9 to 14) (size 15 to 20)
#    0.000    2.000    0.000    4.500    0.000    6.750 
#    0.000    4.375    0.000    0.000    0.000    0.000 
#    0.000    0.000    0.000    0.000    0.000    0.000 
#
# Total GULP energy -396681.616775 kJ/mol
# GULP energy per Si atom -12396.300524 kJ/mol
# Density = 2.059832 g / cm^3
# Si number density = 20.645309 Si / 1000 Ang^3
#
#
#
# Elastic Constant Matrix: (Units=GPa)
#
#
# Indices 1 2 3 4 5 6 
#
# 1 72.3715 47.1132 29.6384 -0.0007 -4.0777 0.0000
# 2 47.1132 96.5057 28.0544 0.0001 -6.2898 -0.0003
# 3 29.6384 28.0544 85.5229 -0.0010 -3.6392 0.0004
# 4 -0.0007 0.0001 -0.0010 29.6599 0.0011 1.2544
# 5 -4.0777 -6.2898 -3.6392 0.0011 29.9725 -0.0005
# 6 0.0000 -0.0003 0.0004 1.2544 -0.0005 31.5058
#
#
#
# Elastic Compliance Matrix: (Units=1/GPa)
#
#
# Indices 1 2 3 4 5 6 
#
# 1 0.021705 -0.009269 -0.004462 0.000000 0.000466 0.000000
# 2 -0.009269 0.015528 -0.001806 0.000000 0.001778 0.000000
# 3 -0.004462 -0.001806 0.013861 0.000000 0.000697 0.000000
# 4 0.000000 0.000000 0.000000 0.033772 -0.000001 -0.001345
# 5 0.000466 0.001778 0.000697 -0.000001 0.033885 0.000001
# 6 0.000000 0.000000 0.000000 -0.001345 0.000001 0.031794
#
#
# Mechanical properties :
#
#
# Convention : Reuss Voigt Hill
#
# Bulk Modulus (GPa) = 49.94685 51.55690 50.75188
# Shear Modulus (GPa) = 26.55461 28.20060 27.37761
#
# Velocity S-wave (km/s) = 3.59030 3.69989 3.64551
# Velocity P-wave (km/s) = 6.43679 6.57869 6.50813
#
# Compressibility (1/GPa) = 0.02002128
#
# Stress axis : x y z
#
# Youngs Moduli (GPa) = 46.07258 64.40039 72.14478
#
# Poissons Ratio (x) = 0.59691 0.32188
# Poissons Ratio (y) = 0.42703 0.13028
# Poissons Ratio (z) = 0.20556 0.11630
#
# Static dielectric constant tensor:
#      x y z
#    x 3.465800 0.000000 -0.126260 
#    y 0.000000 3.772500 0.000000 
#    z -0.126260 0.000000 3.793500 
# 
# 
# High freq. dielectric constant tensor:
#      x y z
#    x 1.787680 0.000000 -0.010000 
#    y 0.000000 1.810020 0.000000 
#    z -0.010000 0.000000 1.810810 
# 
# From -- ./inp_files/226828.got.cif
#   From: 2010.06.25/outbox.cif.g09.slc.cpg/sg12_114_cif.got.tgz:226828.got - 2010.06.28 00:19:55.
