data_PCOD8107066
_publ_section_title
;
Structure prediction by ZEFSAII (Michael W. Deem and Ramdas Pophale) SiO2 
 PCOD8107066
Probable space group: C 2/M
;
_chemical_formula_sum "Si O2"
_cell_formula_units_Z 64
_cell_length_a 15.414293
_cell_length_b 8.733348
_cell_length_c 33.080184
_cell_angle_alpha 90.000000
_cell_angle_beta 133.603795
_cell_angle_gamma 90.000000
_cell_volume 3224.679400
_symmetry_space_group_name_H-M "C 2/M"
_symmetry_group_IT_number 12
_symmetry_cell_setting 'monoclinic'
loop_
_space_group_symop_operation_xyz
x,y,z
-x,y,-z
-x,-y,-z
x,-y,z
1/2+x,1/2+y,z
1/2-x,1/2+y,-z
1/2-x,1/2-y,-z
1/2+x,1/2-y,z
loop_
_atom_site_type_symbol
_atom_site_label
_atom_site_fract_x
_atom_site_fract_y
_atom_site_fract_z
Si Si1 0.841179 0.179512 0.060613
Si Si2 0.944852 0.818891 0.361577
Si Si3 0.099595 0.818175 0.563219
Si Si4 0.700591 0.824728 0.867397
Si Si5 0.111221 0.823686 0.136379
Si Si6 0.017342 0.179824 0.242650
Si Si7 0.644474 0.681395 0.365624
Si Si8 0.201353 0.679416 0.242170
O O1 0.806859 0.225002 0.094877
O O2 0.974673 0.235640 0.092117
O O3 0.831941 0.000000 0.053563
O O4 0.750000 0.250000 0.000000
O O5 0.933890 0.750902 0.403300
O O6 0.831568 0.766185 0.298781
O O7 0.065856 0.761145 0.378605
O O8 0.948142 0.000000 0.364878
O O9 0.227094 0.758605 0.589349
O O10 0.000000 0.758475 0.500000
O O11 0.104616 0.000000 0.565979
O O12 0.832662 0.806844 0.890351
O O13 0.606547 0.768558 0.803454
O O14 0.673249 0.000000 0.870002
O O15 0.188988 0.716956 0.191063
O O16 0.117907 0.000000 0.153126
O O17 0.078092 0.236278 0.303620
O O18 0.103072 0.219704 0.233160
O O19 0.990785 0.000000 0.235120
O O20 0.660759 0.500000 0.370580
O O21 0.180634 0.500000 0.243938
#
# Coordination Sequence:
#
# PCOD8107066 Si02
#       8
#     8   8   8   8   8   8   8   8
#     4  11  24  43  64  87 120 160 201 252 297 343
#     4   9  19  36  56  82 115 150 188 233 290 346
#     4  10  21  38  58  80 111 150 194 244 293 343
#     4  11  23  40  63  91 120 157 197 239 294 353
#     4  10  23  41  61  88 124 156 190 242 298 346
#     4  11  21  35  57  87 121 153 188 238 298 348
#     4  10  21  37  58  82 114 152 189 235 288 348
#     4  11  20  34  61  88 116 156 195 233 288 358
#
# _framework density 19.846934999999998
#
# number of rings (size 3 to 8) (size 9 to 14) (size 15 to 20)
#    0.000    1.625    2.500    2.250    0.000    4.250 
#    0.000    4.375    0.000    0.000    0.000    0.000 
#    0.000    0.000    0.000    0.000    0.000    0.000 
#
# Total GULP energy -396892.694549 kJ/mol
# GULP energy per Si atom -12402.896705 kJ/mol
# Density = 1.980176 g / cm^3
# Si number density = 19.846935 Si / 1000 Ang^3
#
#
#
# Elastic Constant Matrix: (Units=GPa)
#
#
# Indices 1 2 3 4 5 6 
#
# 1 147.7375 19.7520 65.8936 0.0000 5.9603 0.0000
# 2 19.7520 33.1621 29.5536 0.0000 1.8037 0.0000
# 3 65.8936 29.5536 150.4147 0.0000 14.2211 0.0000
# 4 0.0000 0.0000 0.0000 28.3378 0.0000 3.3632
# 5 5.9603 1.8037 14.2211 0.0000 16.3536 0.0000
# 6 0.0000 0.0000 0.0000 3.3632 0.0000 28.5339
#
#
#
# Elastic Compliance Matrix: (Units=1/GPa)
#
#
# Indices 1 2 3 4 5 6 
#
# 1 0.008534 -0.002123 -0.003323 0.000000 0.000013 0.000000
# 2 -0.002123 0.037171 -0.006602 0.000000 0.002415 0.000000
# 3 -0.003323 -0.006602 0.010043 0.000000 -0.006795 0.000000
# 4 0.000000 0.000000 0.000000 0.035789 0.000000 -0.004218
# 5 0.000013 0.002415 -0.006795 0.000000 0.066786 0.000000
# 6 0.000000 0.000000 0.000000 -0.004218 0.000000 0.035543
#
#
# Mechanical properties :
#
#
# Convention : Reuss Voigt Hill
#
# Bulk Modulus (GPa) = 31.59122 62.41251 47.00187
# Shear Modulus (GPa) = 21.88059 29.05275 25.46667
#
# Velocity S-wave (km/s) = 3.32394 3.83017 3.58600
# Velocity P-wave (km/s) = 5.53926 7.14671 6.39370
#
# Compressibility (1/GPa) = 0.03165437
#
# Stress axis : x y z
#
# Youngs Moduli (GPa) = 117.17790 26.90242 99.56705
#
# Poissons Ratio (x) = 0.05710 0.33084
# Poissons Ratio (y) = 0.24871 0.65733
# Poissons Ratio (z) = 0.38936 0.17761
#
# Static dielectric constant tensor:
#      x y z
#    x 3.768580 0.000000 0.090070 
#    y 0.000000 3.430230 0.000000 
#    z 0.090070 0.000000 3.517660 
# 
# 
# High freq. dielectric constant tensor:
#      x y z
#    x 1.788910 0.000000 0.000640 
#    y 0.000000 1.759900 0.000000 
#    z 0.000640 0.000000 1.771500 
# 
# From -- ./inp_files/359999.got.cif
#   From: 2010.06.25/outbox.cif.g09.slc.cpg/sg12_180_cif.got.tgz:359999.got - 2010.06.28 00:19:55.
