data_PCOD8107981
_publ_section_title
;
Structure prediction by ZEFSAII (Michael W. Deem and Ramdas Pophale) SiO2 
 PCOD8107981
Probable space group: C 2/M
;
_chemical_formula_sum "Si O2"
_cell_formula_units_Z 56
_cell_length_a 31.096968
_cell_length_b 9.251600
_cell_length_c 11.892525
_cell_angle_alpha 90.000000
_cell_angle_beta 119.103131
_cell_angle_gamma 90.000000
_cell_volume 2989.468568
_symmetry_space_group_name_H-M "C 2/M"
_symmetry_group_IT_number 12
_symmetry_cell_setting 'monoclinic'
loop_
_space_group_symop_operation_xyz
x,y,z
-x,y,-z
-x,-y,-z
x,-y,z
1/2+x,1/2+y,z
1/2-x,1/2+y,-z
1/2-x,1/2-y,-z
1/2+x,1/2-y,z
loop_
_atom_site_type_symbol
_atom_site_label
_atom_site_fract_x
_atom_site_fract_y
_atom_site_fract_z
Si Si1 0.800461 0.167982 0.080857
Si Si2 0.262534 0.832172 0.401206
Si Si3 0.828305 0.163747 0.866163
Si Si4 0.151146 0.670746 0.651395
Si Si5 0.460241 0.171905 0.537474
Si Si6 0.922427 0.670364 0.928285
Si Si7 0.510324 0.828347 0.185602
O O1 0.831567 0.241357 0.218411
O O2 0.790647 0.000000 0.096819
O O3 0.750000 0.250000 0.000000
O O4 0.829653 0.184776 0.001515
O O5 0.250000 0.750000 0.500000
O O6 0.223996 0.791603 0.253862
O O7 0.316012 0.791125 0.417179
O O8 0.260712 0.000000 0.429516
O O9 0.868862 0.263417 0.862060
O O10 0.840613 0.000000 0.849551
O O11 0.155312 0.500000 0.683029
O O12 0.095257 0.721323 0.559095
O O13 0.500000 0.233774 0.500000
O O14 0.476848 0.238788 0.677618
O O15 0.462433 0.000000 0.542690
O O16 0.916147 0.500000 0.915768
O O17 0.949685 0.729274 0.852102
O O18 0.955225 0.717247 0.078006
O O19 0.513457 0.000000 0.192512
#
# Coordination Sequence:
#
# PCOD8107981 Si02
#       7
#     8   8   8   8   8   8   8
#     4  11  22  39  60  81 111 145 184 231 279 334
#     4  10  22  39  56  81 116 149 185 228 274 332
#     4  10  22  38  54  79 115 145 177 227 281 331
#     4  10  21  38  59  84 115 150 187 233 284 332
#     4   9  18  31  52  81 113 145 180 226 279 330
#     4   9  18  32  56  82 106 139 184 232 272 322
#     4   8  16  32  50  79 113 138 178 235 278 313
#
# _framework density 18.732427000000001
#
# number of rings (size 3 to 8) (size 9 to 14) (size 15 to 20)
#    0.000    2.429    1.429    1.286    4.000    2.286 
#    0.000    1.429    0.000    1.286    0.000    0.000 
#    0.000    0.000    0.000    0.000    0.000    0.000 
#
# Total GULP energy -347119.484339 kJ/mol
# GULP energy per Si atom -12397.124441 kJ/mol
# Density = 1.868979 g / cm^3
# Si number density = 18.732427 Si / 1000 Ang^3
#
#
#
# Elastic Constant Matrix: (Units=GPa)
#
#
# Indices 1 2 3 4 5 6 
#
# 1 144.9373 39.9012 69.9468 0.0000 9.9220 0.0000
# 2 39.9012 46.0954 37.7160 0.0000 -1.7311 0.0000
# 3 69.9468 37.7160 143.6506 0.0000 -7.7529 0.0000
# 4 0.0000 0.0000 0.0000 27.4972 0.0000 0.8234
# 5 9.9220 -1.7311 -7.7529 0.0000 31.0206 0.0000
# 6 0.0000 0.0000 0.0000 0.8234 0.0000 25.0716
#
#
#
# Elastic Compliance Matrix: (Units=1/GPa)
#
#
# Indices 1 2 3 4 5 6 
#
# 1 0.010859 -0.006421 -0.003860 0.000000 -0.004796 0.000000
# 2 -0.006421 0.031429 -0.004987 0.000000 0.002561 0.000000
# 3 -0.003860 -0.004987 0.010341 0.000000 0.003541 0.000000
# 4 0.000000 0.000000 0.000000 0.036403 0.000000 -0.001196
# 5 -0.004796 0.002561 0.003541 0.000000 0.034799 0.000000
# 6 0.000000 0.000000 0.000000 -0.001196 0.000000 0.039925
#
#
# Mechanical properties :
#
#
# Convention : Reuss Voigt Hill
#
# Bulk Modulus (GPa) = 45.26446 69.97902 57.62174
# Shear Modulus (GPa) = 24.79464 29.19249 26.99356
#
# Velocity S-wave (km/s) = 3.64211 3.95193 3.80018
# Velocity P-wave (km/s) = 6.47323 7.63295 7.07689
#
# Compressibility (1/GPa) = 0.02209239
#
# Stress axis : x y z
#
# Youngs Moduli (GPa) = 92.09354 31.81780 96.69801
#
# Poissons Ratio (x) = 0.20430 0.37328
# Poissons Ratio (y) = 0.59133 0.48224
# Poissons Ratio (z) = 0.35551 0.15868
#
# Static dielectric constant tensor:
#      x y z
#    x 3.548010 0.000000 -0.018170 
#    y 0.000000 3.131790 0.000000 
#    z -0.018170 0.000000 3.898260 
# 
# 
# High freq. dielectric constant tensor:
#      x y z
#    x 1.736290 0.000000 -0.000310 
#    y 0.000000 1.689180 0.000000 
#    z -0.000310 0.000000 1.738040 
# 
# From -- ./inp_files/181099.got.cif
#   From: 2010.06.25/outbox.cif.g09.slc.cpg/sg12_91_cif.got.tgz:181099.got - 2010.06.28 00:19:55.
