data_PCOD8107075
_publ_section_title
;
Structure prediction by ZEFSAII (Michael W. Deem and Ramdas Pophale) SiO2 
 PCOD8107075
Probable space group: C 2/M
;
_chemical_formula_sum "Si O2"
_cell_formula_units_Z 48
_cell_length_a 20.048827
_cell_length_b 9.035148
_cell_length_c 24.550877
_cell_angle_alpha 90.000000
_cell_angle_beta 145.214396
_cell_angle_gamma 90.000000
_cell_volume 2537.186559
_symmetry_space_group_name_H-M "C 2/M"
_symmetry_group_IT_number 12
_symmetry_cell_setting 'monoclinic'
loop_
_space_group_symop_operation_xyz
x,y,z
-x,y,-z
-x,-y,-z
x,-y,z
1/2+x,1/2+y,z
1/2-x,1/2+y,-z
1/2-x,1/2-y,-z
1/2+x,1/2-y,z
loop_
_atom_site_type_symbol
_atom_site_label
_atom_site_fract_x
_atom_site_fract_y
_atom_site_fract_z
Si Si1 0.316539 0.325853 0.203185
Si Si2 0.169931 0.329561 0.902902
Si Si3 0.428344 0.831668 0.799729
Si Si4 0.787938 0.672433 0.605974
Si Si5 0.424428 0.328150 0.604895
Si Si6 0.399609 0.673421 0.890098
O O1 0.297969 0.500000 0.182486
O O2 0.308946 0.248353 0.140134
O O3 0.440253 0.289461 0.315389
O O4 0.217656 0.262843 0.176221
O O5 0.208183 0.500000 0.923086
O O6 0.036664 0.314067 0.831725
O O7 0.250000 0.250000 0.000000
O O8 0.313948 0.789008 0.686729
O O9 0.442583 0.719604 0.859084
O O10 0.419842 0.000000 0.816233
O O11 0.807758 0.500000 0.609905
O O12 0.655524 0.720211 0.500651
O O13 0.882409 0.749604 0.631170
O O14 0.409109 0.500000 0.606235
O O15 0.373227 0.500000 0.874107
O O16 0.500000 0.717661 0.000000
#
# Coordination Sequence:
#
# PCOD8107075 Si02
#       6
#     8   8   8   8   8   8
#     4  11  22  37  58  85 115 149 188 231 282 340
#     4  11  22  36  56  84 114 146 187 236 285 334
#     4  10  21  37  58  83 112 148 187 230 282 337
#     4   9  17  33  56  84 116 148 183 227 279 333
#     4   9  18  32  55  86 116 147 184 226 277 334
#     4  11  25  42  59  79 108 150 195 239 286 339
#
# _framework density 18.918593000000001
#
# number of rings (size 3 to 8) (size 9 to 14) (size 15 to 20)
#    0.000    1.833    1.667    2.500    0.000    6.667 
#    0.000    0.833    0.000    5.000    0.000    0.000 
#    0.000    0.000    0.000    0.000    0.000    0.000 
#
# Total GULP energy -297601.328201 kJ/mol
# GULP energy per Si atom -12400.055342 kJ/mol
# Density = 1.887553 g / cm^3
# Si number density = 18.918593 Si / 1000 Ang^3
#
#
#
# Elastic Constant Matrix: (Units=GPa)
#
#
# Indices 1 2 3 4 5 6 
#
# 1 47.4846 17.8172 18.2628 0.0000 -0.2864 0.0000
# 2 17.8172 68.2884 39.8911 0.0000 3.5852 0.0000
# 3 18.2628 39.8911 114.4385 0.0000 -5.3375 0.0000
# 4 0.0000 0.0000 0.0000 26.4932 0.0000 -0.1094
# 5 -0.2864 3.5852 -5.3375 0.0000 29.1624 0.0000
# 6 0.0000 0.0000 0.0000 -0.1094 0.0000 34.0299
#
#
#
# Elastic Compliance Matrix: (Units=1/GPa)
#
#
# Indices 1 2 3 4 5 6 
#
# 1 0.023726 -0.005045 -0.002005 0.000000 0.000486 0.000000
# 2 -0.005045 0.019814 -0.006271 0.000000 -0.003633 0.000000
# 3 -0.002005 -0.006271 0.011377 0.000000 0.002833 0.000000
# 4 0.000000 0.000000 0.000000 0.037746 0.000000 0.000121
# 5 0.000486 -0.003633 0.002833 0.000000 0.035261 0.000000
# 6 0.000000 0.000000 0.000000 0.000121 0.000000 0.029386
#
#
# Mechanical properties :
#
#
# Convention : Reuss Voigt Hill
#
# Bulk Modulus (GPa) = 35.36712 42.46150 38.91431
# Shear Modulus (GPa) = 25.85617 28.21978 27.03798
#
# Velocity S-wave (km/s) = 3.70091 3.86637 3.78454
# Velocity P-wave (km/s) = 6.08254 6.51343 6.30167
#
# Compressibility (1/GPa) = 0.02827485
#
# Stress axis : x y z
#
# Youngs Moduli (GPa) = 42.14702 50.46916 87.90041
#
# Poissons Ratio (x) = 0.25460 0.17626
# Poissons Ratio (y) = 0.21262 0.55124
# Poissons Ratio (z) = 0.08452 0.31650
#
# Static dielectric constant tensor:
#      x y z
#    x 3.151130 0.000000 0.180190 
#    y 0.000000 3.636510 0.000000 
#    z 0.180190 0.000000 3.826530 
# 
# 
# High freq. dielectric constant tensor:
#      x y z
#    x 1.712270 0.000000 -0.003010 
#    y 0.000000 1.740020 0.000000 
#    z -0.003010 0.000000 1.755820 
# 
# From -- ./inp_files/365356.got.cif
#   From: 2010.06.25/outbox.cif.g09.slc.cpg/sg12_183_cif.got.tgz:365356.got - 2010.06.28 00:19:55.
