data_PCOD8107511
_publ_section_title
;
Structure prediction by ZEFSAII (Michael W. Deem and Ramdas Pophale) SiO2 
 PCOD8107511
Probable space group: C 2/M
;
_chemical_formula_sum "Si O2"
_cell_formula_units_Z 56
_cell_length_a 28.892775
_cell_length_b 8.812442
_cell_length_c 11.509066
_cell_angle_alpha 90.000000
_cell_angle_beta 110.661660
_cell_angle_gamma 90.000000
_cell_volume 2741.909510
_symmetry_space_group_name_H-M "C 2/M"
_symmetry_group_IT_number 12
_symmetry_cell_setting 'monoclinic'
loop_
_space_group_symop_operation_xyz
x,y,z
-x,y,-z
-x,-y,-z
x,-y,z
1/2+x,1/2+y,z
1/2-x,1/2+y,-z
1/2-x,1/2-y,-z
1/2+x,1/2-y,z
loop_
_atom_site_type_symbol
_atom_site_label
_atom_site_fract_x
_atom_site_fract_y
_atom_site_fract_z
Si Si1 0.010871 0.176023 0.376474
Si Si2 0.680329 0.322284 0.875047
Si Si3 0.919260 0.322213 0.174343
Si Si4 0.401875 0.822432 0.668033
Si Si5 0.054532 0.321272 0.054419
Si Si6 0.791632 0.677368 0.616074
Si Si7 0.229672 0.821784 0.160193
O O1 0.066613 0.231545 0.399659
O O2 0.000000 0.209172 0.500000
O O3 0.972713 0.272145 0.266483
O O4 0.005174 0.000000 0.340463
O O5 0.684785 0.500000 0.857042
O O6 0.624554 0.267807 0.800424
O O7 0.715006 0.238410 0.812997
O O8 0.695795 0.277667 0.019932
O O9 0.912628 0.500000 0.191124
O O10 0.915359 0.280155 0.034815
O O11 0.416563 0.758538 0.808351
O O12 0.343857 0.789981 0.599140
O O13 0.413842 0.000000 0.666114
O O14 0.048872 0.500000 0.061276
O O15 0.000000 0.246810 0.000000
O O16 0.781578 0.500000 0.618760
O O17 0.750000 0.750000 0.500000
O O18 0.792962 0.745163 0.746195
O O19 0.232112 0.000000 0.182924
#
# Coordination Sequence:
#
# PCOD8107511 Si02
#       7
#     8   8   8   8   8   8   8
#     4  11  25  42  58  81 118 159 198 245 298 351
#     4  10  21  37  60  90 125 158 195 248 306 363
#     4  11  21  36  61  89 120 157 198 242 293 362
#     4  10  21  40  64  89 116 153 198 243 297 361
#     4   9  16  31  58  89 118 146 184 237 293 349
#     4  11  24  41  63  89 122 161 206 257 306 361
#     4  10  21  39  62  89 121 158 203 249 303 366
#
# _framework density 20.423722999999999
#
# number of rings (size 3 to 8) (size 9 to 14) (size 15 to 20)
#    0.000    1.714    1.429    3.000    0.000    6.286 
#    0.000    5.000    0.000    0.000    0.000    0.000 
#    0.000    0.000    0.000    0.000    0.000    0.000 
#
# Total GULP energy -347292.592858 kJ/mol
# GULP energy per Si atom -12403.306888 kJ/mol
# Density = 2.037724 g / cm^3
# Si number density = 20.423723 Si / 1000 Ang^3
#
#
#
# Elastic Constant Matrix: (Units=GPa)
#
#
# Indices 1 2 3 4 5 6 
#
# 1 132.7222 47.5449 34.0682 0.0000 -1.7495 0.0000
# 2 47.5449 80.7788 33.6397 0.0000 -8.1008 0.0000
# 3 34.0682 33.6397 69.3185 0.0000 -4.5606 0.0000
# 4 0.0000 0.0000 0.0000 30.7719 0.0000 -0.0746
# 5 -1.7495 -8.1008 -4.5606 0.0000 32.8633 0.0000
# 6 0.0000 0.0000 0.0000 -0.0746 0.0000 34.8261
#
#
#
# Elastic Compliance Matrix: (Units=1/GPa)
#
#
# Indices 1 2 3 4 5 6 
#
# 1 0.009929 -0.004872 -0.002584 0.000000 -0.001031 0.000000
# 2 -0.004872 0.018166 -0.006200 0.000000 0.003358 0.000000
# 3 -0.002584 -0.006200 0.018767 0.000000 0.000938 0.000000
# 4 0.000000 0.000000 0.000000 0.032497 0.000000 0.000070
# 5 -0.001031 0.003358 0.000938 0.000000 0.031332 0.000000
# 6 0.000000 0.000000 0.000000 0.000070 0.000000 0.028714
#
#
# Mechanical properties :
#
#
# Convention : Reuss Voigt Hill
#
# Bulk Modulus (GPa) = 51.15022 57.03613 54.09317
# Shear Modulus (GPa) = 28.86273 30.86338 29.86305
#
# Velocity S-wave (km/s) = 3.76333 3.89157 3.82799
# Velocity P-wave (km/s) = 6.63192 6.94114 6.78829
#
# Compressibility (1/GPa) = 0.01955026
#
# Stress axis : x y z
#
# Youngs Moduli (GPa) = 100.71205 55.04869 53.28582
#
# Poissons Ratio (x) = 0.26818 0.13767
# Poissons Ratio (y) = 0.49063 0.33040
# Poissons Ratio (z) = 0.26020 0.34133
#
# Static dielectric constant tensor:
#      x y z
#    x 3.801190 0.000000 -0.043450 
#    y 0.000000 3.546340 0.000000 
#    z -0.043450 0.000000 3.668910 
# 
# 
# High freq. dielectric constant tensor:
#      x y z
#    x 1.813270 0.000000 -0.000840 
#    y 0.000000 1.790110 0.000000 
#    z -0.000840 0.000000 1.788170 
# 
# From -- ./inp_files/181027.got.cif
#   From: 2010.06.25/outbox.cif.g09.slc.cpg/sg12_91_cif.got.tgz:181027.got - 2010.06.28 00:19:55.
