data_PCOD8107152
_publ_section_title
;
Structure prediction by ZEFSAII (Michael W. Deem and Ramdas Pophale) SiO2 
 PCOD8107152
Probable space group: C 2/M
;
_chemical_formula_sum "Si O2"
_cell_formula_units_Z 64
_cell_length_a 34.421906
_cell_length_b 8.927290
_cell_length_c 18.363312
_cell_angle_alpha 90.000000
_cell_angle_beta 144.239827
_cell_angle_gamma 90.000000
_cell_volume 3297.699932
_symmetry_space_group_name_H-M "C 2/M"
_symmetry_group_IT_number 12
_symmetry_cell_setting 'monoclinic'
loop_
_space_group_symop_operation_xyz
x,y,z
-x,y,-z
-x,-y,-z
x,-y,z
1/2+x,1/2+y,z
1/2-x,1/2+y,-z
1/2-x,1/2-y,-z
1/2+x,1/2-y,z
loop_
_atom_site_type_symbol
_atom_site_label
_atom_site_fract_x
_atom_site_fract_y
_atom_site_fract_z
Si Si1 0.440233 0.674919 0.855330
Si Si2 0.324295 0.174895 0.765031
Si Si3 0.053774 0.672571 0.287529
Si Si4 0.565139 0.677564 0.639340
Si Si5 0.319323 0.674815 0.290087
Si Si6 0.832332 0.671775 0.945261
Si Si7 0.558565 0.322922 0.793788
Si Si8 0.188392 0.672274 0.572499
O O1 0.430042 0.500000 0.827796
O O2 0.372744 0.741945 0.783951
O O3 0.459685 0.749204 0.809232
O O4 0.500000 0.712197 0.000000
O O5 0.344625 0.208493 0.879154
O O6 0.250297 0.233163 0.637153
O O7 0.326264 0.000000 0.750698
O O8 0.033219 0.500000 0.249407
O O9 0.130336 0.691742 0.425556
O O10 0.008196 0.748020 0.278921
O O11 0.500000 0.743952 0.500000
O O12 0.561102 0.500000 0.633418
O O13 0.631482 0.730576 0.698438
O O14 0.569106 0.737083 0.727788
O O15 0.329071 0.500000 0.323574
O O16 0.244002 0.705432 0.149979
O O17 0.337214 0.767087 0.389203
O O18 0.850798 0.500000 0.990061
O O19 0.877741 0.779826 0.061655
O O20 0.549511 0.500000 0.782591
O O21 0.209598 0.500000 0.613762
#
# Coordination Sequence:
#
# PCOD8107152 Si02
#       8
#     8   8   8   8   8   8   8   8
#     4  11  24  40  60  86 113 143 184 233 276 318
#     4  10  21  38  61  85 112 150 186 219 271 333
#     4  11  24  40  58  81 112 149 184 223 277 335
#     4   9  18  33  54  80 109 142 184 232 278 328
#     4   9  18  35  58  81 109 149 189 223 271 333
#     4   9  19  35  55  80 112 148 183 222 271 329
#     4  11  22  35  56  83 109 143 187 233 278 325
#     4  10  21  37  58  85 114 144 183 230 274 320
#
# _framework density 19.407467
#
# number of rings (size 3 to 8) (size 9 to 14) (size 15 to 20)
#    0.000    2.000    0.000    4.125    0.000    9.500 
#    0.000    1.250    0.000    3.375    0.000    0.000 
#    0.000    0.000    0.000    0.000    0.000    0.000 
#
# Total GULP energy -396941.171317 kJ/mol
# GULP energy per Si atom -12404.411604 kJ/mol
# Density = 1.936329 g / cm^3
# Si number density = 19.407467 Si / 1000 Ang^3
#
#
#
# Elastic Constant Matrix: (Units=GPa)
#
#
# Indices 1 2 3 4 5 6 
#
# 1 103.7579 29.6133 20.6344 0.0000 5.6969 0.0000
# 2 29.6133 75.0906 42.8425 0.0000 -8.7876 0.0000
# 3 20.6344 42.8425 75.1633 0.0000 -0.3062 0.0000
# 4 0.0000 0.0000 0.0000 29.0333 0.0000 2.3666
# 5 5.6969 -8.7876 -0.3062 0.0000 25.7999 0.0000
# 6 0.0000 0.0000 0.0000 2.3666 0.0000 30.0134
#
#
#
# Elastic Compliance Matrix: (Units=1/GPa)
#
#
# Indices 1 2 3 4 5 6 
#
# 1 0.011285 -0.004671 -0.000452 0.000000 -0.004088 0.000000
# 2 -0.004671 0.022856 -0.011710 0.000000 0.008677 0.000000
# 3 -0.000452 -0.011710 0.020088 0.000000 -0.003650 0.000000
# 4 0.000000 0.000000 0.000000 0.034666 0.000000 -0.002734
# 5 -0.004088 0.008677 -0.003650 0.000000 0.042575 0.000000
# 6 0.000000 0.000000 0.000000 -0.002734 0.000000 0.033534
#
#
# Mechanical properties :
#
#
# Convention : Reuss Voigt Hill
#
# Bulk Modulus (GPa) = 48.63136 48.91025 48.77080
# Shear Modulus (GPa) = 24.32790 27.69743 26.01266
#
# Velocity S-wave (km/s) = 3.54437 3.78187 3.66504
# Velocity P-wave (km/s) = 6.47013 6.65781 6.56464
#
# Compressibility (1/GPa) = 0.02056286
#
# Stress axis : x y z
#
# Youngs Moduli (GPa) = 88.61031 43.75246 49.78022
#
# Poissons Ratio (x) = 0.20436 0.02252
# Poissons Ratio (y) = 0.41389 0.58293
# Poissons Ratio (z) = 0.04009 0.51234
#
# Static dielectric constant tensor:
#      x y z
#    x 3.725890 0.000000 0.026440 
#    y 0.000000 3.494660 0.000000 
#    z 0.026440 0.000000 3.538410 
# 
# 
# High freq. dielectric constant tensor:
#      x y z
#    x 1.763650 0.000000 0.006990 
#    y 0.000000 1.750880 0.000000 
#    z 0.006990 0.000000 1.761320 
# 
# From -- ./inp_files/295771.got.cif
#   From: 2010.06.25/outbox.cif.g09.slc.cpg/sg12_148_cif.got.tgz:295771.got - 2010.06.28 00:19:55.
