data_PCOD8107524
_publ_section_title
;
Structure prediction by ZEFSAII (Michael W. Deem and Ramdas Pophale) SiO2 
 PCOD8107524
Probable space group: C 2/M
;
_chemical_formula_sum "Si O2"
_cell_formula_units_Z 56
_cell_length_a 21.426773
_cell_length_b 28.913658
_cell_length_c 9.597341
_cell_angle_alpha 90.000000
_cell_angle_beta 151.155662
_cell_angle_gamma 90.000000
_cell_volume 2868.445021
_symmetry_space_group_name_H-M "C 2/M"
_symmetry_group_IT_number 12
_symmetry_cell_setting 'monoclinic'
loop_
_space_group_symop_operation_xyz
x,y,z
-x,y,-z
-x,-y,-z
x,-y,z
1/2+x,1/2+y,z
1/2-x,1/2+y,-z
1/2-x,1/2-y,-z
1/2+x,1/2-y,z
loop_
_atom_site_type_symbol
_atom_site_label
_atom_site_fract_x
_atom_site_fract_y
_atom_site_fract_z
Si Si1 0.686058 0.448576 0.636367
Si Si2 0.373358 0.806131 0.668467
Si Si3 0.648964 0.054422 0.305045
Si Si4 0.736440 0.117999 0.717435
Si Si5 0.385179 0.699602 0.668982
Si Si6 0.148136 0.449496 0.769327
Si Si7 0.987300 0.136165 0.640241
O O1 0.627431 0.500000 0.495207
O O2 0.767569 0.430654 0.664757
O O3 0.568995 0.415088 0.447718
O O4 0.789110 0.450568 0.958653
O O5 0.358109 0.839185 0.504138
O O6 0.385473 0.754098 0.637067
O O7 0.250605 0.814690 0.528437
O O8 0.500000 0.821344 0.000000
O O9 0.723503 0.078788 0.575956
O O10 0.651341 0.000000 0.335930
O O11 0.500000 0.071406 0.000000
O O12 0.704136 0.094087 0.799108
O O13 0.878833 0.138404 0.014862
O O14 0.398311 0.673945 0.545442
O O15 0.500000 0.686435 0.000000
O O16 0.169329 0.500000 0.737309
O O17 0.000000 0.439411 0.500000
O O18 0.000000 0.147755 0.500000
#
# Coordination Sequence:
#
# PCOD8107524 Si02
#       7
#     8   8   8   8   8   8   8
#     4  10  22  38  58  88 124 166 207 253 305 363
#     4  10  22  40  69 100 119 154 208 264 313 379
#     4  10  21  37  60  91 126 158 202 263 316 359
#     4  12  22  38  62  92 120 162 210 256 311 369
#     4  10  21  43  70  90 125 164 205 250 323 384
#     4  10  21  38  59  85 125 169 208 250 307 371
#     4  12  25  42  61  88 127 170 206 255 311 370
#
# _framework density 19.522772
#
# number of rings (size 3 to 8) (size 9 to 14) (size 15 to 20)
#    0.000    1.429    2.857    2.571    0.000    4.857 
#    0.000    2.857    0.000    0.000    0.000    0.000 
#    0.000    0.000    0.000    0.000    0.000    0.000 
#
# Total GULP energy -347159.975509 kJ/mol
# GULP energy per Si atom -12398.570554 kJ/mol
# Density = 1.947834 g / cm^3
# Si number density = 19.522772 Si / 1000 Ang^3
#
#
#
# Elastic Constant Matrix: (Units=GPa)
#
#
# Indices 1 2 3 4 5 6 
#
# 1 51.7795 -6.3237 17.3744 0.0000 -9.1129 0.0000
# 2 -6.3237 35.1099 6.4626 0.0000 1.7411 0.0000
# 3 17.3744 6.4626 94.1045 0.0000 12.4540 0.0000
# 4 0.0000 0.0000 0.0000 26.9970 0.0000 0.7013
# 5 -9.1129 1.7411 12.4540 0.0000 23.9464 0.0000
# 6 0.0000 0.0000 0.0000 0.7013 0.0000 37.9937
#
#
#
# Elastic Compliance Matrix: (Units=1/GPa)
#
#
# Indices 1 2 3 4 5 6 
#
# 1 0.024219 0.004940 -0.006425 0.000000 0.012199 0.000000
# 2 0.004940 0.029884 -0.003142 0.000000 0.001341 0.000000
# 3 -0.006425 -0.003142 0.013233 0.000000 -0.009099 0.000000
# 4 0.000000 0.000000 0.000000 0.037059 0.000000 -0.000684
# 5 0.012199 0.001341 -0.009099 0.000000 0.051037 0.000000
# 6 0.000000 0.000000 0.000000 -0.000684 0.000000 0.026333
#
#
# Mechanical properties :
#
#
# Convention : Reuss Voigt Hill
#
# Bulk Modulus (GPa) = 17.21741 24.00228 20.60985
# Shear Modulus (GPa) = 23.76675 28.68612 26.22643
#
# Velocity S-wave (km/s) = 3.49289 3.83739 3.66919
# Velocity P-wave (km/s) = 5.01052 5.65290 5.34138
#
# Compressibility (1/GPa) = 0.05808075
#
# Stress axis : x y z
#
# Youngs Moduli (GPa) = 41.29021 33.46327 75.57066
#
# Poissons Ratio (x) = -0.16530 0.48555
# Poissons Ratio (y) = -0.20397 0.23743
# Poissons Ratio (z) = 0.26530 0.10513
#
# Static dielectric constant tensor:
#      x y z
#    x 3.494820 0.000000 0.054710 
#    y 0.000000 5.742050 0.000000 
#    z 0.054710 0.000000 3.612780 
# 
# 
# High freq. dielectric constant tensor:
#      x y z
#    x 1.752570 0.000000 0.002890 
#    y 0.000000 1.768460 0.000000 
#    z 0.002890 0.000000 1.767630 
# 
# From -- ./inp_files/91635.got.cif
#   From: 2010.06.25/outbox.cif.g09.slc.cpg/sg12_46_cif.got.tgz:91635.got - 2010.06.28 00:19:55.
