data_PCOD8107260
_publ_section_title
;
Structure prediction by ZEFSAII (Michael W. Deem and Ramdas Pophale) SiO2 
 PCOD8107260
Probable space group: C 2/M
;
_chemical_formula_sum "Si O2"
_cell_formula_units_Z 64
_cell_length_a 18.673860
_cell_length_b 13.976456
_cell_length_c 14.945302
_cell_angle_alpha 90.000000
_cell_angle_beta 53.548864
_cell_angle_gamma 90.000000
_cell_volume 3137.533724
_symmetry_space_group_name_H-M "C 2/M"
_symmetry_group_IT_number 12
_symmetry_cell_setting 'monoclinic'
loop_
_space_group_symop_operation_xyz
x,y,z
-x,y,-z
-x,-y,-z
x,-y,z
1/2+x,1/2+y,z
1/2-x,1/2+y,-z
1/2-x,1/2-y,-z
1/2+x,1/2-y,z
loop_
_atom_site_type_symbol
_atom_site_label
_atom_site_fract_x
_atom_site_fract_y
_atom_site_fract_z
Si Si1 0.150515 0.778830 0.589630
Si Si2 0.121805 0.889687 0.087715
Si Si3 0.806930 0.204042 0.132339
Si Si4 0.134787 0.391249 0.340642
Si Si5 0.943508 0.609255 0.409960
Si Si6 0.919849 0.886215 0.195400
Si Si7 0.782675 0.890837 0.799660
Si Si8 0.906434 0.110859 0.540518
O O1 0.250000 0.750000 0.500000
O O2 0.090719 0.682097 0.640727
O O3 0.145750 0.840442 0.683239
O O4 0.120261 0.845455 0.532634
O O5 0.149359 0.869302 0.169365
O O6 0.019883 0.858318 0.148111
O O7 0.133581 0.000000 0.054086
O O8 0.186523 0.830928 0.974481
O O9 0.713993 0.172750 0.245204
O O10 0.892432 0.162356 0.121579
O O11 0.802729 0.320143 0.133859
O O12 0.168560 0.500000 0.316359
O O13 0.106849 0.360148 0.461205
O O14 0.049421 0.380480 0.340094
O O15 0.919184 0.500000 0.402218
O O16 0.905929 0.000000 0.199315
O O17 0.833931 0.870166 0.670051
O O18 0.747664 0.000000 0.830357
O O19 0.000000 0.158089 0.500000
O O20 0.920836 0.000000 0.511199
#
# Coordination Sequence:
#
# PCOD8107260 Si02
#       8
#     8   8   8   8   8   8   8   8
#     4  12  24  36  57  89 120 159 200 239 296 359
#     4  10  22  41  64  90 119 150 194 257 313 356
#     4  12  22  37  64  91 113 159 205 247 301 356
#     4   9  18  33  56  85 115 150 197 248 295 350
#     4   9  20  36  53  80 120 160 193 238 296 355
#     4  11  24  41  61  90 125 156 197 255 307 352
#     4  10  22  39  58  89 123 153 195 247 300 353
#     4  10  21  37  59  84 115 156 197 241 294 355
#
# _framework density 20.398187
#
# number of rings (size 3 to 8) (size 9 to 14) (size 15 to 20)
#    0.000    1.625    0.000    6.000    5.250    5.000 
#    0.000    0.625    0.000    1.500    0.000    0.000 
#    0.000    0.000    0.000    0.000    0.000    0.000 
#
# Total GULP energy -396862.883844 kJ/mol
# GULP energy per Si atom -12401.965120 kJ/mol
# Density = 2.035176 g / cm^3
# Si number density = 20.398187 Si / 1000 Ang^3
#
#
#
# Elastic Constant Matrix: (Units=GPa)
#
#
# Indices 1 2 3 4 5 6 
#
# 1 44.9260 10.9773 -4.9597 0.0000 -3.4823 0.0000
# 2 10.9773 75.2100 19.4937 0.0000 -5.7303 0.0000
# 3 -4.9597 19.4937 48.9306 0.0000 1.1345 0.0000
# 4 0.0000 0.0000 0.0000 20.7535 0.0000 -4.0620
# 5 -3.4823 -5.7303 1.1345 0.0000 29.6116 0.0000
# 6 0.0000 0.0000 0.0000 -4.0620 0.0000 30.4252
#
#
#
# Elastic Compliance Matrix: (Units=1/GPa)
#
#
# Indices 1 2 3 4 5 6 
#
# 1 0.023940 -0.004433 0.004151 0.000000 0.001798 0.000000
# 2 -0.004433 0.015938 -0.006864 0.000000 0.002826 0.000000
# 3 0.004151 -0.006864 0.023633 0.000000 -0.001746 0.000000
# 4 0.000000 0.000000 0.000000 0.049477 0.000000 0.006606
# 5 0.001798 0.002826 -0.001746 0.000000 0.034596 0.000000
# 6 0.000000 0.000000 0.000000 0.006606 0.000000 0.033749
#
#
# Mechanical properties :
#
#
# Convention : Reuss Voigt Hill
#
# Bulk Modulus (GPa) = 20.31794 24.45434 22.38614
# Shear Modulus (GPa) = 23.58142 25.72842 24.65492
#
# Velocity S-wave (km/s) = 3.40377 3.55534 3.48038
# Velocity P-wave (km/s) = 5.04280 5.37294 5.21048
#
# Compressibility (1/GPa) = 0.04921759
#
# Stress axis : x y z
#
# Youngs Moduli (GPa) = 41.77175 62.74482 42.31367
#
# Poissons Ratio (x) = 0.27815 -0.17564
# Poissons Ratio (y) = 0.18517 0.29045
# Poissons Ratio (z) = -0.17339 0.43070
#
# Static dielectric constant tensor:
#      x y z
#    x 3.673680 0.000000 0.064530 
#    y 0.000000 3.697780 0.000000 
#    z 0.064530 0.000000 3.530780 
# 
# 
# High freq. dielectric constant tensor:
#      x y z
#    x 1.791850 0.000000 0.001710 
#    y 0.000000 1.810880 0.000000 
#    z 0.001710 0.000000 1.784190 
# 
# From -- ./inp_files/225707.got.cif
#   From: 2010.06.25/outbox.cif.g09.slc.cpg/sg12_113_cif.got.tgz:225707.got - 2010.06.28 00:19:55.
