data_PCOD8107031
_publ_section_title
;
Structure prediction by ZEFSAII (Michael W. Deem and Ramdas Pophale) SiO2 
 PCOD8107031
Probable space group: C 2/M
;
_chemical_formula_sum "Si O2"
_cell_formula_units_Z 56
_cell_length_a 14.946190
_cell_length_b 14.446878
_cell_length_c 29.848419
_cell_angle_alpha 90.000000
_cell_angle_beta 153.099971
_cell_angle_gamma 90.000000
_cell_volume 2915.964182
_symmetry_space_group_name_H-M "C 2/M"
_symmetry_group_IT_number 12
_symmetry_cell_setting 'monoclinic'
loop_
_space_group_symop_operation_xyz
x,y,z
-x,y,-z
-x,-y,-z
x,-y,z
1/2+x,1/2+y,z
1/2-x,1/2+y,-z
1/2-x,1/2-y,-z
1/2+x,1/2-y,z
loop_
_atom_site_type_symbol
_atom_site_label
_atom_site_fract_x
_atom_site_fract_y
_atom_site_fract_z
Si Si1 0.237115 0.746941 0.194195
Si Si2 0.533291 0.395724 0.964326
Si Si3 0.600666 0.806302 0.903655
Si Si4 0.846144 0.108379 0.391108
Si Si5 0.857566 0.604286 0.394363
Si Si6 0.024757 0.756215 0.246325
Si Si7 0.482125 0.249472 0.600102
O O1 0.320530 0.727747 0.181924
O O2 0.427774 0.759266 0.310325
O O3 0.100753 0.838484 0.130381
O O4 0.090430 0.667828 0.150327
O O5 0.460081 0.500000 0.927542
O O6 0.500000 0.358730 0.000000
O O7 0.769475 0.391100 0.058036
O O8 0.519638 0.744345 0.826376
O O9 0.750000 0.750000 0.000000
O O10 0.640283 0.160671 0.311265
O O11 0.000000 0.120485 0.500000
O O12 0.938724 0.157715 0.388811
O O13 0.804195 0.000000 0.362385
O O14 0.810518 0.500000 0.358386
O O15 0.655032 0.654905 0.316772
O O16 0.000000 0.606754 0.500000
O O17 0.960804 0.656619 0.399952
O O18 0.250000 0.250000 0.500000
#
# Coordination Sequence:
#
# PCOD8107031 Si02
#       7
#     8   8   8   8   8   8   8
#     4  11  21  37  60  88 116 161 196 240 305 358
#     4  10  21  38  61  90 121 153 197 254 308 359
#     4  10  21  38  58  87 115 154 200 239 300 352
#     4  10  21  37  57  86 123 157 195 250 307 358
#     4  10  21  38  58  82 117 162 206 248 289 347
#     4  11  20  39  61  84 122 158 195 249 300 362
#     4  11  21  37  59  89 121 159 202 242 300 361
#
# _framework density 19.204626000000001
#
# number of rings (size 3 to 8) (size 9 to 14) (size 15 to 20)
#    0.000    1.571    4.286    3.429    0.000    2.286 
#    0.000    1.429    0.000    0.000    0.000    4.000 
#    0.000    0.000    0.000    0.000    0.000    0.000 
#
# Total GULP energy -346996.780115 kJ/mol
# GULP energy per Si atom -12392.742147 kJ/mol
# Density = 1.916092 g / cm^3
# Si number density = 19.204626 Si / 1000 Ang^3
#
#
#
# Elastic Constant Matrix: (Units=GPa)
#
#
# Indices 1 2 3 4 5 6 
#
# 1 129.3731 32.0629 29.5728 0.0002 28.0355 0.0000
# 2 32.0629 116.4717 33.0731 0.0001 4.2359 0.0002
# 3 29.5728 33.0731 109.2347 0.0002 4.4165 0.0012
# 4 0.0002 0.0001 0.0002 7.0948 0.0006 -11.4670
# 5 28.0355 4.2359 4.4165 0.0006 41.0563 0.0004
# 6 0.0000 0.0002 0.0012 -11.4670 0.0004 8.9980
#
#
#
# Elastic Compliance Matrix: (Units=1/GPa)
#
#
# Indices 1 2 3 4 5 6 
#
# 1 0.010049 -0.002006 -0.001852 -0.000001 -0.006456 -0.000001
# 2 -0.002006 0.009812 -0.002453 0.000000 0.000621 0.000000
# 3 -0.001852 -0.002453 0.010383 0.000002 0.000401 0.000002
# 4 -0.000001 0.000000 0.000002 -0.133003 0.000005 -0.169498
# 5 -0.006456 0.000621 0.000401 0.000005 0.028658 0.000004
# 6 -0.000001 0.000000 0.000002 -0.169498 0.000004 -0.104871
#
#
# Mechanical properties :
#
#
# Convention : Reuss Voigt Hill
#
# Bulk Modulus (GPa) = 56.74774 60.49967 58.62371
# Shear Modulus (GPa) = -31.15692 28.78788 -1.18452
#
# Velocity S-wave (km/s) = -4.03223 3.87590 -0.78621
# Velocity P-wave (km/s) = 2.81685 7.18340 5.45600
#
# Compressibility (1/GPa) = 0.01762185
#
# Stress axis : x y z
#
# Youngs Moduli (GPa) = 99.51208 101.91794 96.31575
#
# Poissons Ratio (x) = 0.20440 0.17841
# Poissons Ratio (y) = 0.19958 0.23625
# Poissons Ratio (z) = 0.18433 0.24999
#
# Static dielectric constant tensor:
#      x y z
#    x 3.753620 0.000000 0.153850 
#    y 0.000000 3.432830 0.000000 
#    z 0.153850 0.000000 3.738970 
# 
# 
# High freq. dielectric constant tensor:
#      x y z
#    x 1.757380 0.000000 0.003190 
#    y 0.000000 1.713930 0.000000 
#    z 0.003190 0.000000 1.766730 
# 
# From -- ./inp_files/361476.got.cif
#   From: 2010.06.25/outbox.cif.g09.slc.cpg/sg12_181_cif.got.tgz:361476.got - 2010.06.28 00:19:55.
