data_PCOD8107649
_publ_section_title
;
Structure prediction by ZEFSAII (Michael W. Deem and Ramdas Pophale) SiO2 
 PCOD8107649
Probable space group: C 2/M
;
_chemical_formula_sum "Si O2"
_cell_formula_units_Z 56
_cell_length_a 23.335221
_cell_length_b 8.766446
_cell_length_c 14.661735
_cell_angle_alpha 90.000000
_cell_angle_beta 109.786867
_cell_angle_gamma 90.000000
_cell_volume 2822.222591
_symmetry_space_group_name_H-M "C 2/M"
_symmetry_group_IT_number 12
_symmetry_cell_setting 'monoclinic'
loop_
_space_group_symop_operation_xyz
x,y,z
-x,y,-z
-x,-y,-z
x,-y,z
1/2+x,1/2+y,z
1/2-x,1/2+y,-z
1/2-x,1/2-y,-z
1/2+x,1/2-y,z
loop_
_atom_site_type_symbol
_atom_site_label
_atom_site_fract_x
_atom_site_fract_y
_atom_site_fract_z
Si Si1 0.070156 0.678961 0.696902
Si Si2 0.449702 0.321384 0.680887
Si Si3 0.109145 0.820046 0.540907
Si Si4 0.849272 0.178311 0.772990
Si Si5 0.185822 0.677204 0.064904
Si Si6 0.263678 0.820193 0.410352
Si Si7 0.826360 0.822698 0.130310
O O1 0.069732 0.500000 0.680498
O O2 0.063928 0.763393 0.595866
O O3 0.132095 0.725397 0.780058
O O4 0.012400 0.729575 0.726190
O O5 0.464196 0.500000 0.684127
O O6 0.415457 0.268076 0.570577
O O7 0.408299 0.280387 0.745119
O O8 0.173684 0.742386 0.596023
O O9 0.117125 0.000000 0.549902
O O10 0.852848 0.273070 0.868077
O O11 0.789432 0.229916 0.686509
O O12 0.847024 0.000000 0.794875
O O13 0.175431 0.500000 0.038471
O O14 0.256848 0.713795 0.119684
O O15 0.160769 0.773143 0.966369
O O16 0.250000 0.750000 0.500000
O O17 0.266438 0.000000 0.422915
O O18 0.842223 0.000000 0.150106
#
# Coordination Sequence:
#
# PCOD8107649 Si02
#       7
#     8   8   8   8   8   8   8
#     4  12  25  39  58  87 117 150 196 249 294 341
#     4  10  22  41  59  79 114 160 202 240 285 347
#     4  11  22  39  60  84 115 157 201 243 292 349
#     4  10  21  38  58  84 118 158 196 232 287 351
#     4  10  21  37  62  94 120 146 185 238 292 343
#     4  11  21  35  56  85 119 154 193 240 289 341
#     4  10  21  40  64  88 117 154 190 232 289 351
#
# _framework density 19.842517999999998
#
# number of rings (size 3 to 8) (size 9 to 14) (size 15 to 20)
#    0.000    1.429    1.429    4.286    0.000    8.571 
#    0.000    0.714    0.000    4.286    0.000    0.000 
#    0.000    0.000    0.000    0.000    0.000    0.000 
#
# Total GULP energy -347387.711276 kJ/mol
# GULP energy per Si atom -12406.703974 kJ/mol
# Density = 1.979736 g / cm^3
# Si number density = 19.842518 Si / 1000 Ang^3
#
#
#
# Elastic Constant Matrix: (Units=GPa)
#
#
# Indices 1 2 3 4 5 6 
#
# 1 75.4914 14.2064 25.6047 0.0000 -14.7632 0.0000
# 2 14.2064 48.8467 23.2523 0.0000 -1.9549 0.0000
# 3 25.6047 23.2523 79.3685 0.0000 -21.5485 0.0000
# 4 0.0000 0.0000 0.0000 33.8035 0.0000 -2.1238
# 5 -14.7632 -1.9549 -21.5485 0.0000 30.8472 0.0000
# 6 0.0000 0.0000 0.0000 -2.1238 0.0000 35.1016
#
#
#
# Elastic Compliance Matrix: (Units=1/GPa)
#
#
# Indices 1 2 3 4 5 6 
#
# 1 0.015819 -0.003092 -0.002709 0.000000 0.005483 0.000000
# 2 -0.003092 0.024832 -0.007715 0.000000 -0.005296 0.000000
# 3 -0.002709 -0.007715 0.018818 0.000000 0.011360 0.000000
# 4 0.000000 0.000000 0.000000 0.029696 0.000000 0.001797
# 5 0.005483 -0.005296 0.011360 0.000000 0.042642 0.000000
# 6 0.000000 0.000000 0.000000 0.001797 0.000000 0.028597
#
#
# Mechanical properties :
#
#
# Convention : Reuss Voigt Hill
#
# Bulk Modulus (GPa) = 30.82886 36.64813 33.73850
# Shear Modulus (GPa) = 25.22079 29.32668 27.27373
#
# Velocity S-wave (km/s) = 3.56904 3.84861 3.71146
# Velocity P-wave (km/s) = 5.70566 6.18536 5.95035
#
# Compressibility (1/GPa) = 0.03243714
#
# Stress axis : x y z
#
# Youngs Moduli (GPa) = 63.21342 40.27039 53.14074
#
# Poissons Ratio (x) = 0.12451 0.14396
# Poissons Ratio (y) = 0.19545 0.41000
# Poissons Ratio (z) = 0.17125 0.31070
#
# Static dielectric constant tensor:
#      x y z
#    x 3.667310 0.000000 -0.047290 
#    y 0.000000 3.569250 0.000000 
#    z -0.047290 0.000000 3.591670 
# 
# 
# High freq. dielectric constant tensor:
#      x y z
#    x 1.775010 0.000000 -0.009800 
#    y 0.000000 1.777560 0.000000 
#    z -0.009800 0.000000 1.770900 
# 
# From -- ./inp_files/237829.got.cif
#   From: 2010.06.25/outbox.cif.g09.slc.cpg/sg12_119_cif.got.tgz:237829.got - 2010.06.28 00:19:55.
