data_PCOD8107042
_publ_section_title
;
Structure prediction by ZEFSAII (Michael W. Deem and Ramdas Pophale) SiO2 
 PCOD8107042
Probable space group: C 2/M
;
_chemical_formula_sum "Si O2"
_cell_formula_units_Z 56
_cell_length_a 14.222167
_cell_length_b 23.610325
_cell_length_c 9.328625
_cell_angle_alpha 90.000000
_cell_angle_beta 65.323833
_cell_angle_gamma 90.000000
_cell_volume 2846.408711
_symmetry_space_group_name_H-M "C 2/M"
_symmetry_group_IT_number 12
_symmetry_cell_setting 'monoclinic'
loop_
_space_group_symop_operation_xyz
x,y,z
-x,y,-z
-x,-y,-z
x,-y,z
1/2+x,1/2+y,z
1/2-x,1/2+y,-z
1/2-x,1/2-y,-z
1/2+x,1/2-y,z
loop_
_atom_site_type_symbol
_atom_site_label
_atom_site_fract_x
_atom_site_fract_y
_atom_site_fract_z
Si Si1 0.569548 0.239786 0.824625
Si Si2 0.793702 0.434959 0.483679
Si Si3 0.029394 0.608566 0.821717
Si Si4 0.900009 0.636799 0.654675
Si Si5 0.713603 0.749493 0.183385
Si Si6 0.472743 0.674862 0.680982
Si Si7 0.445762 0.561353 0.383293
O O1 0.542113 0.175634 0.812263
O O2 0.690952 0.245243 0.770972
O O3 0.544635 0.276869 0.702229
O O4 0.500000 0.263342 0.000000
O O5 0.812775 0.500000 0.512031
O O6 0.865235 0.420327 0.300420
O O7 0.821050 0.398273 0.606708
O O8 0.675123 0.423032 0.517417
O O9 0.935512 0.597821 0.768237
O O10 0.000000 0.586068 0.000000
O O11 0.849581 0.694422 0.741483
O O12 0.000000 0.654338 0.500000
O O13 0.646731 0.692176 0.235499
O O14 0.750000 0.750000 0.000000
O O15 0.500000 0.667611 0.500000
O O16 0.497278 0.613103 0.738202
O O17 0.500000 0.553873 0.500000
O O18 0.455459 0.500000 0.295951
#
# Coordination Sequence:
#
# PCOD8107042 Si02
#       7
#     8   8   8   8   8   8   8
#     4  11  22  38  56  85 128 160 189 242 307 361
#     4  10  22  40  65  89 115 164 211 250 303 354
#     4  10  21  37  57  88 128 160 195 254 310 361
#     4  10  21  40  60  87 126 159 203 254 295 359
#     4  12  22  37  61  88 126 160 196 244 305 368
#     4  11  23  37  60  95 115 157 206 241 300 361
#     4   9  20  40  60  86 120 151 200 257 295 346
#
# _framework density 19.673914
#
# number of rings (size 3 to 8) (size 9 to 14) (size 15 to 20)
#    0.000    1.571    2.857    2.143    6.000    3.429 
#    0.000    0.000    0.000    1.286    0.000    0.000 
#    0.000    0.000    0.000    0.000    0.000    0.000 
#
# Total GULP energy -347064.257604 kJ/mol
# GULP energy per Si atom -12395.152057 kJ/mol
# Density = 1.962914 g / cm^3
# Si number density = 19.673914 Si / 1000 Ang^3
#
#
#
# Elastic Constant Matrix: (Units=GPa)
#
#
# Indices 1 2 3 4 5 6 
#
# 1 152.3778 36.6745 36.6440 0.0000 -9.7430 0.0000
# 2 36.6745 111.5310 38.7468 0.0000 -17.7024 0.0000
# 3 36.6440 38.7468 88.2380 0.0000 -1.0749 0.0000
# 4 0.0000 0.0000 0.0000 3.8617 0.0000 7.6932
# 5 -9.7430 -17.7024 -1.0749 0.0000 29.3690 0.0000
# 6 0.0000 0.0000 0.0000 7.6932 0.0000 -13.0429
#
#
#
# Elastic Compliance Matrix: (Units=1/GPa)
#
#
# Indices 1 2 3 4 5 6 
#
# 1 0.007604 -0.001363 -0.002540 0.000000 0.001608 0.000000
# 2 -0.001363 0.012092 -0.004663 0.000000 0.006666 0.000000
# 3 -0.002540 -0.004663 0.014397 0.000000 -0.003126 0.000000
# 4 0.000000 0.000000 0.000000 0.119056 0.000000 0.070224
# 5 0.001608 0.006666 -0.003126 0.000000 0.038487 0.000000
# 6 0.000000 0.000000 0.000000 0.070224 0.000000 -0.035249
#
#
# Mechanical properties :
#
#
# Convention : Reuss Voigt Hill
#
# Bulk Modulus (GPa) = 58.95294 64.03083 61.49189
# Shear Modulus (GPa) = 27.90611 20.04297 23.97454
#
# Velocity S-wave (km/s) = 3.77029 3.19526 3.49463
# Velocity P-wave (km/s) = 6.99883 6.79924 6.89975
#
# Compressibility (1/GPa) = 0.01696268
#
# Stress axis : x y z
#
# Youngs Moduli (GPa) = 131.50481 82.69844 69.45820
#
# Poissons Ratio (x) = 0.11271 0.17642
# Poissons Ratio (y) = 0.17922 0.32386
# Poissons Ratio (z) = 0.33401 0.38560
#
# Static dielectric constant tensor:
#      x y z
#    x 3.863400 0.000000 0.103010 
#    y 0.000000 4.090240 0.000000 
#    z 0.103010 0.000000 3.578660 
# 
# 
# High freq. dielectric constant tensor:
#      x y z
#    x 1.787530 0.000000 0.003520 
#    y 0.000000 1.769180 0.000000 
#    z 0.003520 0.000000 1.743400 
# 
# From -- ./inp_files/65727.got.cif
#   From: 2010.06.25/outbox.cif.g09.slc.cpg/sg12_33_cif.got.tgz:65727.got - 2010.06.28 00:19:55.
