data_PCOD8107771
_publ_section_title
;
Structure prediction by ZEFSAII (Michael W. Deem and Ramdas Pophale) SiO2 
 PCOD8107771
Probable space group: C 2/M
;
_chemical_formula_sum "Si O2"
_cell_formula_units_Z 48
_cell_length_a 18.287315
_cell_length_b 8.940353
_cell_length_c 21.049225
_cell_angle_alpha 90.000000
_cell_angle_beta 131.209315
_cell_angle_gamma 90.000000
_cell_volume 2589.025297
_symmetry_space_group_name_H-M "C 2/M"
_symmetry_group_IT_number 12
_symmetry_cell_setting 'monoclinic'
loop_
_space_group_symop_operation_xyz
x,y,z
-x,y,-z
-x,-y,-z
x,-y,z
1/2+x,1/2+y,z
1/2-x,1/2+y,-z
1/2-x,1/2-y,-z
1/2+x,1/2-y,z
loop_
_atom_site_type_symbol
_atom_site_label
_atom_site_fract_x
_atom_site_fract_y
_atom_site_fract_z
Si Si1 0.469688 0.826799 0.232789
Si Si2 0.111497 0.673618 0.080337
Si Si3 0.860422 0.323428 0.760589
Si Si4 0.760879 0.671093 0.404397
Si Si5 0.738176 0.822152 0.925085
Si Si6 0.881984 0.327463 0.584319
O O1 0.547955 0.759020 0.227360
O O2 0.362733 0.757776 0.162498
O O3 0.507492 0.800700 0.327263
O O4 0.460359 0.000000 0.211319
O O5 0.139738 0.500000 0.088841
O O6 0.131835 0.733041 0.163020
O O7 0.174142 0.772423 0.068985
O O8 0.000000 0.700168 0.000000
O O9 0.859762 0.500000 0.757836
O O10 0.759269 0.266217 0.670869
O O11 0.749239 0.500000 0.377749
O O12 0.866704 0.699794 0.499374
O O13 0.683993 0.712471 0.414756
O O14 0.738988 0.000000 0.931801
O O15 0.750000 0.750000 0.000000
O O16 0.852109 0.500000 0.583457
#
# Coordination Sequence:
#
# PCOD8107771 Si02
#       6
#     8   8   8   8   8   8
#     4   8  15  30  51  72  95 129 168 200 237 289
#     4  10  21  38  57  74  97 132 170 205 247 300
#     4   9  17  31  51  71  96 131 165 198 242 297
#     4   9  15  23  41  70  99 124 157 204 245 279
#     4  11  22  36  55  77 102 130 164 207 251 298
#     4   8  14  26  43  64  94 131 166 196 234 287
#
# _framework density 18.539797
#
# number of rings (size 3 to 8) (size 9 to 14) (size 15 to 20)
#    0.000    2.833    0.000    3.000    0.000    4.333 
#    0.000   10.000    0.000    1.000    0.000    7.000 
#    0.000    0.000    0.000    0.000    0.000    0.000 
#
# Total GULP energy -297318.526622 kJ/mol
# GULP energy per Si atom -12388.271943 kJ/mol
# Density = 1.849760 g / cm^3
# Si number density = 18.539797 Si / 1000 Ang^3
#
#
#
# Elastic Constant Matrix: (Units=GPa)
#
#
# Indices 1 2 3 4 5 6 
#
# 1 69.8027 26.2913 57.1502 0.0000 -3.4288 0.0000
# 2 26.2913 37.5861 38.0097 0.0000 -1.1653 0.0000
# 3 57.1502 38.0097 192.4334 0.0000 -7.7159 0.0000
# 4 0.0000 0.0000 0.0000 30.0301 0.0000 -3.0622
# 5 -3.4288 -1.1653 -7.7159 0.0000 26.8396 0.0000
# 6 0.0000 0.0000 0.0000 -3.0622 0.0000 17.8250
#
#
#
# Elastic Compliance Matrix: (Units=1/GPa)
#
#
# Indices 1 2 3 4 5 6 
#
# 1 0.022084 -0.011029 -0.004336 0.000000 0.001096 0.000000
# 2 -0.011029 0.038759 -0.004420 0.000000 -0.000997 0.000000
# 3 -0.004336 -0.004420 0.007413 0.000000 0.001385 0.000000
# 4 0.000000 0.000000 0.000000 0.033894 0.000000 0.005823
# 5 0.001096 -0.000997 0.001385 0.000000 0.037753 0.000000
# 6 0.000000 0.000000 0.000000 0.005823 0.000000 0.057101
#
#
# Mechanical properties :
#
#
# Convention : Reuss Voigt Hill
#
# Bulk Modulus (GPa) = 34.86037 60.30275 47.58156
# Shear Modulus (GPa) = 20.31383 26.83034 23.57208
#
# Velocity S-wave (km/s) = 3.31371 3.80830 3.56958
# Velocity P-wave (km/s) = 5.78660 7.20654 6.53525
#
# Compressibility (1/GPa) = 0.02868587
#
# Stress axis : x y z
#
# Youngs Moduli (GPa) = 45.28118 25.80024 134.89573
#
# Poissons Ratio (x) = 0.28454 0.58496
# Poissons Ratio (y) = 0.49939 0.59630
# Poissons Ratio (z) = 0.19636 0.11405
#
# Static dielectric constant tensor:
#      x y z
#    x 3.096030 0.000000 0.012900 
#    y 0.000000 3.245590 0.000000 
#    z 0.012900 0.000000 4.163380 
# 
# 
# High freq. dielectric constant tensor:
#      x y z
#    x 1.662280 0.000000 -0.002460 
#    y 0.000000 1.701220 0.000000 
#    z -0.002460 0.000000 1.755140 
# 
# From -- ./inp_files/313609.got.cif
#   From: 2010.06.25/outbox.cif.g09.slc.cpg/sg12_157_cif.got.tgz:313609.got - 2010.06.28 00:19:55.
