data_PCOD8107408
_publ_section_title
;
Structure prediction by ZEFSAII (Michael W. Deem and Ramdas Pophale) SiO2 
 PCOD8107408
Probable space group: C 2/M
;
_chemical_formula_sum "Si O2"
_cell_formula_units_Z 44
_cell_length_a 27.317646
_cell_length_b 7.873226
_cell_length_c 10.824081
_cell_angle_alpha 90.000000
_cell_angle_beta 100.525190
_cell_angle_gamma 90.000000
_cell_volume 2288.852022
_symmetry_space_group_name_H-M "C 2/M"
_symmetry_group_IT_number 12
_symmetry_cell_setting 'monoclinic'
loop_
_space_group_symop_operation_xyz
x,y,z
-x,y,-z
-x,-y,-z
x,-y,z
1/2+x,1/2+y,z
1/2-x,1/2+y,-z
1/2-x,1/2-y,-z
1/2+x,1/2-y,z
loop_
_atom_site_type_symbol
_atom_site_label
_atom_site_fract_x
_atom_site_fract_y
_atom_site_fract_z
Si Si1 0.444992 0.500000 0.722159
Si Si2 0.944473 0.000000 0.284582
Si Si3 0.776024 0.182754 0.390005
Si Si4 0.286421 0.298119 0.127121
Si Si5 0.128564 0.000000 0.526056
Si Si6 0.603715 0.810036 0.875648
Si Si7 0.550750 0.809311 0.094195
O O1 0.496162 0.500000 0.667583
O O2 0.395405 0.500000 0.618660
O O3 0.441411 0.671835 0.797491
O O4 0.916965 0.000000 0.401364
O O5 0.930172 0.170648 0.205906
O O6 0.750000 0.250000 0.500000
O O7 0.767524 0.275921 0.252831
O O8 0.836007 0.166233 0.440101
O O9 0.750805 0.000000 0.360969
O O10 0.294328 0.500000 0.140659
O O11 0.338555 0.212604 0.123625
O O12 0.250000 0.250000 0.000000
O O13 0.587263 0.000000 0.824870
O O14 0.596188 0.792900 0.019105
O O15 0.549035 0.000000 0.150660
O O16 0.500000 0.767853 0.000000
#
# Coordination Sequence:
#
# PCOD8107408 Si02
#       7
#     4   4   8   8   4   8   8
#     4  12  23  36  69  92 122 177 214 248 324 367
#     4  12  20  42  62  87 128 169 208 262 302 377
#     4   9  20  41  63  84 122 162 201 256 319 372
#     4  11  22  39  61  91 125 156 210 268 317 382
#     4  10  23  43  60  92 127 160 216 264 301 386
#     4  11  21  37  63  89 122 166 199 250 324 371
#     4  10  21  37  59  92 127 158 206 260 308 373
#
# _framework density 19.223610000000001
#
# number of rings (size 3 to 8) (size 9 to 14) (size 15 to 20)
#    0.545    0.909    4.545    1.636    0.000    2.909 
#    0.000    3.636    0.000    2.182    0.000    0.000 
#    0.000    0.000    0.000    0.000    0.000    0.000 
#
# Total GULP energy -272571.659532 kJ/mol
# GULP energy per Si atom -12389.620888 kJ/mol
# Density = 1.917986 g / cm^3
# Si number density = 19.223610 Si / 1000 Ang^3
#
#
#
# Elastic Constant Matrix: (Units=GPa)
#
#
# Indices 1 2 3 4 5 6 
#
# 1 86.2625 22.7318 66.3389 0.0000 -19.4726 0.0000
# 2 22.7318 103.9801 51.2614 0.0000 -2.8194 0.0000
# 3 66.3389 51.2614 154.9546 0.0000 -8.6694 0.0000
# 4 0.0000 0.0000 0.0000 -29.4686 0.0000 -0.3995
# 5 -19.4726 -2.8194 -8.6694 0.0000 41.4152 0.0000
# 6 0.0000 0.0000 0.0000 -0.3995 0.0000 25.3391
#
#
#
# Elastic Compliance Matrix: (Units=1/GPa)
#
#
# Indices 1 2 3 4 5 6 
#
# 1 0.019311 -0.000179 -0.007792 0.000000 0.007436 0.000000
# 2 -0.000179 0.011493 -0.003730 0.000000 -0.000082 0.000000
# 3 -0.007792 -0.003730 0.010932 0.000000 -0.001629 0.000000
# 4 0.000000 0.000000 0.000000 -0.033927 0.000000 -0.000535
# 5 0.007436 -0.000082 -0.001629 0.000000 0.027295 0.000000
# 6 0.000000 0.000000 0.000000 -0.000535 0.000000 0.039456
#
#
# Mechanical properties :
#
#
# Convention : Reuss Voigt Hill
#
# Bulk Modulus (GPa) = 54.54307 69.54016 62.04161
# Shear Modulus (GPa) = 48.04294 21.11482 34.57888
#
# Velocity S-wave (km/s) = 5.00459 3.31778 4.24579
# Velocity P-wave (km/s) = 7.86315 7.13651 7.50862
#
# Compressibility (1/GPa) = 0.01833413
#
# Stress axis : x y z
#
# Youngs Moduli (GPa) = 51.78502 87.00948 91.47186
#
# Poissons Ratio (x) = 0.01553 0.71276
# Poissons Ratio (y) = 0.00925 0.34121
# Poissons Ratio (z) = 0.40352 0.32457
#
# Static dielectric constant tensor:
#      x y z
#    x 3.684110 0.000000 -0.261110 
#    y 0.000000 3.583430 0.000000 
#    z -0.261110 0.000000 3.583970 
# 
# 
# High freq. dielectric constant tensor:
#      x y z
#    x 1.751480 0.000000 -0.021480 
#    y 0.000000 1.745200 0.000000 
#    z -0.021480 0.000000 1.740570 
# 
# From -- ./inp_files/108266.got.cif
#   From: 2010.06.25/outbox.cif.g09.slc.cpg/sg12_55_cif.got.tgz:108266.got - 2010.06.28 00:19:55.
