data_PCOD8107290
_publ_section_title
;
Structure prediction by ZEFSAII (Michael W. Deem and Ramdas Pophale) SiO2 
 PCOD8107290
Probable space group: C 2/M
;
_chemical_formula_sum "Si O2"
_cell_formula_units_Z 40
_cell_length_a 10.166442
_cell_length_b 9.974115
_cell_length_c 18.489102
_cell_angle_alpha 90.000000
_cell_angle_beta 88.860975
_cell_angle_gamma 90.000000
_cell_volume 1874.447814
_symmetry_space_group_name_H-M "C 2/M"
_symmetry_group_IT_number 12
_symmetry_cell_setting 'monoclinic'
loop_
_space_group_symop_operation_xyz
x,y,z
-x,y,-z
-x,-y,-z
x,-y,z
1/2+x,1/2+y,z
1/2-x,1/2+y,-z
1/2-x,1/2-y,-z
1/2+x,1/2-y,z
loop_
_atom_site_type_symbol
_atom_site_label
_atom_site_fract_x
_atom_site_fract_y
_atom_site_fract_z
Si Si1 0.386755 0.853406 0.954214
Si Si2 0.856658 0.845280 0.702266
Si Si3 0.930667 0.347486 0.229833
Si Si4 0.358222 0.655973 0.534951
Si Si5 0.765342 0.642667 0.102728
O O1 0.338246 0.764737 0.886116
O O2 0.430788 0.000000 0.923617
O O3 0.500000 0.781807 0.000000
O O4 0.274171 0.874597 0.016243
O O5 0.710498 0.815391 0.732421
O O6 0.863531 0.805406 0.618686
O O7 0.960313 0.754969 0.744513
O O8 0.896585 0.000000 0.712422
O O9 0.974628 0.500000 0.247408
O O10 0.903962 0.327029 0.143003
O O11 0.500000 0.688170 0.500000
O O12 0.319682 0.500000 0.523652
O O13 0.250000 0.750000 0.500000
O O14 0.711478 0.500000 0.135790
#
# Coordination Sequence:
#
# PCOD8107290 Si02
#       5
#     8   8   8   8   8
#     4   9  18  32  51  73  98 129 174 223 267 321
#     4  10  22  39  57  84 117 147 185 230 273 328
#     4  10  22  38  57  82 114 149 187 229 276 332
#     4  10  21  37  59  86 115 147 186 229 273 325
#     4   9  19  34  49  72 102 134 174 222 271 321
#
# _framework density 21.339618000000002
#
# number of rings (size 3 to 8) (size 9 to 14) (size 15 to 20)
#    0.000    2.400    0.000    1.200    2.800    3.200 
#    0.000    0.000    0.000    0.000    0.000    0.000 
#    0.000    0.000    0.000    0.000    0.000    0.000 
#
# Total GULP energy -247771.824256 kJ/mol
# GULP energy per Si atom -12388.591213 kJ/mol
# Density = 2.129105 g / cm^3
# Si number density = 21.339618 Si / 1000 Ang^3
#
#
#
# Elastic Constant Matrix: (Units=GPa)
#
#
# Indices 1 2 3 4 5 6 
#
# 1 77.7267 52.6121 26.1744 0.0000 21.3518 0.0000
# 2 52.6121 116.6160 54.5340 0.0000 36.0012 0.0000
# 3 26.1744 54.5340 94.4979 0.0000 19.9486 0.0000
# 4 0.0000 0.0000 0.0000 26.4921 0.0000 17.6711
# 5 21.3518 36.0012 19.9486 0.0000 32.4181 0.0000
# 6 0.0000 0.0000 0.0000 17.6711 0.0000 36.0968
#
#
#
# Elastic Compliance Matrix: (Units=1/GPa)
#
#
# Indices 1 2 3 4 5 6 
#
# 1 0.018956 -0.007052 -0.000228 0.000000 -0.004513 0.000000
# 2 -0.007052 0.018277 -0.006080 0.000000 -0.011911 0.000000
# 3 -0.000228 -0.006080 0.014593 0.000000 -0.002078 0.000000
# 4 0.000000 0.000000 0.000000 0.056050 0.000000 -0.027439
# 5 -0.004513 -0.011911 -0.002078 0.000000 0.048326 0.000000
# 6 0.000000 0.000000 0.000000 -0.027439 0.000000 0.041136
#
#
# Mechanical properties :
#
#
# Convention : Reuss Voigt Hill
#
# Bulk Modulus (GPa) = 39.83181 61.72015 50.77598
# Shear Modulus (GPa) = 21.51235 29.36941 25.44088
#
# Velocity S-wave (km/s) = 3.17850 3.71386 3.45656
# Velocity P-wave (km/s) = 5.67244 6.88302 6.30684
#
# Compressibility (1/GPa) = 0.02510556
#
# Stress axis : x y z
#
# Youngs Moduli (GPa) = 52.75504 54.71355 68.52797
#
# Poissons Ratio (x) = 0.38584 0.01562
# Poissons Ratio (y) = 0.37203 0.41663
# Poissons Ratio (z) = 0.01203 0.33264
#
# Static dielectric constant tensor:
#      x y z
#    x 3.731610 0.000000 -0.162020 
#    y 0.000000 4.360090 0.000000 
#    z -0.162020 0.000000 4.076630 
# 
# 
# High freq. dielectric constant tensor:
#      x y z
#    x 1.834200 0.000000 -0.010370 
#    y 0.000000 1.838650 0.000000 
#    z -0.010370 0.000000 1.842910 
# 
# From -- ./inp_files/261087.got.cif
#   From: 2010.06.25/outbox.cif.g09.slc.cpg/sg12_131_cif.got.tgz:261087.got - 2010.06.28 00:19:55.
