data_PCOD8107108
_publ_section_title
;
Structure prediction by ZEFSAII (Michael W. Deem and Ramdas Pophale) SiO2 
 PCOD8107108
Probable space group: C 2/M
;
_chemical_formula_sum "Si O2"
_cell_formula_units_Z 64
_cell_length_a 22.241578
_cell_length_b 20.050764
_cell_length_c 9.358040
_cell_angle_alpha 90.000000
_cell_angle_beta 130.773864
_cell_angle_gamma 90.000000
_cell_volume 3160.424245
_symmetry_space_group_name_H-M "C 2/M"
_symmetry_group_IT_number 12
_symmetry_cell_setting 'monoclinic'
loop_
_space_group_symop_operation_xyz
x,y,z
-x,y,-z
-x,-y,-z
x,-y,z
1/2+x,1/2+y,z
1/2-x,1/2+y,-z
1/2-x,1/2-y,-z
1/2+x,1/2-y,z
loop_
_atom_site_type_symbol
_atom_site_label
_atom_site_fract_x
_atom_site_fract_y
_atom_site_fract_z
Si Si1 0.032215 0.816635 0.392794
Si Si2 0.785980 0.424563 0.948436
Si Si3 0.041305 0.922645 0.917966
Si Si4 0.535701 0.189153 0.211732
Si Si5 0.284131 0.177760 0.441738
Si Si6 0.966969 0.576537 0.295968
Si Si7 0.785675 0.823014 0.376002
Si Si8 0.278632 0.575255 0.854528
O O1 0.008660 0.752136 0.263806
O O2 0.125641 0.830830 0.543052
O O3 0.000000 0.803533 0.500000
O O4 0.992335 0.882346 0.267341
O O5 0.776103 0.500000 0.872080
O O6 0.872612 0.414424 0.149511
O O7 0.723357 0.411469 0.978764
O O8 0.771844 0.371152 0.802509
O O9 0.023003 0.000000 0.860191
O O10 0.134850 0.908961 0.073483
O O11 0.000000 0.898339 0.000000
O O12 0.630750 0.186666 0.351533
O O13 0.504328 0.120565 0.229060
O O14 0.500000 0.198447 0.000000
O O15 0.221182 0.157736 0.467187
O O16 0.257713 0.245931 0.320568
O O17 0.285786 0.120680 0.325396
O O18 0.991408 0.500000 0.304633
O O19 0.000000 0.600797 0.500000
O O20 0.252491 0.500000 0.781913
#
# Coordination Sequence:
#
# PCOD8107108 Si02
#       8
#     8   8   8   8   8   8   8   8
#     4  11  23  38  59  86 115 150 190 234 285 338
#     4  10  21  37  58  85 116 150 188 231 280 333
#     4  10  21  37  58  85 115 150 191 233 282 337
#     4  11  23  39  60  85 115 150 190 236 283 336
#     4  10  22  39  59  84 113 149 190 231 280 335
#     4  10  21  38  60  86 117 152 190 233 281 335
#     4  10  22  39  56  83 116 146 189 234 279 335
#     4  10  21  37  58  84 113 148 190 232 278 335
#
# _framework density 20.250447000000001
#
# number of rings (size 3 to 8) (size 9 to 14) (size 15 to 20)
#    0.000    1.750    0.000    3.750    0.000    7.500 
#    0.000    0.000    0.000    0.000    0.000    0.000 
#    0.000    0.000    0.000    0.000    0.000    0.000 
#
# Total GULP energy -396917.567544 kJ/mol
# GULP energy per Si atom -12403.673986 kJ/mol
# Density = 2.020436 g / cm^3
# Si number density = 20.250447 Si / 1000 Ang^3
#
#
#
# Elastic Constant Matrix: (Units=GPa)
#
#
# Indices 1 2 3 4 5 6 
#
# 1 103.9666 48.2515 42.5171 0.0000 -12.7447 0.0000
# 2 48.2515 114.2761 80.0614 0.0000 -14.0356 0.0000
# 3 42.5171 80.0614 126.1909 0.0000 -15.1014 0.0000
# 4 0.0000 0.0000 0.0000 42.9575 0.0000 -7.4356
# 5 -12.7447 -14.0356 -15.1014 0.0000 26.2118 0.0000
# 6 0.0000 0.0000 0.0000 -7.4356 0.0000 30.6508
#
#
#
# Elastic Compliance Matrix: (Units=1/GPa)
#
#
# Indices 1 2 3 4 5 6 
#
# 1 0.012356 -0.003919 -0.001298 0.000000 0.003161 0.000000
# 2 -0.003919 0.017200 -0.009364 0.000000 0.001910 0.000000
# 3 -0.001298 -0.009364 0.014636 0.000000 0.002787 0.000000
# 4 0.000000 0.000000 0.000000 0.024299 0.000000 0.005895
# 5 0.003161 0.001910 0.002787 0.000000 0.042316 0.000000
# 6 0.000000 0.000000 0.000000 0.005895 0.000000 0.034056
#
#
# Mechanical properties :
#
#
# Convention : Reuss Voigt Hill
#
# Bulk Modulus (GPa) = 66.53291 76.23263 71.38277
# Shear Modulus (GPa) = 27.92742 31.53757 29.73250
#
# Velocity S-wave (km/s) = 3.71765 3.95064 3.83592
# Velocity P-wave (km/s) = 7.16619 7.65093 7.41252
#
# Compressibility (1/GPa) = 0.01503015
#
# Stress axis : x y z
#
# Youngs Moduli (GPa) = 80.93341 58.13846 68.32416
#
# Poissons Ratio (x) = 0.22787 0.08869
# Poissons Ratio (y) = 0.31721 0.63976
# Poissons Ratio (z) = 0.10506 0.54438
#
# Static dielectric constant tensor:
#      x y z
#    x 3.868670 0.000000 -0.039490 
#    y 0.000000 3.783690 0.000000 
#    z -0.039490 0.000000 3.468350 
# 
# 
# High freq. dielectric constant tensor:
#      x y z
#    x 1.802890 0.000000 0.000110 
#    y 0.000000 1.800510 0.000000 
#    z 0.000110 0.000000 1.780180 
# 
# From -- ./inp_files/99106.got.cif
#   From: 2010.06.25/outbox.cif.g09.slc.cpg/sg12_50_cif.got.tgz:99106.got - 2010.06.28 00:19:55.
