data_PCOD8107582
_publ_section_title
;
Structure prediction by ZEFSAII (Michael W. Deem and Ramdas Pophale) SiO2 
 PCOD8107582
Probable space group: C 2/M
;
_chemical_formula_sum "Si O2"
_cell_formula_units_Z 56
_cell_length_a 19.284541
_cell_length_b 8.779160
_cell_length_c 18.360806
_cell_angle_alpha 90.000000
_cell_angle_beta 63.733255
_cell_angle_gamma 90.000000
_cell_volume 2787.547149
_symmetry_space_group_name_H-M "C 2/M"
_symmetry_group_IT_number 12
_symmetry_cell_setting 'monoclinic'
loop_
_space_group_symop_operation_xyz
x,y,z
-x,y,-z
-x,-y,-z
x,-y,z
1/2+x,1/2+y,z
1/2-x,1/2+y,-z
1/2-x,1/2-y,-z
1/2+x,1/2-y,z
loop_
_atom_site_type_symbol
_atom_site_label
_atom_site_fract_x
_atom_site_fract_y
_atom_site_fract_z
Si Si1 0.829350 0.176291 0.985788
Si Si2 0.190403 0.678938 0.861738
Si Si3 0.018440 0.321202 0.691853
Si Si4 0.137961 0.820794 0.737787
Si Si5 0.867946 0.825444 0.810339
Si Si6 0.569986 0.679414 0.518755
Si Si7 0.272791 0.820861 0.565672
O O1 0.858095 0.265275 0.044504
O O2 0.817292 0.000000 0.010928
O O3 0.750000 0.250000 0.000000
O O4 0.884424 0.194818 0.889560
O O5 0.179173 0.500000 0.856822
O O6 0.154155 0.767655 0.811560
O O7 0.280853 0.722768 0.829009
O O8 0.027546 0.500000 0.678193
O O9 0.061786 0.264070 0.744078
O O10 0.058139 0.240138 0.605263
O O11 0.927869 0.279117 0.738654
O O12 0.210931 0.773458 0.654899
O O13 0.122384 0.000000 0.743337
O O14 0.882118 0.000000 0.780882
O O15 0.500000 0.728543 0.500000
O O16 0.581177 0.500000 0.517867
O O17 0.645327 0.753360 0.447149
O O18 0.250000 0.750000 0.500000
O O19 0.278970 0.000000 0.553597
#
# Coordination Sequence:
#
# PCOD8107582 Si02
#       7
#     8   8   8   8   8   8   8
#     4   9  17  33  58  87 119 156 195 240 293 348
#     4  10  21  37  61  91 121 155 197 245 292 347
#     4  12  25  40  61  87 119 156 196 245 295 349
#     4  11  24  41  61  86 120 158 197 242 294 353
#     4   9  20  38  60  87 121 158 193 237 294 351
#     4  11  25  43  63  87 119 157 195 242 296 350
#     4  11  23  40  64  89 116 155 199 243 293 349
#
# _framework density 20.089345999999999
#
# number of rings (size 3 to 8) (size 9 to 14) (size 15 to 20)
#    0.000    1.571    1.429    4.286    2.000    6.286 
#    0.000    0.714    0.000    4.286    0.000    0.000 
#    0.000    0.000    0.000    0.000    0.000    0.000 
#
# Total GULP energy -347251.593290 kJ/mol
# GULP energy per Si atom -12401.842618 kJ/mol
# Density = 2.004362 g / cm^3
# Si number density = 20.089346 Si / 1000 Ang^3
#
#
#
# Elastic Constant Matrix: (Units=GPa)
#
#
# Indices 1 2 3 4 5 6 
#
# 1 68.2951 13.1047 0.7179 0.0000 8.3416 0.0001
# 2 13.1047 54.4509 2.0189 0.0001 -3.4136 0.0003
# 3 0.7179 2.0189 42.2024 0.0000 15.0570 0.0000
# 4 0.0000 0.0001 0.0000 34.1223 0.0000 0.6325
# 5 8.3416 -3.4136 15.0570 0.0000 34.0072 0.0000
# 6 0.0001 0.0003 0.0000 0.6325 0.0000 34.1724
#
#
#
# Elastic Compliance Matrix: (Units=1/GPa)
#
#
# Indices 1 2 3 4 5 6 
#
# 1 0.016070 -0.004256 0.001768 0.000000 -0.005152 0.000000
# 2 -0.004256 0.019729 -0.002316 0.000000 0.004050 0.000000
# 3 0.001768 -0.002316 0.028519 0.000000 -0.013293 0.000000
# 4 0.000000 0.000000 0.000000 0.029316 0.000000 -0.000543
# 5 -0.005152 0.004050 -0.013293 0.000000 0.036961 0.000000
# 6 0.000000 0.000000 0.000000 -0.000543 0.000000 0.029273
#
#
# Mechanical properties :
#
#
# Convention : Reuss Voigt Hill
#
# Bulk Modulus (GPa) = 18.27833 21.84793 20.06313
# Shear Modulus (GPa) = 26.63631 30.40084 28.51857
#
# Velocity S-wave (km/s) = 3.64523 3.89431 3.77183
# Velocity P-wave (km/s) = 5.18027 5.57852 5.38308
#
# Compressibility (1/GPa) = 0.05470959
#
# Stress axis : x y z
#
# Youngs Moduli (GPa) = 62.22903 50.68615 35.06458
#
# Poissons Ratio (x) = 0.21572 -0.06200
# Poissons Ratio (y) = 0.26485 0.08122
# Poissons Ratio (z) = -0.11004 0.11741
#
# Static dielectric constant tensor:
#      x y z
#    x 3.654540 0.000000 -0.006020 
#    y 0.000000 3.742660 0.000000 
#    z -0.006020 0.000000 4.017350 
# 
# 
# High freq. dielectric constant tensor:
#      x y z
#    x 1.773160 0.000000 0.006770 
#    y 0.000000 1.794710 0.000000 
#    z 0.006770 0.000000 1.789760 
# 
# From -- ./inp_files/275130.got.cif
#   From: 2010.06.25/outbox.cif.g09.slc.cpg/sg12_138_cif.got.tgz:275130.got - 2010.06.28 00:19:55.
