data_PCOD8107615
_publ_section_title
;
Structure prediction by ZEFSAII (Michael W. Deem and Ramdas Pophale) SiO2 
 PCOD8107615
Probable space group: C 2/M
;
_chemical_formula_sum "Si O2"
_cell_formula_units_Z 56
_cell_length_a 16.379420
_cell_length_b 33.970864
_cell_length_c 5.155285
_cell_angle_alpha 90.000000
_cell_angle_beta 57.889717
_cell_angle_gamma 90.000000
_cell_volume 2429.712052
_symmetry_space_group_name_H-M "C 2/M"
_symmetry_group_IT_number 12
_symmetry_cell_setting 'monoclinic'
loop_
_space_group_symop_operation_xyz
x,y,z
-x,y,-z
-x,-y,-z
x,-y,z
1/2+x,1/2+y,z
1/2-x,1/2+y,-z
1/2-x,1/2-y,-z
1/2+x,1/2-y,z
loop_
_atom_site_type_symbol
_atom_site_label
_atom_site_fract_x
_atom_site_fract_y
_atom_site_fract_z
Si Si1 0.304629 0.823953 0.996477
Si Si2 0.840101 0.276188 0.427523
Si Si3 0.600733 0.664964 0.188668
Si Si4 0.000000 0.223060 0.000000
Si Si5 0.885468 0.408574 0.709942
Si Si6 0.885515 0.455573 0.207096
Si Si7 0.934146 0.082974 0.862842
Si Si8 0.066640 0.000000 0.137285
O O1 0.328675 0.793541 0.730203
O O2 0.341927 0.866085 0.842576
O O3 0.352249 0.810369 0.187058
O O4 0.188041 0.822667 0.228555
O O5 0.750000 0.250000 0.500000
O O6 0.937767 0.250799 0.293502
O O7 0.500000 0.660061 0.500000
O O8 0.582457 0.697167 0.999136
O O9 0.632443 0.622027 0.020315
O O10 0.848447 0.427541 0.502864
O O11 0.000000 0.404264 0.500000
O O12 0.848796 0.437485 0.999116
O O13 0.844463 0.500000 0.311159
O O14 0.000000 0.457283 0.000000
O O15 0.000000 0.082878 0.500000
O O16 0.873129 0.041434 0.969226
O O17 0.000000 0.085876 0.000000
O O18 0.000000 0.000000 0.500000
O O19 0.000000 0.000000 0.000000
#
# Coordination Sequence:
#
# PCOD8107615 Si02
#       8
#     8   8   8   4   8   8   8   4
#     4  12  27  45  66  95 135 169 217 269 338 395
#     4  12  27  46  66  96 126 169 215 276 330 396
#     4  11  24  42  68  94 125 168 217 271 320 390
#     4  12  26  42  72  91 128 166 219 270 328 396
#     4  10  21  37  61  95 134 171 212 261 325 394
#     4   9  17  34  63  96 129 171 217 262 316 385
#     4   9  17  31  54  86 113 151 195 243 296 357
#     4   8  14  26  48  78 114 144 189 240 291 350
#
# _framework density 23.048000999999999
#
# number of rings (size 3 to 8) (size 9 to 14) (size 15 to 20)
#    0.000    1.571    2.143    2.571    4.000    1.714 
#    0.000    0.000    3.143    0.000    7.429    0.000 
#    0.000    0.000    0.000    0.000    0.000    0.000 
#
# Total GULP energy -346921.671403 kJ/mol
# GULP energy per Si atom -12390.059693 kJ/mol
# Density = 2.299554 g / cm^3
# Si number density = 23.048001 Si / 1000 Ang^3
#
#
#
# Elastic Constant Matrix: (Units=GPa)
#
#
# Indices 1 2 3 4 5 6 
#
# 1 46.1027 16.7677 18.3794 0.0000 6.0650 0.0000
# 2 16.7677 144.5767 30.2693 0.0000 -8.8056 0.0000
# 3 18.3794 30.2693 90.6138 0.0000 20.1555 0.0000
# 4 0.0000 0.0000 0.0000 33.2479 0.0000 0.8353
# 5 6.0650 -8.8056 20.1555 0.0000 34.8829 0.0000
# 6 0.0000 0.0000 0.0000 0.8353 0.0000 2.3635
#
#
#
# Elastic Compliance Matrix: (Units=1/GPa)
#
#
# Indices 1 2 3 4 5 6 
#
# 1 0.024286 -0.002234 -0.003574 0.000000 -0.002721 0.000000
# 2 -0.002234 0.008109 -0.003210 0.000000 0.004290 0.000000
# 3 -0.003574 -0.003210 0.014774 0.000000 -0.008725 0.000000
# 4 0.000000 0.000000 0.000000 0.030347 0.000000 -0.010725
# 5 -0.002721 0.004290 -0.008725 0.000000 0.035265 0.000000
# 6 0.000000 0.000000 0.000000 -0.010725 0.000000 0.426896
#
#
# Mechanical properties :
#
#
# Convention : Reuss Voigt Hill
#
# Bulk Modulus (GPa) = 34.32611 45.79179 40.05895
# Shear Modulus (GPa) = 8.81174 28.49062 18.65118
#
# Velocity S-wave (km/s) = 1.95742 3.51970 2.84779
# Velocity P-wave (km/s) = 4.47597 6.03563 5.31334
#
# Compressibility (1/GPa) = 0.02913234
#
# Stress axis : x y z
#
# Youngs Moduli (GPa) = 41.17559 123.31659 67.68667
#
# Poissons Ratio (x) = 0.27549 0.24194
# Poissons Ratio (y) = 0.09199 0.21728
# Poissons Ratio (z) = 0.14718 0.39585
#
# Static dielectric constant tensor:
#      x y z
#    x 4.199060 0.000000 0.410060 
#    y 0.000000 5.294470 0.000000 
#    z 0.410060 0.000000 4.219480 
# 
# 
# High freq. dielectric constant tensor:
#      x y z
#    x 1.879740 0.000000 0.019180 
#    y 0.000000 1.945180 0.000000 
#    z 0.019180 0.000000 1.906720 
# 
# From -- ./inp_files/18268.got.cif
#   From: 2010.06.25/outbox.cif.g09.slc.cpg/sg12_10_cif.got.tgz:18268.got - 2010.06.28 00:19:55.
