data_PCOD8107978
_publ_section_title
;
Structure prediction by ZEFSAII (Michael W. Deem and Ramdas Pophale) SiO2 
 PCOD8107978
Probable space group: C 2/M
;
_chemical_formula_sum "Si O2"
_cell_formula_units_Z 64
_cell_length_a 16.418244
_cell_length_b 8.791130
_cell_length_c 29.075990
_cell_angle_alpha 90.000000
_cell_angle_beta 135.254495
_cell_angle_gamma 90.000000
_cell_volume 2954.291116
_symmetry_space_group_name_H-M "C 2/M"
_symmetry_group_IT_number 12
_symmetry_cell_setting 'monoclinic'
loop_
_space_group_symop_operation_xyz
x,y,z
-x,y,-z
-x,-y,-z
x,-y,z
1/2+x,1/2+y,z
1/2-x,1/2+y,-z
1/2-x,1/2-y,-z
1/2+x,1/2-y,z
loop_
_atom_site_type_symbol
_atom_site_label
_atom_site_fract_x
_atom_site_fract_y
_atom_site_fract_z
Si Si1 0.674282 0.677256 0.358389
Si Si2 0.051076 0.675702 0.715706
Si Si3 0.761630 0.180880 0.144904
Si Si4 0.050300 0.168662 0.629573
Si Si5 0.094615 0.819088 0.149120
Si Si6 0.401863 0.170392 0.498301
Si Si7 0.666267 0.320639 0.929296
Si Si8 0.801658 0.669104 0.722620
O O1 0.691216 0.500000 0.357167
O O2 0.564366 0.726424 0.343641
O O3 0.786915 0.742291 0.429535
O O4 0.634274 0.750641 0.293832
O O5 0.029153 0.500000 0.718476
O O6 0.127198 0.751719 0.785273
O O7 0.102807 0.705258 0.686318
O O8 0.642883 0.249356 0.119751
O O9 0.783768 0.229013 0.100678
O O10 0.757869 0.000000 0.149200
O O11 0.170672 0.156884 0.650093
O O12 0.942018 0.224240 0.556259
O O13 0.019619 0.000000 0.637075
O O14 0.180180 0.763340 0.223279
O O15 0.964568 0.765258 0.110840
O O16 0.102976 0.000000 0.147764
O O17 0.500000 0.165213 0.500000
O O18 0.377544 0.000000 0.507236
O O19 0.669796 0.500000 0.934700
O O20 0.750000 0.250000 0.000000
O O21 0.852238 0.500000 0.751461
#
# Coordination Sequence:
#
# PCOD8107978 Si02
#       8
#     8   8   8   8   8   8   8   8
#     4  11  23  39  61  86 121 163 208 267 328 390
#     4  12  25  41  63  91 124 162 209 262 322 386
#     4  11  23  43  69 100 135 174 220 271 327 388
#     4  11  23  38  60  87 120 157 201 258 317 375
#     4  11  23  41  68 101 134 177 223 271 328 388
#     4  10  21  38  59  84 114 157 209 258 319 388
#     4  10  25  46  69  99 138 179 219 263 319 382
#     4  11  22  37  61  93 124 160 208 262 318 380
#
# _framework density 21.663402999999999
#
# number of rings (size 3 to 8) (size 9 to 14) (size 15 to 20)
#    0.000    1.125    2.500    3.750    0.000    6.250 
#    0.000    2.500    0.000    0.000    0.000    0.000 
#    0.000    0.000    0.000    0.000    0.000    0.000 
#
# Total GULP energy -396445.385657 kJ/mol
# GULP energy per Si atom -12388.918302 kJ/mol
# Density = 2.161410 g / cm^3
# Si number density = 21.663403 Si / 1000 Ang^3
#
#
#
# Elastic Constant Matrix: (Units=GPa)
#
#
# Indices 1 2 3 4 5 6 
#
# 1 102.5076 41.2708 66.2135 0.0000 4.3309 0.0000
# 2 41.2708 96.6534 51.7663 0.0000 -6.9624 0.0000
# 3 66.2135 51.7663 128.2841 0.0000 -7.4135 0.0000
# 4 0.0000 0.0000 0.0000 38.5933 0.0000 -2.8396
# 5 4.3309 -6.9624 -7.4135 0.0000 36.3075 0.0000
# 6 0.0000 0.0000 0.0000 -2.8396 0.0000 35.0910
#
#
#
# Elastic Compliance Matrix: (Units=1/GPa)
#
#
# Indices 1 2 3 4 5 6 
#
# 1 0.015796 -0.003241 -0.007074 0.000000 -0.003950 0.000000
# 2 -0.003241 0.013941 -0.003821 0.000000 0.002280 0.000000
# 3 -0.007074 -0.003821 0.013150 0.000000 0.002796 0.000000
# 4 0.000000 0.000000 0.000000 0.026066 0.000000 0.002109
# 5 -0.003950 0.002280 0.002796 0.000000 0.029022 0.000000
# 6 0.000000 0.000000 0.000000 0.002109 0.000000 0.028668
#
#
# Mechanical properties :
#
#
# Convention : Reuss Voigt Hill
#
# Bulk Modulus (GPa) = 68.41994 71.77181 70.09588
# Shear Modulus (GPa) = 31.29187 33.21133 32.25160
#
# Velocity S-wave (km/s) = 3.80473 3.91968 3.86263
# Velocity P-wave (km/s) = 7.13814 7.32718 7.23328
#
# Compressibility (1/GPa) = 0.01461562
#
# Stress axis : x y z
#
# Youngs Moduli (GPa) = 63.30617 71.73185 76.04742
#
# Poissons Ratio (x) = 0.23248 0.53793
# Poissons Ratio (y) = 0.20517 0.29057
# Poissons Ratio (z) = 0.44781 0.27408
#
# Static dielectric constant tensor:
#      x y z
#    x 4.241250 0.000000 0.099710 
#    y 0.000000 3.926140 0.000000 
#    z 0.099710 0.000000 3.772300 
# 
# 
# High freq. dielectric constant tensor:
#      x y z
#    x 1.866090 0.000000 0.004360 
#    y 0.000000 1.852100 0.000000 
#    z 0.004360 0.000000 1.841960 
# 
# From -- ./inp_files/378382.got.cif
#   From: 2010.06.25/outbox.cif.g09.slc.cpg/sg12_190_cif.got.tgz:378382.got - 2010.06.28 00:19:55.
