data_PCOD8107551
_publ_section_title
;
Structure prediction by ZEFSAII (Michael W. Deem and Ramdas Pophale) SiO2 
 PCOD8107551
Probable space group: C 2/M
;
_chemical_formula_sum "Si O2"
_cell_formula_units_Z 56
_cell_length_a 19.492007
_cell_length_b 8.762893
_cell_length_c 18.358018
_cell_angle_alpha 90.000000
_cell_angle_beta 114.917075
_cell_angle_gamma 90.000000
_cell_volume 2843.793907
_symmetry_space_group_name_H-M "C 2/M"
_symmetry_group_IT_number 12
_symmetry_cell_setting 'monoclinic'
loop_
_space_group_symop_operation_xyz
x,y,z
-x,y,-z
-x,-y,-z
x,-y,z
1/2+x,1/2+y,z
1/2-x,1/2+y,-z
1/2-x,1/2-y,-z
1/2+x,1/2-y,z
loop_
_atom_site_type_symbol
_atom_site_label
_atom_site_fract_x
_atom_site_fract_y
_atom_site_fract_z
Si Si1 0.616947 0.820382 0.181694
Si Si2 0.183987 0.321325 0.516635
Si Si3 0.909751 0.677915 0.273024
Si Si4 0.233673 0.676211 0.698775
Si Si5 0.972909 0.179800 0.566193
Si Si6 0.041675 0.821280 0.851459
Si Si7 0.584935 0.832470 0.011180
O O1 0.691468 0.777179 0.259469
O O2 0.545146 0.732195 0.182540
O O3 0.631320 0.774760 0.103002
O O4 0.600457 0.000000 0.181247
O O5 0.183942 0.500000 0.504656
O O6 0.250000 0.250000 0.500000
O O7 0.193428 0.277345 0.605495
O O8 0.106658 0.255209 0.450379
O O9 0.929642 0.500000 0.289618
O O10 0.824867 0.711206 0.262569
O O11 0.915107 0.731518 0.192527
O O12 0.968255 0.774573 0.346044
O O13 0.258365 0.500000 0.709267
O O14 0.000000 0.241585 0.500000
O O15 0.962583 0.000000 0.560971
O O16 0.043840 0.000000 0.836783
O O17 0.088965 0.785952 0.946380
O O18 0.613828 0.000000 0.998357
O O19 0.500000 0.848702 0.000000
#
# Coordination Sequence:
#
# PCOD8107551 Si02
#       7
#     8   8   8   8   8   8   8
#     4  10  21  37  61  88 118 156 194 237 291 348
#     4  11  24  42  62  87 119 155 197 244 294 346
#     4  11  23  41  62  84 116 157 197 240 291 344
#     4  10  23  41  60  84 117 154 195 242 291 347
#     4  11  23  40  63  89 117 152 195 241 290 347
#     4  11  22  36  59  90 120 151 194 243 288 343
#     4   8  16  34  57  84 116 151 193 237 286 344
#
# _framework density 19.692001999999999
#
# number of rings (size 3 to 8) (size 9 to 14) (size 15 to 20)
#    0.000    1.714    1.429    3.857    2.000    6.000 
#    0.000    0.714    0.000    0.000    0.000    0.000 
#    0.000    0.000    0.000    0.000    0.000    0.000 
#
# Total GULP energy -347265.763444 kJ/mol
# GULP energy per Si atom -12402.348694 kJ/mol
# Density = 1.964718 g / cm^3
# Si number density = 19.692002 Si / 1000 Ang^3
#
#
#
# Elastic Constant Matrix: (Units=GPa)
#
#
# Indices 1 2 3 4 5 6 
#
# 1 79.4557 32.6363 9.0771 0.0000 -14.3881 0.0000
# 2 32.6363 71.9603 20.0994 0.0000 -3.7630 0.0000
# 3 9.0771 20.0994 50.3855 0.0000 -12.6552 0.0000
# 4 0.0000 0.0000 0.0000 32.4184 0.0000 0.7584
# 5 -14.3881 -3.7630 -12.6552 0.0000 32.6048 0.0000
# 6 0.0000 0.0000 0.0000 0.7584 0.0000 30.5082
#
#
#
# Elastic Compliance Matrix: (Units=1/GPa)
#
#
# Indices 1 2 3 4 5 6 
#
# 1 0.016899 -0.007815 0.001905 0.000000 0.007295 0.000000
# 2 -0.007815 0.019267 -0.007297 0.000000 -0.004057 0.000000
# 3 0.001905 -0.007297 0.024835 0.000000 0.009638 0.000000
# 4 0.000000 0.000000 0.000000 0.030865 0.000000 -0.000767
# 5 0.007295 -0.004057 0.009638 0.000000 0.037162 0.000000
# 6 0.000000 0.000000 0.000000 -0.000767 0.000000 0.032797
#
#
# Mechanical properties :
#
#
# Convention : Reuss Voigt Hill
#
# Bulk Modulus (GPa) = 28.91168 36.15856 32.53512
# Shear Modulus (GPa) = 25.02910 28.43887 26.73399
#
# Velocity S-wave (km/s) = 3.56902 3.80436 3.68857
# Velocity P-wave (km/s) = 5.63007 6.13999 5.89055
#
# Compressibility (1/GPa) = 0.03458810
#
# Stress axis : x y z
#
# Youngs Moduli (GPa) = 59.17539 51.90273 40.26511
#
# Poissons Ratio (x) = 0.40562 -0.07672
# Poissons Ratio (y) = 0.46245 0.29381
# Poissons Ratio (z) = -0.11275 0.37873
#
# Static dielectric constant tensor:
#      x y z
#    x 3.460240 0.000000 -0.098150 
#    y 0.000000 3.582330 0.000000 
#    z -0.098150 0.000000 3.992740 
# 
# 
# High freq. dielectric constant tensor:
#      x y z
#    x 1.753920 0.000000 -0.005890 
#    y 0.000000 1.772880 0.000000 
#    z -0.005890 0.000000 1.775300 
# 
# From -- ./inp_files/275531.got.cif
#   From: 2010.06.25/outbox.cif.g09.slc.cpg/sg12_138_cif.got.tgz:275531.got - 2010.06.28 00:19:55.
