data_PCOD8107710
_publ_section_title
;
Structure prediction by ZEFSAII (Michael W. Deem and Ramdas Pophale) SiO2 
 PCOD8107710
Probable space group: C 2/M
;
_chemical_formula_sum "Si O2"
_cell_formula_units_Z 52
_cell_length_a 17.029792
_cell_length_b 26.321310
_cell_length_c 11.649924
_cell_angle_alpha 90.000000
_cell_angle_beta 152.916467
_cell_angle_gamma 90.000000
_cell_volume 2377.536156
_symmetry_space_group_name_H-M "C 2/M"
_symmetry_group_IT_number 12
_symmetry_cell_setting 'monoclinic'
loop_
_space_group_symop_operation_xyz
x,y,z
-x,y,-z
-x,-y,-z
x,-y,z
1/2+x,1/2+y,z
1/2-x,1/2+y,-z
1/2-x,1/2-y,-z
1/2+x,1/2-y,z
loop_
_atom_site_type_symbol
_atom_site_label
_atom_site_fract_x
_atom_site_fract_y
_atom_site_fract_z
Si Si1 0.282786 0.317131 0.976571
Si Si2 0.376264 0.916422 0.173811
Si Si3 0.917447 0.393386 0.774927
Si Si4 0.141777 0.000000 0.912807
Si Si5 0.808037 0.220503 0.251568
Si Si6 0.649422 0.000000 0.582845
Si Si7 0.245468 0.000000 0.530942
Si Si8 0.806276 0.199862 0.502178
O O1 0.215645 0.303126 0.018658
O O2 0.488719 0.309969 0.230549
O O3 0.201859 0.372439 0.845363
O O4 0.195303 0.281388 0.767785
O O5 0.436593 0.894223 0.131623
O O6 0.528037 0.949815 0.430180
O O7 0.209835 0.951363 0.931875
O O8 0.840693 0.449349 0.695943
O O9 0.776721 0.351279 0.553024
O O10 0.000000 0.374725 0.000000
O O11 0.938692 0.000000 0.650089
O O12 0.219916 0.000000 0.142724
O O13 0.729319 0.206433 0.272715
O O14 0.000000 0.199033 0.500000
O O15 0.766526 0.000000 0.622293
O O16 0.750000 0.250000 0.500000
#
# Coordination Sequence:
#
# PCOD8107710 Si02
#       8
#     8   8   8   4   8   4   4   8
#     4  10  21  40  61  89 121 158 222 255 311 381
#     4  10  21  37  64  92 122 167 209 250 315 382
#     4  11  24  42  67  90 131 169 211 269 322 378
#     4  11  21  41  65  92 135 160 201 265 312 385
#     4   9  21  38  62  85 119 164 207 267 311 367
#     4   9  21  40  62  97 127 165 200 255 325 379
#     4  10  22  43  68  99 124 165 216 262 322 382
#     4  11  25  40  61  92 128 169 215 263 330 375
#
# _framework density 21.871382000000001
#
# number of rings (size 3 to 8) (size 9 to 14) (size 15 to 20)
#    0.000    1.846    0.000    3.692    8.615    1.231 
#    2.769    3.077    0.000    0.000    0.000    0.000 
#    0.000    0.000    0.000    0.000    0.000    0.000 
#
# Total GULP energy -322186.130952 kJ/mol
# GULP energy per Si atom -12391.774267 kJ/mol
# Density = 2.182160 g / cm^3
# Si number density = 21.871382 Si / 1000 Ang^3
#
#
#
# Elastic Constant Matrix: (Units=GPa)
#
#
# Indices 1 2 3 4 5 6 
#
# 1 110.6106 33.5581 24.4166 0.0000 12.7275 0.0000
# 2 33.5581 155.6497 18.3340 0.0000 19.9785 0.0000
# 3 24.4166 18.3340 46.7908 0.0000 8.0945 0.0000
# 4 0.0000 0.0000 0.0000 18.5390 0.0000 -2.7629
# 5 12.7275 19.9785 8.0945 0.0000 35.4171 0.0000
# 6 0.0000 0.0000 0.0000 -2.7629 0.0000 -7.6848
#
#
#
# Elastic Compliance Matrix: (Units=1/GPa)
#
#
# Indices 1 2 3 4 5 6 
#
# 1 0.010759 -0.001519 -0.004683 0.000000 -0.001939 0.000000
# 2 -0.001519 0.007349 -0.001524 0.000000 -0.003251 0.000000
# 3 -0.004683 -0.001524 0.024960 0.000000 -0.003162 0.000000
# 4 0.000000 0.000000 0.000000 0.051197 0.000000 -0.018407
# 5 -0.001939 -0.003251 -0.003162 0.000000 0.031488 0.000000
# 6 0.000000 0.000000 0.000000 -0.018407 0.000000 -0.123510
#
#
# Mechanical properties :
#
#
# Convention : Reuss Voigt Hill
#
# Bulk Modulus (GPa) = 36.21397 51.74093 43.97745
# Shear Modulus (GPa) = 185.86254 25.03710 105.44982
#
# Velocity S-wave (km/s) = 9.22845 3.38707 6.95113
# Velocity P-wave (km/s) = 11.40816 6.24537 9.19648
#
# Compressibility (1/GPa) = 0.02761365
#
# Stress axis : x y z
#
# Youngs Moduli (GPa) = 92.94958 136.07175 40.06428
#
# Poissons Ratio (x) = 0.20669 0.18764
# Poissons Ratio (y) = 0.14119 0.06108
# Poissons Ratio (z) = 0.43532 0.20744
#
# Static dielectric constant tensor:
#      x y z
#    x 4.122830 0.000000 0.060930 
#    y 0.000000 4.175570 0.000000 
#    z 0.060930 0.000000 3.589390 
# 
# 
# High freq. dielectric constant tensor:
#      x y z
#    x 1.866380 0.000000 0.009610 
#    y 0.000000 1.875160 0.000000 
#    z 0.009610 0.000000 1.837440 
# 
# From -- ./inp_files/160857.got.cif
#   From: 2010.06.25/outbox.cif.g09.slc.cpg/sg12_81_cif.got.tgz:160857.got - 2010.06.28 00:19:55.
