data_PCOD8107815
_publ_section_title
;
Structure prediction by ZEFSAII (Michael W. Deem and Ramdas Pophale) SiO2 
 PCOD8107815
Probable space group: C 2/M
;
_chemical_formula_sum "Si O2"
_cell_formula_units_Z 32
_cell_length_a 12.245616
_cell_length_b 16.530060
_cell_length_c 12.567241
_cell_angle_alpha 90.000000
_cell_angle_beta 33.712377
_cell_angle_gamma 90.000000
_cell_volume 1411.909554
_symmetry_space_group_name_H-M "C 2/M"
_symmetry_group_IT_number 12
_symmetry_cell_setting 'monoclinic'
loop_
_space_group_symop_operation_xyz
x,y,z
-x,y,-z
-x,-y,-z
x,-y,z
1/2+x,1/2+y,z
1/2-x,1/2+y,-z
1/2-x,1/2-y,-z
1/2+x,1/2-y,z
loop_
_atom_site_type_symbol
_atom_site_label
_atom_site_fract_x
_atom_site_fract_y
_atom_site_fract_z
Si Si1 0.536127 0.500000 0.841550
Si Si2 0.310906 0.313104 0.591338
Si Si3 0.717103 0.000000 0.938183
Si Si4 0.306486 0.129935 0.538219
Si Si5 0.389865 0.000000 0.748304
Si Si6 0.000000 0.634131 0.000000
O O1 0.437034 0.500000 0.804393
O O2 0.663078 0.582639 0.736732
O O3 0.351881 0.500000 0.080207
O O4 0.500000 0.349078 0.500000
O O5 0.356399 0.219837 0.531996
O O6 0.284534 0.366687 0.506815
O O7 0.107442 0.312464 0.823619
O O8 0.676036 0.920081 0.903796
O O9 0.569205 0.000000 0.159016
O O10 0.512609 0.081126 0.376255
#
# Coordination Sequence:
#
# PCOD8107815 Si02
#       6
#     4   8   4   8   4   4
#     4   9  18  35  59  79 103 149 188 230 276 321
#     4  11  23  36  56  84 119 152 182 229 283 337
#     4   9  18  33  58  85 111 140 180 234 290 332
#     4  10  21  38  57  84 114 148 193 228 274 340
#     4   9  18  38  59  83 110 146 191 235 278 327
#     4  11  20  36  54  89 120 140 180 235 290 344
#
# _framework density 22.664339999999999
#
# number of rings (size 3 to 8) (size 9 to 14) (size 15 to 20)
#    0.750    1.250    2.500    1.500    0.000    2.000 
#    0.000   12.500    0.000    4.500    0.000    0.000 
#    0.000    0.000    0.000    0.000    0.000    0.000 
#
# Total GULP energy -198328.975745 kJ/mol
# GULP energy per Si atom -12395.560984 kJ/mol
# Density = 2.261276 g / cm^3
# Si number density = 22.664340 Si / 1000 Ang^3
#
#
#
# Elastic Constant Matrix: (Units=GPa)
#
#
# Indices 1 2 3 4 5 6 
#
# 1 93.2625 12.9022 43.9678 0.0187 -18.1524 -0.0091
# 2 12.9022 101.7578 52.9229 0.1418 -5.6050 -0.0863
# 3 43.9678 52.9229 145.9616 0.1351 2.1559 -0.0827
# 4 0.0187 0.1418 0.1351 92.8712 -0.0457 -37.4045
# 5 -18.1524 -5.6050 2.1559 -0.0457 42.2800 0.0253
# 6 -0.0091 -0.0863 -0.0827 -37.4045 0.0253 30.3049
#
#
#
# Elastic Compliance Matrix: (Units=1/GPa)
#
#
# Indices 1 2 3 4 5 6 
#
# 1 0.014040 0.001012 -0.004691 0.000002 0.006401 -0.000008
# 2 0.001012 0.012327 -0.004809 -0.000005 0.002314 0.000014
# 3 -0.004691 -0.004809 0.010054 -0.000004 -0.003164 0.000010
# 4 0.000002 -0.000005 -0.000004 0.021412 0.000008 0.026428
# 5 0.006401 0.002314 -0.003164 0.000008 0.026868 -0.000013
# 6 -0.000008 0.000014 0.000010 0.026428 -0.000013 0.065617
#
#
# Mechanical properties :
#
#
# Convention : Reuss Voigt Hill
#
# Bulk Modulus (GPa) = 51.42252 62.28529 56.85390
# Shear Modulus (GPa) = 28.77286 48.50382 38.63834
#
# Velocity S-wave (km/s) = 3.56690 4.63113 4.13341
# Velocity P-wave (km/s) = 6.30093 7.49252 6.92241
#
# Compressibility (1/GPa) = 0.01944673
#
# Stress axis : x y z
#
# Youngs Moduli (GPa) = 71.22673 81.12050 99.45953
#
# Poissons Ratio (x) = -0.08209 0.46653
# Poissons Ratio (y) = -0.07208 0.47827
# Poissons Ratio (z) = 0.33410 0.39008
#
# Static dielectric constant tensor:
#      x y z
#    x 4.466630 -0.000030 0.197040 
#    y -0.000030 3.692600 0.000030 
#    z 0.197040 0.000030 3.981470 
# 
# 
# High freq. dielectric constant tensor:
#      x y z
#    x 1.925970 0.000000 0.004800 
#    y 0.000000 1.878930 0.000010 
#    z 0.004800 0.000010 1.893810 
# 
# From -- ./inp_files/215754.got.cif
#   From: 2010.06.25/outbox.cif.g09.slc.cpg/sg12_108_cif.got.tgz:215754.got - 2010.06.28 00:19:55.
