data_PCOD8107112
_publ_section_title
;
Structure prediction by ZEFSAII (Michael W. Deem and Ramdas Pophale) SiO2 
 PCOD8107112
Probable space group: C 2/M
;
_chemical_formula_sum "Si O2"
_cell_formula_units_Z 64
_cell_length_a 19.122952
_cell_length_b 8.652342
_cell_length_c 31.412888
_cell_angle_alpha 90.000000
_cell_angle_beta 139.559182
_cell_angle_gamma 90.000000
_cell_volume 3371.437484
_symmetry_space_group_name_H-M "C 2/M"
_symmetry_group_IT_number 12
_symmetry_cell_setting 'monoclinic'
loop_
_space_group_symop_operation_xyz
x,y,z
-x,y,-z
-x,-y,-z
x,-y,z
1/2+x,1/2+y,z
1/2-x,1/2+y,-z
1/2-x,1/2-y,-z
1/2+x,1/2-y,z
loop_
_atom_site_type_symbol
_atom_site_label
_atom_site_fract_x
_atom_site_fract_y
_atom_site_fract_z
Si Si1 0.916979 0.682656 0.570272
Si Si2 0.009504 0.318761 0.169292
Si Si3 0.375574 0.318652 0.941357
Si Si4 0.221456 0.817630 0.941069
Si Si5 0.725442 0.683092 0.424882
Si Si6 0.162295 0.183120 0.172260
Si Si7 0.677676 0.322749 0.308365
Si Si8 0.652656 0.823341 0.682904
O O1 0.925680 0.500000 0.572334
O O2 0.842980 0.738882 0.496301
O O3 0.866508 0.734308 0.591049
O O4 0.036380 0.758960 0.624168
O O5 0.992313 0.500000 0.157200
O O6 0.895648 0.241067 0.126918
O O7 0.058654 0.256913 0.147587
O O8 0.086109 0.281651 0.244713
O O9 0.363226 0.500000 0.944379
O O10 0.309208 0.230099 0.946525
O O11 0.331831 0.272329 0.874440
O O12 0.500000 0.268133 0.000000
O O13 0.220902 0.000000 0.944393
O O14 0.250000 0.750000 0.000000
O O15 0.714066 0.500000 0.424372
O O16 0.706020 0.739289 0.368089
O O17 0.271535 0.249008 0.244868
O O18 0.151029 0.000000 0.174044
O O19 0.637252 0.500000 0.289781
O O20 0.789202 0.306965 0.335115
O O21 0.633310 0.000000 0.686693
#
# Coordination Sequence:
#
# PCOD8107112 Si02
#       8
#     8   8   8   8   8   8   8   8
#     4   9  17  30  48  71 100 135 174 216 267 325
#     4  11  22  37  58  83 111 143 182 224 269 322
#     4  10  21  37  58  84 114 148 184 222 267 319
#     4  12  25  41  61  85 115 148 184 224 266 314
#     4   9  18  31  48  71 100 135 174 218 267 320
#     4   9  18  35  57  80 110 144 178 221 274 328
#     4   9  18  34  53  74 102 136 176 221 270 319
#     4   8  15  29  50  74  99 132 173 216 261 312
#
# _framework density 18.983000000000001
#
# number of rings (size 3 to 8) (size 9 to 14) (size 15 to 20)
#    0.000    2.375    0.000    3.750    0.000    3.750 
#    0.000    6.250    0.000    0.000    0.000    7.000 
#    0.000    0.000    0.000    0.000    0.000    0.000 
#
# Total GULP energy -396724.040801 kJ/mol
# GULP energy per Si atom -12397.626275 kJ/mol
# Density = 1.893979 g / cm^3
# Si number density = 18.983000 Si / 1000 Ang^3
#
#
#
# Elastic Constant Matrix: (Units=GPa)
#
#
# Indices 1 2 3 4 5 6 
#
# 1 124.7060 43.9577 84.1508 0.0000 0.1550 -0.0002
# 2 43.9577 68.7660 34.9599 0.0001 1.9571 -0.0008
# 3 84.1508 34.9599 121.0438 0.0000 0.4839 0.0000
# 4 0.0000 0.0001 0.0000 20.9021 0.0000 -0.7760
# 5 0.1550 1.9571 0.4839 0.0000 44.2467 0.0000
# 6 -0.0002 -0.0008 0.0000 -0.7760 0.0000 31.0755
#
#
#
# Elastic Compliance Matrix: (Units=1/GPa)
#
#
# Indices 1 2 3 4 5 6 
#
# 1 0.016777 -0.005629 -0.010039 0.000000 0.000300 0.000000
# 2 -0.005629 0.018955 -0.001558 0.000000 -0.000802 0.000000
# 3 -0.010039 -0.001558 0.015691 0.000000 -0.000068 0.000000
# 4 0.000000 0.000000 0.000000 0.047886 0.000000 0.001196
# 5 0.000300 -0.000802 -0.000068 0.000000 0.022636 0.000000
# 6 0.000000 0.000000 0.000000 0.001196 0.000000 0.032210
#
#
# Mechanical properties :
#
#
# Convention : Reuss Voigt Hill
#
# Bulk Modulus (GPa) = 58.92423 71.18362 65.05392
# Shear Modulus (GPa) = 25.73821 29.34136 27.53979
#
# Velocity S-wave (km/s) = 3.68619 3.93576 3.81302
# Velocity P-wave (km/s) = 7.01607 7.63110 7.33004
#
# Compressibility (1/GPa) = 0.01697095
#
# Stress axis : x y z
#
# Youngs Moduli (GPa) = 59.60591 52.75546 63.73176
#
# Poissons Ratio (x) = 0.29698 0.63979
# Poissons Ratio (y) = 0.33554 0.09929
# Poissons Ratio (z) = 0.59837 0.08219
#
# Static dielectric constant tensor:
#      x y z
#    x 3.444160 0.000000 -0.014230 
#    y 0.000000 3.261440 0.000000 
#    z -0.014230 0.000000 3.705520 
# 
# 
# High freq. dielectric constant tensor:
#      x y z
#    x 1.736510 0.000000 0.001270 
#    y 0.000000 1.715070 0.000000 
#    z 0.001270 0.000000 1.754400 
# 
# From -- ./inp_files/378327.got.cif
#   From: 2010.06.25/outbox.cif.g09.slc.cpg/sg12_190_cif.got.tgz:378327.got - 2010.06.28 00:19:55.
