data_PCOD8107536
_publ_section_title
;
Structure prediction by ZEFSAII (Michael W. Deem and Ramdas Pophale) SiO2 
 PCOD8107536
Probable space group: C 2/M
;
_chemical_formula_sum "Si O2"
_cell_formula_units_Z 56
_cell_length_a 15.278437
_cell_length_b 17.494888
_cell_length_c 19.763721
_cell_angle_alpha 90.000000
_cell_angle_beta 30.705553
_cell_angle_gamma 90.000000
_cell_volume 2697.503062
_symmetry_space_group_name_H-M "C 2/M"
_symmetry_group_IT_number 12
_symmetry_cell_setting 'monoclinic'
loop_
_space_group_symop_operation_xyz
x,y,z
-x,y,-z
-x,-y,-z
x,-y,z
1/2+x,1/2+y,z
1/2-x,1/2+y,-z
1/2-x,1/2-y,-z
1/2+x,1/2-y,z
loop_
_atom_site_type_symbol
_atom_site_label
_atom_site_fract_x
_atom_site_fract_y
_atom_site_fract_z
Si Si1 0.770952 0.412001 0.248146
Si Si2 0.002243 0.417048 0.777829
Si Si3 0.816825 0.763815 0.639933
Si Si4 0.363526 0.415599 0.930164
Si Si5 0.736731 0.329935 0.131296
Si Si6 0.979376 0.206120 0.086711
Si Si7 0.105220 0.734839 0.650362
O O1 0.702483 0.500000 0.289466
O O2 0.643049 0.354458 0.374076
O O3 0.803746 0.376692 0.152095
O O4 0.942846 0.406840 0.179610
O O5 0.066522 0.500000 0.709249
O O6 0.071257 0.355839 0.678276
O O7 0.798171 0.412426 0.912473
O O8 0.718943 0.735238 0.773526
O O9 0.679037 0.741727 0.674283
O O10 0.000000 0.724724 0.500000
O O11 0.446429 0.500000 0.874995
O O12 0.312113 0.395505 0.888546
O O13 0.496940 0.354656 0.869869
O O14 0.564721 0.280086 0.258310
O O15 0.886189 0.276727 0.000238
O O16 0.000000 0.166226 0.000000
O O17 0.250000 0.750000 0.500000
#
# Coordination Sequence:
#
# PCOD8107536 Si02
#       7
#     8   8   8   8   8   8   8
#     4  10  21  37  60  95 132 165 198 247 320 385
#     4   9  20  39  61  90 130 164 204 258 314 376
#     4  11  23  41  60  91 126 164 212 258 310 370
#     4  11  23  39  62  91 125 161 204 265 320 369
#     4  12  21  38  62  96 128 159 209 256 314 377
#     4  12  24  41  68  92 124 165 214 262 310 371
#     4  11  22  37  63  91 125 171 213 255 309 375
#
# _framework density 20.759938999999999
#
# number of rings (size 3 to 8) (size 9 to 14) (size 15 to 20)
#    0.000    1.143    4.286    3.429    0.000    0.571 
#    0.000    7.857    0.000    0.429    0.000    0.000 
#    0.000    0.143    0.000    0.000    0.000    0.000 
#
# Total GULP energy -346887.536507 kJ/mol
# GULP energy per Si atom -12388.840590 kJ/mol
# Density = 2.071269 g / cm^3
# Si number density = 20.759939 Si / 1000 Ang^3
#
#
#
# Elastic Constant Matrix: (Units=GPa)
#
#
# Indices 1 2 3 4 5 6 
#
# 1 61.4856 46.0755 15.3273 -0.0021 5.1855 0.0004
# 2 46.0755 136.7095 53.6287 0.0026 6.7608 -0.0041
# 3 15.3273 53.6287 132.9028 -0.0332 -0.1345 -0.0018
# 4 -0.0021 0.0026 -0.0332 20.5466 0.0021 4.9005
# 5 5.1855 6.7608 -0.1345 0.0021 28.3832 0.0026
# 6 0.0004 -0.0041 -0.0018 4.9005 0.0026 28.4947
#
#
#
# Elastic Compliance Matrix: (Units=1/GPa)
#
#
# Indices 1 2 3 4 5 6 
#
# 1 0.021929 -0.007470 0.000483 0.000005 -0.002225 -0.000002
# 2 -0.007470 0.011361 -0.003724 -0.000009 -0.001359 0.000003
# 3 0.000483 -0.003724 0.008972 0.000016 0.000841 -0.000003
# 4 0.000005 -0.000009 0.000016 0.050752 -0.000002 -0.008728
# 5 -0.002225 -0.001359 0.000841 -0.000002 0.035966 -0.000003
# 6 -0.000002 0.000003 -0.000003 -0.008728 -0.000003 0.036595
#
#
# Mechanical properties :
#
#
# Convention : Reuss Voigt Hill
#
# Bulk Modulus (GPa) = 47.98594 62.35122 55.16858
# Shear Modulus (GPa) = 25.78061 29.88932 27.83497
#
# Velocity S-wave (km/s) = 3.52780 3.79853 3.66567
# Velocity P-wave (km/s) = 6.30545 7.02411 6.67446
#
# Compressibility (1/GPa) = 0.02083944
#
# Stress axis : x y z
#
# Youngs Moduli (GPa) = 45.60126 88.02335 111.45588
#
# Poissons Ratio (x) = 0.65757 -0.05385
# Poissons Ratio (y) = 0.34066 0.41507
# Poissons Ratio (z) = -0.02203 0.32780
#
# Static dielectric constant tensor:
#      x y z
#    x 4.021820 0.000000 -0.000820 
#    y 0.000000 3.881960 0.000020 
#    z -0.000820 0.000020 3.598480 
# 
# 
# High freq. dielectric constant tensor:
#      x y z
#    x 1.812970 0.000000 0.001540 
#    y 0.000000 1.805020 0.000000 
#    z 0.001540 0.000000 1.796240 
# 
# From -- ./inp_files/311658.got.cif
#   From: 2010.06.25/outbox.cif.g09.slc.cpg/sg12_156_cif.got.tgz:311658.got - 2010.06.28 00:19:55.
