data_PCOD8107289
_publ_section_title
;
Structure prediction by ZEFSAII (Michael W. Deem and Ramdas Pophale) SiO2 
 PCOD8107289
Probable space group: C 2/M
;
_chemical_formula_sum "Si O2"
_cell_formula_units_Z 48
_cell_length_a 20.028676
_cell_length_b 13.968304
_cell_length_c 17.766681
_cell_angle_alpha 90.000000
_cell_angle_beta 149.932386
_cell_angle_gamma 90.000000
_cell_volume 2490.340351
_symmetry_space_group_name_H-M "C 2/M"
_symmetry_group_IT_number 12
_symmetry_cell_setting 'monoclinic'
loop_
_space_group_symop_operation_xyz
x,y,z
-x,y,-z
-x,-y,-z
x,-y,z
1/2+x,1/2+y,z
1/2-x,1/2+y,-z
1/2-x,1/2-y,-z
1/2+x,1/2-y,z
loop_
_atom_site_type_symbol
_atom_site_label
_atom_site_fract_x
_atom_site_fract_y
_atom_site_fract_z
Si Si1 0.525128 0.897052 0.937296
Si Si2 0.087359 0.698298 0.687033
Si Si3 0.671670 0.607168 0.809605
Si Si4 0.456055 0.693755 0.870275
Si Si5 0.674474 0.113313 0.615691
Si Si6 0.191792 0.108886 0.004872
O O1 0.443203 0.804364 0.828578
O O2 0.485329 0.000000 0.859522
O O3 0.500000 0.909249 0.000000
O O4 0.679134 0.875038 0.072803
O O5 0.078368 0.814427 0.677156
O O6 0.158575 0.660972 0.681454
O O7 0.178049 0.670128 0.846599
O O8 0.940258 0.653653 0.551525
O O9 0.622968 0.500000 0.740653
O O10 0.661759 0.623809 0.888613
O O11 0.316407 0.641511 0.720133
O O12 0.500000 0.691074 0.000000
O O13 0.562829 0.637915 0.925751
O O14 0.660674 0.000000 0.609737
O O15 0.226466 0.000000 0.058085
#
# Coordination Sequence:
#
# PCOD8107289 Si02
#       6
#     8   8   8   8   8   8
#     4   9  17  32  54  81 109 142 186 234 275 321
#     4  11  20  37  57  82 115 153 186 229 287 339
#     4  10  21  37  59  86 114 149 193 237 278 334
#     4  11  20  34  57  85 113 148 190 236 284 332
#     4  11  23  37  56  86 120 146 184 238 291 338
#     4  11  21  34  59  86 115 150 191 234 281 338
#
# _framework density 19.274474000000001
#
# number of rings (size 3 to 8) (size 9 to 14) (size 15 to 20)
#    0.000    1.500    3.333    4.000    0.000    0.667 
#    0.000    3.333    0.000    0.000    0.000    0.000 
#    0.000    0.000    0.000    0.000    0.000    0.000 
#
# Total GULP energy -297516.057592 kJ/mol
# GULP energy per Si atom -12396.502400 kJ/mol
# Density = 1.923060 g / cm^3
# Si number density = 19.274474 Si / 1000 Ang^3
#
#
#
# Elastic Constant Matrix: (Units=GPa)
#
#
# Indices 1 2 3 4 5 6 
#
# 1 87.4105 29.8954 32.8177 0.0000 12.0089 0.0001
# 2 29.8954 177.4727 56.0656 0.0000 3.7010 0.0000
# 3 32.8177 56.0656 72.4110 -0.0001 22.3461 -0.0001
# 4 0.0000 0.0000 -0.0001 32.0142 0.0000 5.0301
# 5 12.0089 3.7010 22.3461 0.0000 20.2430 0.0000
# 6 0.0001 0.0000 -0.0001 5.0301 0.0000 27.6713
#
#
#
# Elastic Compliance Matrix: (Units=1/GPa)
#
#
# Indices 1 2 3 4 5 6 
#
# 1 0.013902 -0.000741 -0.004890 0.000000 -0.002714 0.000000
# 2 -0.000741 0.008359 -0.008797 0.000000 0.008622 0.000000
# 3 -0.004890 -0.008797 0.032526 0.000000 -0.031396 0.000000
# 4 0.000000 0.000000 0.000000 0.032154 0.000000 -0.005845
# 5 -0.002714 0.008622 -0.031396 0.000000 0.084092 0.000000
# 6 0.000000 0.000000 0.000000 -0.005845 0.000000 0.037201
#
#
# Mechanical properties :
#
#
# Convention : Reuss Voigt Hill
#
# Bulk Modulus (GPa) = 38.56129 63.87241 51.21685
# Shear Modulus (GPa) = 20.34726 30.55342 25.45034
#
# Velocity S-wave (km/s) = 3.25261 3.98575 3.63770
# Velocity P-wave (km/s) = 5.84430 7.37508 6.65386
#
# Compressibility (1/GPa) = 0.02593275
#
# Stress axis : x y z
#
# Youngs Moduli (GPa) = 71.93084 119.63610 30.74429
#
# Poissons Ratio (x) = 0.08859 0.15033
# Poissons Ratio (y) = 0.05327 0.27046
# Poissons Ratio (z) = 0.35172 1.05244
#
# Static dielectric constant tensor:
#      x y z
#    x 3.397650 0.000000 0.114770 
#    y 0.000000 4.213030 0.000000 
#    z 0.114770 0.000000 3.270020 
# 
# 
# High freq. dielectric constant tensor:
#      x y z
#    x 1.752480 0.000000 0.010870 
#    y 0.000000 1.784190 0.000000 
#    z 0.010870 0.000000 1.701900 
# 
# From -- ./inp_files/225439.got.cif
#   From: 2010.06.25/outbox.cif.g09.slc.cpg/sg12_113_cif.got.tgz:225439.got - 2010.06.28 00:19:55.
