data_PCOD8107554
_publ_section_title
;
Structure prediction by ZEFSAII (Michael W. Deem and Ramdas Pophale) SiO2 
 PCOD8107554
Probable space group: C 2/M
;
_chemical_formula_sum "Si O2"
_cell_formula_units_Z 64
_cell_length_a 10.550277
_cell_length_b 21.071279
_cell_length_c 16.380902
_cell_angle_alpha 90.000000
_cell_angle_beta 121.531020
_cell_angle_gamma 90.000000
_cell_volume 3103.946197
_symmetry_space_group_name_H-M "C 2/M"
_symmetry_group_IT_number 12
_symmetry_cell_setting 'monoclinic'
loop_
_space_group_symop_operation_xyz
x,y,z
-x,y,-z
-x,-y,-z
x,-y,z
1/2+x,1/2+y,z
1/2-x,1/2+y,-z
1/2-x,1/2-y,-z
1/2+x,1/2-y,z
loop_
_atom_site_type_symbol
_atom_site_label
_atom_site_fract_x
_atom_site_fract_y
_atom_site_fract_z
Si Si1 0.924811 0.867440 0.220486
Si Si2 0.447035 0.571665 0.897678
Si Si3 0.906745 0.395434 0.727450
Si Si4 0.063705 0.744232 0.313215
Si Si5 0.333351 0.930037 0.288880
Si Si6 0.386992 0.072411 0.892903
Si Si7 0.371695 0.806916 0.394869
Si Si8 0.567344 0.426824 0.606742
O O1 0.748118 0.877912 0.158304
O O2 0.990500 0.892354 0.330002
O O3 0.985634 0.902252 0.162479
O O4 0.971852 0.794193 0.227532
O O5 0.504518 0.500000 0.922769
O O6 0.269490 0.577276 0.826696
O O7 0.500000 0.606334 0.000000
O O8 0.920056 0.319523 0.733117
O O9 0.970008 0.422913 0.833911
O O10 0.742156 0.419745 0.657594
O O11 0.997713 0.424767 0.683366
O O12 0.233718 0.768119 0.388218
O O13 0.959742 0.734310 0.357234
O O14 0.298219 0.872810 0.338965
O O15 0.307520 0.000000 0.320592
O O16 0.332311 0.000000 0.890696
O O17 0.500000 0.095244 0.000000
O O18 0.500000 0.826372 0.500000
O O19 0.500000 0.397251 0.500000
O O20 0.520658 0.500000 0.599050
#
# Coordination Sequence:
#
# PCOD8107554 Si02
#       8
#     8   8   8   8   8   8   8   8
#     4  11  21  39  61  90 126 156 205 257 304 362
#     4  10  21  37  61  88 118 160 203 249 307 363
#     4  10  21  39  59  84 124 160 202 247 304 370
#     4  11  24  41  63  86 125 166 213 256 306 367
#     4  10  21  38  60  87 124 158 196 251 313 373
#     4  10  21  37  64  95 121 153 199 257 319 372
#     4  11  23  41  64  90 121 163 212 258 310 373
#     4  10  21  38  64  94 122 157 201 258 325 375
#
# _framework density 20.618914
#
# number of rings (size 3 to 8) (size 9 to 14) (size 15 to 20)
#    0.000    1.625    1.250    4.875    1.750    4.250 
#    0.000    1.250    0.000    0.000    0.000    0.000 
#    0.000    0.000    0.000    0.000    0.000    0.000 
#
# Total GULP energy -396586.738207 kJ/mol
# GULP energy per Si atom -12393.335569 kJ/mol
# Density = 2.057198 g / cm^3
# Si number density = 20.618914 Si / 1000 Ang^3
#
#
#
# Elastic Constant Matrix: (Units=GPa)
#
#
# Indices 1 2 3 4 5 6 
#
# 1 77.6388 19.7279 20.5852 0.0000 -7.6361 0.0000
# 2 19.7279 97.2779 41.1914 0.0000 5.3277 0.0000
# 3 20.5852 41.1914 137.1305 0.0000 -11.3248 0.0000
# 4 0.0000 0.0000 0.0000 18.3408 0.0000 8.0817
# 5 -7.6361 5.3277 -11.3248 0.0000 30.7057 0.0000
# 6 0.0000 0.0000 0.0000 8.0817 0.0000 25.5343
#
#
#
# Elastic Compliance Matrix: (Units=1/GPa)
#
#
# Indices 1 2 3 4 5 6 
#
# 1 0.014179 -0.002632 -0.001041 0.000000 0.003599 0.000000
# 2 -0.002632 0.012633 -0.003749 0.000000 -0.004229 0.000000
# 3 -0.001041 -0.003749 0.008877 0.000000 0.003666 0.000000
# 4 0.000000 0.000000 0.000000 0.063360 0.000000 -0.020054
# 5 0.003599 -0.004229 0.003666 0.000000 0.035548 0.000000
# 6 0.000000 0.000000 0.000000 -0.020054 0.000000 0.045510
#
#
# Mechanical properties :
#
#
# Convention : Reuss Voigt Hill
#
# Bulk Modulus (GPa) = 47.97061 52.78401 50.37731
# Shear Modulus (GPa) = 24.76498 30.28566 27.52532
#
# Velocity S-wave (km/s) = 3.46942 3.83669 3.65767
# Velocity P-wave (km/s) = 6.27415 6.72921 6.50566
#
# Compressibility (1/GPa) = 0.02084610
#
# Stress axis : x y z
#
# Youngs Moduli (GPa) = 70.52782 79.16050 112.64653
#
# Poissons Ratio (x) = 0.20834 0.11723
# Poissons Ratio (y) = 0.18562 0.42228
# Poissons Ratio (z) = 0.07339 0.29675
#
# Static dielectric constant tensor:
#      x y z
#    x 3.915970 0.000000 -0.030680 
#    y 0.000000 3.801080 0.000000 
#    z -0.030680 0.000000 3.896560 
# 
# 
# High freq. dielectric constant tensor:
#      x y z
#    x 1.813540 0.000000 0.003540 
#    y 0.000000 1.803060 0.000000 
#    z 0.003540 0.000000 1.797900 
# 
# From -- ./inp_files/265084.got.cif
#   From: 2010.06.25/outbox.cif.g09.slc.cpg/sg12_133_cif.got.tgz:265084.got - 2010.06.28 00:19:55.
