data_PCOD8107138
_publ_section_title
;
Structure prediction by ZEFSAII (Michael W. Deem and Ramdas Pophale) SiO2 
 PCOD8107138
Probable space group: C 2/M
;
_chemical_formula_sum "Si O2"
_cell_formula_units_Z 56
_cell_length_a 13.503594
_cell_length_b 11.559410
_cell_length_c 19.787633
_cell_angle_alpha 90.000000
_cell_angle_beta 64.709332
_cell_angle_gamma 90.000000
_cell_volume 2792.675037
_symmetry_space_group_name_H-M "C 2/M"
_symmetry_group_IT_number 12
_symmetry_cell_setting 'monoclinic'
loop_
_space_group_symop_operation_xyz
x,y,z
-x,y,-z
-x,-y,-z
x,-y,z
1/2+x,1/2+y,z
1/2-x,1/2+y,-z
1/2-x,1/2-y,-z
1/2+x,1/2-y,z
loop_
_atom_site_type_symbol
_atom_site_label
_atom_site_fract_x
_atom_site_fract_y
_atom_site_fract_z
Si Si1 0.928234 0.175959 0.454528
Si Si2 0.780060 0.634979 0.945752
Si Si3 0.424859 0.631202 0.080467
Si Si4 0.287575 0.131174 0.296315
Si Si5 0.501734 0.221283 0.179604
Si Si6 0.693885 0.125349 0.562698
Si Si7 0.077498 0.868548 0.284659
O O1 0.811503 0.111522 0.492486
O O2 0.896249 0.310666 0.456786
O O3 0.000000 0.152748 0.500000
O O4 0.990590 0.131005 0.370664
O O5 0.768692 0.500000 0.980384
O O6 0.701598 0.641749 0.903791
O O7 0.903250 0.648240 0.883870
O O8 0.750000 0.750000 0.000000
O O9 0.463059 0.500000 0.079224
O O10 0.445201 0.690655 0.145187
O O11 0.500000 0.688641 0.000000
O O12 0.406266 0.133201 0.227514
O O13 0.291305 0.191311 0.369262
O O14 0.192361 0.186625 0.277690
O O15 0.249573 0.000000 0.318956
O O16 0.542398 0.290103 0.232697
O O17 0.641924 0.000000 0.590084
O O18 0.091971 0.000000 0.254135
#
# Coordination Sequence:
#
# PCOD8107138 Si02
#       7
#     8   8   8   8   8   8   8
#     4  11  21  37  61  85 115 158 206 249 298 362
#     4  11  24  43  68  97 127 165 211 255 311 376
#     4  10  21  40  64  88 121 163 200 244 308 372
#     4  10  21  38  58  84 121 157 192 247 312 358
#     4  12  22  40  63  90 122 160 202 254 302 369
#     4  10  21  37  58  84 117 158 200 249 303 357
#     4  11  23  37  59  92 121 156 205 253 303 362
#
# _framework density 20.052458000000001
#
# number of rings (size 3 to 8) (size 9 to 14) (size 15 to 20)
#    0.000    1.286    4.286    2.143    0.000    1.429 
#    0.000    2.143    0.000    0.857    0.000    0.000 
#    0.000    0.000    0.000    0.000    0.000    0.000 
#
# Total GULP energy -346932.082907 kJ/mol
# GULP energy per Si atom -12390.431532 kJ/mol
# Density = 2.000682 g / cm^3
# Si number density = 20.052458 Si / 1000 Ang^3
#
#
#
# Elastic Constant Matrix: (Units=GPa)
#
#
# Indices 1 2 3 4 5 6 
#
# 1 82.6166 30.4336 24.0658 0.0000 -11.4178 0.0000
# 2 30.4336 90.8275 26.0958 0.0000 11.6011 0.0000
# 3 24.0658 26.0958 87.8453 0.0000 -7.8116 0.0000
# 4 0.0000 0.0000 0.0000 554.2351 0.0000 -530.9467
# 5 -11.4178 11.6011 -7.8116 0.0000 43.0063 0.0000
# 6 0.0000 0.0000 0.0000 -530.9467 0.0000 545.9061
#
#
#
# Elastic Compliance Matrix: (Units=1/GPa)
#
#
# Indices 1 2 3 4 5 6 
#
# 1 0.015349 -0.005150 -0.002225 0.000000 0.005060 0.000000
# 2 -0.005150 0.014468 -0.003411 0.000000 -0.005889 0.000000
# 3 -0.002225 -0.003411 0.013250 0.000000 0.002736 0.000000
# 4 0.000000 0.000000 0.000000 0.026429 0.000000 0.025704
# 5 0.005060 -0.005889 0.002736 0.000000 0.026681 0.000000
# 6 0.000000 0.000000 0.000000 0.025704 0.000000 0.026832
#
#
# Mechanical properties :
#
#
# Convention : Reuss Voigt Hill
#
# Bulk Modulus (GPa) = 46.52310 46.94218 46.73264
# Shear Modulus (GPa) = 32.95024 240.67578 136.81301
#
# Velocity S-wave (km/s) = 4.05804 10.96739 8.26896
# Velocity P-wave (km/s) = 6.72369 13.55871 10.70156
#
# Compressibility (1/GPa) = 0.02149470
#
# Stress axis : x y z
#
# Youngs Moduli (GPa) = 65.15245 69.11987 75.47331
#
# Poissons Ratio (x) = 0.35596 0.16793
# Poissons Ratio (y) = 0.33553 0.25742
# Poissons Ratio (z) = 0.14497 0.23575
#
# Static dielectric constant tensor:
#      x y z
#    x 3.815190 0.000000 -0.010980 
#    y 0.000000 3.684460 0.000000 
#    z -0.010980 0.000000 3.682710 
# 
# 
# High freq. dielectric constant tensor:
#      x y z
#    x 1.794290 0.000000 -0.004990 
#    y 0.000000 1.771830 0.000000 
#    z -0.004990 0.000000 1.780720 
# 
# From -- ./inp_files/268842.got.cif
#   From: 2010.06.25/outbox.cif.g09.slc.cpg/sg12_135_cif.got.tgz:268842.got - 2010.06.28 00:19:55.
