data_PCOD8107963
_publ_section_title
;
Structure prediction by ZEFSAII (Michael W. Deem and Ramdas Pophale) SiO2 
 PCOD8107963
Probable space group: C 2/M
;
_chemical_formula_sum "Si O2"
_cell_formula_units_Z 56
_cell_length_a 19.357405
_cell_length_b 9.388782
_cell_length_c 29.110145
_cell_angle_alpha 90.000000
_cell_angle_beta 146.832115
_cell_angle_gamma 90.000000
_cell_volume 2894.428382
_symmetry_space_group_name_H-M "C 2/M"
_symmetry_group_IT_number 12
_symmetry_cell_setting 'monoclinic'
loop_
_space_group_symop_operation_xyz
x,y,z
-x,y,-z
-x,-y,-z
x,-y,z
1/2+x,1/2+y,z
1/2-x,1/2+y,-z
1/2-x,1/2-y,-z
1/2+x,1/2-y,z
loop_
_atom_site_type_symbol
_atom_site_label
_atom_site_fract_x
_atom_site_fract_y
_atom_site_fract_z
Si Si1 0.482083 0.665868 0.853925
Si Si2 0.307115 0.666546 0.438746
Si Si3 0.018804 0.336012 0.298593
Si Si4 0.846794 0.166057 0.133754
Si Si5 0.279677 0.161886 0.335573
Si Si6 0.058574 0.332150 0.983641
Si Si7 0.493476 0.161781 0.603977
O O1 0.474645 0.500000 0.862864
O O2 0.604851 0.700306 0.890990
O O3 0.359490 0.712623 0.756589
O O4 0.482398 0.754654 0.900933
O O5 0.335750 0.500000 0.451218
O O6 0.163835 0.701341 0.371161
O O7 0.338046 0.738430 0.407292
O O8 0.393259 0.732241 0.526144
O O9 0.990313 0.500000 0.271998
O O10 0.985754 0.294547 0.332028
O O11 0.932310 0.243730 0.217982
O O12 0.859240 0.000000 0.151008
O O13 0.703539 0.218228 0.060531
O O14 0.369594 0.176508 0.342048
O O15 0.276025 0.000000 0.352115
O O16 0.045251 0.500000 0.968564
O O17 0.000000 0.286235 0.000000
O O18 0.441517 0.000000 0.570959
#
# Coordination Sequence:
#
# PCOD8107963 Si02
#       7
#     8   8   8   8   8   8   8
#     4  10  21  38  61  87 112 149 197 233 271 331
#     4  11  22  37  57  85 115 147 191 238 286 338
#     4  10  22  38  58  85 114 148 192 238 283 333
#     4  10  21  39  61  84 114 152 191 230 278 337
#     4  10  21  38  59  83 114 151 192 236 280 332
#     4  10  23  40  59  88 122 150 180 227 287 342
#     4  10  22  38  57  81 114 154 192 235 285 333
#
# _framework density 19.347515999999999
#
# number of rings (size 3 to 8) (size 9 to 14) (size 15 to 20)
#    0.000    1.857    1.429    1.714    2.000    5.429 
#    0.000    0.000    0.000    0.000    0.000    0.000 
#    0.000    0.000    0.000    0.000    0.000    0.000 
#
# Total GULP energy -347331.586177 kJ/mol
# GULP energy per Si atom -12404.699506 kJ/mol
# Density = 1.930348 g / cm^3
# Si number density = 19.347516 Si / 1000 Ang^3
#
#
#
# Elastic Constant Matrix: (Units=GPa)
#
#
# Indices 1 2 3 4 5 6 
#
# 1 89.2782 36.6602 42.3230 0.0000 -29.4213 0.0000
# 2 36.6602 60.3417 27.0011 -0.0001 1.8129 0.0000
# 3 42.3230 27.0011 15.9865 0.0000 34.2054 0.0000
# 4 0.0000 -0.0001 0.0000 28.5176 0.0000 -17.0062
# 5 -29.4213 1.8129 34.2054 0.0000 -0.2599 0.0000
# 6 0.0000 0.0000 0.0000 -17.0062 0.0000 17.9466
#
#
#
# Elastic Compliance Matrix: (Units=1/GPa)
#
#
# Indices 1 2 3 4 5 6 
#
# 1 0.008518 -0.008401 0.007715 0.000000 -0.007513 0.000000
# 2 -0.008401 0.025716 -0.008634 0.000000 -0.005870 0.000000
# 3 0.007715 -0.008634 0.007269 0.000000 0.023108 0.000000
# 4 0.000000 0.000000 0.000000 0.080629 0.000000 0.076404
# 5 -0.007513 -0.005870 0.023108 0.000000 0.003129 0.000000
# 6 0.000000 0.000000 0.000000 0.076404 0.000000 0.128122
#
#
# Mechanical properties :
#
#
# Convention : Reuss Voigt Hill
#
# Bulk Modulus (GPa) = 43.74108 41.95277 42.84693
# Shear Modulus (GPa) = 17.87989 13.21567 15.54778
#
# Velocity S-wave (km/s) = 3.04327 2.61639 2.83787
# Velocity P-wave (km/s) = 5.91658 5.55502 5.73864
#
# Compressibility (1/GPa) = 0.02286180
#
# Stress axis : x y z
#
# Youngs Moduli (GPa) = 117.40261 38.88624 137.57541
#
# Poissons Ratio (x) = 0.32669 -1.06133
# Poissons Ratio (y) = 0.98632 1.18779
# Poissons Ratio (z) = -0.90571 0.33573
#
# Static dielectric constant tensor:
#      x y z
#    x 3.746040 0.000000 0.098490 
#    y 0.000000 3.497330 0.000000 
#    z 0.098490 0.000000 3.467770 
# 
# 
# High freq. dielectric constant tensor:
#      x y z
#    x 1.768320 0.000000 0.002320 
#    y 0.000000 1.747500 0.000000 
#    z 0.002320 0.000000 1.754360 
# 
# From -- ./inp_files/275699.got.cif
#   From: 2010.06.25/outbox.cif.g09.slc.cpg/sg12_138_cif.got.tgz:275699.got - 2010.06.28 00:19:55.
