data_PCOD8107321
_publ_section_title
;
Structure prediction by ZEFSAII (Michael W. Deem and Ramdas Pophale) SiO2 
 PCOD8107321
Probable space group: C 2/M
;
_chemical_formula_sum "Si O2"
_cell_formula_units_Z 56
_cell_length_a 18.922753
_cell_length_b 9.208724
_cell_length_c 25.054789
_cell_angle_alpha 90.000000
_cell_angle_beta 40.362318
_cell_angle_gamma 90.000000
_cell_volume 2827.444262
_symmetry_space_group_name_H-M "C 2/M"
_symmetry_group_IT_number 12
_symmetry_cell_setting 'monoclinic'
loop_
_space_group_symop_operation_xyz
x,y,z
-x,y,-z
-x,-y,-z
x,-y,z
1/2+x,1/2+y,z
1/2-x,1/2+y,-z
1/2-x,1/2-y,-z
1/2+x,1/2-y,z
loop_
_atom_site_type_symbol
_atom_site_label
_atom_site_fract_x
_atom_site_fract_y
_atom_site_fract_z
Si Si1 0.658339 0.834398 0.696594
Si Si2 0.904001 0.830158 0.013607
Si Si3 0.344031 0.162664 0.418762
Si Si4 0.321779 0.672957 0.844038
Si Si5 0.026626 0.169589 0.145027
Si Si6 0.081036 0.665663 0.312233
Si Si7 0.898604 0.833439 0.594024
O O1 0.625566 0.775400 0.657019
O O2 0.591079 0.741904 0.777995
O O3 0.788208 0.816770 0.624424
O O4 0.622078 0.000000 0.726262
O O5 0.937356 0.784710 0.934738
O O6 0.873739 0.000000 0.034351
O O7 0.799815 0.734779 0.087962
O O8 0.000000 0.792102 0.000000
O O9 0.250000 0.250000 0.500000
O O10 0.450730 0.168384 0.393643
O O11 0.299518 0.000000 0.436858
O O12 0.317949 0.500000 0.840300
O O13 0.382706 0.720301 0.863836
O O14 0.384937 0.740841 0.758077
O O15 0.007695 0.000000 0.160278
O O16 0.124230 0.500000 0.281682
O O17 0.124811 0.736794 0.340775
O O18 0.000000 0.776109 0.500000
O O19 0.920718 0.000000 0.598478
#
# Coordination Sequence:
#
# PCOD8107321 Si02
#       7
#     8   8   8   8   8   8   8
#     4  10  21  38  60  87 119 159 202 246 298 355
#     4  10  23  42  64  92 125 158 195 243 302 360
#     4  10  21  37  59  87 117 155 201 247 298 350
#     4  11  23  40  63  91 122 159 204 248 297 356
#     4  10  22  40  62  90 122 160 200 243 298 356
#     4  11  23  39  61  88 121 160 203 251 304 360
#     4  10  22  40  61  86 122 164 204 252 307 360
#
# _framework density 19.805871
#
# number of rings (size 3 to 8) (size 9 to 14) (size 15 to 20)
#    0.000    1.714    1.429    2.143    2.000    5.143 
#    0.000    0.000    0.000    0.000    0.000    0.000 
#    0.000    0.000    0.000    0.000    0.000    0.000 
#
# Total GULP energy -347246.251053 kJ/mol
# GULP energy per Si atom -12401.651823 kJ/mol
# Density = 1.976079 g / cm^3
# Si number density = 19.805871 Si / 1000 Ang^3
#
#
#
# Elastic Constant Matrix: (Units=GPa)
#
#
# Indices 1 2 3 4 5 6 
#
# 1 96.6353 34.4059 35.7795 -0.0001 7.6786 0.0002
# 2 34.4059 70.2063 50.1697 -0.0003 2.6967 0.0008
# 3 35.7795 50.1697 112.2360 0.0000 -1.0865 0.0002
# 4 -0.0001 -0.0003 0.0000 41.2154 0.0000 -2.7841
# 5 7.6786 2.6967 -1.0865 0.0000 34.6423 0.0001
# 6 0.0002 0.0008 0.0002 -2.7841 0.0001 24.2300
#
#
#
# Elastic Compliance Matrix: (Units=1/GPa)
#
#
# Indices 1 2 3 4 5 6 
#
# 1 0.013022 -0.004847 -0.002010 0.000000 -0.002572 0.000000
# 2 -0.004847 0.022862 -0.008684 0.000000 -0.000978 -0.000001
# 3 -0.002010 -0.008684 0.013447 0.000000 0.001543 0.000000
# 4 0.000000 0.000000 0.000000 0.024453 0.000000 0.002810
# 5 -0.002572 -0.000978 0.001543 0.000000 0.029561 0.000000
# 6 0.000000 -0.000001 0.000000 0.002810 0.000000 0.041594
#
#
# Mechanical properties :
#
#
# Convention : Reuss Voigt Hill
#
# Bulk Modulus (GPa) = 54.79212 57.75421 56.27316
# Shear Modulus (GPa) = 27.45694 30.59903 29.02798
#
# Velocity S-wave (km/s) = 3.72735 3.93485 3.83250
# Velocity P-wave (km/s) = 6.80065 7.06169 6.93240
#
# Compressibility (1/GPa) = 0.01825080
#
# Stress axis : x y z
#
# Youngs Moduli (GPa) = 76.79107 43.74066 74.36583
#
# Poissons Ratio (x) = 0.21201 0.14945
# Poissons Ratio (y) = 0.37220 0.64577
# Poissons Ratio (z) = 0.15433 0.37983
#
# Static dielectric constant tensor:
#      x y z
#    x 3.723890 0.000000 0.441730 
#    y 0.000000 3.738030 0.000010 
#    z 0.441730 0.000010 1.028220 
# 
# 
# High freq. dielectric constant tensor:
#      x y z
#    x 1.781440 0.000000 0.000300 
#    y 0.000000 1.767600 0.000000 
#    z 0.000300 0.000000 1.778350 
# 
# From -- ./inp_files/230921.got.cif
#   From: 2010.06.25/outbox.cif.g09.slc.cpg/sg12_116_cif.got.tgz:230921.got - 2010.06.28 00:19:55.
