data_PCOD8107839
_publ_section_title
;
Structure prediction by ZEFSAII (Michael W. Deem and Ramdas Pophale) SiO2 
 PCOD8107839
Probable space group: C 2/M
;
_chemical_formula_sum "Si O2"
_cell_formula_units_Z 56
_cell_length_a 17.939848
_cell_length_b 9.170755
_cell_length_c 28.884517
_cell_angle_alpha 90.000000
_cell_angle_beta 140.799399
_cell_angle_gamma 90.000000
_cell_volume 3003.528515
_symmetry_space_group_name_H-M "C 2/M"
_symmetry_group_IT_number 12
_symmetry_cell_setting 'monoclinic'
loop_
_space_group_symop_operation_xyz
x,y,z
-x,y,-z
-x,-y,-z
x,-y,z
1/2+x,1/2+y,z
1/2-x,1/2+y,-z
1/2-x,1/2-y,-z
1/2+x,1/2-y,z
loop_
_atom_site_type_symbol
_atom_site_label
_atom_site_fract_x
_atom_site_fract_y
_atom_site_fract_z
Si Si1 0.305075 0.169867 0.212551
Si Si2 0.125468 0.326665 0.935657
Si Si3 0.522642 0.334155 0.645456
Si Si4 0.353435 0.661884 0.652165
Si Si5 0.836810 0.328114 0.506711
Si Si6 0.529636 0.170520 0.791425
Si Si7 0.967008 0.832518 0.931370
O O1 0.354768 0.259060 0.280419
O O2 0.369979 0.219748 0.196589
O O3 0.168768 0.207232 0.141500
O O4 0.327668 0.000000 0.232635
O O5 0.142781 0.500000 0.944922
O O6 0.066340 0.272469 0.859459
O O7 0.043201 0.277269 0.937827
O O8 0.250000 0.250000 0.000000
O O9 0.546971 0.500000 0.641927
O O10 0.433805 0.324282 0.645475
O O11 0.465674 0.245892 0.574531
O O12 0.360522 0.500000 0.676149
O O13 0.218282 0.697087 0.571413
O O14 0.401517 0.766559 0.715525
O O15 0.843815 0.500000 0.521543
O O16 0.750000 0.250000 0.500000
O O17 0.514324 0.000000 0.784624
O O18 0.993760 0.000000 0.930368
O O19 0.000000 0.804574 0.000000
#
# Coordination Sequence:
#
# PCOD8107839 Si02
#       7
#     8   8   8   8   8   8   8
#     4   9  17  31  51  72  98 133 168 205 251 299
#     4  11  23  38  56  79 105 134 170 210 254 304
#     4   9  16  25  39  63  95 129 165 204 246 293
#     4   8  15  25  39  63  94 127 163 204 246 290
#     4   9  15  23  36  59  92 127 164 204 247 294
#     4   9  18  32  50  72  99 132 168 206 249 299
#     4  10  21  38  58  79 104 134 169 209 255 307
#
# _framework density 18.644738
#
# number of rings (size 3 to 8) (size 9 to 14) (size 15 to 20)
#    0.000    2.714    0.000    3.000    0.000    8.286 
#    0.000    2.857    0.000    0.000    0.000    1.000 
#    0.000    8.000    0.000    0.000    0.000    0.000 
#
# Total GULP energy -347077.220322 kJ/mol
# GULP energy per Si atom -12395.615012 kJ/mol
# Density = 1.860230 g / cm^3
# Si number density = 18.644738 Si / 1000 Ang^3
#
#
#
# Elastic Constant Matrix: (Units=GPa)
#
#
# Indices 1 2 3 4 5 6 
#
# 1 47.8930 30.2533 42.5349 0.0000 0.3112 -0.0001
# 2 30.2533 88.5286 76.4658 0.0001 -0.1234 -0.0002
# 3 42.5349 76.4658 189.5229 0.0000 0.8752 0.0000
# 4 0.0000 0.0001 0.0000 37.4504 0.0000 0.5334
# 5 0.3112 -0.1234 0.8752 0.0000 17.9723 0.0000
# 6 -0.0001 -0.0002 0.0000 0.5334 0.0000 18.9083
#
#
#
# Elastic Compliance Matrix: (Units=1/GPa)
#
#
# Indices 1 2 3 4 5 6 
#
# 1 0.028271 -0.006420 -0.003753 0.000000 -0.000351 0.000000
# 2 -0.006420 0.018800 -0.006147 0.000000 0.000540 0.000000
# 3 -0.003753 -0.006147 0.008600 0.000000 -0.000396 0.000000
# 4 0.000000 0.000000 0.000000 0.026713 0.000000 -0.000754
# 5 -0.000351 0.000540 -0.000396 0.000000 0.055670 0.000000
# 6 0.000000 0.000000 0.000000 -0.000754 0.000000 0.052908
#
#
# Mechanical properties :
#
#
# Convention : Reuss Voigt Hill
#
# Bulk Modulus (GPa) = 43.41863 69.38360 56.40112
# Shear Modulus (GPa) = 21.61903 26.64558 24.13231
#
# Velocity S-wave (km/s) = 3.40887 3.78447 3.60157
# Velocity P-wave (km/s) = 6.23152 7.50937 6.90009
#
# Compressibility (1/GPa) = 0.02303159
#
# Stress axis : x y z
#
# Youngs Moduli (GPa) = 35.37235 53.19284 116.27285
#
# Poissons Ratio (x) = 0.34150 0.43637
# Poissons Ratio (y) = 0.22709 0.71468
# Poissons Ratio (z) = 0.13275 0.32696
#
# Static dielectric constant tensor:
#      x y z
#    x 3.002260 0.000000 -0.067020 
#    y 0.000000 3.460510 0.000000 
#    z -0.067020 0.000000 4.099500 
# 
# 
# High freq. dielectric constant tensor:
#      x y z
#    x 1.663240 0.000000 0.000280 
#    y 0.000000 1.726390 0.000000 
#    z 0.000280 0.000000 1.750610 
# 
# From -- ./inp_files/377732.got.cif
#   From: 2010.06.25/outbox.cif.g09.slc.cpg/sg12_189_cif.got.tgz:377732.got - 2010.06.28 00:19:55.
