data_PCOD8107183
_publ_section_title
;
Structure prediction by ZEFSAII (Michael W. Deem and Ramdas Pophale) SiO2 
 PCOD8107183
Probable space group: C 2/M
;
_chemical_formula_sum "Si O2"
_cell_formula_units_Z 64
_cell_length_a 28.729963
_cell_length_b 8.646871
_cell_length_c 14.181028
_cell_angle_alpha 90.000000
_cell_angle_beta 114.414875
_cell_angle_gamma 90.000000
_cell_volume 3207.880209
_symmetry_space_group_name_H-M "C 2/M"
_symmetry_group_IT_number 12
_symmetry_cell_setting 'monoclinic'
loop_
_space_group_symop_operation_xyz
x,y,z
-x,y,-z
-x,-y,-z
x,-y,z
1/2+x,1/2+y,z
1/2-x,1/2+y,-z
1/2-x,1/2-y,-z
1/2+x,1/2-y,z
loop_
_atom_site_type_symbol
_atom_site_label
_atom_site_fract_x
_atom_site_fract_y
_atom_site_fract_z
Si Si1 0.533042 0.684420 0.441520
Si Si2 0.216122 0.681237 0.053650
Si Si3 0.607313 0.322877 0.976908
Si Si4 0.254328 0.317192 0.288157
Si Si5 0.922821 0.319744 0.854395
Si Si6 0.146324 0.181361 0.528137
Si Si7 0.495028 0.678732 0.206885
Si Si8 0.331684 0.681594 0.662356
O O1 0.500000 0.752967 0.500000
O O2 0.532762 0.500000 0.445103
O O3 0.590372 0.754141 0.499754
O O4 0.508819 0.740617 0.322443
O O5 0.221858 0.500000 0.053754
O O6 0.157003 0.724493 0.992320
O O7 0.237886 0.742375 0.171529
O O8 0.250000 0.750000 0.000000
O O9 0.624646 0.500000 0.999775
O O10 0.581282 0.272818 0.052156
O O11 0.565640 0.300358 0.859267
O O12 0.244770 0.500000 0.292421
O O13 0.313777 0.273418 0.355961
O O14 0.222508 0.225006 0.339260
O O15 0.922083 0.500000 0.877722
O O16 0.875361 0.278738 0.749381
O O17 0.975306 0.277017 0.846649
O O18 0.168804 0.234748 0.446605
O O19 0.138391 0.000000 0.518919
O O20 0.511517 0.500000 0.209318
O O21 0.342881 0.500000 0.683573
#
# Coordination Sequence:
#
# PCOD8107183 Si02
#       8
#     8   8   8   8   8   8   8   8
#     4   9  17  32  57  86 114 146 190 238 284 337
#     4  11  24  41  61  85 119 158 202 247 289 342
#     4  11  23  39  62  89 119 153 193 243 295 350
#     4  10  21  37  58  86 117 150 190 238 292 347
#     4  12  23  36  58  87 120 157 193 237 292 353
#     4   9  18  33  56  86 118 149 185 236 291 345
#     4  10  21  38  60  89 119 152 194 239 290 350
#     4  11  20  34  59  86 117 152 187 235 292 352
#
# _framework density 19.950869999999998
#
# number of rings (size 3 to 8) (size 9 to 14) (size 15 to 20)
#    0.000    1.625    2.500    3.000    0.000    4.000 
#    0.000    4.375    0.000    0.375    0.000    0.000 
#    0.000    0.000    0.000    0.000    0.000    0.000 
#
# Total GULP energy -396858.073921 kJ/mol
# GULP energy per Si atom -12401.814810 kJ/mol
# Density = 1.990546 g / cm^3
# Si number density = 19.950870 Si / 1000 Ang^3
#
#
#
# Elastic Constant Matrix: (Units=GPa)
#
#
# Indices 1 2 3 4 5 6 
#
# 1 151.9201 16.6465 77.2663 0.0000 -5.2617 0.0000
# 2 16.6465 30.6686 15.0652 0.0000 1.9874 0.0000
# 3 77.2663 15.0652 101.5774 0.0000 16.9978 0.0000
# 4 0.0000 0.0000 0.0000 16.4504 0.0000 1.5149
# 5 -5.2617 1.9874 16.9978 0.0000 36.1435 0.0000
# 6 0.0000 0.0000 0.0000 1.5149 0.0000 31.1031
#
#
#
# Elastic Compliance Matrix: (Units=1/GPa)
#
#
# Indices 1 2 3 4 5 6 
#
# 1 0.012141 -0.002091 -0.010029 0.000000 0.006599 0.000000
# 2 -0.002091 0.035540 -0.003585 0.000000 -0.000573 0.000000
# 3 -0.010029 -0.003585 0.019773 0.000000 -0.010562 0.000000
# 4 0.000000 0.000000 0.000000 0.061063 0.000000 -0.002974
# 5 0.006599 -0.000573 -0.010562 0.000000 0.033627 0.000000
# 6 0.000000 0.000000 0.000000 -0.002974 0.000000 0.032296
#
#
# Mechanical properties :
#
#
# Convention : Reuss Voigt Hill
#
# Bulk Modulus (GPa) = 27.74432 55.79135 41.76784
# Shear Modulus (GPa) = 21.02049 28.41862 24.71955
#
# Velocity S-wave (km/s) = 3.24946 3.77826 3.52379
# Velocity P-wave (km/s) = 5.29294 6.85993 6.12674
#
# Compressibility (1/GPa) = 0.03604341
#
# Stress axis : x y z
#
# Youngs Moduli (GPa) = 82.36544 28.13766 50.57459
#
# Poissons Ratio (x) = 0.05883 0.50723
# Poissons Ratio (y) = 0.17222 0.18129
# Poissons Ratio (z) = 0.82608 0.10086
#
# Static dielectric constant tensor:
#      x y z
#    x 3.744480 0.000000 -0.339580 
#    y 0.000000 3.438520 0.000000 
#    z -0.339580 0.000000 1.416800 
# 
# 
# High freq. dielectric constant tensor:
#      x y z
#    x 1.782040 0.000000 0.009950 
#    y 0.000000 1.751590 0.000000 
#    z 0.009950 0.000000 1.788760 
# 
# From -- ./inp_files/248978.got.cif
#   From: 2010.06.25/outbox.cif.g09.slc.cpg/sg12_125_cif.got.tgz:248978.got - 2010.06.28 00:19:55.
