data_PCOD8107461
_publ_section_title
;
Structure prediction by ZEFSAII (Michael W. Deem and Ramdas Pophale) SiO2 
 PCOD8107461
Probable space group: C 2/M
;
_chemical_formula_sum "Si O2"
_cell_formula_units_Z 48
_cell_length_a 29.002902
_cell_length_b 9.201770
_cell_length_c 14.579074
_cell_angle_alpha 90.000000
_cell_angle_beta 38.596415
_cell_angle_gamma 90.000000
_cell_volume 2427.222055
_symmetry_space_group_name_H-M "C 2/M"
_symmetry_group_IT_number 12
_symmetry_cell_setting 'monoclinic'
loop_
_space_group_symop_operation_xyz
x,y,z
-x,y,-z
-x,-y,-z
x,-y,z
1/2+x,1/2+y,z
1/2-x,1/2+y,-z
1/2-x,1/2-y,-z
1/2+x,1/2-y,z
loop_
_atom_site_type_symbol
_atom_site_label
_atom_site_fract_x
_atom_site_fract_y
_atom_site_fract_z
Si Si1 0.771991 0.328572 0.873210
Si Si2 0.569530 0.830979 0.456335
Si Si3 0.798759 0.666454 0.174056
Si Si4 0.535404 0.833027 0.039426
Si Si5 0.710639 0.664498 0.482577
Si Si6 0.450530 0.667846 0.321974
O O1 0.764900 0.500000 0.897519
O O2 0.855008 0.284512 0.712848
O O3 0.710844 0.274089 0.896039
O O4 0.750000 0.250000 0.000000
O O5 0.500000 0.796512 0.500000
O O6 0.558600 0.740180 0.565259
O O7 0.572550 0.000000 0.478419
O O8 0.787034 0.500000 0.159384
O O9 0.736963 0.717627 0.342180
O O10 0.876867 0.684363 0.103115
O O11 0.512824 0.744436 0.164764
O O12 0.510849 0.000000 0.091027
O O13 0.500000 0.771252 0.000000
O O14 0.735939 0.500000 0.456605
O O15 0.750000 0.750000 0.500000
O O16 0.623247 0.684961 0.623629
O O17 0.471184 0.500000 0.305346
#
# Coordination Sequence:
#
# PCOD8107461 Si02
#       6
#     8   8   8   8   8   8
#     4  11  24  41  64  92 122 157 198 250 304 360
#     4  10  23  43  65  89 118 159 206 245 294 364
#     4  10  21  40  62  86 121 160 202 248 294 356
#     4  10  22  40  63  88 120 166 210 246 292 357
#     4  10  21  37  60  88 118 155 198 245 297 353
#     4  11  23  39  61  91 125 157 195 253 309 353
#
# _framework density 19.775694000000001
#
# number of rings (size 3 to 8) (size 9 to 14) (size 15 to 20)
#    0.000    1.667    1.667    2.000    2.333    5.333 
#    0.000    0.000    0.000    0.000    0.000    0.000 
#    0.000    0.000    0.000    0.000    0.000    0.000 
#
# Total GULP energy -297659.308867 kJ/mol
# GULP energy per Si atom -12402.471203 kJ/mol
# Density = 1.973068 g / cm^3
# Si number density = 19.775694 Si / 1000 Ang^3
#
#
#
# Elastic Constant Matrix: (Units=GPa)
#
#
# Indices 1 2 3 4 5 6 
#
# 1 106.1459 47.4394 24.7184 0.0000 6.6739 0.0000
# 2 47.4394 85.1856 41.2964 -0.0003 14.5179 0.0000
# 3 24.7184 41.2964 87.8937 -0.0001 6.8303 0.0000
# 4 0.0000 -0.0003 -0.0001 32.7266 0.0000 5.1309
# 5 6.6739 14.5179 6.8303 0.0000 32.1227 0.0000
# 6 0.0000 0.0000 0.0000 5.1309 0.0000 39.0668
#
#
#
# Elastic Compliance Matrix: (Units=1/GPa)
#
#
# Indices 1 2 3 4 5 6 
#
# 1 0.012560 -0.006943 -0.000317 0.000000 0.000596 0.000000
# 2 -0.006943 0.020036 -0.006985 0.000000 -0.006128 0.000000
# 3 -0.000317 -0.006985 0.014741 0.000000 0.000088 0.000000
# 4 0.000000 0.000000 0.000000 0.031199 0.000000 -0.004098
# 5 0.000596 -0.006128 0.000088 0.000000 0.033757 0.000000
# 6 0.000000 0.000000 0.000000 -0.004098 0.000000 0.026135
#
#
# Mechanical properties :
#
#
# Convention : Reuss Voigt Hill
#
# Bulk Modulus (GPa) = 53.05377 56.23706 54.64542
# Shear Modulus (GPa) = 28.86823 31.83463 30.35143
#
# Velocity S-wave (km/s) = 3.82486 4.01657 3.92188
# Velocity P-wave (km/s) = 6.81117 7.07175 6.94268
#
# Compressibility (1/GPa) = 0.01884880
#
# Stress axis : x y z
#
# Youngs Moduli (GPa) = 79.61691 49.91017 67.83570
#
# Poissons Ratio (x) = 0.34651 0.02148
# Poissons Ratio (y) = 0.55276 0.47384
# Poissons Ratio (z) = 0.02521 0.34863
#
# Static dielectric constant tensor:
#      x y z
#    x 3.581880 0.000000 -0.038760 
#    y 0.000000 3.578590 0.000000 
#    z -0.038760 0.000000 3.850090 
# 
# 
# High freq. dielectric constant tensor:
#      x y z
#    x 1.778320 0.000000 -0.001100 
#    y 0.000000 1.768120 0.000000 
#    z -0.001100 0.000000 1.780410 
# 
# From -- ./inp_files/244623.got.cif
#   From: 2010.06.25/outbox.cif.g09.slc.cpg/sg12_123_cif.got.tgz:244623.got - 2010.06.28 00:19:55.
