data_PCOD8107201
_publ_section_title
;
Structure prediction by ZEFSAII (Michael W. Deem and Ramdas Pophale) SiO2 
 PCOD8107201
Probable space group: C 2/M
;
_chemical_formula_sum "Si O2"
_cell_formula_units_Z 64
_cell_length_a 31.941791
_cell_length_b 8.895681
_cell_length_c 15.026375
_cell_angle_alpha 90.000000
_cell_angle_beta 132.543736
_cell_angle_gamma 90.000000
_cell_volume 3145.716374
_symmetry_space_group_name_H-M "C 2/M"
_symmetry_group_IT_number 12
_symmetry_cell_setting 'monoclinic'
loop_
_space_group_symop_operation_xyz
x,y,z
-x,y,-z
-x,-y,-z
x,-y,z
1/2+x,1/2+y,z
1/2-x,1/2+y,-z
1/2-x,1/2-y,-z
1/2+x,1/2-y,z
loop_
_atom_site_type_symbol
_atom_site_label
_atom_site_fract_x
_atom_site_fract_y
_atom_site_fract_z
Si Si1 0.544145 0.671227 0.926247
Si Si2 0.375816 0.826290 0.485118
Si Si3 0.222592 0.323145 0.046048
Si Si4 0.751023 0.174157 0.737281
Si Si5 0.360075 0.826646 0.820806
Si Si6 0.063872 0.821858 0.593441
Si Si7 0.608976 0.328263 0.847242
Si Si8 0.427752 0.826847 0.744624
O O1 0.547743 0.500000 0.964831
O O2 0.555317 0.682042 0.836253
O O3 0.481462 0.732221 0.855098
O O4 0.590309 0.766957 0.044949
O O5 0.308318 0.802096 0.399013
O O6 0.399720 0.735954 0.436261
O O7 0.405075 0.766915 0.617376
O O8 0.389961 0.000000 0.489315
O O9 0.229834 0.500000 0.051415
O O10 0.254657 0.262635 0.178527
O O11 0.250000 0.250000 0.000000
O O12 0.156884 0.278008 0.957550
O O13 0.801708 0.237111 0.749775
O O14 0.763248 0.000000 0.775260
O O15 0.377453 0.806312 0.743273
O O16 0.349411 0.000000 0.830151
O O17 0.092043 0.766948 0.725989
O O18 0.000000 0.756720 0.500000
O O19 0.062493 0.000000 0.587291
O O20 0.631349 0.500000 0.873673
O O21 0.446524 0.000000 0.765003
#
# Coordination Sequence:
#
# PCOD8107201 Si02
#       8
#     8   8   8   8   8   8   8   8
#     4  11  22  38  63  93 125 159 202 254 308 368
#     4  10  23  42  62  87 121 163 206 253 305 361
#     4  12  24  38  59  86 118 157 200 245 301 360
#     4  11  23  41  63  89 123 159 204 257 306 363
#     4  11  23  40  63  91 122 161 204 252 313 371
#     4  10  21  38  60  88 122 160 202 249 301 358
#     4  10  21  37  58  86 121 157 195 245 303 360
#     4  10  23  42  62  87 123 162 204 254 310 371
#
# _framework density 20.345126
#
# number of rings (size 3 to 8) (size 9 to 14) (size 15 to 20)
#    0.000    1.375    1.250    4.125    0.000    8.750 
#    0.000    0.000    0.000    0.000    0.000    0.000 
#    0.000    0.000    0.000    0.000    0.000    0.000 
#
# Total GULP energy -396964.992346 kJ/mol
# GULP energy per Si atom -12405.156011 kJ/mol
# Density = 2.029882 g / cm^3
# Si number density = 20.345126 Si / 1000 Ang^3
#
#
#
# Elastic Constant Matrix: (Units=GPa)
#
#
# Indices 1 2 3 4 5 6 
#
# 1 90.5954 29.0280 18.8367 0.0000 3.5912 0.0000
# 2 29.0280 93.0419 23.3217 0.0000 4.3500 0.0000
# 3 18.8367 23.3217 83.0792 0.0000 2.3867 0.0000
# 4 0.0000 0.0000 0.0000 18.4136 0.0000 -0.7776
# 5 3.5912 4.3500 2.3867 0.0000 38.9253 0.0000
# 6 0.0000 0.0000 0.0000 -0.7776 0.0000 36.5418
#
#
#
# Elastic Compliance Matrix: (Units=1/GPa)
#
#
# Indices 1 2 3 4 5 6 
#
# 1 0.012547 -0.003416 -0.001867 0.000000 -0.000661 0.000000
# 2 -0.003416 0.012538 -0.002719 0.000000 -0.000919 0.000000
# 3 -0.001867 -0.002719 0.013233 0.000000 -0.000335 0.000000
# 4 0.000000 0.000000 0.000000 0.054356 0.000000 0.001157
# 5 -0.000661 -0.000919 -0.000335 0.000000 0.025875 0.000000
# 6 0.000000 0.000000 0.000000 0.001157 0.000000 0.027391
#
#
# Mechanical properties :
#
#
# Convention : Reuss Voigt Hill
#
# Bulk Modulus (GPa) = 44.81288 45.45436 45.13362
# Shear Modulus (GPa) = 29.51939 31.81148 30.66544
#
# Velocity S-wave (km/s) = 3.81324 3.95852 3.88656
# Velocity P-wave (km/s) = 6.43909 6.57900 6.50942
#
# Compressibility (1/GPa) = 0.02231501
#
# Stress axis : x y z
#
# Youngs Moduli (GPa) = 79.70104 79.75792 75.56955
#
# Poissons Ratio (x) = 0.27242 0.14109
# Poissons Ratio (y) = 0.27223 0.20546
# Poissons Ratio (z) = 0.14880 0.21684
#
# Static dielectric constant tensor:
#      x y z
#    x 3.837770 0.000000 0.002730 
#    y 0.000000 3.739330 0.000000 
#    z 0.002730 0.000000 3.770670 
# 
# 
# High freq. dielectric constant tensor:
#      x y z
#    x 1.807580 0.000000 -0.002020 
#    y 0.000000 1.794240 0.000000 
#    z -0.002020 0.000000 1.797440 
# 
# From -- ./inp_files/250065.got.cif
#   From: 2010.06.25/outbox.cif.g09.slc.cpg/sg12_126_cif.got.tgz:250065.got - 2010.06.28 00:19:55.
