data_PCOD8107368
_publ_section_title
;
Structure prediction by ZEFSAII (Michael W. Deem and Ramdas Pophale) SiO2 
 PCOD8107368
Probable space group: C 2/M
;
_chemical_formula_sum "Si O2"
_cell_formula_units_Z 64
_cell_length_a 7.952169
_cell_length_b 23.408955
_cell_length_c 14.861109
_cell_angle_alpha 90.000000
_cell_angle_beta 86.207524
_cell_angle_gamma 90.000000
_cell_volume 2760.366641
_symmetry_space_group_name_H-M "C 2/M"
_symmetry_group_IT_number 12
_symmetry_cell_setting 'monoclinic'
loop_
_space_group_symop_operation_xyz
x,y,z
-x,y,-z
-x,-y,-z
x,-y,z
1/2+x,1/2+y,z
1/2-x,1/2+y,-z
1/2-x,1/2-y,-z
1/2+x,1/2-y,z
loop_
_atom_site_type_symbol
_atom_site_label
_atom_site_fract_x
_atom_site_fract_y
_atom_site_fract_z
Si Si1 0.189319 0.567589 0.398837
Si Si2 0.258318 0.248823 0.209243
Si Si3 0.797038 0.137239 0.101673
Si Si4 0.134882 0.621776 0.596454
Si Si5 0.672008 0.636836 0.108991
Si Si6 0.008473 0.260674 0.653922
Si Si7 0.499510 0.634146 0.396960
Si Si8 0.514399 0.063506 0.892539
O O1 0.209496 0.500000 0.403888
O O2 0.167620 0.596033 0.497282
O O3 0.358942 0.595574 0.349559
O O4 0.016892 0.585056 0.350834
O O5 0.260857 0.301511 0.143368
O O6 0.173736 0.195643 0.162828
O O7 0.444006 0.233078 0.239541
O O8 0.190369 0.262290 0.315168
O O9 0.651962 0.094342 0.140999
O O10 0.980703 0.112406 0.124219
O O11 0.784938 0.147957 0.996036
O O12 0.073060 0.687623 0.589587
O O13 0.310454 0.620882 0.647707
O O14 0.811630 0.593799 0.144171
O O15 0.051103 0.200311 0.606362
O O16 0.500000 0.614836 0.500000
O O17 0.517357 0.000000 0.851746
O O18 0.500000 0.061531 0.000000
#
# Coordination Sequence:
#
# PCOD8107368 Si02
#       8
#     8   8   8   8   8   8   8   8
#     4  10  22  40  65  94 120 156 205 255 304 359
#     4  12  22  38  58  87 128 164 199 249 309 379
#     4  10  21  37  60  91 122 160 209 254 309 362
#     4  10  21  37  59  89 122 154 195 249 299 362
#     4  10  21  37  60  90 122 162 207 257 306 363
#     4  12  23  37  59  90 124 164 200 244 316 371
#     4  10  23  38  61  91 121 156 197 254 300 361
#     4   9  19  36  59  89 121 154 202 258 303 352
#
# _framework density 23.185327000000001
#
# number of rings (size 3 to 8) (size 9 to 14) (size 15 to 20)
#    0.000    1.625    2.500    2.625    1.750    4.250 
#    0.000    2.500    0.000   10.500    0.000    0.000 
#    0.000    0.000    0.000    0.000    0.000    0.000 
#
# Total GULP energy -396447.629572 kJ/mol
# GULP energy per Si atom -12388.988424 kJ/mol
# Density = 2.313256 g / cm^3
# Si number density = 23.185327 Si / 1000 Ang^3
#
#
#
# Elastic Constant Matrix: (Units=GPa)
#
#
# Indices 1 2 3 4 5 6 
#
# 1 183.9296 85.9135 20.5282 0.0000 4.5966 0.0000
# 2 85.9135 164.8667 14.8307 0.0000 -1.7036 0.0000
# 3 20.5282 14.8307 14.1513 0.0000 -3.5328 0.0000
# 4 0.0000 0.0000 0.0000 1.3223 0.0000 2.4715
# 5 4.5966 -1.7036 -3.5328 0.0000 24.5827 0.0000
# 6 0.0000 0.0000 0.0000 2.4715 0.0000 37.4369
#
#
#
# Elastic Compliance Matrix: (Units=1/GPa)
#
#
# Indices 1 2 3 4 5 6 
#
# 1 0.008126 -0.003464 -0.008917 0.000000 -0.003041 0.000000
# 2 -0.003464 0.008181 -0.003367 0.000000 0.000731 0.000000
# 3 -0.008917 -0.003367 0.090742 0.000000 0.014475 0.000000
# 4 0.000000 0.000000 0.000000 0.862702 0.000000 -0.056954
# 5 -0.003041 0.000731 0.014475 0.000000 0.043378 0.000000
# 6 0.000000 0.000000 0.000000 -0.056954 0.000000 0.030472
#
#
# Mechanical properties :
#
#
# Convention : Reuss Voigt Hill
#
# Bulk Modulus (GPa) = 13.23549 67.27693 40.25621
# Shear Modulus (GPa) = 4.54430 28.78006 16.66218
#
# Velocity S-wave (km/s) = 1.40151 3.52704 2.68368
# Velocity P-wave (km/s) = 2.88790 6.75771 5.19647
#
# Compressibility (1/GPa) = 0.07555443
#
# Stress axis : x y z
#
# Youngs Moduli (GPa) = 123.06154 122.23535 11.02027
#
# Poissons Ratio (x) = 0.42340 0.09827
# Poissons Ratio (y) = 0.42627 0.03710
# Poissons Ratio (z) = 1.09732 0.41151
#
# Static dielectric constant tensor:
#      x y z
#    x 5.680950 0.000000 0.119250 
#    y 0.000000 3.990460 0.000000 
#    z 0.119250 0.000000 3.669720 
# 
# 
# High freq. dielectric constant tensor:
#      x y z
#    x 1.961410 0.000000 0.003670 
#    y 0.000000 1.897220 0.000000 
#    z 0.003670 0.000000 1.882490 
# 
# From -- ./inp_files/258931.got.cif
#   From: 2010.06.25/outbox.cif.g09.slc.cpg/sg12_130_cif.got.tgz:258931.got - 2010.06.28 00:19:55.
