data_PCOD8107323
_publ_section_title
;
Structure prediction by ZEFSAII (Michael W. Deem and Ramdas Pophale) SiO2 
 PCOD8107323
Probable space group: C 2/M
;
_chemical_formula_sum "Si O2"
_cell_formula_units_Z 48
_cell_length_a 14.450804
_cell_length_b 18.194661
_cell_length_c 8.971582
_cell_angle_alpha 90.000000
_cell_angle_beta 88.833711
_cell_angle_gamma 90.000000
_cell_volume 2358.386764
_symmetry_space_group_name_H-M "C 2/M"
_symmetry_group_IT_number 12
_symmetry_cell_setting 'monoclinic'
loop_
_space_group_symop_operation_xyz
x,y,z
-x,y,-z
-x,-y,-z
x,-y,z
1/2+x,1/2+y,z
1/2-x,1/2+y,-z
1/2-x,1/2-y,-z
1/2+x,1/2-y,z
loop_
_atom_site_type_symbol
_atom_site_label
_atom_site_fract_x
_atom_site_fract_y
_atom_site_fract_z
Si Si1 0.599457 0.218261 0.563457
Si Si2 0.215293 0.856719 0.438996
Si Si3 0.596766 0.358106 0.930080
Si Si4 0.407675 0.196281 0.088095
Si Si5 0.925114 0.080815 0.383169
Si Si6 0.751101 0.915055 0.880450
O O1 0.500000 0.198052 0.500000
O O2 0.677954 0.157300 0.521353
O O3 0.643163 0.292743 0.494705
O O4 0.580130 0.214696 0.739221
O O5 0.175411 0.925742 0.532149
O O6 0.205850 0.873581 0.264036
O O7 0.624771 0.274972 0.978755
O O8 0.585002 0.363375 0.752869
O O9 0.500000 0.383053 0.000000
O O10 0.674422 0.413133 0.989264
O O11 0.337948 0.129674 0.060475
O O12 0.500000 0.171184 0.000000
O O13 0.000000 0.111391 0.500000
O O14 0.954795 0.000000 0.325716
O O15 0.725073 0.000000 0.846997
#
# Coordination Sequence:
#
# PCOD8107323 Si02
#       6
#     8   8   8   8   8   8
#     4  10  21  37  61  90 119 152 201 254 302 357
#     4  10  21  37  59  87 117 160 197 248 304 357
#     4  11  23  38  59  90 123 157 203 252 302 361
#     4  10  23  40  63  91 118 161 203 254 301 353
#     4  11  22  36  58  89 125 162 200 247 308 370
#     4  11  24  41  61  88 125 163 202 249 304 367
#
# _framework density 20.352896000000001
#
# number of rings (size 3 to 8) (size 9 to 14) (size 15 to 20)
#    0.000    1.500    1.667    3.000    4.667    4.333 
#    0.000    0.000    0.000   12.500    0.000    0.000 
#    0.000    0.000    0.000    0.000    0.000    0.000 
#
# Total GULP energy -297373.412616 kJ/mol
# GULP energy per Si atom -12390.558859 kJ/mol
# Density = 2.030657 g / cm^3
# Si number density = 20.352896 Si / 1000 Ang^3
#
#
#
# Elastic Constant Matrix: (Units=GPa)
#
#
# Indices 1 2 3 4 5 6 
#
# 1 147.1084 61.5835 69.5377 0.0000 -6.4467 0.0000
# 2 61.5835 93.1299 34.7220 0.0000 1.3316 0.0000
# 3 69.5377 34.7220 99.4499 0.0000 -9.4770 0.0000
# 4 0.0000 0.0000 0.0000 20.6178 0.0000 -0.6891
# 5 -6.4467 1.3316 -9.4770 0.0000 41.7841 0.0000
# 6 0.0000 0.0000 0.0000 -0.6891 0.0000 21.7410
#
#
#
# Elastic Compliance Matrix: (Units=1/GPa)
#
#
# Indices 1 2 3 4 5 6 
#
# 1 0.012313 -0.005705 -0.006562 0.000000 0.000593 0.000000
# 2 -0.005705 0.015068 -0.001433 0.000000 -0.001685 0.000000
# 3 -0.006562 -0.001433 0.015384 0.000000 0.002523 0.000000
# 4 0.000000 0.000000 0.000000 0.048553 0.000000 0.001539
# 5 0.000593 -0.001685 0.002523 0.000000 0.024650 0.000000
# 6 0.000000 0.000000 0.000000 0.001539 0.000000 0.046045
#
#
# Mechanical properties :
#
#
# Convention : Reuss Voigt Hill
#
# Bulk Modulus (GPa) = 65.07136 74.59720 69.83428
# Shear Modulus (GPa) = 25.70243 28.41823 27.06033
#
# Velocity S-wave (km/s) = 3.55750 3.74073 3.65026
# Velocity P-wave (km/s) = 6.99395 7.44237 7.22164
#
# Compressibility (1/GPa) = 0.01536774
#
# Stress axis : x y z
#
# Youngs Moduli (GPa) = 81.21210 66.36500 65.00268
#
# Poissons Ratio (x) = 0.37858 0.42652
# Poissons Ratio (y) = 0.46328 0.09313
# Poissons Ratio (z) = 0.53288 0.09509
#
# Static dielectric constant tensor:
#      x y z
#    x 3.769190 0.000000 -0.208840 
#    y 0.000000 3.628720 0.000000 
#    z -0.208840 0.000000 3.702190 
# 
# 
# High freq. dielectric constant tensor:
#      x y z
#    x 1.794770 0.000000 -0.016120 
#    y 0.000000 1.787550 0.000000 
#    z -0.016120 0.000000 1.799330 
# 
# From -- ./inp_files/61679.got.cif
#   From: 2010.06.25/outbox.cif.g09.slc.cpg/sg12_31_cif.got.tgz:61679.got - 2010.06.28 00:19:55.
