data_PCOD8107322
_publ_section_title
;
Structure prediction by ZEFSAII (Michael W. Deem and Ramdas Pophale) SiO2 
 PCOD8107322
Probable space group: C 2/M
;
_chemical_formula_sum "Si O2"
_cell_formula_units_Z 56
_cell_length_a 30.503703
_cell_length_b 8.812749
_cell_length_c 19.070806
_cell_angle_alpha 90.000000
_cell_angle_beta 33.376577
_cell_angle_gamma 90.000000
_cell_volume 2820.367902
_symmetry_space_group_name_H-M "C 2/M"
_symmetry_group_IT_number 12
_symmetry_cell_setting 'monoclinic'
loop_
_space_group_symop_operation_xyz
x,y,z
-x,y,-z
-x,-y,-z
x,-y,z
1/2+x,1/2+y,z
1/2-x,1/2+y,-z
1/2-x,1/2-y,-z
1/2+x,1/2-y,z
loop_
_atom_site_type_symbol
_atom_site_label
_atom_site_fract_x
_atom_site_fract_y
_atom_site_fract_z
Si Si1 0.818275 0.326803 0.821256
Si Si2 0.545331 0.676103 0.868250
Si Si3 0.638180 0.672940 0.098416
Si Si4 0.083612 0.822752 0.422360
Si Si5 0.995508 0.323646 0.216465
Si Si6 0.629471 0.322568 0.516433
Si Si7 0.271800 0.322407 0.396401
O O1 0.843214 0.500000 0.802248
O O2 0.859970 0.220173 0.822904
O O3 0.846677 0.272328 0.707459
O O4 0.723739 0.308396 0.948802
O O5 0.533308 0.500000 0.865015
O O6 0.503587 0.779654 0.865923
O O7 0.638829 0.717013 0.747567
O O8 0.500000 0.717501 0.000000
O O9 0.606931 0.500000 0.136278
O O10 0.581260 0.785128 0.133035
O O11 0.087123 0.779560 0.499635
O O12 0.000000 0.772314 0.500000
O O13 0.099141 0.000000 0.389750
O O14 0.977172 0.500000 0.251087
O O15 0.927572 0.226824 0.344747
O O16 0.645160 0.500000 0.501185
O O17 0.714261 0.240106 0.412068
O O18 0.258660 0.500000 0.421841
O O19 0.250000 0.250000 0.500000
#
# Coordination Sequence:
#
# PCOD8107322 Si02
#       7
#     8   8   8   8   8   8   8
#     4  10  21  37  59  87 117 155 201 250 301 357
#     4  10  23  43  65  89 122 164 204 249 309 374
#     4  10  21  38  60  84 118 160 199 243 300 368
#     4  10  22  39  59  85 121 164 204 249 306 363
#     4  12  24  38  61  91 120 153 201 255 305 364
#     4  11  23  39  62  90 122 163 209 255 309 372
#     4  11  22  39  65  92 123 162 207 258 311 373
#
# _framework density 19.855564000000001
#
# number of rings (size 3 to 8) (size 9 to 14) (size 15 to 20)
#    0.000    1.429    1.429    3.857    0.000    6.286 
#    0.000    4.286    0.000    0.000    0.000    0.000 
#    0.000    0.000    0.000    0.000    0.000    0.000 
#
# Total GULP energy -347365.741536 kJ/mol
# GULP energy per Si atom -12405.919341 kJ/mol
# Density = 1.981037 g / cm^3
# Si number density = 19.855564 Si / 1000 Ang^3
#
#
#
# Elastic Constant Matrix: (Units=GPa)
#
#
# Indices 1 2 3 4 5 6 
#
# 1 100.8542 31.3036 45.9110 -0.0624 -6.9360 -0.0559
# 2 31.3036 68.8475 42.0586 -0.0766 -0.9126 -0.0438
# 3 45.9110 42.0586 113.5215 -0.0584 9.4133 -0.0146
# 4 -0.0624 -0.0766 -0.0584 16.7645 0.0116 -19.7667
# 5 -6.9360 -0.9126 9.4133 0.0116 28.7891 -0.0064
# 6 -0.0559 -0.0438 -0.0146 -19.7667 -0.0064 13.0322
#
#
#
# Elastic Compliance Matrix: (Units=1/GPa)
#
#
# Indices 1 2 3 4 5 6 
#
# 1 0.013308 -0.003191 -0.004581 -0.000085 0.004603 -0.000086
# 2 -0.003191 0.019786 -0.006196 -0.000141 0.001884 -0.000166
# 3 -0.004581 -0.006196 0.013429 0.000035 -0.005691 0.000026
# 4 -0.000085 -0.000141 0.000035 -0.075660 -0.000032 -0.114758
# 5 0.004603 0.001884 -0.005691 -0.000032 0.037765 -0.000010
# 6 -0.000086 -0.000166 0.000026 -0.114758 -0.000010 -0.097328
#
#
# Mechanical properties :
#
#
# Convention : Reuss Voigt Hill
#
# Bulk Modulus (GPa) = 53.80599 57.97439 55.89019
# Shear Modulus (GPa) = -91.63101 22.64718 -34.49192
#
# Velocity S-wave (km/s) = -6.80066 3.38094 -4.17242
# Velocity P-wave (km/s) = 5.87433 6.67101 2.23547
#
# Compressibility (1/GPa) = 0.01858529
#
# Stress axis : x y z
#
# Youngs Moduli (GPa) = 75.14365 50.54141 74.46374
#
# Poissons Ratio (x) = 0.16128 0.34116
# Poissons Ratio (y) = 0.23979 0.46139
# Poissons Ratio (z) = 0.34427 0.31316
#
# Static dielectric constant tensor:
#      x y z
#    x 3.719300 -0.000020 -0.093260 
#    y -0.000020 3.646300 0.000050 
#    z -0.093260 0.000050 3.635630 
# 
# 
# High freq. dielectric constant tensor:
#      x y z
#    x 1.778790 0.000000 -0.004630 
#    y 0.000000 1.780600 0.000000 
#    z -0.004630 0.000000 1.777090 
# 
# From -- ./inp_files/281017.got.cif
#   From: 2010.06.25/outbox.cif.g09.slc.cpg/sg12_141_cif.got.tgz:281017.got - 2010.06.28 00:19:55.
