data_PCOD8107688
_publ_section_title
;
Structure prediction by ZEFSAII (Michael W. Deem and Ramdas Pophale) SiO2 
 PCOD8107688
Probable space group: C 2/M
;
_chemical_formula_sum "Si O2"
_cell_formula_units_Z 56
_cell_length_a 11.793480
_cell_length_b 15.970208
_cell_length_c 13.655869
_cell_angle_alpha 90.000000
_cell_angle_beta 93.563677
_cell_angle_gamma 90.000000
_cell_volume 2567.032080
_symmetry_space_group_name_H-M "C 2/M"
_symmetry_group_IT_number 12
_symmetry_cell_setting 'monoclinic'
loop_
_space_group_symop_operation_xyz
x,y,z
-x,y,-z
-x,-y,-z
x,-y,z
1/2+x,1/2+y,z
1/2-x,1/2+y,-z
1/2-x,1/2-y,-z
1/2+x,1/2-y,z
loop_
_atom_site_type_symbol
_atom_site_label
_atom_site_fract_x
_atom_site_fract_y
_atom_site_fract_z
Si Si1 0.756447 0.207782 0.396336
Si Si2 0.544572 0.901081 0.398621
Si Si3 0.011015 0.657888 0.194688
Si Si4 0.743261 0.094981 0.130199
Si Si5 0.082413 0.098139 0.697815
Si Si6 0.130903 0.822216 0.239764
Si Si7 0.212416 0.400153 0.913364
O O1 0.750000 0.250000 0.500000
O O2 0.671403 0.129651 0.386903
O O3 0.878371 0.162764 0.385746
O O4 0.723400 0.278071 0.314543
O O5 0.500000 0.864778 0.500000
O O6 0.470221 0.865652 0.303708
O O7 0.540137 0.000000 0.399250
O O8 0.909254 0.639887 0.115996
O O9 0.119984 0.602253 0.172653
O O10 0.045647 0.754618 0.188322
O O11 0.841843 0.130821 0.205687
O O12 0.774568 0.000000 0.114969
O O13 0.746144 0.136158 0.022204
O O14 0.948093 0.111357 0.706860
O O15 0.103778 0.000000 0.673754
O O16 0.192998 0.871489 0.157539
O O17 0.200912 0.500000 0.910215
#
# Coordination Sequence:
#
# PCOD8107688 Si02
#       7
#     8   8   8   8   8   8   8
#     4  11  25  42  67  92 127 165 211 264 319 382
#     4  10  21  37  63  95 122 160 209 259 317 381
#     4  11  22  40  65  95 133 165 214 274 326 380
#     4  10  21  41  68  94 125 174 223 263 316 389
#     4  11  23  46  69  91 130 177 217 255 317 395
#     4  11  25  42  63  97 132 168 210 268 326 379
#     4  11  24  42  64  95 131 170 217 268 322 381
#
# _framework density 21.815075
#
# number of rings (size 3 to 8) (size 9 to 14) (size 15 to 20)
#    0.000    1.286    2.857    3.429    6.000    2.286 
#    2.571    5.000    0.000    0.000    0.000    0.000 
#    0.000    0.000    0.000    0.000    0.000    0.000 
#
# Total GULP energy -347146.530708 kJ/mol
# GULP energy per Si atom -12398.090382 kJ/mol
# Density = 2.176542 g / cm^3
# Si number density = 21.815075 Si / 1000 Ang^3
#
#
#
# Elastic Constant Matrix: (Units=GPa)
#
#
# Indices 1 2 3 4 5 6 
#
# 1 69.1301 20.3777 23.0095 0.0000 -17.3015 0.0000
# 2 20.3777 72.3619 27.7849 0.0000 5.9642 0.0000
# 3 23.0095 27.7849 88.4008 0.0000 -15.7460 0.0000
# 4 0.0000 0.0000 0.0000 33.6697 0.0000 -9.3646
# 5 -17.3015 5.9642 -15.7460 0.0000 27.3023 0.0000
# 6 0.0000 0.0000 0.0000 -9.3646 0.0000 29.8918
#
#
#
# Elastic Compliance Matrix: (Units=1/GPa)
#
#
# Indices 1 2 3 4 5 6 
#
# 1 0.020054 -0.006493 -0.000739 0.000000 0.013701 0.000000
# 2 -0.006493 0.019119 -0.006459 0.000000 -0.012016 0.000000
# 3 -0.000739 -0.006459 0.015271 0.000000 0.009750 0.000000
# 4 0.000000 0.000000 0.000000 0.032535 0.000000 0.010193
# 5 0.013701 -0.012016 0.009750 0.000000 0.053558 0.000000
# 6 0.000000 0.000000 0.000000 0.010193 0.000000 0.036647
#
#
# Mechanical properties :
#
#
# Convention : Reuss Voigt Hill
#
# Bulk Modulus (GPa) = 36.95223 41.35966 39.15595
# Shear Modulus (GPa) = 23.40966 28.75414 26.08190
#
# Velocity S-wave (km/s) = 3.27937 3.63448 3.46148
# Velocity P-wave (km/s) = 5.59595 6.05087 5.82785
#
# Compressibility (1/GPa) = 0.02706196
#
# Stress axis : x y z
#
# Youngs Moduli (GPa) = 49.86472 52.30518 65.48212
#
# Poissons Ratio (x) = 0.33962 0.04837
# Poissons Ratio (y) = 0.32377 0.42297
# Poissons Ratio (z) = 0.03683 0.33786
#
# Static dielectric constant tensor:
#      x y z
#    x 3.876010 0.000000 0.016270 
#    y 0.000000 3.864970 0.000000 
#    z 0.016270 0.000000 4.447860 
# 
# 
# High freq. dielectric constant tensor:
#      x y z
#    x 1.849180 0.000000 -0.009580 
#    y 0.000000 1.861200 0.000000 
#    z -0.009580 0.000000 1.862480 
# 
# From -- ./inp_files/205014.got.cif
#   From: 2010.06.25/outbox.cif.g09.slc.cpg/sg12_103_cif.got.tgz:205014.got - 2010.06.28 00:19:55.
