data_PCOD8107117
_publ_section_title
;
Structure prediction by ZEFSAII (Michael W. Deem and Ramdas Pophale) SiO2 
 PCOD8107117
Probable space group: C 2/M
;
_chemical_formula_sum "Si O2"
_cell_formula_units_Z 56
_cell_length_a 10.024732
_cell_length_b 8.998651
_cell_length_c 31.612113
_cell_angle_alpha 90.000000
_cell_angle_beta 103.473138
_cell_angle_gamma 90.000000
_cell_volume 2773.218274
_symmetry_space_group_name_H-M "C 2/M"
_symmetry_group_IT_number 12
_symmetry_cell_setting 'monoclinic'
loop_
_space_group_symop_operation_xyz
x,y,z
-x,y,-z
-x,-y,-z
x,-y,z
1/2+x,1/2+y,z
1/2-x,1/2+y,-z
1/2-x,1/2-y,-z
1/2+x,1/2-y,z
loop_
_atom_site_type_symbol
_atom_site_label
_atom_site_fract_x
_atom_site_fract_y
_atom_site_fract_z
Si Si1 0.996623 0.827364 0.877414
Si Si2 0.637972 0.826801 0.738016
Si Si3 0.369135 0.326985 0.688671
Si Si4 0.386698 0.325783 0.024636
Si Si5 0.698615 0.173100 0.402690
Si Si6 0.730272 0.327106 0.827721
Si Si7 0.504685 0.327629 0.451727
O O1 0.072449 0.773425 0.925408
O O2 0.094684 0.797882 0.844973
O O3 0.861033 0.729554 0.863120
O O4 0.954830 0.000000 0.877549
O O5 0.492933 0.746093 0.723496
O O6 0.727742 0.797646 0.702781
O O7 0.720804 0.763117 0.783674
O O8 0.611905 0.000000 0.743363
O O9 0.401665 0.500000 0.686711
O O10 0.359925 0.258648 0.641729
O O11 0.363237 0.500000 0.021705
O O12 0.500000 0.272997 0.000000
O O13 0.250000 0.250000 0.000000
O O14 0.620799 0.229155 0.438497
O O15 0.859296 0.205321 0.419221
O O16 0.668363 0.000000 0.394471
O O17 0.748674 0.500000 0.818739
O O18 0.500000 0.278505 0.500000
O O19 0.545190 0.500000 0.450609
#
# Coordination Sequence:
#
# PCOD8107117 Si02
#       7
#     8   8   8   8   8   8   8
#     4  10  22  39  57  83 118 151 190 239 287 341
#     4  11  24  41  62  88 117 151 192 238 288 342
#     4  11  24  41  61  86 117 152 191 237 287 341
#     4  10  21  37  58  84 114 150 192 238 288 342
#     4  11  23  38  60  89 118 153 196 239 288 345
#     4  11  23  38  59  86 115 151 192 234 285 343
#     4  10  22  40  61  87 120 157 197 242 291 343
#
# _framework density 20.193145999999999
#
# number of rings (size 3 to 8) (size 9 to 14) (size 15 to 20)
#    0.000    1.429    0.000    4.714    0.000   11.429 
#    0.000    0.000    0.000    0.000    0.000    0.000 
#    0.000    0.000    0.000    0.000    0.000    0.000 
#
# Total GULP energy -347413.757635 kJ/mol
# GULP energy per Si atom -12407.634201 kJ/mol
# Density = 2.014719 g / cm^3
# Si number density = 20.193146 Si / 1000 Ang^3
#
#
#
# Elastic Constant Matrix: (Units=GPa)
#
#
# Indices 1 2 3 4 5 6 
#
# 1 69.7447 48.1744 10.6352 0.0000 5.0409 0.0000
# 2 48.1744 94.7016 35.2810 0.0000 -1.8903 0.0000
# 3 10.6352 35.2810 101.6152 0.0000 0.4646 0.0000
# 4 0.0000 0.0000 0.0000 34.9725 0.0000 5.3128
# 5 5.0409 -1.8903 0.4646 0.0000 35.7609 0.0000
# 6 0.0000 0.0000 0.0000 5.3128 0.0000 32.3028
#
#
#
# Elastic Compliance Matrix: (Units=1/GPa)
#
#
# Indices 1 2 3 4 5 6 
#
# 1 0.022940 -0.012473 0.001948 0.000000 -0.003918 0.000000
# 2 -0.012473 0.018928 -0.005279 0.000000 0.002827 0.000000
# 3 0.001948 -0.005279 0.011473 0.000000 -0.000703 0.000000
# 4 0.000000 0.000000 0.000000 0.029327 0.000000 -0.004823
# 5 -0.003918 0.002827 -0.000703 0.000000 0.028674 0.000000
# 6 0.000000 0.000000 0.000000 -0.004823 0.000000 0.031750
#
#
# Mechanical properties :
#
#
# Convention : Reuss Voigt Hill
#
# Bulk Modulus (GPa) = 46.01622 50.47141 48.24382
# Shear Modulus (GPa) = 27.48077 32.07196 29.77637
#
# Velocity S-wave (km/s) = 3.69303 3.98962 3.84419
# Velocity P-wave (km/s) = 6.40486 6.80231 6.60657
#
# Compressibility (1/GPa) = 0.02173147
#
# Stress axis : x y z
#
# Youngs Moduli (GPa) = 43.59253 52.83247 87.15839
#
# Poissons Ratio (x) = 0.65899 -0.16976
# Poissons Ratio (y) = 0.54374 0.46013
# Poissons Ratio (z) = -0.08491 0.27891
#
# Static dielectric constant tensor:
#      x y z
#    x 3.663230 0.000000 -0.010890 
#    y 0.000000 3.683800 0.000000 
#    z -0.010890 0.000000 3.751150 
# 
# 
# High freq. dielectric constant tensor:
#      x y z
#    x 1.799550 0.000000 0.000060 
#    y 0.000000 1.792220 0.000000 
#    z 0.000060 0.000000 1.805110 
# 
# From -- ./inp_files/357526.got.cif
#   From: 2010.06.25/outbox.cif.g09.slc.cpg/sg12_179_cif.got.tgz:357526.got - 2010.06.28 00:19:55.
