data_PCOD8107164
_publ_section_title
;
Structure prediction by ZEFSAII (Michael W. Deem and Ramdas Pophale) SiO2 
 PCOD8107164
Probable space group: C 2/M
;
_chemical_formula_sum "Si O2"
_cell_formula_units_Z 40
_cell_length_a 34.229564
_cell_length_b 11.082597
_cell_length_c 9.652415
_cell_angle_alpha 90.000000
_cell_angle_beta 32.223796
_cell_angle_gamma 90.000000
_cell_volume 1952.502379
_symmetry_space_group_name_H-M "C 2/M"
_symmetry_group_IT_number 12
_symmetry_cell_setting 'monoclinic'
loop_
_space_group_symop_operation_xyz
x,y,z
-x,y,-z
-x,-y,-z
x,-y,z
1/2+x,1/2+y,z
1/2-x,1/2+y,-z
1/2-x,1/2-y,-z
1/2+x,1/2-y,z
loop_
_atom_site_type_symbol
_atom_site_label
_atom_site_fract_x
_atom_site_fract_y
_atom_site_fract_z
Si Si1 0.424846 0.000000 0.136458
Si Si2 0.075154 0.500000 0.185536
Si Si3 0.336544 0.758543 0.395840
Si Si4 0.062031 0.859830 0.716724
Si Si5 0.937969 0.859830 0.588913
Si Si6 0.836544 0.258543 0.084893
O O1 0.372201 0.113227 0.329853
O O2 0.500000 0.000000 0.000000
O O3 0.447592 0.000000 0.907224
O O4 0.000000 0.500000 0.500000
O O5 0.127799 0.386774 0.063057
O O6 0.361947 0.660482 0.432359
O O7 0.250000 0.750000 0.664375
O O8 0.361825 0.722465 0.164524
O O9 0.061781 0.799193 0.564657
O O10 0.046310 0.000000 0.746707
O O11 0.000000 0.798059 0.000000
O O12 0.000000 0.798059 0.500000
O O13 0.953690 0.000000 0.524568
O O14 0.861947 0.839518 0.895960
#
# Coordination Sequence:
#
# PCOD8107164 Si02
#       6
#     4   4   8   8   8   8
#     4  10  22  40  60  88 119 156 201 242 297 356
#     4  10  22  40  60  88 119 156 201 242 297 356
#     4  10  22  38  60  87 118 154 196 246 297 353
#     4  10  21  37  58  85 116 151 193 240 291 349
#     4  10  21  37  58  85 116 151 193 240 291 349
#     4  10  22  38  60  87 118 154 196 246 297 353
#
# _framework density 20.486532
#
# number of rings (size 3 to 8) (size 9 to 14) (size 15 to 20)
#    0.000    2.000    0.000    2.400    2.800    8.000 
#    0.000    0.000    0.000    0.000    0.000    0.000 
#    0.000    0.000    0.000    0.000    0.000    0.000 
#
# Total GULP energy -247874.865435 kJ/mol
# GULP energy per Si atom -12393.743272 kJ/mol
# Density = 2.043990 g / cm^3
# Si number density = 20.486532 Si / 1000 Ang^3
#
#
#
# Elastic Constant Matrix: (Units=GPa)
#
#
# Indices 1 2 3 4 5 6 
#
# 1 172.3619 33.7380 82.5006 0.0000 11.3580 0.0000
# 2 33.7380 43.5734 37.1982 0.0000 -2.5995 0.0000
# 3 82.5006 37.1982 139.3817 0.0000 13.4179 0.0000
# 4 0.0000 0.0000 0.0000 34.1502 0.0000 -4.9769
# 5 11.3580 -2.5995 13.4179 0.0000 35.8236 0.0000
# 6 0.0000 0.0000 0.0000 -4.9769 0.0000 27.5253
#
#
#
# Elastic Compliance Matrix: (Units=1/GPa)
#
#
# Indices 1 2 3 4 5 6 
#
# 1 0.008438 -0.003198 -0.004005 0.000000 -0.001407 0.000000
# 2 -0.003198 0.031943 -0.007213 0.000000 0.006033 0.000000
# 3 -0.004005 -0.007213 0.011825 0.000000 -0.003683 0.000000
# 4 0.000000 0.000000 0.000000 0.030075 0.000000 0.005438
# 5 -0.001407 0.006033 -0.003683 0.000000 0.030178 0.000000
# 6 0.000000 0.000000 0.000000 0.005438 0.000000 0.037313
#
#
# Mechanical properties :
#
#
# Convention : Reuss Voigt Hill
#
# Bulk Modulus (GPa) = 42.78354 73.57671 58.18013
# Shear Modulus (GPa) = 26.82468 32.95849 29.89159
#
# Velocity S-wave (km/s) = 3.62246 4.01532 3.82394
# Velocity P-wave (km/s) = 6.19882 7.58220 6.92514
#
# Compressibility (1/GPa) = 0.02337347
#
# Stress axis : x y z
#
# Youngs Moduli (GPa) = 118.51820 31.30539 84.56708
#
# Poissons Ratio (x) = 0.10010 0.33873
# Poissons Ratio (y) = 0.37897 0.61000
# Poissons Ratio (z) = 0.47471 0.22581
#
# Static dielectric constant tensor:
#      x y z
#    x 4.091550 0.000000 0.222270 
#    y 0.000000 3.545350 0.000000 
#    z 0.222270 0.000000 3.795670 
# 
# 
# High freq. dielectric constant tensor:
#      x y z
#    x 1.811170 0.000000 0.005030 
#    y 0.000000 1.787240 0.000000 
#    z 0.005030 0.000000 1.804480 
# 
# From -- ./inp_files/111869.got.cif
#   From: 2010.06.25/outbox.cif.g09.slc.cpg/sg12_56_cif.got.tgz:111869.got - 2010.06.28 00:19:55.
