data_PCOD8107504
_publ_section_title
;
Structure prediction by ZEFSAII (Michael W. Deem and Ramdas Pophale) SiO2 
 PCOD8107504
Probable space group: C 2/M
;
_chemical_formula_sum "Si O2"
_cell_formula_units_Z 64
_cell_length_a 19.731125
_cell_length_b 9.067870
_cell_length_c 30.963394
_cell_angle_alpha 90.000000
_cell_angle_beta 36.502214
_cell_angle_gamma 90.000000
_cell_volume 3295.459419
_symmetry_space_group_name_H-M "C 2/M"
_symmetry_group_IT_number 12
_symmetry_cell_setting 'monoclinic'
loop_
_space_group_symop_operation_xyz
x,y,z
-x,y,-z
-x,-y,-z
x,-y,z
1/2+x,1/2+y,z
1/2-x,1/2+y,-z
1/2-x,1/2-y,-z
1/2+x,1/2-y,z
loop_
_atom_site_type_symbol
_atom_site_label
_atom_site_fract_x
_atom_site_fract_y
_atom_site_fract_z
Si Si1 0.767260 0.326829 0.890320
Si Si2 0.750726 0.827821 0.564951
Si Si3 0.530543 0.327071 0.165802
Si Si4 0.423562 0.172546 0.419078
Si Si5 0.952532 0.170964 0.942199
Si Si6 0.654685 0.666775 0.308044
Si Si7 0.306799 0.170421 0.309030
Si Si8 0.675007 0.828598 0.855000
O O1 0.782596 0.500000 0.876204
O O2 0.884047 0.260797 0.847696
O O3 0.744145 0.255657 0.856109
O O4 0.667124 0.288491 0.974944
O O5 0.642965 0.783094 0.590575
O O6 0.864057 0.746164 0.490897
O O7 0.725302 0.777902 0.626553
O O8 0.776461 0.000000 0.548991
O O9 0.543478 0.500000 0.167893
O O10 0.557470 0.286509 0.102641
O O11 0.403999 0.276698 0.241710
O O12 0.552697 0.224919 0.348484
O O13 0.422592 0.000000 0.427138
O O14 0.047739 0.266615 0.917225
O O15 0.984384 0.000000 0.932264
O O16 0.611409 0.500000 0.323307
O O17 0.695594 0.691413 0.336174
O O18 0.761822 0.700508 0.222483
O O19 0.348091 0.000000 0.286952
O O20 0.668343 0.000000 0.870202
#
# Coordination Sequence:
#
# PCOD8107504 Si02
#       8
#     8   8   8   8   8   8   8   8
#     4  11  24  40  60  85 117 158 201 244 298 360
#     4   9  20  39  62  87 116 153 195 235 283 346
#     4  11  23  39  60  89 120 152 197 250 300 348
#     4  10  21  37  60  90 120 152 191 237 290 342
#     4  10  22  41  62  85 117 157 197 244 301 358
#     4  10  22  39  59  84 118 156 194 239 291 348
#     4  10  21  40  62  85 115 158 202 238 290 351
#     4  11  23  39  60  89 120 154 199 249 298 349
#
# _framework density 19.420660999999999
#
# number of rings (size 3 to 8) (size 9 to 14) (size 15 to 20)
#    0.000    1.750    1.250    2.250    1.750    6.000 
#    0.000    2.500    0.000    0.000    0.000    0.000 
#    0.000    0.000    0.000    0.000    0.000    0.000 
#
# Total GULP energy -397002.848715 kJ/mol
# GULP energy per Si atom -12406.339022 kJ/mol
# Density = 1.937646 g / cm^3
# Si number density = 19.420661 Si / 1000 Ang^3
#
#
#
# Elastic Constant Matrix: (Units=GPa)
#
#
# Indices 1 2 3 4 5 6 
#
# 1 91.4783 35.7041 14.1413 -0.0006 7.3831 0.0350
# 2 35.7041 67.2667 27.2437 0.0000 -0.3261 0.0072
# 3 14.1413 27.2437 51.7251 0.0020 7.4828 -0.0005
# 4 -0.0006 0.0000 0.0020 37.4648 -0.0020 -5.6348
# 5 7.3831 -0.3261 7.4828 -0.0020 38.9184 -0.0015
# 6 0.0350 0.0072 -0.0005 -5.6348 -0.0015 33.8452
#
#
#
# Elastic Compliance Matrix: (Units=1/GPa)
#
#
# Indices 1 2 3 4 5 6 
#
# 1 0.014089 -0.007754 0.000646 -0.000002 -0.002862 -0.000013
# 2 -0.007754 0.023338 -0.010711 0.000001 0.003726 0.000003
# 3 0.000646 -0.010711 0.025539 -0.000001 -0.005123 0.000001
# 4 -0.000002 0.000001 -0.000001 0.027377 0.000002 0.004558
# 5 -0.002862 0.003726 -0.005123 0.000002 0.027254 0.000004
# 6 -0.000013 0.000003 0.000001 0.004558 0.000004 0.030305
#
#
# Mechanical properties :
#
#
# Convention : Reuss Voigt Hill
#
# Bulk Modulus (GPa) = 36.59240 40.51648 38.55444
# Shear Modulus (GPa) = 25.95381 30.93775 28.44578
#
# Velocity S-wave (km/s) = 3.65965 3.99561 3.83131
# Velocity P-wave (km/s) = 6.06138 6.49572 6.28230
#
# Compressibility (1/GPa) = 0.02732808
#
# Stress axis : x y z
#
# Youngs Moduli (GPa) = 70.97749 42.84841 39.15561
#
# Poissons Ratio (x) = 0.33224 -0.02530
# Poissons Ratio (y) = 0.55034 0.41941
# Poissons Ratio (z) = -0.04586 0.45897
#
# Static dielectric constant tensor:
#      x y z
#    x 3.660570 -0.000040 0.126750 
#    y -0.000040 3.552800 0.000000 
#    z 0.126750 0.000000 3.532260 
# 
# 
# High freq. dielectric constant tensor:
#      x y z
#    x 1.765660 0.000000 0.003830 
#    y 0.000000 1.759350 0.000000 
#    z 0.003830 0.000000 1.758370 
# 
# From -- ./inp_files/378160.got.cif
#   From: 2010.06.25/outbox.cif.g09.slc.cpg/sg12_190_cif.got.tgz:378160.got - 2010.06.28 00:19:55.
