data_PCOD8107434
_publ_section_title
;
Structure prediction by ZEFSAII (Michael W. Deem and Ramdas Pophale) SiO2 
 PCOD8107434
Probable space group: C 2/M
;
_chemical_formula_sum "Si O2"
_cell_formula_units_Z 56
_cell_length_a 14.211278
_cell_length_b 17.109384
_cell_length_c 12.387102
_cell_angle_alpha 90.000000
_cell_angle_beta 82.282926
_cell_angle_gamma 90.000000
_cell_volume 2984.599052
_symmetry_space_group_name_H-M "C 2/M"
_symmetry_group_IT_number 12
_symmetry_cell_setting 'monoclinic'
loop_
_space_group_symop_operation_xyz
x,y,z
-x,y,-z
-x,-y,-z
x,-y,z
1/2+x,1/2+y,z
1/2-x,1/2+y,-z
1/2-x,1/2-y,-z
1/2+x,1/2-y,z
loop_
_atom_site_type_symbol
_atom_site_label
_atom_site_fract_x
_atom_site_fract_y
_atom_site_fract_z
Si Si1 0.196672 0.825993 0.051041
Si Si2 0.834310 0.590542 0.653124
Si Si3 0.216648 0.667035 0.552465
Si Si4 0.478137 0.337172 0.794639
Si Si5 0.172986 0.909104 0.840131
Si Si6 0.491270 0.202876 0.379340
Si Si7 0.805393 0.089454 0.740680
O O1 0.086818 0.804267 0.096404
O O2 0.245723 0.863850 0.151328
O O3 0.250000 0.750000 0.000000
O O4 0.198456 0.892527 0.959685
O O5 0.856579 0.500000 0.664323
O O6 0.786805 0.605517 0.544509
O O7 0.760262 0.620813 0.754099
O O8 0.933700 0.634135 0.652307
O O9 0.250000 0.750000 0.500000
O O10 0.288013 0.635039 0.631658
O O11 0.114137 0.671042 0.624791
O O12 0.579169 0.363103 0.821602
O O13 0.489000 0.271340 0.704757
O O14 0.419123 0.408128 0.747025
O O15 0.153974 0.000000 0.825727
O O16 0.500000 0.235036 0.500000
O O17 0.769961 0.000000 0.739274
#
# Coordination Sequence:
#
# PCOD8107434 Si02
#       7
#     8   8   8   8   8   8   8
#     4  10  23  37  61  85 120 156 199 247 295 360
#     4  10  22  38  60  87 118 159 207 252 303 361
#     4  11  22  37  63  86 123 157 202 251 307 366
#     4  10  22  35  60  88 120 154 203 243 306 366
#     4  11  22  39  62  88 122 158 200 251 304 359
#     4  10  21  37  60  86 117 158 200 252 299 360
#     4  10  22  38  58  88 122 155 198 247 304 364
#
# _framework density 18.762989999999999
#
# number of rings (size 3 to 8) (size 9 to 14) (size 15 to 20)
#    0.857    0.857    0.000    5.143    4.000    3.714 
#    0.000    0.000    0.000    4.286    0.000    4.000 
#    0.000    0.000    0.000    0.000    0.000    0.000 
#
# Total GULP energy -347069.236914 kJ/mol
# GULP energy per Si atom -12395.329890 kJ/mol
# Density = 1.872028 g / cm^3
# Si number density = 18.762990 Si / 1000 Ang^3
#
#
#
# Elastic Constant Matrix: (Units=GPa)
#
#
# Indices 1 2 3 4 5 6 
#
# 1 91.9543 34.1408 47.1896 0.0000 -11.2507 0.0000
# 2 34.1408 94.1644 54.7227 0.0000 -4.9079 0.0000
# 3 47.1896 54.7227 124.4179 0.0000 -15.2697 0.0000
# 4 0.0000 0.0000 0.0000 35.4745 0.0000 -3.3269
# 5 -11.2507 -4.9079 -15.2697 0.0000 36.8908 0.0000
# 6 0.0000 0.0000 0.0000 -3.3269 0.0000 11.6430
#
#
#
# Elastic Compliance Matrix: (Units=1/GPa)
#
#
# Indices 1 2 3 4 5 6 
#
# 1 0.014177 -0.002768 -0.003871 0.000000 0.002353 0.000000
# 2 -0.002768 0.014826 -0.005618 0.000000 -0.001197 0.000000
# 3 -0.003871 -0.005618 0.012368 0.000000 0.003191 0.000000
# 4 0.000000 0.000000 0.000000 0.028965 0.000000 0.008277
# 5 0.002353 -0.001197 0.003191 0.000000 0.028986 0.000000
# 6 0.000000 0.000000 0.000000 0.008277 0.000000 0.088253
#
#
# Mechanical properties :
#
#
# Convention : Reuss Voigt Hill
#
# Bulk Modulus (GPa) = 59.32072 64.73810 62.02941
# Shear Modulus (GPa) = 22.96649 28.43392 25.70020
#
# Velocity S-wave (km/s) = 3.50241 3.89707 3.70500
# Velocity P-wave (km/s) = 6.93111 7.40456 7.17174
#
# Compressibility (1/GPa) = 0.01685752
#
# Stress axis : x y z
#
# Youngs Moduli (GPa) = 70.53661 67.45067 80.85268
#
# Poissons Ratio (x) = 0.18670 0.31297
# Poissons Ratio (y) = 0.19524 0.45422
# Poissons Ratio (z) = 0.27304 0.37893
#
# Static dielectric constant tensor:
#      x y z
#    x 2.924990 0.000000 -0.387570 
#    y 0.000000 3.278750 0.000000 
#    z -0.387570 0.000000 3.515860 
# 
# 
# High freq. dielectric constant tensor:
#      x y z
#    x 1.722350 0.000000 -0.002830 
#    y 0.000000 1.723940 0.000000 
#    z -0.002830 0.000000 1.742620 
# 
# From -- ./inp_files/145512.got.cif
#   From: 2010.06.25/outbox.cif.g09.slc.cpg/sg12_73_cif.got.tgz:145512.got - 2010.06.28 00:19:55.
