data_PCOD8107583
_publ_section_title
;
Structure prediction by ZEFSAII (Michael W. Deem and Ramdas Pophale) SiO2 
 PCOD8107583
Probable space group: C 2/M
;
_chemical_formula_sum "Si O2"
_cell_formula_units_Z 56
_cell_length_a 15.046173
_cell_length_b 17.688759
_cell_length_c 12.380609
_cell_angle_alpha 90.000000
_cell_angle_beta 57.264584
_cell_angle_gamma 90.000000
_cell_volume 2771.741030
_symmetry_space_group_name_H-M "C 2/M"
_symmetry_group_IT_number 12
_symmetry_cell_setting 'monoclinic'
loop_
_space_group_symop_operation_xyz
x,y,z
-x,y,-z
-x,-y,-z
x,-y,z
1/2+x,1/2+y,z
1/2-x,1/2+y,-z
1/2-x,1/2-y,-z
1/2+x,1/2-y,z
loop_
_atom_site_type_symbol
_atom_site_label
_atom_site_fract_x
_atom_site_fract_y
_atom_site_fract_z
Si Si1 0.969223 0.695261 0.744288
Si Si2 0.395745 0.344529 0.882522
Si Si3 0.114136 0.912061 0.727998
Si Si4 0.646015 0.707944 0.528503
Si Si5 0.773738 0.165394 0.750915
Si Si6 0.757518 0.169731 0.175542
Si Si7 0.436936 0.087582 0.146361
O O1 0.048235 0.734785 0.607631
O O2 0.026017 0.628447 0.769698
O O3 0.931040 0.756921 0.857541
O O4 0.869436 0.661535 0.744958
O O5 0.494735 0.397611 0.847967
O O6 0.348835 0.365868 0.796182
O O7 0.306467 0.357496 0.030486
O O8 0.129605 0.868603 0.605958
O O9 0.198900 0.882514 0.758421
O O10 0.133988 0.000000 0.695282
O O11 0.750000 0.750000 0.500000
O O12 0.652960 0.683123 0.399940
O O13 0.712650 0.242612 0.823716
O O14 0.687492 0.101624 0.784955
O O15 0.458629 0.000000 0.150252
O O16 0.500000 0.117078 0.000000
#
# Coordination Sequence:
#
# PCOD8107583 Si02
#       7
#     8   8   8   8   8   8   8
#     4  10  21  37  61  91 121 155 214 260 304 368
#     4  10  22  38  64  94 121 162 207 260 313 370
#     4  11  25  42  62  92 130 170 209 256 320 385
#     4  11  21  43  66  91 121 168 210 262 311 370
#     4  11  21  40  64  90 122 159 214 262 312 368
#     4  11  21  38  65  93 122 162 209 259 313 368
#     4  11  22  35  55  86 125 163 198 251 319 378
#
# _framework density 20.203907999999998
#
# number of rings (size 3 to 8) (size 9 to 14) (size 15 to 20)
#    0.000    1.286    2.857    4.714    0.000    8.000 
#    0.000    0.714    0.000    0.857    0.000    0.000 
#    0.000    0.000    0.000    0.000    0.000    0.000 
#
# Total GULP energy -347300.748355 kJ/mol
# GULP energy per Si atom -12403.598156 kJ/mol
# Density = 2.015792 g / cm^3
# Si number density = 20.203908 Si / 1000 Ang^3
#
#
#
# Elastic Constant Matrix: (Units=GPa)
#
#
# Indices 1 2 3 4 5 6 
#
# 1 143.1170 48.0744 50.3360 0.0000 -3.9035 0.0000
# 2 48.0744 77.9669 19.2151 0.0000 -0.1840 0.0000
# 3 50.3360 19.2151 132.5239 0.0000 0.9968 0.0000
# 4 0.0000 0.0000 0.0000 18.4664 0.0000 -2.6343
# 5 -3.9035 -0.1840 0.9968 0.0000 34.8336 0.0000
# 6 0.0000 0.0000 0.0000 -2.6343 0.0000 16.9443
#
#
#
# Elastic Compliance Matrix: (Units=1/GPa)
#
#
# Indices 1 2 3 4 5 6 
#
# 1 0.009862 -0.005344 -0.002980 0.000000 0.001162 0.000000
# 2 -0.005344 0.016197 -0.000315 0.000000 -0.000504 0.000000
# 3 -0.002980 -0.000315 0.008728 0.000000 -0.000585 0.000000
# 4 0.000000 0.000000 0.000000 0.055381 0.000000 0.008610
# 5 0.001162 -0.000504 -0.000585 0.000000 0.028852 0.000000
# 6 0.000000 0.000000 0.000000 0.008610 0.000000 0.060355
#
#
# Mechanical properties :
#
#
# Convention : Reuss Voigt Hill
#
# Bulk Modulus (GPa) = 57.11052 65.42878 61.26965
# Shear Modulus (GPa) = 24.69267 29.78102 27.23684
#
# Velocity S-wave (km/s) = 3.49975 3.84347 3.67563
# Velocity P-wave (km/s) = 6.68277 7.22155 6.95738
#
# Compressibility (1/GPa) = 0.01750991
#
# Stress axis : x y z
#
# Youngs Moduli (GPa) = 101.39867 61.73829 114.57788
#
# Poissons Ratio (x) = 0.32992 0.34142
# Poissons Ratio (y) = 0.54186 0.03609
# Poissons Ratio (z) = 0.30215 0.01945
#
# Static dielectric constant tensor:
#      x y z
#    x 3.783030 0.000000 -0.114540 
#    y 0.000000 3.432840 0.000000 
#    z -0.114540 0.000000 3.796750 
# 
# 
# High freq. dielectric constant tensor:
#      x y z
#    x 1.803990 0.000000 -0.003240 
#    y 0.000000 1.764130 0.000000 
#    z -0.003240 0.000000 1.791500 
# 
# From -- ./inp_files/146041.got.cif
#   From: 2010.06.25/outbox.cif.g09.slc.cpg/sg12_74_cif.got.tgz:146041.got - 2010.06.28 00:19:55.
