data_PCOD8107705
_publ_section_title
;
Structure prediction by ZEFSAII (Michael W. Deem and Ramdas Pophale) SiO2 
 PCOD8107705
Probable space group: C 2/M
;
_chemical_formula_sum "Si O2"
_cell_formula_units_Z 56
_cell_length_a 20.969929
_cell_length_b 16.585888
_cell_length_c 12.855895
_cell_angle_alpha 90.000000
_cell_angle_beta 32.780193
_cell_angle_gamma 90.000000
_cell_volume 2420.863885
_symmetry_space_group_name_H-M "C 2/M"
_symmetry_group_IT_number 12
_symmetry_cell_setting 'monoclinic'
loop_
_space_group_symop_operation_xyz
x,y,z
-x,y,-z
-x,-y,-z
x,-y,z
1/2+x,1/2+y,z
1/2-x,1/2+y,-z
1/2-x,1/2-y,-z
1/2+x,1/2-y,z
loop_
_atom_site_type_symbol
_atom_site_label
_atom_site_fract_x
_atom_site_fract_y
_atom_site_fract_z
Si Si1 0.820166 0.189183 0.123073
Si Si2 0.492069 0.405892 0.233689
Si Si3 0.152254 0.668141 0.040965
Si Si4 0.755165 0.191059 0.587084
Si Si5 0.367974 0.089591 0.715483
Si Si6 0.606874 0.409154 0.291802
Si Si7 0.543919 0.087398 0.824597
O O1 0.798093 0.257310 0.242120
O O2 0.709745 0.128006 0.270867
O O3 0.831514 0.236412 0.997250
O O4 0.942287 0.135534 0.957583
O O5 0.456384 0.500000 0.258912
O O6 0.383070 0.350919 0.424175
O O7 0.589807 0.404626 0.191085
O O8 0.132546 0.649543 0.187454
O O9 0.038261 0.644057 0.131094
O O10 0.270367 0.626464 0.837041
O O11 0.750000 0.250000 0.500000
O O12 0.674707 0.118997 0.658210
O O13 0.500000 0.080684 0.500000
O O14 0.318921 0.000000 0.811419
O O15 0.500000 0.364885 0.500000
O O16 0.611258 0.500000 0.326533
O O17 0.547445 0.000000 0.764245
O O18 0.500000 0.078826 0.000000
#
# Coordination Sequence:
#
# PCOD8107705 Si02
#       7
#     8   8   8   8   8   8   8
#     4  12  26  45  73 107 144 187 244 306 367 431
#     4  11  25  48  75 104 146 194 243 301 370 444
#     4  12  23  44  71 106 142 186 235 302 363 430
#     4  12  28  48  74 104 147 191 247 306 363 430
#     4  11  26  45  69 105 147 188 236 293 367 446
#     4  10  21  37  64 102 142 183 233 295 368 435
#     4  11  24  44  71 100 140 188 241 292 353 428
#
# _framework density 23.132238999999998
#
# number of rings (size 3 to 8) (size 9 to 14) (size 15 to 20)
#    0.000    0.714    2.857    4.286    4.000    0.571 
#    0.000    2.857    0.000    0.000    0.000    0.000 
#    0.000    0.000    0.000    0.000    0.000    0.000 
#
# Total GULP energy -346939.727308 kJ/mol
# GULP energy per Si atom -12390.704547 kJ/mol
# Density = 2.307959 g / cm^3
# Si number density = 23.132239 Si / 1000 Ang^3
#
#
#
# Elastic Constant Matrix: (Units=GPa)
#
#
# Indices 1 2 3 4 5 6 
#
# 1 65.8090 22.4059 21.2894 0.0000 -14.5092 0.0000
# 2 22.4059 123.5359 41.3627 0.0000 -1.0698 0.0000
# 3 21.2894 41.3627 112.4411 0.0000 -12.2682 0.0000
# 4 0.0000 0.0000 0.0000 56.0300 0.0000 -2.0327
# 5 -14.5092 -1.0698 -12.2682 0.0000 37.9535 0.0000
# 6 0.0000 0.0000 0.0000 -2.0327 0.0000 26.9992
#
#
#
# Elastic Compliance Matrix: (Units=1/GPa)
#
#
# Indices 1 2 3 4 5 6 
#
# 1 0.018039 -0.002626 -0.001768 0.000000 0.006251 0.000000
# 2 -0.002626 0.009642 -0.003244 0.000000 -0.001781 0.000000
# 3 -0.001768 -0.003244 0.010716 0.000000 0.002697 0.000000
# 4 0.000000 0.000000 0.000000 0.017896 0.000000 0.001347
# 5 0.006251 -0.001781 0.002697 0.000000 0.029559 0.000000
# 6 0.000000 0.000000 0.000000 0.001347 0.000000 0.037140
#
#
# Mechanical properties :
#
#
# Convention : Reuss Voigt Hill
#
# Bulk Modulus (GPa) = 43.24843 52.43356 47.84100
# Shear Modulus (GPa) = 34.25254 38.64506 36.44880
#
# Velocity S-wave (km/s) = 3.85220 4.09175 3.97378
# Velocity P-wave (km/s) = 6.20666 6.71113 6.46382
#
# Compressibility (1/GPa) = 0.02312222
#
# Stress axis : x y z
#
# Youngs Moduli (GPa) = 55.43394 103.71498 93.32052
#
# Poissons Ratio (x) = 0.27235 0.16495
# Poissons Ratio (y) = 0.14556 0.30273
# Poissons Ratio (z) = 0.09798 0.33645
#
# Static dielectric constant tensor:
#      x y z
#    x 3.997060 0.000000 0.076480 
#    y 0.000000 5.315180 0.000000 
#    z 0.076480 0.000000 4.957520 
# 
# 
# High freq. dielectric constant tensor:
#      x y z
#    x 1.895040 0.000000 -0.013170 
#    y 0.000000 1.933110 0.000000 
#    z -0.013170 0.000000 1.925950 
# 
# From -- ./inp_files/240918.got.cif
#   From: 2010.06.25/outbox.cif.g09.slc.cpg/sg12_121_cif.got.tgz:240918.got - 2010.06.28 00:19:55.
