data_PCOD8107480
_publ_section_title
;
Structure prediction by ZEFSAII (Michael W. Deem and Ramdas Pophale) SiO2 
 PCOD8107480
Probable space group: C 2/M
;
_chemical_formula_sum "Si O2"
_cell_formula_units_Z 56
_cell_length_a 15.781692
_cell_length_b 14.203668
_cell_length_c 12.870820
_cell_angle_alpha 90.000000
_cell_angle_beta 118.919866
_cell_angle_gamma 90.000000
_cell_volume 2525.315744
_symmetry_space_group_name_H-M "C 2/M"
_symmetry_group_IT_number 12
_symmetry_cell_setting 'monoclinic'
loop_
_space_group_symop_operation_xyz
x,y,z
-x,y,-z
-x,-y,-z
x,-y,z
1/2+x,1/2+y,z
1/2-x,1/2+y,-z
1/2-x,1/2-y,-z
1/2+x,1/2-y,z
loop_
_atom_site_type_symbol
_atom_site_label
_atom_site_fract_x
_atom_site_fract_y
_atom_site_fract_z
Si Si1 0.896437 0.608655 0.166514
Si Si2 0.390753 0.103770 0.786330
Si Si3 0.377773 0.726417 0.289620
Si Si4 0.895930 0.105699 0.887627
Si Si5 0.817257 0.287141 0.922699
Si Si6 0.555936 0.605634 0.314751
Si Si7 0.289359 0.672181 0.446952
O O1 0.860187 0.500000 0.146252
O O2 0.881461 0.661200 0.267559
O O3 0.010177 0.614728 0.215816
O O4 0.837899 0.674030 0.049486
O O5 0.395084 0.171742 0.887939
O O6 0.301907 0.119778 0.655890
O O7 0.380555 0.000000 0.827624
O O8 0.289368 0.678739 0.173614
O O9 0.474732 0.674939 0.310483
O O10 0.359136 0.717237 0.400802
O O11 0.826313 0.173392 0.914719
O O12 0.905373 0.142319 0.774053
O O13 0.851568 0.000000 0.863972
O O14 0.000000 0.106360 0.000000
O O15 0.513511 0.500000 0.277671
O O16 0.645246 0.601028 0.447682
O O17 0.250000 0.750000 0.500000
#
# Coordination Sequence:
#
# PCOD8107480 Si02
#       7
#     8   8   8   8   8   8   8
#     4  11  23  40  62  89 124 164 205 250 304 364
#     4  10  21  37  60  89 118 154 203 254 298 350
#     4  11  24  39  59  88 123 160 201 256 309 359
#     4  10  21  38  63  93 125 161 201 249 303 363
#     4  11  21  37  62  89 124 164 205 248 298 363
#     4  11  23  40  64  93 125 162 203 250 308 367
#     4  11  23  41  64  86 117 160 205 256 308 365
#
# _framework density 22.175445
#
# number of rings (size 3 to 8) (size 9 to 14) (size 15 to 20)
#    0.000    1.286    0.000    7.286    0.000    5.714 
#    0.000    2.857    0.000    3.429    0.000    0.000 
#    0.000    0.000    0.000    0.000    0.000    0.000 
#
# Total GULP energy -347190.446135 kJ/mol
# GULP energy per Si atom -12399.658791 kJ/mol
# Density = 2.212497 g / cm^3
# Si number density = 22.175445 Si / 1000 Ang^3
#
#
#
# Elastic Constant Matrix: (Units=GPa)
#
#
# Indices 1 2 3 4 5 6 
#
# 1 47.1176 16.2566 24.3512 0.0000 -10.5461 0.0000
# 2 16.2566 101.6837 22.7369 0.0000 -21.8634 0.0000
# 3 24.3512 22.7369 109.7514 0.0000 -12.1663 0.0000
# 4 0.0000 0.0000 0.0000 29.8132 0.0000 1.5276
# 5 -10.5461 -21.8634 -12.1663 0.0000 38.0804 0.0000
# 6 0.0000 0.0000 0.0000 1.5276 0.0000 15.5548
#
#
#
# Elastic Compliance Matrix: (Units=1/GPa)
#
#
# Indices 1 2 3 4 5 6 
#
# 1 0.025342 -0.002067 -0.004715 0.000000 0.004325 0.000000
# 2 -0.002067 0.011691 -0.001330 0.000000 0.005715 0.000000
# 3 -0.004715 -0.001330 0.010578 0.000000 0.001310 0.000000
# 4 0.000000 0.000000 0.000000 0.033712 0.000000 -0.003311
# 5 0.004325 0.005715 0.001310 0.000000 0.031158 0.000000
# 6 0.000000 0.000000 0.000000 -0.003311 0.000000 0.064614
#
#
# Mechanical properties :
#
#
# Convention : Reuss Voigt Hill
#
# Bulk Modulus (GPa) = 31.86042 42.80468 37.33255
# Shear Modulus (GPa) = 24.53614 29.70355 27.11984
#
# Velocity S-wave (km/s) = 3.32995 3.66386 3.50089
# Velocity P-wave (km/s) = 5.40216 6.10272 5.76309
#
# Compressibility (1/GPa) = 0.03138691
#
# Stress axis : x y z
#
# Youngs Moduli (GPa) = 39.46084 85.53549 94.53226
#
# Poissons Ratio (x) = 0.17682 0.44572
# Poissons Ratio (y) = 0.08158 0.12571
# Poissons Ratio (z) = 0.18606 0.11375
#
# Static dielectric constant tensor:
#      x y z
#    x 3.938290 0.000000 -0.229600 
#    y 0.000000 4.291720 0.000000 
#    z -0.229600 0.000000 3.604710 
# 
# 
# High freq. dielectric constant tensor:
#      x y z
#    x 1.881230 0.000000 0.003370 
#    y 0.000000 1.875240 0.000000 
#    z 0.003370 0.000000 1.874560 
# 
# From -- ./inp_files/156729.got.cif
#   From: 2010.06.25/outbox.cif.g09.slc.cpg/sg12_79_cif.got.tgz:156729.got - 2010.06.28 00:19:55.
