data_PCOD8107267
_publ_section_title
;
Structure prediction by ZEFSAII (Michael W. Deem and Ramdas Pophale) SiO2 
 PCOD8107267
Probable space group: C 2/M
;
_chemical_formula_sum "Si O2"
_cell_formula_units_Z 48
_cell_length_a 20.727619
_cell_length_b 8.640783
_cell_length_c 26.813569
_cell_angle_alpha 90.000000
_cell_angle_beta 150.003292
_cell_angle_gamma 90.000000
_cell_volume 2400.954455
_symmetry_space_group_name_H-M "C 2/M"
_symmetry_group_IT_number 12
_symmetry_cell_setting 'monoclinic'
loop_
_space_group_symop_operation_xyz
x,y,z
-x,y,-z
-x,-y,-z
x,-y,z
1/2+x,1/2+y,z
1/2-x,1/2+y,-z
1/2-x,1/2-y,-z
1/2+x,1/2-y,z
loop_
_atom_site_type_symbol
_atom_site_label
_atom_site_fract_x
_atom_site_fract_y
_atom_site_fract_z
Si Si1 0.377842 0.318916 0.561724
Si Si2 0.371698 0.684155 0.887519
Si Si3 0.374942 0.317248 0.109593
Si Si4 0.372232 0.682664 0.776200
Si Si5 0.630257 0.679154 0.560753
Si Si6 0.120822 0.317331 0.778621
O O1 0.388824 0.500000 0.581842
O O2 0.250000 0.250000 0.500000
O O3 0.377888 0.288225 0.503096
O O4 0.497604 0.226691 0.663884
O O5 0.375157 0.500000 0.888481
O O6 0.363987 0.752444 0.826435
O O7 0.247443 0.742107 0.834572
O O8 0.500000 0.749422 0.000000
O O9 0.369392 0.500000 0.101926
O O10 0.500411 0.250418 0.165238
O O11 0.384201 0.268454 0.172638
O O12 0.250000 0.250000 0.000000
O O13 0.381721 0.500000 0.785609
O O14 0.247957 0.725437 0.661335
O O15 0.500000 0.738072 0.500000
O O16 0.653955 0.500000 0.588471
O O17 0.124205 0.500000 0.790050
#
# Coordination Sequence:
#
# PCOD8107267 Si02
#       6
#     8   8   8   8   8   8
#     4  11  23  39  59  83 114 151 192 236 284 341
#     4   9  18  35  58  83 112 147 188 232 279 335
#     4  11  23  39  60  86 117 152 192 236 282 336
#     4  10  21  37  59  85 111 146 192 237 280 333
#     4  10  22  39  58  82 114 150 186 231 287 340
#     4  11  22  37  60  87 116 150 188 234 287 339
#
# _framework density 19.992049000000002
#
# number of rings (size 3 to 8) (size 9 to 14) (size 15 to 20)
#    0.000    1.667    0.000    4.500    0.000    8.333 
#    0.000    0.833    0.000    3.500    0.000    0.000 
#    0.000    0.000    0.000    0.000    0.000    0.000 
#
# Total GULP energy -297704.523405 kJ/mol
# GULP energy per Si atom -12404.355142 kJ/mol
# Density = 1.994655 g / cm^3
# Si number density = 19.992049 Si / 1000 Ang^3
#
#
#
# Elastic Constant Matrix: (Units=GPa)
#
#
# Indices 1 2 3 4 5 6 
#
# 1 162.9205 28.1141 54.8319 -0.0001 17.2147 0.0002
# 2 28.1141 32.4039 14.2520 -0.0002 4.4108 0.0000
# 3 54.8319 14.2520 131.3062 -0.0010 17.4203 -0.0001
# 4 -0.0001 -0.0002 -0.0010 34.8150 -0.0002 -3.0329
# 5 17.2147 4.4108 17.4203 -0.0002 44.8834 -0.0001
# 6 0.0002 0.0000 -0.0001 -3.0329 -0.0001 28.0459
#
#
#
# Elastic Compliance Matrix: (Units=1/GPa)
#
#
# Indices 1 2 3 4 5 6 
#
# 1 0.008160 -0.005733 -0.002578 0.000000 -0.001566 0.000000
# 2 -0.005733 0.036593 -0.001468 0.000000 -0.000827 0.000000
# 3 -0.002578 -0.001468 0.009174 0.000000 -0.002428 0.000000
# 4 0.000000 0.000000 0.000000 0.028996 0.000000 0.003136
# 5 -0.001566 -0.000827 -0.002428 0.000000 0.023904 0.000000
# 6 0.000000 0.000000 0.000000 0.003136 0.000000 0.035995
#
#
# Mechanical properties :
#
#
# Convention : Reuss Voigt Hill
#
# Bulk Modulus (GPa) = 29.09566 57.89184 43.49375
# Shear Modulus (GPa) = 28.76276 36.84437 32.80356
#
# Velocity S-wave (km/s) = 3.79715 4.29762 4.05511
# Velocity P-wave (km/s) = 5.81461 7.32437 6.61271
#
# Compressibility (1/GPa) = 0.03436939
#
# Stress axis : x y z
#
# Youngs Moduli (GPa) = 122.54511 27.32771 109.00901
#
# Poissons Ratio (x) = 0.15667 0.28098
# Poissons Ratio (y) = 0.70257 0.16002
# Poissons Ratio (z) = 0.31587 0.04012
#
# Static dielectric constant tensor:
#      x y z
#    x 5.958050 -0.000010 -0.269800 
#    y -0.000010 3.462840 0.000000 
#    z -0.269800 0.000000 3.778610 
# 
# 
# High freq. dielectric constant tensor:
#      x y z
#    x 1.804390 0.000000 0.001140 
#    y 0.000000 1.762510 0.000000 
#    z 0.001140 0.000000 1.798750 
# 
# From -- ./inp_files/365390.got.cif
#   From: 2010.06.25/outbox.cif.g09.slc.cpg/sg12_183_cif.got.tgz:365390.got - 2010.06.28 00:19:55.
