data_PCOD8107287
_publ_section_title
;
Structure prediction by ZEFSAII (Michael W. Deem and Ramdas Pophale) SiO2 
 PCOD8107287
Probable space group: C 2/M
;
_chemical_formula_sum "Si O2"
_cell_formula_units_Z 40
_cell_length_a 27.162104
_cell_length_b 8.882714
_cell_length_c 8.945904
_cell_angle_alpha 90.000000
_cell_angle_beta 109.330034
_cell_angle_gamma 90.000000
_cell_volume 2036.732254
_symmetry_space_group_name_H-M "C 2/M"
_symmetry_group_IT_number 12
_symmetry_cell_setting 'monoclinic'
loop_
_space_group_symop_operation_xyz
x,y,z
-x,y,-z
-x,-y,-z
x,-y,z
1/2+x,1/2+y,z
1/2-x,1/2+y,-z
1/2-x,1/2-y,-z
1/2+x,1/2-y,z
loop_
_atom_site_type_symbol
_atom_site_label
_atom_site_fract_x
_atom_site_fract_y
_atom_site_fract_z
Si Si1 0.849283 0.676783 0.273555
Si Si2 0.253160 0.677814 0.341851
Si Si3 0.052026 0.177043 0.130490
Si Si4 0.149395 0.323257 0.068150
Si Si5 0.555026 0.673486 0.478266
O O1 0.838655 0.500000 0.279573
O O2 0.804535 0.767521 0.311119
O O3 0.904250 0.717506 0.401619
O O4 0.849999 0.728614 0.102638
O O5 0.255488 0.500000 0.362261
O O6 0.250000 0.750000 0.500000
O O7 0.203291 0.730024 0.196477
O O8 0.102431 0.245977 0.105844
O O9 0.050508 0.222102 0.301952
O O10 0.054891 0.000000 0.110229
O O11 0.000000 0.242154 0.000000
O O12 0.141620 0.500000 0.074856
O O13 0.500000 0.700688 0.500000
O O14 0.572905 0.500000 0.512269
#
# Coordination Sequence:
#
# PCOD8107287 Si02
#       5
#     8   8   8   8   8
#     4  11  23  39  59  85 116 151 192 235 284 339
#     4  11  23  40  61  86 116 150 190 235 285 339
#     4  10  21  37  59  86 114 148 190 234 282 338
#     4  10  23  40  58  83 115 151 190 234 283 337
#     4  10  21  38  60  86 116 151 192 237 286 339
#
# _framework density 19.639301
#
# number of rings (size 3 to 8) (size 9 to 14) (size 15 to 20)
#    0.000    1.600    0.000    4.200    0.000    9.600 
#    0.000    0.000    0.000    0.000    0.000    0.000 
#    0.000    0.000    0.000    0.000    0.000    0.000 
#
# Total GULP energy -248118.189604 kJ/mol
# GULP energy per Si atom -12405.909480 kJ/mol
# Density = 1.959460 g / cm^3
# Si number density = 19.639301 Si / 1000 Ang^3
#
#
#
# Elastic Constant Matrix: (Units=GPa)
#
#
# Indices 1 2 3 4 5 6 
#
# 1 138.0088 42.1635 85.5710 0.0000 -6.5376 0.0000
# 2 42.1635 41.5518 41.3779 0.0000 -2.9070 0.0000
# 3 85.5710 41.3779 173.2624 0.0000 -7.0482 0.0000
# 4 0.0000 0.0000 0.0000 30.4685 0.0000 -0.4248
# 5 -6.5376 -2.9070 -7.0482 0.0000 43.3395 0.0000
# 6 0.0000 0.0000 0.0000 -0.4248 0.0000 41.5400
#
#
#
# Elastic Compliance Matrix: (Units=1/GPa)
#
#
# Indices 1 2 3 4 5 6 
#
# 1 0.012388 -0.008474 -0.004068 0.000000 0.000639 0.000000
# 2 -0.008474 0.037407 -0.004730 0.000000 0.000462 0.000000
# 3 -0.004068 -0.004730 0.008932 0.000000 0.000522 0.000000
# 4 0.000000 0.000000 0.000000 0.032825 0.000000 0.000336
# 5 0.000639 0.000462 0.000522 0.000000 0.023286 0.000000
# 6 0.000000 0.000000 0.000000 0.000336 0.000000 0.024077
#
#
# Mechanical properties :
#
#
# Convention : Reuss Voigt Hill
#
# Bulk Modulus (GPa) = 41.35195 76.78309 59.06752
# Shear Modulus (GPa) = 27.54538 35.31697 31.43117
#
# Velocity S-wave (km/s) = 3.74915 4.24521 4.00487
# Velocity P-wave (km/s) = 6.31212 7.95051 7.17821
#
# Compressibility (1/GPa) = 0.02418266
#
# Stress axis : x y z
#
# Youngs Moduli (GPa) = 80.72593 26.73286 111.96270
#
# Poissons Ratio (x) = 0.22653 0.45550
# Poissons Ratio (y) = 0.68407 0.52953
# Poissons Ratio (z) = 0.32842 0.12643
#
# Static dielectric constant tensor:
#      x y z
#    x 3.552570 0.000000 0.091440 
#    y 0.000000 3.203770 0.000000 
#    z 0.091440 0.000000 3.816030 
# 
# 
# High freq. dielectric constant tensor:
#      x y z
#    x 1.783430 0.000000 -0.000930 
#    y 0.000000 1.761270 0.000000 
#    z -0.000930 0.000000 1.787590 
# 
# From -- ./inp_files/92766.got.cif
#   From: 2010.06.25/outbox.cif.g09.slc.cpg/sg12_47_cif.got.tgz:92766.got - 2010.06.28 00:19:55.
