data_PCOD8107748
_publ_section_title
;
Structure prediction by ZEFSAII (Michael W. Deem and Ramdas Pophale) SiO2 
 PCOD8107748
Probable space group: C 2/M
;
_chemical_formula_sum "Si O2"
_cell_formula_units_Z 56
_cell_length_a 14.757844
_cell_length_b 27.047254
_cell_length_c 8.714804
_cell_angle_alpha 90.000000
_cell_angle_beta 120.361177
_cell_angle_gamma 90.000000
_cell_volume 3001.526766
_symmetry_space_group_name_H-M "C 2/M"
_symmetry_group_IT_number 12
_symmetry_cell_setting 'monoclinic'
loop_
_space_group_symop_operation_xyz
x,y,z
-x,y,-z
-x,-y,-z
x,-y,z
1/2+x,1/2+y,z
1/2-x,1/2+y,-z
1/2-x,1/2-y,-z
1/2+x,1/2-y,z
loop_
_atom_site_type_symbol
_atom_site_label
_atom_site_fract_x
_atom_site_fract_y
_atom_site_fract_z
Si Si1 0.909297 0.055994 0.632539
Si Si2 0.743377 0.856061 0.004830
Si Si3 0.218047 0.225501 0.705487
Si Si4 0.591352 0.732083 0.304719
Si Si5 0.427553 0.804478 0.296100
Si Si6 0.646607 0.444290 0.759304
Si Si7 0.894424 0.866224 0.852562
O O1 0.850441 0.059673 0.420851
O O2 0.847748 0.094252 0.690891
O O3 0.031600 0.071542 0.720791
O O4 0.900698 0.000000 0.688602
O O5 0.778431 0.815076 0.158468
O O6 0.761724 0.909725 0.094193
O O7 0.620173 0.848932 0.849578
O O8 0.811560 0.852546 0.909926
O O9 0.329832 0.232507 0.720446
O O10 0.135465 0.210527 0.502957
O O11 0.178556 0.277888 0.736818
O O12 0.489078 0.765364 0.244275
O O13 0.561916 0.684054 0.184945
O O14 0.500000 0.823842 0.500000
O O15 0.672017 0.500000 0.833763
O O16 0.000000 0.893379 0.000000
#
# Coordination Sequence:
#
# PCOD8107748 Si02
#       7
#     8   8   8   8   8   8   8
#     4   9  19  36  56  81 116 151 183 228 292 351
#     4  12  22  35  57  84 115 149 190 235 278 342
#     4  10  21  38  55  79 109 152 200 231 274 337
#     4  10  22  37  55  76 114 157 191 234 279 323
#     4  10  22  38  55  80 118 153 189 238 282 329
#     4   9  19  37  58  81 111 147 189 237 287 344
#     4  12  22  31  51  84 116 151 185 228 277 342
#
# _framework density 18.657171999999999
#
# number of rings (size 3 to 8) (size 9 to 14) (size 15 to 20)
#    0.000    1.714    2.857    3.000    2.000    0.857 
#    0.000    0.000    0.000    0.429    0.000    2.000 
#    0.000    0.000    0.000    0.000    0.000    0.000 
#
# Total GULP energy -347061.580695 kJ/mol
# GULP energy per Si atom -12395.056453 kJ/mol
# Density = 1.861471 g / cm^3
# Si number density = 18.657172 Si / 1000 Ang^3
#
#
#
# Elastic Constant Matrix: (Units=GPa)
#
#
# Indices 1 2 3 4 5 6 
#
# 1 71.5817 30.8791 46.1017 0.0000 -10.3700 0.0000
# 2 30.8791 100.6660 71.1457 0.0000 -0.9304 0.0000
# 3 46.1017 71.1457 106.4943 0.0000 -0.2071 0.0000
# 4 0.0000 0.0000 0.0000 40.0731 0.0000 -0.3249
# 5 -10.3700 -0.9304 -0.2071 0.0000 30.3430 0.0000
# 6 0.0000 0.0000 0.0000 -0.3249 0.0000 11.5933
#
#
#
# Elastic Compliance Matrix: (Units=1/GPa)
#
#
# Indices 1 2 3 4 5 6 
#
# 1 0.020773 0.000074 -0.009028 0.000000 0.007040 0.000000
# 2 0.000074 0.018827 -0.012609 0.000000 0.000516 0.000000
# 3 -0.009028 -0.012609 0.021716 0.000000 -0.003324 0.000000
# 4 0.000000 0.000000 0.000000 0.024960 0.000000 0.000699
# 5 0.007040 0.000516 -0.003324 0.000000 0.035356 0.000000
# 6 0.000000 0.000000 0.000000 0.000699 0.000000 0.086276
#
#
# Mechanical properties :
#
#
# Convention : Reuss Voigt Hill
#
# Bulk Modulus (GPa) = 54.97820 63.88834 59.43327
# Shear Modulus (GPa) = 19.44792 25.10960 22.27876
#
# Velocity S-wave (km/s) = 3.23210 3.67255 3.45934
# Velocity P-wave (km/s) = 6.59243 7.23195 6.91959
#
# Compressibility (1/GPa) = 0.01818903
#
# Stress axis : x y z
#
# Youngs Moduli (GPa) = 48.14047 53.11421 46.04981
#
# Poissons Ratio (x) = -0.00392 0.41574
# Poissons Ratio (y) = -0.00355 0.58064
# Poissons Ratio (z) = 0.43461 0.66971
#
# Static dielectric constant tensor:
#      x y z
#    x 3.241640 0.000000 -0.193480 
#    y 0.000000 3.280150 0.000000 
#    z -0.193480 0.000000 3.683360 
# 
# 
# High freq. dielectric constant tensor:
#      x y z
#    x 1.700830 0.000000 -0.020660 
#    y 0.000000 1.706340 0.000000 
#    z -0.020660 0.000000 1.737140 
# 
# From -- ./inp_files/65794.got.cif
#   From: 2010.06.25/outbox.cif.g09.slc.cpg/sg12_33_cif.got.tgz:65794.got - 2010.06.28 00:19:55.
