data_PCOD8107745
_publ_section_title
;
Structure prediction by ZEFSAII (Michael W. Deem and Ramdas Pophale) SiO2 
 PCOD8107745
Probable space group: C 2/M
;
_chemical_formula_sum "Si O2"
_cell_formula_units_Z 48
_cell_length_a 14.862947
_cell_length_b 9.033672
_cell_length_c 18.936661
_cell_angle_alpha 90.000000
_cell_angle_beta 91.503110
_cell_angle_gamma 90.000000
_cell_volume 2541.693547
_symmetry_space_group_name_H-M "C 2/M"
_symmetry_group_IT_number 12
_symmetry_cell_setting 'monoclinic'
loop_
_space_group_symop_operation_xyz
x,y,z
-x,y,-z
-x,-y,-z
x,-y,z
1/2+x,1/2+y,z
1/2-x,1/2+y,-z
1/2-x,1/2-y,-z
1/2+x,1/2-y,z
loop_
_atom_site_type_symbol
_atom_site_label
_atom_site_fract_x
_atom_site_fract_y
_atom_site_fract_z
Si Si1 0.752152 0.174292 0.396347
Si Si2 0.344461 0.329091 0.999700
Si Si3 0.405078 0.174719 0.865706
Si Si4 0.751111 0.825119 0.237969
Si Si5 0.577716 0.330009 0.844114
Si Si6 0.104258 0.674095 0.506310
O O1 0.738992 0.236465 0.316898
O O2 0.842390 0.248740 0.428857
O O3 0.660236 0.214152 0.436415
O O4 0.769826 0.000000 0.397873
O O5 0.330498 0.500000 0.980580
O O6 0.405954 0.254450 0.941447
O O7 0.250000 0.250000 0.000000
O O8 0.390554 0.308867 0.075526
O O9 0.324553 0.238220 0.815948
O O10 0.495602 0.220190 0.827182
O O11 0.398598 0.000000 0.877237
O O12 0.847025 0.777128 0.209345
O O13 0.740927 0.000000 0.238336
O O14 0.550049 0.500000 0.829906
O O15 0.104532 0.500000 0.520719
O O16 0.000000 0.730747 0.500000
#
# Coordination Sequence:
#
# PCOD8107745 Si02
#       6
#     8   8   8   8   8   8
#     4   9  18  34  56  78 104 144 181 213 259 319
#     4  11  21  36  58  79 105 142 183 229 278 324
#     4  11  22  37  56  81 108 140 181 227 272 327
#     4   9  19  37  55  74 108 145 177 215 270 325
#     4  10  21  38  55  75 105 142 179 225 276 323
#     4   9  18  33  54  81 111 139 172 219 268 311
#
# _framework density 18.885045999999999
#
# number of rings (size 3 to 8) (size 9 to 14) (size 15 to 20)
#    0.000    2.167    1.667    1.500    0.000    5.000 
#    0.000    4.167    0.000    0.000    0.000    0.000 
#    0.000    0.000    0.000    0.000    0.000    0.000 
#
# Total GULP energy -297582.938312 kJ/mol
# GULP energy per Si atom -12399.289096 kJ/mol
# Density = 1.884206 g / cm^3
# Si number density = 18.885046 Si / 1000 Ang^3
#
#
#
# Elastic Constant Matrix: (Units=GPa)
#
#
# Indices 1 2 3 4 5 6 
#
# 1 114.0336 28.9432 36.8156 0.0000 -16.7937 0.0000
# 2 28.9432 49.9997 28.7594 0.0000 -2.2775 0.0000
# 3 36.8156 28.7594 117.5806 0.0000 -17.4237 0.0000
# 4 0.0000 0.0000 0.0000 23.1283 0.0000 -0.0248
# 5 -16.7937 -2.2775 -17.4237 0.0000 17.9929 0.0000
# 6 0.0000 0.0000 0.0000 -0.0248 0.0000 34.7790
#
#
#
# Elastic Compliance Matrix: (Units=1/GPa)
#
#
# Indices 1 2 3 4 5 6 
#
# 1 0.011984 -0.006004 -0.000863 0.000000 0.009590 0.000000
# 2 -0.006004 0.026422 -0.005741 0.000000 -0.007819 0.000000
# 3 -0.000863 -0.005741 0.011620 0.000000 0.009720 0.000000
# 4 0.000000 0.000000 0.000000 0.043237 0.000000 0.000031
# 5 0.009590 -0.007819 0.009720 0.000000 0.072951 0.000000
# 6 0.000000 0.000000 0.000000 0.000031 0.000000 0.028753
#
#
# Mechanical properties :
#
#
# Convention : Reuss Voigt Hill
#
# Bulk Modulus (GPa) = 40.30759 52.29448 46.30103
# Shear Modulus (GPa) = 21.88630 27.65308 24.76969
#
# Velocity S-wave (km/s) = 3.40799 3.83075 3.62554
# Velocity P-wave (km/s) = 6.07255 6.87875 6.48818
#
# Compressibility (1/GPa) = 0.02480922
#
# Stress axis : x y z
#
# Youngs Moduli (GPa) = 83.44377 37.84723 86.06150
#
# Poissons Ratio (x) = 0.22724 0.07424
# Poissons Ratio (y) = 0.50101 0.49411
# Poissons Ratio (z) = 0.07198 0.21730
#
# Static dielectric constant tensor:
#      x y z
#    x 3.603160 0.000000 -0.253930 
#    y 0.000000 3.036520 0.000000 
#    z -0.253930 0.000000 3.931260 
# 
# 
# High freq. dielectric constant tensor:
#      x y z
#    x 1.744550 0.000000 -0.006500 
#    y 0.000000 1.715830 0.000000 
#    z -0.006500 0.000000 1.732400 
# 
# From -- ./inp_files/267639.got.cif
#   From: 2010.06.25/outbox.cif.g09.slc.cpg/sg12_134_cif.got.tgz:267639.got - 2010.06.28 00:19:55.
