data_PCOD8107292
_publ_section_title
;
Structure prediction by ZEFSAII (Michael W. Deem and Ramdas Pophale) SiO2 
 PCOD8107292
Probable space group: C 2/M
;
_chemical_formula_sum "Si O2"
_cell_formula_units_Z 40
_cell_length_a 29.587933
_cell_length_b 8.837422
_cell_length_c 7.290533
_cell_angle_alpha 90.000000
_cell_angle_beta 91.387403
_cell_angle_gamma 90.000000
_cell_volume 1905.777357
_symmetry_space_group_name_H-M "C 2/M"
_symmetry_group_IT_number 12
_symmetry_cell_setting 'monoclinic'
loop_
_space_group_symop_operation_xyz
x,y,z
-x,y,-z
-x,-y,-z
x,-y,z
1/2+x,1/2+y,z
1/2-x,1/2+y,-z
1/2-x,1/2-y,-z
1/2+x,1/2-y,z
loop_
_atom_site_type_symbol
_atom_site_label
_atom_site_fract_x
_atom_site_fract_y
_atom_site_fract_z
Si Si1 0.950214 0.825518 0.839687
Si Si2 0.350623 0.674326 0.867192
Si Si3 0.033705 0.675161 0.773945
Si Si4 0.702929 0.177551 0.443593
Si Si5 0.632514 0.822614 0.744739
O O1 0.898826 0.802750 0.766416
O O2 0.989207 0.769422 0.698840
O O3 0.958506 0.000000 0.893402
O O4 0.956730 0.718146 0.014920
O O5 0.336269 0.500000 0.866487
O O6 0.312259 0.767162 0.758093
O O7 0.353303 0.729070 0.075721
O O8 0.021611 0.500000 0.752082
O O9 0.080809 0.714650 0.674759
O O10 0.750000 0.250000 0.500000
O O11 0.665371 0.228977 0.586011
O O12 0.709110 0.000000 0.439559
O O13 0.636846 0.000000 0.791504
#
# Coordination Sequence:
#
# PCOD8107292 Si02
#       5
#     8   8   8   8   8
#     4   9  16  27  46  76 112 146 180 218 264 319
#     4  10  21  37  59  86 115 149 187 227 275 331
#     4   9  15  26  48  77 108 143 183 222 263 316
#     4  11  24  42  62  83 110 143 184 236 287 336
#     4   9  20  38  59  84 113 148 188 229 276 329
#
# _framework density 20.988810000000001
#
# number of rings (size 3 to 8) (size 9 to 14) (size 15 to 20)
#    0.000    2.400    0.000    3.600    0.000    5.600 
#    0.000    1.000    0.000    6.000    0.000    0.000 
#    0.000    0.000    0.000    0.000    0.000    0.000 
#
# Total GULP energy -247857.466348 kJ/mol
# GULP energy per Si atom -12392.873317 kJ/mol
# Density = 2.094104 g / cm^3
# Si number density = 20.988810 Si / 1000 Ang^3
#
#
#
# Elastic Constant Matrix: (Units=GPa)
#
#
# Indices 1 2 3 4 5 6 
#
# 1 81.8714 31.9607 6.0005 0.0000 -2.8627 0.0000
# 2 31.9607 69.8373 18.9085 0.0000 -2.3007 0.0000
# 3 6.0005 18.9085 31.5993 0.0000 -2.3171 0.0000
# 4 0.0000 0.0000 0.0000 16.5750 0.0000 2.1009
# 5 -2.8627 -2.3007 -2.3171 0.0000 33.0020 0.0000
# 6 0.0000 0.0000 0.0000 2.1009 0.0000 39.7720
#
#
#
# Elastic Compliance Matrix: (Units=1/GPa)
#
#
# Indices 1 2 3 4 5 6 
#
# 1 0.014957 -0.007236 0.001556 0.000000 0.000902 0.000000
# 2 -0.007236 0.020596 -0.010947 0.000000 0.000040 0.000000
# 3 0.001556 -0.010947 0.038051 0.000000 0.002043 0.000000
# 4 0.000000 0.000000 0.000000 0.060738 0.000000 -0.003208
# 5 0.000902 0.000040 0.002043 0.000000 0.030526 0.000000
# 6 0.000000 0.000000 0.000000 -0.003208 0.000000 0.025313
#
#
# Mechanical properties :
#
#
# Convention : Reuss Voigt Hill
#
# Bulk Modulus (GPa) = 24.78384 33.00525 28.89455
# Shear Modulus (GPa) = 21.10725 26.29904 23.70314
#
# Velocity S-wave (km/s) = 3.17463 3.54362 3.36419
# Velocity P-wave (km/s) = 5.02707 5.70108 5.37465
#
# Compressibility (1/GPa) = 0.04034887
#
# Stress axis : x y z
#
# Youngs Moduli (GPa) = 66.85963 48.55319 26.28034
#
# Poissons Ratio (x) = 0.35135 -0.04090
# Poissons Ratio (y) = 0.48383 0.28770
# Poissons Ratio (z) = -0.10404 0.53152
#
# Static dielectric constant tensor:
#      x y z
#    x 4.533080 0.000000 -0.222510 
#    y 0.000000 3.774400 0.000000 
#    z -0.222510 0.000000 3.325190 
# 
# 
# High freq. dielectric constant tensor:
#      x y z
#    x 1.840780 0.000000 -0.003760 
#    y 0.000000 1.827250 0.000000 
#    z -0.003760 0.000000 1.783410 
# 
# From -- ./inp_files/107491.got.cif
#   From: 2010.06.25/outbox.cif.g09.slc.cpg/sg12_54_cif.got.tgz:107491.got - 2010.06.28 00:19:55.
