data_PCOD8107327
_publ_section_title
;
Structure prediction by ZEFSAII (Michael W. Deem and Ramdas Pophale) SiO2 
 PCOD8107327
Probable space group: C 2/M
;
_chemical_formula_sum "Si O2"
_cell_formula_units_Z 56
_cell_length_a 23.713962
_cell_length_b 8.923570
_cell_length_c 15.076493
_cell_angle_alpha 90.000000
_cell_angle_beta 60.501067
_cell_angle_gamma 90.000000
_cell_volume 2776.798949
_symmetry_space_group_name_H-M "C 2/M"
_symmetry_group_IT_number 12
_symmetry_cell_setting 'monoclinic'
loop_
_space_group_symop_operation_xyz
x,y,z
-x,y,-z
-x,-y,-z
x,-y,z
1/2+x,1/2+y,z
1/2-x,1/2+y,-z
1/2-x,1/2-y,-z
1/2+x,1/2-y,z
loop_
_atom_site_type_symbol
_atom_site_label
_atom_site_fract_x
_atom_site_fract_y
_atom_site_fract_z
Si Si1 0.236038 0.175719 0.789338
Si Si2 0.927177 0.167945 0.831953
Si Si3 0.137286 0.831794 0.298066
Si Si4 0.190857 0.676823 0.990917
Si Si5 0.289648 0.674160 0.389203
Si Si6 0.932706 0.664601 0.503821
Si Si7 0.934916 0.172031 0.323294
O O1 0.306632 0.216452 0.773030
O O2 0.187101 0.261902 0.892826
O O3 0.232190 0.233952 0.690599
O O4 0.221975 0.000000 0.806356
O O5 0.918801 0.179019 0.731798
O O6 0.003725 0.201415 0.790557
O O7 0.909107 0.000000 0.878587
O O8 0.879734 0.285493 0.914905
O O9 0.111630 0.787024 0.414363
O O10 0.165534 0.000000 0.282201
O O11 0.201845 0.500000 0.983379
O O12 0.250000 0.750000 0.000000
O O13 0.274345 0.500000 0.410163
O O14 0.250000 0.750000 0.500000
O O15 0.366429 0.706654 0.330618
O O16 0.899032 0.500000 0.531860
O O17 0.943106 0.712978 0.396067
O O18 0.000000 0.653325 0.500000
O O19 0.937638 0.000000 0.354565
#
# Coordination Sequence:
#
# PCOD8107327 Si02
#       7
#     8   8   8   8   8   8   8
#     4  11  23  40  62  89 122 158 202 251 300 356
#     4  10  21  37  59  87 119 154 196 247 302 358
#     4  11  21  34  56  85 117 155 197 241 298 360
#     4  12  24  39  62  91 124 161 201 249 305 362
#     4  10  23  42  65  91 120 160 206 251 297 353
#     4  11  22  33  50  81 120 155 192 239 298 361
#     4  10  21  40  62  84 116 158 204 250 301 359
#
# _framework density 20.167107000000001
#
# number of rings (size 3 to 8) (size 9 to 14) (size 15 to 20)
#    0.000    1.286    2.857    3.429    0.000    5.714 
#    0.000    0.714    0.000    4.286    0.000    0.000 
#    0.000    0.000    0.000    0.000    0.000    0.000 
#
# Total GULP energy -347118.191255 kJ/mol
# GULP energy per Si atom -12397.078259 kJ/mol
# Density = 2.012121 g / cm^3
# Si number density = 20.167107 Si / 1000 Ang^3
#
#
#
# Elastic Constant Matrix: (Units=GPa)
#
#
# Indices 1 2 3 4 5 6 
#
# 1 92.2810 35.4991 39.3773 0.0000 -14.3511 0.0000
# 2 35.4991 105.8842 54.0943 0.0000 0.9828 0.0000
# 3 39.3773 54.0943 121.6972 0.0000 -7.1108 0.0000
# 4 0.0000 0.0000 0.0000 36.8561 0.0000 -3.4528
# 5 -14.3511 0.9828 -7.1108 0.0000 34.2624 0.0000
# 6 0.0000 0.0000 0.0000 -3.4528 0.0000 65.2029
#
#
#
# Elastic Compliance Matrix: (Units=1/GPa)
#
#
# Indices 1 2 3 4 5 6 
#
# 1 0.014167 -0.003392 -0.002757 0.000000 0.005459 0.000000
# 2 -0.003392 0.013107 -0.004893 0.000000 -0.002812 0.000000
# 3 -0.002757 -0.004893 0.011363 0.000000 0.001344 0.000000
# 4 0.000000 0.000000 0.000000 0.027268 0.000000 0.001444
# 5 0.005459 -0.002812 0.001344 0.000000 0.031833 0.000000
# 6 0.000000 0.000000 0.000000 0.001444 0.000000 0.015413
#
#
# Mechanical properties :
#
#
# Convention : Reuss Voigt Hill
#
# Bulk Modulus (GPa) = 60.41305 64.20041 62.30673
# Shear Modulus (GPa) = 35.52353 39.99040 37.75697
#
# Velocity S-wave (km/s) = 4.20153 4.45787 4.33159
# Velocity P-wave (km/s) = 7.31836 7.64199 7.48193
#
# Compressibility (1/GPa) = 0.01655272
#
# Stress axis : x y z
#
# Youngs Moduli (GPa) = 70.58819 76.29382 88.00653
#
# Poissons Ratio (x) = 0.25875 0.24267
# Poissons Ratio (y) = 0.23940 0.43062
# Poissons Ratio (z) = 0.19464 0.37331
#
# Static dielectric constant tensor:
#      x y z
#    x 3.528420 0.000000 -0.483360 
#    y 0.000000 3.743760 0.000000 
#    z -0.483360 0.000000 2.616850 
# 
# 
# High freq. dielectric constant tensor:
#      x y z
#    x 1.773470 0.000000 -0.014000 
#    y 0.000000 1.788610 0.000000 
#    z -0.014000 0.000000 1.786440 
# 
# From -- ./inp_files/238403.got.cif
#   From: 2010.06.25/outbox.cif.g09.slc.cpg/sg12_120_cif.got.tgz:238403.got - 2010.06.28 00:19:55.
