data_PCOD8107846
_publ_section_title
;
Structure prediction by ZEFSAII (Michael W. Deem and Ramdas Pophale) SiO2 
 PCOD8107846
Probable space group: C 2/M
;
_chemical_formula_sum "Si O2"
_cell_formula_units_Z 56
_cell_length_a 29.699583
_cell_length_b 8.584189
_cell_length_c 20.387813
_cell_angle_alpha 90.000000
_cell_angle_beta 147.517607
_cell_angle_gamma 90.000000
_cell_volume 2791.433131
_symmetry_space_group_name_H-M "C 2/M"
_symmetry_group_IT_number 12
_symmetry_cell_setting 'monoclinic'
loop_
_space_group_symop_operation_xyz
x,y,z
-x,y,-z
-x,-y,-z
x,-y,z
1/2+x,1/2+y,z
1/2-x,1/2+y,-z
1/2-x,1/2-y,-z
1/2+x,1/2-y,z
loop_
_atom_site_type_symbol
_atom_site_label
_atom_site_fract_x
_atom_site_fract_y
_atom_site_fract_z
Si Si1 0.079117 0.684828 0.137336
Si Si2 0.600158 0.178868 0.442862
Si Si3 0.474467 0.181874 0.786369
Si Si4 0.642053 0.680847 0.945279
Si Si5 0.253457 0.317420 0.298573
Si Si6 0.082655 0.681361 0.740270
Si Si7 0.703555 0.682819 0.791945
O O1 0.080254 0.500000 0.132275
O O2 0.072489 0.733743 0.205295
O O3 0.165023 0.756313 0.213602
O O4 0.000000 0.753238 0.000000
O O5 0.586371 0.218399 0.349356
O O6 0.675370 0.284262 0.560669
O O7 0.516202 0.219083 0.380533
O O8 0.625510 0.000000 0.483748
O O9 0.559592 0.279242 0.885665
O O10 0.499478 0.000000 0.817572
O O11 0.664159 0.500000 0.979937
O O12 0.629610 0.720858 0.853897
O O13 0.718324 0.782574 0.065512
O O14 0.241431 0.500000 0.276870
O O15 0.278626 0.248262 0.258674
O O16 0.097509 0.500000 0.773119
O O17 0.120438 0.731260 0.716815
O O18 0.685736 0.500000 0.767931
#
# Coordination Sequence:
#
# PCOD8107846 Si02
#       7
#     8   8   8   8   8   8   8
#     4   9  17  33  58  84 109 141 182 224 269 323
#     4   9  20  37  55  77 108 144 180 225 277 326
#     4   9  18  35  58  81 109 147 186 223 269 324
#     4  11  21  34  55  84 114 143 179 225 276 326
#     4  10  22  37  56  81 108 143 186 230 270 319
#     4  10  21  38  58  80 108 145 185 223 271 328
#     4  11  22  36  54  79 111 146 184 227 276 324
#
# _framework density 20.06138
#
# number of rings (size 3 to 8) (size 9 to 14) (size 15 to 20)
#    0.000    2.143    0.000    4.286    0.000    7.429 
#    0.000    3.571    0.000    1.714    0.000    0.000 
#    0.000    0.000    0.000    0.000    0.000    0.000 
#
# Total GULP energy -347273.540783 kJ/mol
# GULP energy per Si atom -12402.626457 kJ/mol
# Density = 2.001572 g / cm^3
# Si number density = 20.061380 Si / 1000 Ang^3
#
#
#
# Elastic Constant Matrix: (Units=GPa)
#
#
# Indices 1 2 3 4 5 6 
#
# 1 182.9578 21.4663 66.4609 0.0000 7.6546 0.0000
# 2 21.4663 31.6447 11.8230 0.0000 -0.7014 0.0000
# 3 66.4609 11.8230 112.6469 0.0000 11.6409 0.0000
# 4 0.0000 0.0000 0.0000 29.9568 0.0000 0.9098
# 5 7.6546 -0.7014 11.6409 0.0000 17.7807 0.0000
# 6 0.0000 0.0000 0.0000 0.9098 0.0000 23.7711
#
#
#
# Elastic Compliance Matrix: (Units=1/GPa)
#
#
# Indices 1 2 3 4 5 6 
#
# 1 0.007317 -0.003535 -0.003868 0.000000 -0.000757 0.000000
# 2 -0.003535 0.034842 -0.002006 0.000000 0.004210 0.000000
# 3 -0.003868 -0.002006 0.012019 0.000000 -0.006283 0.000000
# 4 0.000000 0.000000 0.000000 0.033420 0.000000 -0.001279
# 5 -0.000757 0.004210 -0.006283 0.000000 0.060846 0.000000
# 6 0.000000 0.000000 0.000000 -0.001279 0.000000 0.042117
#
#
# Mechanical properties :
#
#
# Convention : Reuss Voigt Hill
#
# Bulk Modulus (GPa) = 28.28076 58.52775 43.40425
# Shear Modulus (GPa) = 22.60738 29.46834 26.03786
#
# Velocity S-wave (km/s) = 3.36059 3.83679 3.60656
# Velocity P-wave (km/s) = 5.40239 6.99040 6.24706
#
# Compressibility (1/GPa) = 0.03535973
#
# Stress axis : x y z
#
# Youngs Moduli (GPa) = 136.66361 28.70106 83.20093
#
# Poissons Ratio (x) = 0.10147 0.32180
# Poissons Ratio (y) = 0.48316 0.16691
# Poissons Ratio (z) = 0.52859 0.05758
#
# Static dielectric constant tensor:
#      x y z
#    x 4.012230 0.000000 0.067110 
#    y 0.000000 3.332220 0.000000 
#    z 0.067110 0.000000 3.496210 
# 
# 
# High freq. dielectric constant tensor:
#      x y z
#    x 1.796310 0.000000 0.002870 
#    y 0.000000 1.759110 0.000000 
#    z 0.002870 0.000000 1.777130 
# 
# From -- ./inp_files/238242.got.cif
#   From: 2010.06.25/outbox.cif.g09.slc.cpg/sg12_120_cif.got.tgz:238242.got - 2010.06.28 00:19:55.
