data_PCOD8107886
_publ_section_title
;
Structure prediction by ZEFSAII (Michael W. Deem and Ramdas Pophale) SiO2 
 PCOD8107886
Probable space group: C 2/M
;
_chemical_formula_sum "Si O2"
_cell_formula_units_Z 64
_cell_length_a 24.264061
_cell_length_b 8.832488
_cell_length_c 29.342162
_cell_angle_alpha 90.000000
_cell_angle_beta 148.954907
_cell_angle_gamma 90.000000
_cell_volume 3242.995412
_symmetry_space_group_name_H-M "C 2/M"
_symmetry_group_IT_number 12
_symmetry_cell_setting 'monoclinic'
loop_
_space_group_symop_operation_xyz
x,y,z
-x,y,-z
-x,-y,-z
x,-y,z
1/2+x,1/2+y,z
1/2-x,1/2+y,-z
1/2-x,1/2-y,-z
1/2+x,1/2-y,z
loop_
_atom_site_type_symbol
_atom_site_label
_atom_site_fract_x
_atom_site_fract_y
_atom_site_fract_z
Si Si1 0.057125 0.821422 0.972166
Si Si2 0.137560 0.179358 0.932795
Si Si3 0.365759 0.177456 0.587720
Si Si4 0.226946 0.327086 0.629279
Si Si5 0.173173 0.175553 0.684000
Si Si6 0.556672 0.672904 0.267388
Si Si7 0.059410 0.824935 0.446646
Si Si8 0.339159 0.320947 0.861580
O O1 0.097816 0.752670 0.953179
O O2 0.938313 0.764360 0.900622
O O3 0.050223 0.000000 0.963449
O O4 0.139080 0.776982 0.070457
O O5 0.052976 0.225313 0.833972
O O6 0.149330 0.000000 0.944495
O O7 0.250000 0.250000 0.000000
O O8 0.250000 0.250000 0.500000
O O9 0.421785 0.220879 0.674471
O O10 0.442169 0.230112 0.600971
O O11 0.349988 0.000000 0.574287
O O12 0.188183 0.500000 0.596285
O O13 0.215274 0.276861 0.672769
O O14 0.350671 0.309928 0.704342
O O15 0.158465 0.221181 0.548002
O O16 0.234746 0.228152 0.772936
O O17 0.048150 0.207238 0.601852
O O18 0.194680 0.000000 0.689006
O O19 0.549687 0.500000 0.279622
O O20 0.071248 0.000000 0.442142
O O21 0.320039 0.500000 0.842641
#
# Coordination Sequence:
#
# PCOD8107886 Si02
#       8
#     8   8   8   8   8   8   8   8
#     4   8  16  34  60  85 110 144 188 243 296 341
#     4  10  21  38  58  84 120 156 193 240 296 354
#     4  12  24  40  64  90 118 154 200 251 298 352
#     4  11  22  38  63  88 113 152 202 246 291 353
#     4  11  24  38  54  83 124 159 189 237 302 354
#     4  10  22  40  63  90 120 157 199 248 303 356
#     4  11  24  41  59  83 120 160 194 240 299 352
#     4   9  17  34  61  86 108 143 193 242 291 351
#
# _framework density 19.734840999999999
#
# number of rings (size 3 to 8) (size 9 to 14) (size 15 to 20)
#    0.000    1.750    1.250    4.125    0.000    7.500 
#    0.000    6.250    0.000    0.000    0.000    0.000 
#    0.000    0.000    0.000    0.000    0.000    0.000 
#
# Total GULP energy -396911.659751 kJ/mol
# GULP energy per Si atom -12403.489367 kJ/mol
# Density = 1.968992 g / cm^3
# Si number density = 19.734841 Si / 1000 Ang^3
#
#
#
# Elastic Constant Matrix: (Units=GPa)
#
#
# Indices 1 2 3 4 5 6 
#
# 1 85.5553 38.7125 49.0661 0.0001 -14.3821 0.0000
# 2 38.7125 78.3210 46.9960 -0.0009 -0.5106 -0.0028
# 3 49.0661 46.9960 126.8816 0.0006 -1.2940 -0.0001
# 4 0.0001 -0.0009 0.0006 32.8337 0.0003 -0.1825
# 5 -14.3821 -0.5106 -1.2940 0.0003 28.9053 0.0000
# 6 0.0000 -0.0028 -0.0001 -0.1825 0.0000 31.1410
#
#
#
# Elastic Compliance Matrix: (Units=1/GPa)
#
#
# Indices 1 2 3 4 5 6 
#
# 1 0.018869 -0.006358 -0.004850 0.000000 0.009059 -0.000001
# 2 -0.006358 0.018559 -0.004446 0.000001 -0.003035 0.000002
# 3 -0.004850 -0.004446 0.011383 0.000000 -0.001982 0.000000
# 4 0.000000 0.000001 0.000000 0.030458 0.000000 0.000179
# 5 0.009059 -0.003035 -0.001982 0.000000 0.038961 0.000000
# 6 -0.000001 0.000002 0.000000 0.000179 0.000000 0.032113
#
#
# Mechanical properties :
#
#
# Convention : Reuss Voigt Hill
#
# Bulk Modulus (GPa) = 57.12985 62.25636 59.69310
# Shear Modulus (GPa) = 26.66881 28.97488 27.82185
#
# Velocity S-wave (km/s) = 3.68007 3.83588 3.75878
# Velocity P-wave (km/s) = 6.86067 7.15776 7.01079
#
# Compressibility (1/GPa) = 0.01750398
#
# Stress axis : x y z
#
# Youngs Moduli (GPa) = 52.99628 53.88320 87.84661
#
# Poissons Ratio (x) = 0.34257 0.42603
# Poissons Ratio (y) = 0.33693 0.39060
# Poissons Ratio (z) = 0.25702 0.23959
#
# Static dielectric constant tensor:
#      x y z
#    x 3.862330 0.000000 -0.083900 
#    y 0.000000 3.457890 0.000000 
#    z -0.083900 0.000000 3.624170 
# 
# 
# High freq. dielectric constant tensor:
#      x y z
#    x 1.775710 0.000000 -0.006340 
#    y 0.000000 1.756130 0.000000 
#    z -0.006340 0.000000 1.775770 
# 
# From -- ./inp_files/382518.got.cif
#   From: 2010.06.25/outbox.cif.g09.slc.cpg/sg12_192_cif.got.tgz:382518.got - 2010.06.28 00:19:55.
