data_PCOD8107599
_publ_section_title
;
Structure prediction by ZEFSAII (Michael W. Deem and Ramdas Pophale) SiO2 
 PCOD8107599
Probable space group: C 2/M
;
_chemical_formula_sum "Si O2"
_cell_formula_units_Z 48
_cell_length_a 29.983814
_cell_length_b 12.761511
_cell_length_c 5.044591
_cell_angle_alpha 90.000000
_cell_angle_beta 90.057946
_cell_angle_gamma 90.000000
_cell_volume 1930.255119
_symmetry_space_group_name_H-M "C 2/M"
_symmetry_group_IT_number 12
_symmetry_cell_setting 'monoclinic'
loop_
_space_group_symop_operation_xyz
x,y,z
-x,y,-z
-x,-y,-z
x,-y,z
1/2+x,1/2+y,z
1/2-x,1/2+y,-z
1/2-x,1/2-y,-z
1/2+x,1/2-y,z
loop_
_atom_site_type_symbol
_atom_site_label
_atom_site_fract_x
_atom_site_fract_y
_atom_site_fract_z
Si Si1 0.583644 0.379966 0.736004
Si Si2 0.293402 0.239125 0.178775
Si Si3 0.528747 0.808970 0.741074
Si Si4 0.869654 0.207774 0.750725
Si Si5 0.875086 0.380106 0.332052
Si Si6 0.218659 0.120652 0.380119
O O1 0.572963 0.500000 0.805516
O O2 0.601503 0.316389 0.992136
O O3 0.538822 0.313977 0.673919
O O4 0.616190 0.373665 0.482169
O O5 0.341310 0.180687 0.120062
O O6 0.270476 0.153667 0.382778
O O7 0.302420 0.347766 0.336272
O O8 0.250000 0.250000 0.000000
O O9 0.500000 0.855951 0.500000
O O10 0.574752 0.873470 0.777445
O O11 0.500000 0.823636 0.000000
O O12 0.873731 0.323823 0.622269
O O13 0.816472 0.182439 0.829328
O O14 0.860255 0.500000 0.363191
O O15 0.212804 0.000000 0.318593
#
# Coordination Sequence:
#
# PCOD8107599 Si02
#       6
#     8   8   8   8   8   8
#     4  11  22  41  69 102 141 184 227 281 357 423
#     4  10  23  41  65  99 137 173 228 289 332 417
#     4  11  25  45  69 102 141 181 237 301 350 415
#     4  10  23  40  66 104 142 178 232 286 332 417
#     4  10  23  46  72  98 138 187 234 291 358 416
#     4  10  21  37  61  92 135 180 220 271 339 404
#
# _framework density 24.867177000000002
#
# number of rings (size 3 to 8) (size 9 to 14) (size 15 to 20)
#    0.000    1.667    0.000    4.000    7.000    2.667 
#    3.000    6.667    0.000    0.000    0.000    0.000 
#    0.000    0.000    0.000    0.000    0.000    0.000 
#
# Total GULP energy -297316.282881 kJ/mol
# GULP energy per Si atom -12388.178453 kJ/mol
# Density = 2.481058 g / cm^3
# Si number density = 24.867177 Si / 1000 Ang^3
#
#
#
# Elastic Constant Matrix: (Units=GPa)
#
#
# Indices 1 2 3 4 5 6 
#
# 1 157.0016 22.8579 53.0382 0.0000 -0.2669 0.0000
# 2 22.8579 147.4667 9.0926 0.0000 11.1293 0.0000
# 3 53.0382 9.0926 105.2368 0.0000 9.2733 0.0000
# 4 0.0000 0.0000 0.0000 20.6801 0.0000 0.6665
# 5 -0.2669 11.1293 9.2733 0.0000 48.9292 0.0000
# 6 0.0000 0.0000 0.0000 0.6665 0.0000 32.3665
#
#
#
# Elastic Compliance Matrix: (Units=1/GPa)
#
#
# Indices 1 2 3 4 5 6 
#
# 1 0.007863 -0.001052 -0.003963 0.000000 0.001033 0.000000
# 2 -0.001052 0.007063 0.000063 0.000000 -0.001624 0.000000
# 3 -0.003963 0.000063 0.011693 0.000000 -0.002252 0.000000
# 4 0.000000 0.000000 0.000000 0.048388 0.000000 -0.000996
# 5 0.001033 -0.001624 -0.002252 0.000000 0.021240 0.000000
# 6 0.000000 0.000000 0.000000 -0.000996 0.000000 0.030917
#
#
# Mechanical properties :
#
#
# Convention : Reuss Voigt Hill
#
# Bulk Modulus (GPa) = 59.82860 64.40917 62.11889
# Shear Modulus (GPa) = 35.05357 42.04292 38.54825
#
# Velocity S-wave (km/s) = 3.75858 4.11627 3.94149
# Velocity P-wave (km/s) = 6.55343 6.96772 6.76375
#
# Compressibility (1/GPa) = 0.01671441
#
# Stress axis : x y z
#
# Youngs Moduli (GPa) = 127.17555 141.58280 85.52347
#
# Poissons Ratio (x) = 0.14901 0.33893
# Poissons Ratio (y) = 0.13385 -0.00541
# Poissons Ratio (z) = 0.50400 -0.00896
#
# Static dielectric constant tensor:
#      x y z
#    x -0.068870 0.000000 0.818560 
#    y 0.000000 4.290490 0.000000 
#    z 0.818560 0.000000 4.658640 
# 
# 
# High freq. dielectric constant tensor:
#      x y z
#    x 2.017690 0.000000 -0.003540 
#    y 0.000000 1.972210 0.000000 
#    z -0.003540 0.000000 2.006510 
# 
# From -- ./inp_files/31296.got.cif
#   From: 2010.06.25/outbox.cif.g09.slc.cpg/sg12_16_cif.got.tgz:31296.got - 2010.06.28 00:19:55.
