data_PCOD8107342
_publ_section_title
;
Structure prediction by ZEFSAII (Michael W. Deem and Ramdas Pophale) SiO2 
 PCOD8107342
Probable space group: C 2/M
;
_chemical_formula_sum "Si O2"
_cell_formula_units_Z 56
_cell_length_a 8.134921
_cell_length_b 34.312119
_cell_length_c 10.485708
_cell_angle_alpha 90.000000
_cell_angle_beta 61.174584
_cell_angle_gamma 90.000000
_cell_volume 2564.181693
_symmetry_space_group_name_H-M "C 2/M"
_symmetry_group_IT_number 12
_symmetry_cell_setting 'monoclinic'
loop_
_space_group_symop_operation_xyz
x,y,z
-x,y,-z
-x,-y,-z
x,-y,z
1/2+x,1/2+y,z
1/2-x,1/2+y,-z
1/2-x,1/2-y,-z
1/2+x,1/2-y,z
loop_
_atom_site_type_symbol
_atom_site_label
_atom_site_fract_x
_atom_site_fract_y
_atom_site_fract_z
Si Si1 0.644904 0.500000 0.337248
Si Si2 0.774936 0.154587 0.103939
Si Si3 0.794296 0.206496 0.321575
Si Si4 0.776567 0.792674 0.605376
Si Si5 0.382483 0.926764 0.843737
Si Si6 0.464536 0.000000 0.664874
Si Si7 0.225164 0.074143 0.174428
Si Si8 0.323756 0.659959 0.813627
O O1 0.500000 0.500000 0.500000
O O2 0.601749 0.538491 0.271211
O O3 0.851296 0.500000 0.317303
O O4 0.696870 0.186752 0.233983
O O5 0.705695 0.112749 0.180735
O O6 0.695372 0.163500 0.990295
O O7 0.000000 0.154474 0.000000
O O8 0.689448 0.198224 0.497087
O O9 0.804369 0.253010 0.303025
O O10 0.001507 0.188789 0.244829
O O11 0.714285 0.827039 0.725926
O O12 0.000000 0.788795 0.500000
O O13 0.597598 0.919185 0.799742
O O14 0.354556 0.960720 0.748052
O O15 0.276057 0.938565 0.012558
O O16 0.500000 0.000000 0.500000
O O17 0.110209 0.114799 0.221952
#
# Coordination Sequence:
#
# PCOD8107342 Si02
#       8
#     4   8   8   8   8   4   8   8
#     4  10  21  37  59  88 116 148 194 232 271 337
#     4   9  18  35  55  82 108 138 182 232 280 329
#     4   9  18  34  52  74 109 141 178 224 282 326
#     4   9  18  34  52  75 104 148 186 223 272 338
#     4   9  18  37  60  80 109 146 186 226 278 339
#     4  10  21  41  54  83 125 149 178 235 288 334
#     4   9  18  36  62  84 105 147 190 231 276 327
#     4   9  18  34  56  78 107 135 186 232 272 317
#
# _framework density 21.839324999999999
#
# number of rings (size 3 to 8) (size 9 to 14) (size 15 to 20)
#    0.000    2.857    0.000    0.429    0.000    4.000 
#   20.571    0.357    6.286    0.000    0.000    0.000 
#    0.000    0.000    0.000    0.000    0.000    0.000 
#
# Total GULP energy -346900.999090 kJ/mol
# GULP energy per Si atom -12389.321396 kJ/mol
# Density = 2.178962 g / cm^3
# Si number density = 21.839325 Si / 1000 Ang^3
#
#
#
# Elastic Constant Matrix: (Units=GPa)
#
#
# Indices 1 2 3 4 5 6 
#
# 1 17.4341 19.5947 20.9605 0.0000 20.2274 0.0000
# 2 19.5947 183.1520 115.1314 0.0000 25.4963 0.0000
# 3 20.9605 115.1314 142.8566 0.0000 36.8211 0.0000
# 4 0.0000 0.0000 0.0000 39.1151 0.0000 11.1527
# 5 20.2274 25.4963 36.8211 0.0000 37.5610 0.0000
# 6 0.0000 0.0000 0.0000 11.1527 0.0000 20.6808
#
#
#
# Elastic Compliance Matrix: (Units=1/GPa)
#
#
# Indices 1 2 3 4 5 6 
#
# 1 0.159727 -0.008737 0.005684 0.000000 -0.085658 0.000000
# 2 -0.008737 0.011621 -0.009719 0.000000 0.006344 0.000000
# 3 0.005684 -0.009719 0.017512 0.000000 -0.013631 0.000000
# 4 0.000000 0.000000 0.000000 0.030211 0.000000 -0.016292
# 5 -0.085658 0.006344 -0.013631 0.000000 0.081808 0.000000
# 6 0.000000 0.000000 0.000000 -0.016292 0.000000 0.057140
#
#
# Mechanical properties :
#
#
# Convention : Reuss Voigt Hill
#
# Bulk Modulus (GPa) = 6.12310 72.75730 39.44020
# Shear Modulus (GPa) = 11.41548 31.98847 21.70198
#
# Velocity S-wave (km/s) = 2.28875 3.83132 3.15574
# Velocity P-wave (km/s) = 3.12958 7.27730 5.60149
#
# Compressibility (1/GPa) = 0.16331595
#
# Stress axis : x y z
#
# Youngs Moduli (GPa) = 6.26067 86.05214 57.10372
#
# Poissons Ratio (x) = 0.75186 -0.32457
# Poissons Ratio (y) = 0.05470 0.55498
# Poissons Ratio (z) = -0.03558 0.83632
#
# Static dielectric constant tensor:
#      x y z
#    x 4.039730 0.000000 0.813100 
#    y 0.000000 4.120970 0.000000 
#    z 0.813100 0.000000 4.489260 
# 
# 
# High freq. dielectric constant tensor:
#      x y z
#    x 1.835440 0.000000 0.023820 
#    y 0.000000 1.862130 0.000000 
#    z 0.023820 0.000000 1.857030 
# 
# From -- ./inp_files/125658.got.cif
#   From: 2010.06.25/outbox.cif.g09.slc.cpg/sg12_63_cif.got.tgz:125658.got - 2010.06.28 00:19:55.
