data_PCOD8107835
_publ_section_title
;
Structure prediction by ZEFSAII (Michael W. Deem and Ramdas Pophale) SiO2 
 PCOD8107835
Probable space group: C 2/M
;
_chemical_formula_sum "Si O2"
_cell_formula_units_Z 56
_cell_length_a 20.197121
_cell_length_b 8.911745
_cell_length_c 19.603787
_cell_angle_alpha 90.000000
_cell_angle_beta 58.909752
_cell_angle_gamma 90.000000
_cell_volume 3021.662992
_symmetry_space_group_name_H-M "C 2/M"
_symmetry_group_IT_number 12
_symmetry_cell_setting 'monoclinic'
loop_
_space_group_symop_operation_xyz
x,y,z
-x,y,-z
-x,-y,-z
x,-y,z
1/2+x,1/2+y,z
1/2-x,1/2+y,-z
1/2-x,1/2-y,-z
1/2+x,1/2-y,z
loop_
_atom_site_type_symbol
_atom_site_label
_atom_site_fract_x
_atom_site_fract_y
_atom_site_fract_z
Si Si1 0.907283 0.175202 0.831763
Si Si2 0.253083 0.326784 0.842227
Si Si3 0.213543 0.323317 0.585889
Si Si4 0.308770 0.672946 0.668821
Si Si5 0.050270 0.178084 0.671807
Si Si6 0.969812 0.673353 0.591245
Si Si7 0.818624 0.824860 0.004855
O O1 0.834699 0.239619 0.827106
O O2 0.896598 0.208191 0.918865
O O3 0.988061 0.240311 0.760515
O O4 0.909612 0.000000 0.815292
O O5 0.245609 0.500000 0.865842
O O6 0.248810 0.300629 0.763270
O O7 0.181271 0.243309 0.918570
O O8 0.206750 0.500000 0.577842
O O9 0.250000 0.250000 0.500000
O O10 0.267744 0.282847 0.620670
O O11 0.130289 0.256710 0.646929
O O12 0.336586 0.500000 0.653723
O O13 0.381035 0.779575 0.642589
O O14 0.022379 0.224729 0.611734
O O15 0.061845 0.000000 0.667921
O O16 0.977833 0.500000 0.608334
O O17 0.000000 0.703330 0.500000
O O18 0.803647 0.000000 0.018121
O O19 0.750000 0.750000 0.000000
#
# Coordination Sequence:
#
# PCOD8107835 Si02
#       7
#     8   8   8   8   8   8   8
#     4   8  15  29  50  75 106 139 175 215 260 317
#     4   9  16  31  51  76 106 138 178 222 266 322
#     4  11  24  41  59  81 108 144 187 231 277 332
#     4  10  21  38  58  77 106 146 184 223 276 335
#     4  11  21  37  59  80 108 147 184 223 273 328
#     4  11  23  36  53  81 112 137 174 231 280 324
#     4   9  16  27  45  74 109 142 174 215 264 320
#
# _framework density 18.532841999999999
#
# number of rings (size 3 to 8) (size 9 to 14) (size 15 to 20)
#    0.000    2.143    1.429    3.429    0.000    5.143 
#    0.000    2.143    0.000    0.857    0.000    6.000 
#    0.000    0.000    0.000    0.000    0.000    0.000 
#
# Total GULP energy -347077.815933 kJ/mol
# GULP energy per Si atom -12395.636283 kJ/mol
# Density = 1.849066 g / cm^3
# Si number density = 18.532842 Si / 1000 Ang^3
#
#
#
# Elastic Constant Matrix: (Units=GPa)
#
#
# Indices 1 2 3 4 5 6 
#
# 1 39.3437 15.5792 9.0409 0.0000 2.4609 0.0011
# 2 15.5792 62.6392 31.4630 -0.0001 2.1604 0.0028
# 3 9.0409 31.4630 113.7517 0.0000 7.4594 0.0000
# 4 0.0000 -0.0001 0.0000 32.5603 -0.0001 -0.8955
# 5 2.4609 2.1604 7.4594 -0.0001 25.9843 0.0000
# 6 0.0011 0.0028 0.0000 -0.8955 0.0000 24.7478
#
#
#
# Elastic Compliance Matrix: (Units=1/GPa)
#
#
# Indices 1 2 3 4 5 6 
#
# 1 0.028312 -0.006861 -0.000218 0.000000 -0.002048 -0.000001
# 2 -0.006861 0.020203 -0.005071 0.000000 0.000426 -0.000002
# 3 -0.000218 -0.005071 0.010377 0.000000 -0.002537 0.000001
# 4 0.000000 0.000000 0.000000 0.030743 0.000000 0.001112
# 5 -0.002048 0.000426 -0.002537 0.000000 0.039372 0.000000
# 6 -0.000001 -0.000002 0.000001 0.001112 0.000000 0.040448
#
#
# Mechanical properties :
#
#
# Convention : Reuss Voigt Hill
#
# Bulk Modulus (GPa) = 28.90812 36.43342 32.67077
# Shear Modulus (GPa) = 24.35624 27.30192 25.82908
#
# Velocity S-wave (km/s) = 3.62915 3.84235 3.73727
# Velocity P-wave (km/s) = 5.76135 6.27585 6.02410
#
# Compressibility (1/GPa) = 0.03459236
#
# Stress axis : x y z
#
# Youngs Moduli (GPa) = 35.32044 49.49705 96.36447
#
# Poissons Ratio (x) = 0.33962 0.02101
# Poissons Ratio (y) = 0.24235 0.48863
# Poissons Ratio (z) = 0.00770 0.25098
#
# Static dielectric constant tensor:
#      x y z
#    x 3.166620 0.000000 0.092470 
#    y 0.000000 3.427500 0.000000 
#    z 0.092470 0.000000 4.043440 
# 
# 
# High freq. dielectric constant tensor:
#      x y z
#    x 1.675700 0.000000 0.006770 
#    y 0.000000 1.714470 0.000000 
#    z 0.006770 0.000000 1.744500 
# 
# From -- ./inp_files/319689.got.cif
#   From: 2010.06.25/outbox.cif.g09.slc.cpg/sg12_160_cif.got.tgz:319689.got - 2010.06.28 00:19:55.
