data_PCOD8107881
_publ_section_title
;
Structure prediction by ZEFSAII (Michael W. Deem and Ramdas Pophale) SiO2 
 PCOD8107881
Probable space group: C 2/M
;
_chemical_formula_sum "Si O2"
_cell_formula_units_Z 64
_cell_length_a 30.181748
_cell_length_b 8.809321
_cell_length_c 19.596908
_cell_angle_alpha 90.000000
_cell_angle_beta 37.105538
_cell_angle_gamma 90.000000
_cell_volume 3143.380539
_symmetry_space_group_name_H-M "C 2/M"
_symmetry_group_IT_number 12
_symmetry_cell_setting 'monoclinic'
loop_
_space_group_symop_operation_xyz
x,y,z
-x,y,-z
-x,-y,-z
x,-y,z
1/2+x,1/2+y,z
1/2-x,1/2+y,-z
1/2-x,1/2-y,-z
1/2+x,1/2-y,z
loop_
_atom_site_type_symbol
_atom_site_label
_atom_site_fract_x
_atom_site_fract_y
_atom_site_fract_z
Si Si1 0.855635 0.680309 0.011524
Si Si2 0.700391 0.818873 0.167510
Si Si3 0.607081 0.320852 0.170388
Si Si4 0.314947 0.178431 0.326575
Si Si5 0.420806 0.822001 0.579682
Si Si6 0.159645 0.825993 0.567460
Si Si7 0.049939 0.827775 0.586853
Si Si8 0.418742 0.180473 0.079813
O O1 0.845596 0.500000 0.022150
O O2 0.777493 0.761166 0.100127
O O3 0.895201 0.733928 0.032852
O O4 0.903847 0.737470 0.888598
O O5 0.678416 0.745122 0.121747
O O6 0.641922 0.757077 0.294500
O O7 0.701605 0.000000 0.158136
O O8 0.616915 0.500000 0.146265
O O9 0.535353 0.281879 0.303167
O O10 0.229744 0.232228 0.436488
O O11 0.354361 0.229882 0.347527
O O12 0.358242 0.246602 0.207865
O O13 0.320277 0.000000 0.313882
O O14 0.500000 0.748667 0.500000
O O15 0.405485 0.777299 0.520428
O O16 0.423170 0.000000 0.585644
O O17 0.085613 0.804449 0.616536
O O18 0.173820 0.000000 0.570875
O O19 0.058849 0.000000 0.551000
O O20 0.420078 0.000000 0.080943
O O21 0.500000 0.243099 0.000000
#
# Coordination Sequence:
#
# PCOD8107881 Si02
#       8
#     8   8   8   8   8   8   8   8
#     4  11  24  40  63  89 114 153 200 246 294 344
#     4  11  23  41  63  87 120 156 193 242 294 348
#     4  11  23  40  60  86 120 156 199 244 292 347
#     4   9  18  35  59  82 110 148 188 233 282 338
#     4  10  21  38  58  84 117 151 188 232 283 338
#     4   9  19  35  55  84 116 147 184 230 285 340
#     4  10  22  36  57  85 117 155 191 235 287 346
#     4   9  20  38  59  86 116 149 192 239 288 344
#
# _framework density 20.360244999999999
#
# number of rings (size 3 to 8) (size 9 to 14) (size 15 to 20)
#    0.000    2.000    1.250    1.500    3.500    2.250 
#    0.000    1.250    0.000    1.875    0.000    0.000 
#    0.000    0.000    0.000    0.000    0.000    0.000 
#
# Total GULP energy -396748.335967 kJ/mol
# GULP energy per Si atom -12398.385499 kJ/mol
# Density = 2.031390 g / cm^3
# Si number density = 20.360245 Si / 1000 Ang^3
#
#
#
# Elastic Constant Matrix: (Units=GPa)
#
#
# Indices 1 2 3 4 5 6 
#
# 1 120.3367 23.4083 39.6645 -0.0022 7.5360 -0.0005
# 2 23.4083 34.9078 18.4919 0.0078 3.0949 -0.0020
# 3 39.6645 18.4919 94.6511 -0.0079 19.1994 -0.0025
# 4 -0.0022 0.0078 -0.0079 26.5426 -0.0009 3.6195
# 5 7.5360 3.0949 19.1994 -0.0009 33.2204 0.0000
# 6 -0.0005 -0.0020 -0.0025 3.6195 0.0000 27.7944
#
#
#
# Elastic Compliance Matrix: (Units=1/GPa)
#
#
# Indices 1 2 3 4 5 6 
#
# 1 0.010430 -0.005217 -0.003365 0.000001 0.000065 -0.000001
# 2 -0.005217 0.034579 -0.004708 -0.000012 0.000683 0.000004
# 3 -0.003365 -0.004708 0.014331 0.000005 -0.007081 0.000000
# 4 0.000001 -0.000012 0.000005 0.038356 -0.000001 -0.004995
# 5 0.000065 0.000683 -0.007081 -0.000001 0.034116 0.000000
# 6 -0.000001 0.000004 0.000000 -0.004995 0.000000 0.036629
#
#
# Mechanical properties :
#
#
# Convention : Reuss Voigt Hill
#
# Bulk Modulus (GPa) = 30.52462 45.89167 38.20814
# Shear Modulus (GPa) = 24.27886 28.73355 26.50620
#
# Velocity S-wave (km/s) = 3.45695 3.76075 3.61204
# Velocity P-wave (km/s) = 5.56407 6.43789 6.01686
#
# Compressibility (1/GPa) = 0.03276044
#
# Stress axis : x y z
#
# Youngs Moduli (GPa) = 95.87843 28.91941 69.77848
#
# Poissons Ratio (x) = 0.15089 0.23477
# Poissons Ratio (y) = 0.50024 0.32850
# Poissons Ratio (z) = 0.32259 0.13614
#
# Static dielectric constant tensor:
#      x y z
#    x 3.705360 -0.000030 0.000310 
#    y -0.000030 3.454500 0.000050 
#    z 0.000310 0.000050 3.972440 
# 
# 
# High freq. dielectric constant tensor:
#      x y z
#    x 1.797020 0.000000 0.002110 
#    y 0.000000 1.773690 0.000000 
#    z 0.002110 0.000000 1.808160 
# 
# From -- ./inp_files/295649.got.cif
#   From: 2010.06.25/outbox.cif.g09.slc.cpg/sg12_148_cif.got.tgz:295649.got - 2010.06.28 00:19:55.
