data_PCOD8107248
_publ_section_title
;
Structure prediction by ZEFSAII (Michael W. Deem and Ramdas Pophale) SiO2 
 PCOD8107248
Probable space group: C 2/M
;
_chemical_formula_sum "Si O2"
_cell_formula_units_Z 56
_cell_length_a 21.404115
_cell_length_b 13.338203
_cell_length_c 17.084085
_cell_angle_alpha 90.000000
_cell_angle_beta 144.365466
_cell_angle_gamma 90.000000
_cell_volume 2841.622959
_symmetry_space_group_name_H-M "C 2/M"
_symmetry_group_IT_number 12
_symmetry_cell_setting 'monoclinic'
loop_
_space_group_symop_operation_xyz
x,y,z
-x,y,-z
-x,-y,-z
x,-y,z
1/2+x,1/2+y,z
1/2-x,1/2+y,-z
1/2-x,1/2-y,-z
1/2+x,1/2-y,z
loop_
_atom_site_type_symbol
_atom_site_label
_atom_site_fract_x
_atom_site_fract_y
_atom_site_fract_z
Si Si1 0.543183 0.189321 0.733145
Si Si2 0.526512 0.612850 0.270083
Si Si3 0.277040 0.881865 0.193266
Si Si4 0.098958 0.728073 0.550267
Si Si5 0.463401 0.887036 0.811408
Si Si6 0.718276 0.613532 0.575940
Si Si7 0.960344 0.192694 0.043458
O O1 0.550396 0.307486 0.764067
O O2 0.656566 0.155302 0.814182
O O3 0.448805 0.171390 0.573897
O O4 0.516611 0.121711 0.780528
O O5 0.483924 0.500000 0.242531
O O6 0.647094 0.626918 0.425170
O O7 0.528548 0.635148 0.179523
O O8 0.335229 0.853056 0.333179
O O9 0.260628 0.000000 0.173785
O O10 0.164160 0.827384 0.072136
O O11 0.176411 0.818605 0.604630
O O12 0.000000 0.773060 0.500000
O O13 0.338870 0.856459 0.676767
O O14 0.520607 0.812218 0.930418
O O15 0.478540 0.000000 0.857973
O O16 0.712213 0.500000 0.600598
O O17 0.000000 0.152873 0.000000
#
# Coordination Sequence:
#
# PCOD8107248 Si02
#       7
#     8   8   8   8   8   8   8
#     4   9  20  37  58  83 111 141 182 230 274 318
#     4   9  19  36  58  84 113 144 182 226 269 318
#     4  11  23  38  56  80 112 147 182 223 273 329
#     4   9  19  35  56  84 114 145 181 223 272 321
#     4  10  21  37  59  83 108 143 185 229 274 321
#     4   9  18  35  59  85 111 142 183 229 273 316
#     4  11  24  39  55  78 112 146 182 225 273 329
#
# _framework density 19.707048
#
# number of rings (size 3 to 8) (size 9 to 14) (size 15 to 20)
#    0.000    2.286    0.000    1.714    0.000   13.429 
#    0.000    6.429    0.000    0.000    0.000    0.000 
#    0.000    0.000    0.000    0.000    0.000    0.000 
#
# Total GULP energy -347215.365297 kJ/mol
# GULP energy per Si atom -12400.548761 kJ/mol
# Density = 1.966219 g / cm^3
# Si number density = 19.707048 Si / 1000 Ang^3
#
#
#
# Elastic Constant Matrix: (Units=GPa)
#
#
# Indices 1 2 3 4 5 6 
#
# 1 103.7580 28.8621 53.2423 0.0000 9.1284 0.0000
# 2 28.8621 108.6675 54.8629 0.0000 10.9442 0.0000
# 3 53.2423 54.8629 93.6877 0.0000 12.7750 0.0000
# 4 0.0000 0.0000 0.0000 31.0415 0.0000 1.0513
# 5 9.1284 10.9442 12.7750 0.0000 36.2857 0.0000
# 6 0.0000 0.0000 0.0000 1.0513 0.0000 23.2955
#
#
#
# Elastic Compliance Matrix: (Units=1/GPa)
#
#
# Indices 1 2 3 4 5 6 
#
# 1 0.013639 0.000448 -0.007907 0.000000 -0.000783 0.000000
# 2 0.000448 0.013139 -0.007766 0.000000 -0.001342 0.000000
# 3 -0.007907 -0.007766 0.020089 0.000000 -0.002741 0.000000
# 4 0.000000 0.000000 0.000000 0.032264 0.000000 -0.001456
# 5 -0.000783 -0.001342 -0.002741 0.000000 0.029126 0.000000
# 6 0.000000 0.000000 0.000000 -0.001456 0.000000 0.042992
#
#
# Mechanical properties :
#
#
# Convention : Reuss Voigt Hill
#
# Bulk Modulus (GPa) = 60.90945 64.44974 62.67959
# Shear Modulus (GPa) = 26.71343 29.40094 28.05718
#
# Velocity S-wave (km/s) = 3.68574 3.86670 3.77731
# Velocity P-wave (km/s) = 7.00624 7.26017 7.13434
#
# Compressibility (1/GPa) = 0.01641781
#
# Stress axis : x y z
#
# Youngs Moduli (GPa) = 73.31731 76.10761 49.77919
#
# Poissons Ratio (x) = -0.03411 0.39360
# Poissons Ratio (y) = -0.03286 0.38659
# Poissons Ratio (z) = 0.57971 0.59105
#
# Static dielectric constant tensor:
#      x y z
#    x 3.588560 0.000000 -0.079200 
#    y 0.000000 3.639110 0.000000 
#    z -0.079200 0.000000 3.638580 
# 
# 
# High freq. dielectric constant tensor:
#      x y z
#    x 1.765040 0.000000 -0.004000 
#    y 0.000000 1.769240 0.000000 
#    z -0.004000 0.000000 1.767790 
# 
# From -- ./inp_files/284582.got.cif
#   From: 2010.06.25/outbox.cif.g09.slc.cpg/sg12_143_cif.got.tgz:284582.got - 2010.06.28 00:19:55.
