data_PCOD8107499
_publ_section_title
;
Structure prediction by ZEFSAII (Michael W. Deem and Ramdas Pophale) SiO2 
 PCOD8107499
Probable space group: C 2/M
;
_chemical_formula_sum "Si O2"
_cell_formula_units_Z 48
_cell_length_a 14.270292
_cell_length_b 31.762651
_cell_length_c 14.683073
_cell_angle_alpha 90.000000
_cell_angle_beta 160.149760
_cell_angle_gamma 90.000000
_cell_volume 2259.886731
_symmetry_space_group_name_H-M "C 2/M"
_symmetry_group_IT_number 12
_symmetry_cell_setting 'monoclinic'
loop_
_space_group_symop_operation_xyz
x,y,z
-x,y,-z
-x,-y,-z
x,-y,z
1/2+x,1/2+y,z
1/2-x,1/2+y,-z
1/2-x,1/2-y,-z
1/2+x,1/2-y,z
loop_
_atom_site_type_symbol
_atom_site_label
_atom_site_fract_x
_atom_site_fract_y
_atom_site_fract_z
Si Si1 0.296842 0.369589 0.003540
Si Si2 0.793547 0.253877 0.730076
Si Si3 0.336121 0.575496 0.440026
Si Si4 0.769198 0.547305 0.980475
Si Si5 0.636007 0.166372 0.526765
Si Si6 0.034942 0.342936 0.140084
O O1 0.099448 0.340628 0.762467
O O2 0.244103 0.356160 0.061191
O O3 0.220277 0.419395 0.925564
O O4 0.612096 0.364869 0.261718
O O5 0.500000 0.268198 0.500000
O O6 0.752907 0.214036 0.626402
O O7 0.903554 0.294555 0.776355
O O8 0.000000 0.240397 0.000000
O O9 0.500000 0.562618 0.500000
O O10 0.499459 0.559375 0.676574
O O11 0.282350 0.625949 0.396894
O O12 0.041876 0.551744 0.167657
O O13 0.741402 0.500000 0.993208
O O14 0.500000 0.157641 0.500000
O O15 0.000000 0.347583 0.000000
#
# Coordination Sequence:
#
# PCOD8107499 Si02
#       6
#     8   8   8   8   8   8
#     4  11  23  40  65  90 117 162 203 244 312 365
#     4  10  21  37  60  89 125 166 203 247 297 344
#     4  11  21  36  58  85 123 168 207 240 284 347
#     4  11  24  40  59  86 119 154 199 255 308 363
#     4  11  23  42  64  89 120 155 204 260 307 356
#     4  10  22  39  61  91 133 170 203 241 284 353
#
# _framework density 21.240003999999999
#
# number of rings (size 3 to 8) (size 9 to 14) (size 15 to 20)
#    0.000    1.333    0.000    8.000    0.000    8.667 
#    0.000    0.000    0.000    3.000    0.000    0.000 
#    0.000    0.000    0.000    0.000    0.000    0.000 
#
# Total GULP energy -297547.871828 kJ/mol
# GULP energy per Si atom -12397.827993 kJ/mol
# Density = 2.119166 g / cm^3
# Si number density = 21.240004 Si / 1000 Ang^3
#
#
#
# Elastic Constant Matrix: (Units=GPa)
#
#
# Indices 1 2 3 4 5 6 
#
# 1 96.7297 44.9593 30.1706 -0.0006 17.9060 0.0018
# 2 44.9593 144.3100 13.9379 0.0004 0.7934 0.0004
# 3 30.1706 13.9379 99.0101 -0.0037 8.3796 0.0013
# 4 -0.0006 0.0004 -0.0037 24.8441 -0.0005 -0.1908
# 5 17.9060 0.7934 8.3796 -0.0005 38.8474 -0.0002
# 6 0.0018 0.0004 0.0013 -0.1908 -0.0002 12.1430
#
#
#
# Elastic Compliance Matrix: (Units=1/GPa)
#
#
# Indices 1 2 3 4 5 6 
#
# 1 0.014363 -0.004124 -0.003303 0.000000 -0.005824 -0.000002
# 2 -0.004124 0.008209 -0.000047 0.000000 0.001743 0.000000
# 3 -0.003303 -0.000047 0.011188 0.000002 -0.000890 -0.000001
# 4 0.000000 0.000000 0.000002 0.040256 0.000000 0.000632
# 5 -0.005824 0.001743 -0.000890 0.000000 0.028582 0.000001
# 6 -0.000002 0.000000 -0.000001 0.000632 0.000001 0.082362
#
#
# Mechanical properties :
#
#
# Convention : Reuss Voigt Hill
#
# Bulk Modulus (GPa) = 53.15352 57.57616 55.36484
# Shear Modulus (GPa) = 24.25077 31.89905 28.07491
#
# Velocity S-wave (km/s) = 3.38264 3.87956 3.63959
# Velocity P-wave (km/s) = 6.35105 6.87272 6.61703
#
# Compressibility (1/GPa) = 0.01881343
#
# Stress axis : x y z
#
# Youngs Moduli (GPa) = 69.62261 121.81491 89.37779
#
# Poissons Ratio (x) = 0.50233 0.29525
# Poissons Ratio (y) = 0.28710 0.00416
# Poissons Ratio (z) = 0.22999 0.00567
#
# Static dielectric constant tensor:
#      x y z
#    x 3.724560 0.000000 0.154680 
#    y 0.000000 4.098790 0.000010 
#    z 0.154680 0.000010 3.722440 
# 
# 
# High freq. dielectric constant tensor:
#      x y z
#    x 1.800360 0.000000 0.017650 
#    y 0.000000 1.836300 0.000000 
#    z 0.017650 0.000000 1.846570 
# 
# From -- ./inp_files/219599.got.cif
#   From: 2010.06.25/outbox.cif.g09.slc.cpg/sg12_110_cif.got.tgz:219599.got - 2010.06.28 00:19:55.
