data_PCOD8107742
_publ_section_title
;
Structure prediction by ZEFSAII (Michael W. Deem and Ramdas Pophale) SiO2 
 PCOD8107742
Probable space group: C 2/M
;
_chemical_formula_sum "Si O2"
_cell_formula_units_Z 36
_cell_length_a 4.994097
_cell_length_b 34.069151
_cell_length_c 15.333977
_cell_angle_alpha 90.000000
_cell_angle_beta 126.259589
_cell_angle_gamma 90.000000
_cell_volume 2103.750971
_symmetry_space_group_name_H-M "C 2/M"
_symmetry_group_IT_number 12
_symmetry_cell_setting 'monoclinic'
loop_
_space_group_symop_operation_xyz
x,y,z
-x,y,-z
-x,-y,-z
x,-y,z
1/2+x,1/2+y,z
1/2-x,1/2+y,-z
1/2-x,1/2-y,-z
1/2+x,1/2-y,z
loop_
_atom_site_type_symbol
_atom_site_label
_atom_site_fract_x
_atom_site_fract_y
_atom_site_fract_z
Si Si1 0.373163 0.336073 0.194896
Si Si2 0.500000 0.222303 0.000000
Si Si3 0.288451 0.224158 0.374675
Si Si4 0.253773 0.880616 0.129198
Si Si5 0.384229 0.042379 0.073790
O O1 0.245511 0.303887 0.103654
O O2 0.630144 0.316287 0.310828
O O3 0.550312 0.372722 0.178983
O O4 0.053098 0.349988 0.186453
O O5 0.250000 0.250000 0.000000
O O6 0.500000 0.212576 0.500000
O O7 0.516157 0.242800 0.343723
O O8 0.432285 0.923602 0.156042
O O9 0.000000 0.874848 0.000000
O O10 0.560659 0.000000 0.130093
O O11 0.500000 0.057364 0.000000
O O12 0.000000 0.033662 0.000000
#
# Coordination Sequence:
#
# PCOD8107742 Si02
#       5
#     8   4   8   8   8
#     4  12  21  33  49  71  97 127 160 201 243 292
#     4  12  22  32  44  64  93 126 157 188 232 290
#     4  10  21  38  55  69  89 123 167 214 253 283
#     4  11  19  32  46  71 103 131 156 190 244 286
#     4   9  17  29  46  67  95 134 169 192 221 280
#
# _framework density 17.112292
#
# number of rings (size 3 to 8) (size 9 to 14) (size 15 to 20)
#    0.000    1.333    2.222    6.667    0.000    0.000 
#    0.000    0.000    0.000    0.000    0.000    0.000 
#    0.000    5.333    0.000    0.000    0.000    0.000 
#
# Total GULP energy -223042.226691 kJ/mol
# GULP energy per Si atom -12391.234816 kJ/mol
# Density = 1.707334 g / cm^3
# Si number density = 17.112292 Si / 1000 Ang^3
#
#
#
# Elastic Constant Matrix: (Units=GPa)
#
#
# Indices 1 2 3 4 5 6 
#
# 1 91.3530 18.6784 13.6995 0.0000 2.9929 0.0000
# 2 18.6784 95.2850 29.9048 0.0000 3.5167 0.0000
# 3 13.6995 29.9048 53.9136 0.0000 7.6319 0.0000
# 4 0.0000 0.0000 0.0000 11.9884 0.0000 -2.7260
# 5 2.9929 3.5167 7.6319 0.0000 17.7510 0.0000
# 6 0.0000 0.0000 0.0000 -2.7260 0.0000 29.4621
#
#
#
# Elastic Compliance Matrix: (Units=1/GPa)
#
#
# Indices 1 2 3 4 5 6 
#
# 1 0.011597 -0.001640 -0.001923 0.000000 -0.000803 0.000000
# 2 -0.001640 0.012944 -0.006856 0.000000 0.000660 0.000000
# 3 -0.001923 -0.006856 0.024067 0.000000 -0.008665 0.000000
# 4 0.000000 0.000000 0.000000 0.085206 0.000000 0.007884
# 5 -0.000803 0.000660 -0.008665 0.000000 0.060065 0.000000
# 6 0.000000 0.000000 0.000000 0.007884 0.000000 0.034671
#
#
# Mechanical properties :
#
#
# Convention : Reuss Voigt Hill
#
# Bulk Modulus (GPa) = 36.01318 40.56857 38.29088
# Shear Modulus (GPa) = 19.33152 23.72488 21.52820
#
# Velocity S-wave (km/s) = 3.36473 3.72751 3.55075
# Velocity P-wave (km/s) = 6.01549 6.50265 6.26381
#
# Compressibility (1/GPa) = 0.02776761
#
# Stress axis : x y z
#
# Youngs Moduli (GPa) = 86.23204 77.25708 41.55149
#
# Poissons Ratio (x) = 0.12670 0.07992
# Poissons Ratio (y) = 0.14142 0.28489
# Poissons Ratio (z) = 0.16585 0.52970
#
# Static dielectric constant tensor:
#      x y z
#    x 3.359310 0.000000 0.063430 
#    y 0.000000 3.608380 0.000000 
#    z 0.063430 0.000000 2.833910 
# 
# 
# High freq. dielectric constant tensor:
#      x y z
#    x 1.692300 0.000000 0.002220 
#    y 0.000000 1.666550 0.000000 
#    z 0.002220 0.000000 1.597930 
# 
# From -- ./inp_files/115726.got.cif
#   From: 2010.06.25/outbox.cif.g09.slc.cpg/sg12_58_cif.got.tgz:115726.got - 2010.06.28 00:19:55.
