data_PCOD8107096
_publ_section_title
;
Structure prediction by ZEFSAII (Michael W. Deem and Ramdas Pophale) SiO2 
 PCOD8107096
Probable space group: C 2/M
;
_chemical_formula_sum "Si O2"
_cell_formula_units_Z 64
_cell_length_a 16.658019
_cell_length_b 14.629707
_cell_length_c 15.953588
_cell_angle_alpha 90.000000
_cell_angle_beta 126.776127
_cell_angle_gamma 90.000000
_cell_volume 3114.149871
_symmetry_space_group_name_H-M "C 2/M"
_symmetry_group_IT_number 12
_symmetry_cell_setting 'monoclinic'
loop_
_space_group_symop_operation_xyz
x,y,z
-x,y,-z
-x,-y,-z
x,-y,z
1/2+x,1/2+y,z
1/2-x,1/2+y,-z
1/2-x,1/2-y,-z
1/2+x,1/2-y,z
loop_
_atom_site_type_symbol
_atom_site_label
_atom_site_fract_x
_atom_site_fract_y
_atom_site_fract_z
Si Si1 0.079674 0.102119 0.121021
Si Si2 0.554282 0.102865 0.619345
Si Si3 0.279357 0.605955 0.177702
Si Si4 0.172886 0.234471 0.379246
Si Si5 0.454542 0.897358 0.735361
Si Si6 0.501338 0.604730 0.253964
Si Si7 0.756867 0.718828 0.261319
Si Si8 0.429254 0.106853 0.029523
O O1 0.020262 0.125275 0.168714
O O2 0.166463 0.173936 0.152096
O O3 0.125727 0.000000 0.153925
O O4 0.000000 0.111402 0.000000
O O5 0.500000 0.136741 0.500000
O O6 0.484774 0.106174 0.657161
O O7 0.640852 0.171244 0.699658
O O8 0.594715 0.000000 0.629761
O O9 0.273901 0.500000 0.204038
O O10 0.385671 0.627827 0.200641
O O11 0.266332 0.672647 0.249464
O O12 0.188580 0.629811 0.056936
O O13 0.250000 0.250000 0.500000
O O14 0.079138 0.171492 0.351977
O O15 0.235923 0.188976 0.344042
O O16 0.138964 0.330092 0.317133
O O17 0.536955 0.862078 0.855383
O O18 0.420716 0.000000 0.737883
O O19 0.525175 0.500000 0.293762
O O20 0.444582 0.000000 0.033201
O O21 0.500000 0.151144 0.000000
#
# Coordination Sequence:
#
# PCOD8107096 Si02
#       8
#     8   8   8   8   8   8   8   8
#     4   9  19  36  57  81 110 144 183 228 276 332
#     4  10  21  38  59  82 110 143 182 234 289 334
#     4  10  21  37  58  84 117 155 187 226 284 345
#     4  11  23  38  58  82 109 145 190 239 285 332
#     4  10  21  37  58  84 113 144 184 234 285 340
#     4   9  20  39  58  79 112 151 189 228 277 339
#     4  11  22  35  57  83 110 144 186 231 277 336
#     4   9  18  34  56  83 116 151 187 229 279 338
#
# _framework density 20.551355999999998
#
# number of rings (size 3 to 8) (size 9 to 14) (size 15 to 20)
#    0.000    2.125    0.000    2.625    0.000    6.000 
#    0.000    5.625    0.000    1.875    0.000    0.000 
#    0.000    0.000    0.000    0.000    0.000    0.000 
#
# Total GULP energy -396587.234005 kJ/mol
# GULP energy per Si atom -12393.351063 kJ/mol
# Density = 2.050458 g / cm^3
# Si number density = 20.551356 Si / 1000 Ang^3
#
#
#
# Elastic Constant Matrix: (Units=GPa)
#
#
# Indices 1 2 3 4 5 6 
#
# 1 74.7004 32.6865 49.3036 0.0000 10.1532 0.0000
# 2 32.6865 96.0269 41.5144 0.0000 15.4759 0.0000
# 3 49.3036 41.5144 127.4017 0.0000 5.7284 0.0000
# 4 0.0000 0.0000 0.0000 18.8406 0.0000 2.2846
# 5 10.1532 15.4759 5.7284 0.0000 33.7205 0.0000
# 6 0.0000 0.0000 0.0000 2.2846 0.0000 26.6419
#
#
#
# Elastic Compliance Matrix: (Units=1/GPa)
#
#
# Indices 1 2 3 4 5 6 
#
# 1 0.019452 -0.003385 -0.006279 0.000000 -0.003237 0.000000
# 2 -0.003385 0.013582 -0.002904 0.000000 -0.004721 0.000000
# 3 -0.006279 -0.002904 0.011166 0.000000 0.001326 0.000000
# 4 0.000000 0.000000 0.000000 0.053635 0.000000 -0.004599
# 5 -0.003237 -0.004721 0.001326 0.000000 0.032571 0.000000
# 6 0.000000 0.000000 0.000000 -0.004599 0.000000 0.037929
#
#
# Mechanical properties :
#
#
# Convention : Reuss Voigt Hill
#
# Bulk Modulus (GPa) = 52.45390 60.57091 56.51241
# Shear Modulus (GPa) = 25.02171 27.48222 26.25197
#
# Velocity S-wave (km/s) = 3.49309 3.66080 3.57793
# Velocity P-wave (km/s) = 6.46897 6.88517 6.68031
#
# Compressibility (1/GPa) = 0.01906436
#
# Stress axis : x y z
#
# Youngs Moduli (GPa) = 51.40741 73.62641 89.55953
#
# Poissons Ratio (x) = 0.24923 0.56238
# Poissons Ratio (y) = 0.17402 0.26004
# Poissons Ratio (z) = 0.32281 0.21378
#
# Static dielectric constant tensor:
#      x y z
#    x 3.475090 0.000000 0.080880 
#    y 0.000000 4.046960 0.000000 
#    z 0.080880 0.000000 3.696310 
# 
# 
# High freq. dielectric constant tensor:
#      x y z
#    x 1.796070 0.000000 0.004570 
#    y 0.000000 1.808980 0.000000 
#    z 0.004570 0.000000 1.797080 
# 
# From -- ./inp_files/278185.got.cif
#   From: 2010.06.25/outbox.cif.g09.slc.cpg/sg12_140_cif.got.tgz:278185.got - 2010.06.28 00:19:55.
