data_PCOD8107603
_publ_section_title
;
Structure prediction by ZEFSAII (Michael W. Deem and Ramdas Pophale) SiO2 
 PCOD8107603
Probable space group: C 2/M
;
_chemical_formula_sum "Si O2"
_cell_formula_units_Z 32
_cell_length_a 9.802772
_cell_length_b 27.199266
_cell_length_c 7.623391
_cell_angle_alpha 90.000000
_cell_angle_beta 42.412245
_cell_angle_gamma 90.000000
_cell_volume 1370.915234
_symmetry_space_group_name_H-M "C 2/M"
_symmetry_group_IT_number 12
_symmetry_cell_setting 'monoclinic'
loop_
_space_group_symop_operation_xyz
x,y,z
-x,y,-z
-x,-y,-z
x,-y,z
1/2+x,1/2+y,z
1/2-x,1/2+y,-z
1/2-x,1/2-y,-z
1/2+x,1/2-y,z
loop_
_atom_site_type_symbol
_atom_site_label
_atom_site_fract_x
_atom_site_fract_y
_atom_site_fract_z
Si Si1 0.942861 0.444672 0.756127
Si Si2 0.898357 0.289442 0.772584
Si Si3 0.790048 0.358691 0.361696
Si Si4 0.359072 0.628774 0.885812
O O1 0.966452 0.500000 0.805498
O O2 0.000000 0.441592 0.500000
O O3 0.079786 0.408174 0.740800
O O4 0.709007 0.427123 0.005587
O O5 0.000000 0.267592 0.500000
O O6 0.084357 0.308991 0.716590
O O7 0.750000 0.250000 0.000000
O O8 0.755632 0.336321 0.863948
O O9 0.718614 0.353884 0.230885
O O10 0.598492 0.364655 0.673491
#
# Coordination Sequence:
#
# PCOD8107603 Si02
#       4
#     8   8   8   8
#     4  10  21  37  61  93 128 167 214 262 314 379
#     4  11  25  43  65  94 124 166 212 265 321 380
#     4  10  22  42  65  90 130 166 211 264 322 378
#     4  10  22  42  63  91 128 168 209 264 319 380
#
# _framework density 23.34207
#
# number of rings (size 3 to 8) (size 9 to 14) (size 15 to 20)
#    0.000    1.750    0.000    6.000    3.500    8.000 
#    4.500    5.000    0.000    0.000    0.000    0.000 
#    0.000    0.000    0.000    0.000    0.000    0.000 
#
# Total GULP energy -198294.558378 kJ/mol
# GULP energy per Si atom -12393.409899 kJ/mol
# Density = 2.328894 g / cm^3
# Si number density = 23.342070 Si / 1000 Ang^3
#
#
#
# Elastic Constant Matrix: (Units=GPa)
#
#
# Indices 1 2 3 4 5 6 
#
# 1 74.6132 46.8266 36.8439 0.0000 -18.7758 0.0000
# 2 46.8266 138.1088 58.5405 0.0000 -17.0546 0.0000
# 3 36.8439 58.5405 178.3606 0.0000 -33.4234 0.0000
# 4 0.0000 0.0000 0.0000 41.4282 0.0000 -4.1233
# 5 -18.7758 -17.0546 -33.4234 0.0000 40.1755 0.0000
# 6 0.0000 0.0000 0.0000 -4.1233 0.0000 19.3327
#
#
#
# Elastic Compliance Matrix: (Units=1/GPa)
#
#
# Indices 1 2 3 4 5 6 
#
# 1 0.018579 -0.005142 -0.001104 0.000000 0.005581 0.000000
# 2 -0.005142 0.009912 -0.002195 0.000000 -0.000022 0.000000
# 3 -0.001104 -0.002195 0.007444 0.000000 0.004745 0.000000
# 4 0.000000 0.000000 0.000000 0.024662 0.000000 0.005260
# 5 0.005581 -0.000022 0.004745 0.000000 0.031438 0.000000
# 6 0.000000 0.000000 0.000000 0.005260 0.000000 0.052848
#
#
# Mechanical properties :
#
#
# Convention : Reuss Voigt Hill
#
# Bulk Modulus (GPa) = 52.48598 75.05607 63.77102
# Shear Modulus (GPa) = 29.74122 36.77873 33.25998
#
# Velocity S-wave (km/s) = 3.57339 3.97374 3.77887
# Velocity P-wave (km/s) = 6.28967 7.29923 6.81317
#
# Compressibility (1/GPa) = 0.01905271
#
# Stress axis : x y z
#
# Youngs Moduli (GPa) = 53.82291 100.88878 134.32843
#
# Poissons Ratio (x) = 0.51879 0.14834
# Poissons Ratio (y) = 0.27677 0.29486
# Poissons Ratio (z) = 0.05944 0.22146
#
# Static dielectric constant tensor:
#      x y z
#    x 4.004870 0.000000 -0.330640 
#    y 0.000000 4.326320 0.000000 
#    z -0.330640 0.000000 4.894790 
# 
# 
# High freq. dielectric constant tensor:
#      x y z
#    x 1.907790 0.000000 -0.004410 
#    y 0.000000 1.910390 0.000000 
#    z -0.004410 0.000000 1.953970 
# 
# From -- ./inp_files/51815.got.cif
#   From: 2010.06.25/outbox.cif.g09.slc.cpg/sg12_26_cif.got.tgz:51815.got - 2010.06.28 00:19:55.
