data_PCOD8107910
_publ_section_title
;
Structure prediction by ZEFSAII (Michael W. Deem and Ramdas Pophale) SiO2 
 PCOD8107910
Probable space group: C 2/M
;
_chemical_formula_sum "Si O2"
_cell_formula_units_Z 64
_cell_length_a 29.769473
_cell_length_b 8.990041
_cell_length_c 15.494026
_cell_angle_alpha 90.000000
_cell_angle_beta 49.377890
_cell_angle_gamma 90.000000
_cell_volume 3147.388754
_symmetry_space_group_name_H-M "C 2/M"
_symmetry_group_IT_number 12
_symmetry_cell_setting 'monoclinic'
loop_
_space_group_symop_operation_xyz
x,y,z
-x,y,-z
-x,-y,-z
x,-y,z
1/2+x,1/2+y,z
1/2-x,1/2+y,-z
1/2-x,1/2-y,-z
1/2+x,1/2-y,z
loop_
_atom_site_type_symbol
_atom_site_label
_atom_site_fract_x
_atom_site_fract_y
_atom_site_fract_z
Si Si1 0.735386 0.175523 0.427868
Si Si2 0.601179 0.831089 0.218752
Si Si3 0.008461 0.332006 0.753758
Si Si4 0.178325 0.824596 0.833737
Si Si5 0.615059 0.331567 0.549550
Si Si6 0.433607 0.668452 0.580011
Si Si7 0.052949 0.325667 0.994885
Si Si8 0.298071 0.324553 0.002179
O O1 0.750000 0.250000 0.500000
O O2 0.779279 0.230199 0.296897
O O3 0.669823 0.221967 0.484509
O O4 0.739079 0.000000 0.434262
O O5 0.531996 0.820760 0.280729
O O6 0.607826 0.769786 0.307458
O O7 0.637774 0.729834 0.107522
O O8 0.624973 0.000000 0.184967
O O9 0.032210 0.500000 0.737046
O O10 0.064377 0.223101 0.678534
O O11 0.966536 0.284258 0.884533
O O12 0.169756 0.000000 0.842572
O O13 0.114326 0.754148 0.896781
O O14 0.207571 0.777746 0.889534
O O15 0.632800 0.500000 0.552787
O O16 0.590790 0.321736 0.484470
O O17 0.500000 0.730928 0.500000
O O18 0.432138 0.500000 0.617495
O O19 0.064011 0.500000 0.968556
O O20 0.000000 0.268800 0.000000
O O21 0.292205 0.500000 0.998565
O O22 0.250000 0.250000 0.000000
#
# Coordination Sequence:
#
# PCOD8107910 Si02
#       8
#     8   8   8   8   8   8   8   8
#     4  11  26  48  69  93 126 167 217 270 321 379
#     4  11  22  37  60  89 125 166 208 257 317 376
#     4  10  21  38  60  92 129 165 207 258 315 376
#     4  10  24  45  67  94 128 165 210 262 317 376
#     4  11  24  41  64  93 126 169 216 262 318 376
#     4  10  21  38  58  87 126 166 207 253 306 368
#     4  10  22  40  65  96 127 161 202 251 313 376
#     4  11  24  42  64  92 126 167 211 260 318 379
#
# _framework density 20.334316999999999
#
# number of rings (size 3 to 8) (size 9 to 14) (size 15 to 20)
#    0.000    1.500    2.500    1.500    3.500    4.000 
#    0.000    0.000    0.000    0.000    0.000    0.000 
#    0.000    0.000    0.000    0.000    0.000    0.000 
#
# Total GULP energy -396850.484631 kJ/mol
# GULP energy per Si atom -12401.577645 kJ/mol
# Density = 2.028803 g / cm^3
# Si number density = 20.334317 Si / 1000 Ang^3
#
#
#
# Elastic Constant Matrix: (Units=GPa)
#
#
# Indices 1 2 3 4 5 6 
#
# 1 107.4103 41.3440 50.5115 0.0000 -4.2857 -0.0001
# 2 41.3440 70.2600 51.9809 0.0001 1.5331 -0.0002
# 3 50.5115 51.9809 135.2742 0.0000 -2.9063 0.0000
# 4 0.0000 0.0001 0.0000 35.5331 0.0000 -4.4766
# 5 -4.2857 1.5331 -2.9063 0.0000 31.0430 0.0000
# 6 -0.0001 -0.0002 0.0000 -4.4766 0.0000 35.8798
#
#
#
# Elastic Compliance Matrix: (Units=1/GPa)
#
#
# Indices 1 2 3 4 5 6 
#
# 1 0.012761 -0.005661 -0.002551 0.000000 0.001802 0.000000
# 2 -0.005661 0.022488 -0.006581 0.000000 -0.002508 0.000000
# 3 -0.002551 -0.006581 0.010895 0.000000 0.000993 0.000000
# 4 0.000000 0.000000 0.000000 0.028592 0.000000 0.003567
# 5 0.001802 -0.002508 0.000993 0.000000 0.032679 0.000000
# 6 0.000000 0.000000 0.000000 0.003567 0.000000 0.028316
#
#
# Mechanical properties :
#
#
# Convention : Reuss Voigt Hill
#
# Bulk Modulus (GPa) = 60.39613 66.73524 63.56568
# Shear Modulus (GPa) = 29.26783 31.76507 30.51645
#
# Velocity S-wave (km/s) = 3.79797 3.95668 3.87814
# Velocity P-wave (km/s) = 6.99991 7.33240 7.16808
#
# Compressibility (1/GPa) = 0.01655735
#
# Stress axis : x y z
#
# Youngs Moduli (GPa) = 78.36631 44.46843 91.78414
#
# Poissons Ratio (x) = 0.25174 0.23412
# Poissons Ratio (y) = 0.44364 0.60406
# Poissons Ratio (z) = 0.19989 0.29266
#
# Static dielectric constant tensor:
#      x y z
#    x 3.609420 0.000000 0.141690 
#    y 0.000000 3.770490 0.000000 
#    z 0.141690 0.000000 3.766610 
# 
# 
# High freq. dielectric constant tensor:
#      x y z
#    x 1.798230 0.000000 0.004200 
#    y 0.000000 1.793240 0.000000 
#    z 0.004200 0.000000 1.802450 
# 
# From -- ./inp_files/249842.got.cif
#   From: 2010.06.25/outbox.cif.g09.slc.cpg/sg12_125_cif.got.tgz:249842.got - 2010.06.28 00:19:55.
