data_PCOD8107356
_publ_section_title
;
Structure prediction by ZEFSAII (Michael W. Deem and Ramdas Pophale) SiO2 
 PCOD8107356
Probable space group: C 2/M
;
_chemical_formula_sum "Si O2"
_cell_formula_units_Z 64
_cell_length_a 9.293472
_cell_length_b 17.389460
_cell_length_c 30.644950
_cell_angle_alpha 90.000000
_cell_angle_beta 138.235729
_cell_angle_gamma 90.000000
_cell_volume 3298.687933
_symmetry_space_group_name_H-M "C 2/M"
_symmetry_group_IT_number 12
_symmetry_cell_setting 'monoclinic'
loop_
_space_group_symop_operation_xyz
x,y,z
-x,y,-z
-x,-y,-z
x,-y,z
1/2+x,1/2+y,z
1/2-x,1/2+y,-z
1/2-x,1/2-y,-z
1/2+x,1/2-y,z
loop_
_atom_site_type_symbol
_atom_site_label
_atom_site_fract_x
_atom_site_fract_y
_atom_site_fract_z
Si Si1 0.848248 0.909187 0.833149
Si Si2 0.707584 0.219751 0.858029
Si Si3 0.154025 0.211946 0.343033
Si Si4 0.782620 0.805860 0.741126
Si Si5 0.746460 0.410643 0.436938
Si Si6 0.553689 0.691602 0.462074
Si Si7 0.792772 0.589837 0.976749
Si Si8 0.363058 0.801110 0.061708
O O1 0.689676 0.861675 0.828680
O O2 0.798273 0.885851 0.771740
O O3 0.084584 0.879835 0.903000
O O4 0.813290 0.000000 0.830863
O O5 0.471230 0.252981 0.801137
O O6 0.759462 0.204139 0.920273
O O7 0.884219 0.277806 0.877292
O O8 0.185987 0.174754 0.302592
O O9 0.157965 0.141445 0.377635
O O10 0.344177 0.272515 0.392892
O O11 0.936141 0.260220 0.298213
O O12 0.700994 0.500000 0.416621
O O13 0.619693 0.387194 0.452467
O O14 0.000000 0.394179 0.500000
O O15 0.500000 0.672562 0.500000
O O16 0.750000 0.750000 0.500000
O O17 0.790643 0.500000 0.973524
O O18 0.816985 0.613058 0.033029
O O19 0.000000 0.626443 0.000000
O O20 0.250000 0.750000 0.000000
#
# Coordination Sequence:
#
# PCOD8107356 Si02
#       8
#     8   8   8   8   8   8   8   8
#     4  11  24  42  62  90 127 163 206 270 327 372
#     4  12  23  40  59  90 124 163 203 260 317 372
#     4  12  22  39  69  94 122 173 219 257 298 377
#     4  12  23  41  64  91 122 171 222 254 301 377
#     4  11  24  42  65 103 142 166 204 271 328 368
#     4  12  20  39  69  99 129 170 213 259 316 368
#     4  10  21  37  59  88 122 155 197 262 333 386
#     4  12  21  35  62  88 115 153 210 258 312 388
#
# _framework density 19.401653
#
# number of rings (size 3 to 8) (size 9 to 14) (size 15 to 20)
#    0.000    0.500    7.500    1.875    0.000    1.250 
#    0.000    3.750    0.000    3.000    0.000    0.000 
#    0.000    0.000    0.000    0.000    0.000    0.000 
#
# Total GULP energy -396734.565472 kJ/mol
# GULP energy per Si atom -12397.955171 kJ/mol
# Density = 1.935749 g / cm^3
# Si number density = 19.401653 Si / 1000 Ang^3
#
#
#
# Elastic Constant Matrix: (Units=GPa)
#
#
# Indices 1 2 3 4 5 6 
#
# 1 106.1647 29.8882 34.0311 -0.0001 -27.2471 0.0000
# 2 29.8882 76.1564 38.0315 0.0000 -3.9209 0.0000
# 3 34.0311 38.0315 92.0420 -0.0002 -6.2869 -0.0001
# 4 -0.0001 0.0000 -0.0002 27.7401 -0.0001 -9.9831
# 5 -27.2471 -3.9209 -6.2869 -0.0001 49.6939 0.0000
# 6 0.0000 0.0000 -0.0001 -9.9831 0.0000 27.9398
#
#
#
# Elastic Compliance Matrix: (Units=1/GPa)
#
#
# Indices 1 2 3 4 5 6 
#
# 1 0.012958 -0.003252 -0.003006 0.000000 0.006468 0.000000
# 2 -0.003252 0.017370 -0.006056 0.000000 -0.001178 0.000000
# 3 -0.003006 -0.006056 0.014458 0.000000 -0.000297 0.000000
# 4 0.000000 0.000000 0.000000 0.041368 0.000000 0.014781
# 5 0.006468 -0.001178 -0.000297 0.000000 0.023539 0.000000
# 6 0.000000 0.000000 0.000000 0.014781 0.000000 0.041073
#
#
# Mechanical properties :
#
#
# Convention : Reuss Voigt Hill
#
# Bulk Modulus (GPa) = 49.60182 53.14052 51.37117
# Shear Modulus (GPa) = 27.45548 32.56891 30.01219
#
# Velocity S-wave (km/s) = 3.76588 4.10160 3.93732
# Velocity P-wave (km/s) = 6.67311 7.06257 6.87060
#
# Compressibility (1/GPa) = 0.02016055
#
# Stress axis : x y z
#
# Youngs Moduli (GPa) = 77.17068 57.56911 69.16643
#
# Poissons Ratio (x) = 0.18719 0.20790
# Poissons Ratio (y) = 0.25092 0.41885
# Poissons Ratio (z) = 0.23196 0.34862
#
# Static dielectric constant tensor:
#      x y z
#    x 0.589370 -0.000010 3.548210 
#    y -0.000010 1.879580 0.000010 
#    z 3.548210 0.000010 -0.113200 
# 
# 
# High freq. dielectric constant tensor:
#      x y z
#    x 1.769070 0.000000 -0.001450 
#    y 0.000000 1.741630 0.000000 
#    z -0.001450 0.000000 1.763970 
# 
# From -- ./inp_files/373022.got.cif
#   From: 2010.06.25/outbox.cif.g09.slc.cpg/sg12_187_cif.got.tgz:373022.got - 2010.06.28 00:19:55.
