data_PCOD8107490
_publ_section_title
;
Structure prediction by ZEFSAII (Michael W. Deem and Ramdas Pophale) SiO2 
 PCOD8107490
Probable space group: C 2/M
;
_chemical_formula_sum "Si O2"
_cell_formula_units_Z 64
_cell_length_a 19.358375
_cell_length_b 19.369126
_cell_length_c 12.728923
_cell_angle_alpha 90.000000
_cell_angle_beta 42.346965
_cell_angle_gamma 90.000000
_cell_volume 3215.027010
_symmetry_space_group_name_H-M "C 2/M"
_symmetry_group_IT_number 12
_symmetry_cell_setting 'monoclinic'
loop_
_space_group_symop_operation_xyz
x,y,z
-x,y,-z
-x,-y,-z
x,-y,z
1/2+x,1/2+y,z
1/2-x,1/2+y,-z
1/2-x,1/2-y,-z
1/2+x,1/2-y,z
loop_
_atom_site_type_symbol
_atom_site_label
_atom_site_fract_x
_atom_site_fract_y
_atom_site_fract_z
Si Si1 0.160636 0.309832 0.695589
Si Si2 0.536583 0.186121 0.210732
Si Si3 0.821825 0.148572 0.359274
Si Si4 0.934625 0.812235 0.676599
Si Si5 0.467107 0.420148 0.809829
Si Si6 0.916589 0.423552 0.683288
Si Si7 0.701123 0.626330 0.846575
Si Si8 0.707235 0.783267 0.868866
O O1 0.184688 0.229552 0.655084
O O2 0.233902 0.361633 0.546355
O O3 0.178153 0.327972 0.798429
O O4 0.043636 0.320585 0.793619
O O5 0.512993 0.252473 0.311151
O O6 0.528496 0.116511 0.285155
O O7 0.649902 0.188015 0.035116
O O8 0.797659 0.107283 0.278677
O O9 0.930142 0.121364 0.278088
O O10 0.921196 0.882702 0.758142
O O11 0.826692 0.785104 0.757261
O O12 0.000000 0.827967 0.500000
O O13 0.491722 0.500000 0.756686
O O14 0.384976 0.418403 0.996919
O O15 0.886701 0.500000 0.754881
O O16 0.814044 0.385116 0.763607
O O17 0.000000 0.426542 0.500000
O O18 0.668575 0.705242 0.898505
#
# Coordination Sequence:
#
# PCOD8107490 Si02
#       8
#     8   8   8   8   8   8   8   8
#     4  10  21  37  64  92 118 154 197 259 303 356
#     4  12  21  39  65  90 121 161 201 257 303 359
#     4  10  21  37  60  89 122 155 202 246 303 363
#     4  12  24  39  63  90 122 164 208 258 310 360
#     4  12  25  41  59  88 128 169 207 250 310 375
#     4  11  24  39  58  89 125 160 204 256 309 363
#     4  11  21  37  61  91 124 164 201 253 309 371
#     4  11  22  37  63  95 127 151 208 258 307 354
#
# _framework density 19.906518999999999
#
# number of rings (size 3 to 8) (size 9 to 14) (size 15 to 20)
#    0.000    0.875    3.750    4.125    3.500    3.750 
#    0.000    0.625    0.000    3.000    0.000    0.000 
#    0.000    0.000    0.000    0.000    0.000    0.000 
#
# Total GULP energy -396846.414303 kJ/mol
# GULP energy per Si atom -12401.450447 kJ/mol
# Density = 1.986121 g / cm^3
# Si number density = 19.906519 Si / 1000 Ang^3
#
#
#
# Elastic Constant Matrix: (Units=GPa)
#
#
# Indices 1 2 3 4 5 6 
#
# 1 86.1230 22.1593 7.7330 0.0000 5.6467 0.0000
# 2 22.1593 64.3785 36.5274 0.0000 18.4423 0.0000
# 3 7.7330 36.5274 96.2906 0.0000 8.6466 0.0000
# 4 0.0000 0.0000 0.0000 13.7904 0.0000 -19.9086
# 5 5.6467 18.4423 8.6466 0.0000 39.6175 0.0000
# 6 0.0000 0.0000 0.0000 -19.9086 0.0000 -44.4654
#
#
#
# Elastic Compliance Matrix: (Units=1/GPa)
#
#
# Indices 1 2 3 4 5 6 
#
# 1 0.012793 -0.004960 0.000827 0.000000 0.000305 0.000000
# 2 -0.004960 0.024343 -0.008040 0.000000 -0.008870 0.000000
# 3 0.000827 -0.008040 0.013304 0.000000 0.000721 0.000000
# 4 0.000000 0.000000 0.000000 0.044045 0.000000 -0.019720
# 5 0.000305 -0.008870 0.000721 0.000000 0.029170 0.000000
# 6 0.000000 0.000000 0.000000 -0.019720 0.000000 -0.013660
#
#
# Mechanical properties :
#
#
# Convention : Reuss Voigt Hill
#
# Bulk Modulus (GPa) = 38.32222 42.18130 40.25176
# Shear Modulus (GPa) = 34.95571 13.81333 24.38452
#
# Velocity S-wave (km/s) = 4.19500 2.63707 3.50373
# Velocity P-wave (km/s) = 6.53888 5.52340 6.05247
#
# Compressibility (1/GPa) = 0.02609452
#
# Stress axis : x y z
#
# Youngs Moduli (GPa) = 78.16615 41.07975 75.16626
#
# Poissons Ratio (x) = 0.20375 -0.06214
# Poissons Ratio (y) = 0.38770 0.60430
# Poissons Ratio (z) = -0.06462 0.33026
#
# Static dielectric constant tensor:
#      x y z
#    x 3.686790 0.000000 0.187280 
#    y 0.000000 3.461550 0.000000 
#    z 0.187280 0.000000 3.811930 
# 
# 
# High freq. dielectric constant tensor:
#      x y z
#    x 1.788280 0.000000 0.000160 
#    y 0.000000 1.743860 0.000000 
#    z 0.000160 0.000000 1.787530 
# 
# From -- ./inp_files/159547.got.cif
#   From: 2010.06.25/outbox.cif.g09.slc.cpg/sg12_80_cif.got.tgz:159547.got - 2010.06.28 00:19:55.
