data_PCOD8107389
_publ_section_title
;
Structure prediction by ZEFSAII (Michael W. Deem and Ramdas Pophale) SiO2 
 PCOD8107389
Probable space group: C 2/M
;
_chemical_formula_sum "Si O2"
_cell_formula_units_Z 48
_cell_length_a 11.865140
_cell_length_b 14.045289
_cell_length_c 15.754717
_cell_angle_alpha 90.000000
_cell_angle_beta 122.391712
_cell_angle_gamma 90.000000
_cell_volume 2216.997321
_symmetry_space_group_name_H-M "C 2/M"
_symmetry_group_IT_number 12
_symmetry_cell_setting 'monoclinic'
loop_
_space_group_symop_operation_xyz
x,y,z
-x,y,-z
-x,-y,-z
x,-y,z
1/2+x,1/2+y,z
1/2-x,1/2+y,-z
1/2-x,1/2-y,-z
1/2+x,1/2-y,z
loop_
_atom_site_type_symbol
_atom_site_label
_atom_site_fract_x
_atom_site_fract_y
_atom_site_fract_z
Si Si1 0.847280 0.892388 0.270657
Si Si2 0.942384 0.200587 0.060857
Si Si3 0.913046 0.797674 0.712465
Si Si4 0.693391 0.112757 0.042395
Si Si5 0.152596 0.608418 0.544939
Si Si6 0.668827 0.104304 0.355175
O O1 0.736778 0.858344 0.156611
O O2 0.798988 0.879852 0.348127
O O3 0.989314 0.841435 0.318365
O O4 0.878937 0.000000 0.260345
O O5 0.812265 0.138985 0.027214
O O6 0.047983 0.177915 0.176704
O O7 0.922653 0.315113 0.035690
O O8 0.000000 0.153077 0.000000
O O9 0.758081 0.826925 0.638413
O O10 0.936489 0.684640 0.711351
O O11 0.651941 0.000000 0.018171
O O12 0.162803 0.500000 0.582086
O O13 0.201798 0.614869 0.467624
O O14 0.000000 0.644532 0.500000
O O15 0.606759 0.000000 0.311685
#
# Coordination Sequence:
#
# PCOD8107389 Si02
#       6
#     8   8   8   8   8   8
#     4   9  19  37  62  92 121 156 204 246 294 360
#     4  10  21  37  59  90 121 157 205 242 288 362
#     4  11  22  37  65  88 122 161 203 248 305 349
#     4   9  19  37  58  86 126 159 190 246 302 346
#     4  10  23  43  62  88 124 158 200 253 307 360
#     4  10  22  39  60  89 121 154 200 250 299 362
#
# _framework density 21.650907
#
# number of rings (size 3 to 8) (size 9 to 14) (size 15 to 20)
#    0.000    2.167    0.000    2.000    2.333    2.667 
#    0.000    2.500    0.000    0.000    0.000    0.000 
#    0.000    0.000    0.000    0.000    0.000    0.000 
#
# Total GULP energy -297367.498534 kJ/mol
# GULP energy per Si atom -12390.312439 kJ/mol
# Density = 2.160163 g / cm^3
# Si number density = 21.650907 Si / 1000 Ang^3
#
#
#
# Elastic Constant Matrix: (Units=GPa)
#
#
# Indices 1 2 3 4 5 6 
#
# 1 134.2400 37.7489 77.0876 0.0000 -14.4729 0.0000
# 2 37.7489 71.8393 18.4442 0.0000 0.2695 0.0000
# 3 77.0876 18.4442 82.8016 0.0000 -7.8640 0.0000
# 4 0.0000 0.0000 0.0000 26.6931 0.0000 3.7384
# 5 -14.4729 0.2695 -7.8640 0.0000 34.7312 0.0000
# 6 0.0000 0.0000 0.0000 3.7384 0.0000 21.9553
#
#
#
# Elastic Compliance Matrix: (Units=1/GPa)
#
#
# Indices 1 2 3 4 5 6 
#
# 1 0.018368 -0.005706 -0.015430 0.000000 0.004205 0.000000
# 2 -0.005706 0.016563 0.001415 0.000000 -0.002186 0.000000
# 3 -0.015430 0.001415 0.026076 0.000000 -0.000537 0.000000
# 4 0.000000 0.000000 0.000000 0.038378 0.000000 -0.006535
# 5 0.004205 -0.002186 -0.000537 0.000000 0.030440 0.000000
# 6 0.000000 0.000000 0.000000 -0.006535 0.000000 0.046660
#
#
# Mechanical properties :
#
#
# Convention : Reuss Voigt Hill
#
# Bulk Modulus (GPa) = 46.37051 61.71583 54.04317
# Shear Modulus (GPa) = 22.40991 27.04925 24.72958
#
# Velocity S-wave (km/s) = 3.22072 3.53843 3.38331
# Velocity P-wave (km/s) = 5.94092 6.72762 6.34647
#
# Compressibility (1/GPa) = 0.02156543
#
# Stress axis : x y z
#
# Youngs Moduli (GPa) = 54.44267 60.37525 38.34917
#
# Poissons Ratio (x) = 0.34450 0.59173
# Poissons Ratio (y) = 0.31064 -0.05427
# Poissons Ratio (z) = 0.84005 -0.08544
#
# Static dielectric constant tensor:
#      x y z
#    x 3.933800 0.000000 -0.211800 
#    y 0.000000 4.135070 0.000000 
#    z -0.211800 0.000000 3.770660 
# 
# 
# High freq. dielectric constant tensor:
#      x y z
#    x 1.853110 0.000000 -0.018520 
#    y 0.000000 1.855090 0.000000 
#    z -0.018520 0.000000 1.834310 
# 
# From -- ./inp_files/205149.got.cif
#   From: 2010.06.25/outbox.cif.g09.slc.cpg/sg12_103_cif.got.tgz:205149.got - 2010.06.28 00:19:55.
