data_PCOD8107579
_publ_section_title
;
Structure prediction by ZEFSAII (Michael W. Deem and Ramdas Pophale) SiO2 
 PCOD8107579
Probable space group: C 2/M
;
_chemical_formula_sum "Si O2"
_cell_formula_units_Z 56
_cell_length_a 13.423754
_cell_length_b 13.359043
_cell_length_c 17.833468
_cell_angle_alpha 90.000000
_cell_angle_beta 57.983902
_cell_angle_gamma 90.000000
_cell_volume 2711.623269
_symmetry_space_group_name_H-M "C 2/M"
_symmetry_group_IT_number 12
_symmetry_cell_setting 'monoclinic'
loop_
_space_group_symop_operation_xyz
x,y,z
-x,y,-z
-x,-y,-z
x,-y,z
1/2+x,1/2+y,z
1/2-x,1/2+y,-z
1/2-x,1/2-y,-z
1/2+x,1/2-y,z
loop_
_atom_site_type_symbol
_atom_site_label
_atom_site_fract_x
_atom_site_fract_y
_atom_site_fract_z
Si Si1 0.202762 0.771778 0.601979
Si Si2 0.151255 0.616064 0.144074
Si Si3 0.605260 0.893835 0.403166
Si Si4 0.593150 0.607155 0.899979
Si Si5 0.271795 0.115034 0.273810
Si Si6 0.513716 0.185006 0.905055
Si Si7 0.939634 0.235538 0.700812
O O1 0.250000 0.750000 0.500000
O O2 0.274384 0.865740 0.603954
O O3 0.214477 0.676789 0.654022
O O4 0.069003 0.811564 0.652638
O O5 0.120017 0.500000 0.171253
O O6 0.287009 0.638043 0.105891
O O7 0.113072 0.648834 0.075328
O O8 0.074257 0.690610 0.224023
O O9 0.500000 0.913505 0.500000
O O10 0.563840 0.805029 0.369145
O O11 0.629233 0.000000 0.350791
O O12 0.608028 0.500000 0.849592
O O13 0.549039 0.699973 0.867152
O O14 0.500000 0.586484 0.000000
O O15 0.384992 0.118720 0.173700
O O16 0.160753 0.151757 0.268064
O O17 0.251259 0.000000 0.305033
O O18 0.500000 0.174038 0.000000
#
# Coordination Sequence:
#
# PCOD8107579 Si02
#       7
#     8   8   8   8   8   8   8
#     4  11  23  41  65  91 126 164 209 259 317 387
#     4  11  22  39  64  92 122 171 219 260 321 382
#     4  10  21  37  61  91 118 150 200 257 308 367
#     4   9  20  40  63  89 124 165 211 260 319 381
#     4  11  25  43  64  94 132 172 211 266 327 379
#     4  11  23  40  67  95 132 168 219 269 316 376
#     4  11  22  41  62  87 126 165 210 261 315 383
#
# _framework density 20.651834999999998
#
# number of rings (size 3 to 8) (size 9 to 14) (size 15 to 20)
#    0.000    1.429    4.286    0.857    0.000    5.143 
#    0.000    1.429    0.000    0.000    0.000    0.000 
#    0.000    0.000    0.000    0.000    0.000    0.000 
#
# Total GULP energy -346890.375074 kJ/mol
# GULP energy per Si atom -12388.941967 kJ/mol
# Density = 2.060483 g / cm^3
# Si number density = 20.651835 Si / 1000 Ang^3
#
#
#
# Elastic Constant Matrix: (Units=GPa)
#
#
# Indices 1 2 3 4 5 6 
#
# 1 101.3788 36.7477 24.5961 0.0000 -19.9182 0.0000
# 2 36.7477 115.5912 14.9485 0.0000 -4.2853 0.0000
# 3 24.5961 14.9485 86.1627 0.0000 -3.8104 0.0000
# 4 0.0000 0.0000 0.0000 -31.6193 0.0000 -25.8443
# 5 -19.9182 -4.2853 -3.8104 0.0000 35.3106 0.0000
# 6 0.0000 0.0000 0.0000 -25.8443 0.0000 17.0188
#
#
#
# Elastic Compliance Matrix: (Units=1/GPa)
#
#
# Indices 1 2 3 4 5 6 
#
# 1 0.013160 -0.003568 -0.002842 0.000000 0.006684 0.000000
# 2 -0.003568 0.009847 -0.000729 0.000000 -0.000897 0.000000
# 3 -0.002842 -0.000729 0.012529 0.000000 -0.000340 0.000000
# 4 0.000000 0.000000 0.000000 -0.014111 0.000000 -0.021429
# 5 0.006684 -0.000897 -0.000340 0.000000 0.031945 0.000000
# 6 0.000000 0.000000 0.000000 -0.021429 0.000000 0.026217
#
#
# Mechanical properties :
#
#
# Convention : Reuss Voigt Hill
#
# Bulk Modulus (GPa) = 47.04550 50.63525 48.84038
# Shear Modulus (GPa) = 49.52881 19.26472 34.39677
#
# Velocity S-wave (km/s) = 4.90253 3.05755 4.08555
# Velocity P-wave (km/s) = 7.40785 6.08576 6.77911
#
# Compressibility (1/GPa) = 0.02125602
#
# Stress axis : x y z
#
# Youngs Moduli (GPa) = 75.98687 101.55681 79.81638
#
# Poissons Ratio (x) = 0.36240 0.22684
# Poissons Ratio (y) = 0.27115 0.05821
# Poissons Ratio (z) = 0.21596 0.07407
#
# Static dielectric constant tensor:
#      x y z
#    x 3.936780 0.000000 -0.025550 
#    y 0.000000 2.840960 0.000000 
#    z -0.025550 0.000000 3.651140 
# 
# 
# High freq. dielectric constant tensor:
#      x y z
#    x 1.819140 0.000000 -0.012450 
#    y 0.000000 1.811140 0.000000 
#    z -0.012450 0.000000 1.799760 
# 
# From -- ./inp_files/263266.got.cif
#   From: 2010.06.25/outbox.cif.g09.slc.cpg/sg12_132_cif.got.tgz:263266.got - 2010.06.28 00:19:55.
