data_PCOD8107857
_publ_section_title
;
Structure prediction by ZEFSAII (Michael W. Deem and Ramdas Pophale) SiO2 
 PCOD8107857
Probable space group: C 2/M
;
_chemical_formula_sum "Si O2"
_cell_formula_units_Z 48
_cell_length_a 19.292231
_cell_length_b 8.708564
_cell_length_c 27.304090
_cell_angle_alpha 90.000000
_cell_angle_beta 145.901335
_cell_angle_gamma 90.000000
_cell_volume 2571.728176
_symmetry_space_group_name_H-M "C 2/M"
_symmetry_group_IT_number 12
_symmetry_cell_setting 'monoclinic'
loop_
_space_group_symop_operation_xyz
x,y,z
-x,y,-z
-x,-y,-z
x,-y,z
1/2+x,1/2+y,z
1/2-x,1/2+y,-z
1/2-x,1/2-y,-z
1/2+x,1/2-y,z
loop_
_atom_site_type_symbol
_atom_site_label
_atom_site_fract_x
_atom_site_fract_y
_atom_site_fract_z
Si Si1 0.786254 0.681717 0.969317
Si Si2 0.134100 0.320058 0.288185
Si Si3 0.820124 0.181175 0.264167
Si Si4 0.125067 0.678603 0.601176
Si Si5 0.595044 0.820702 0.783127
Si Si6 0.943654 0.319013 0.863282
O O1 0.781841 0.500000 0.971457
O O2 0.698215 0.733155 0.874404
O O3 0.750000 0.750000 0.000000
O O4 0.926260 0.739334 0.038384
O O5 0.165603 0.500000 0.305122
O O6 0.261925 0.227069 0.368332
O O7 0.066263 0.264882 0.198846
O O8 0.042579 0.278149 0.279106
O O9 0.873678 0.222337 0.348566
O O10 0.898024 0.270560 0.269040
O O11 0.676452 0.238095 0.176697
O O12 0.832707 0.000000 0.262884
O O13 0.134899 0.500000 0.620302
O O14 0.000000 0.718051 0.500000
O O15 0.619788 0.000000 0.803984
O O16 0.940756 0.500000 0.862445
#
# Coordination Sequence:
#
# PCOD8107857 Si02
#       6
#     8   8   8   8   8   8
#     4  11  20  33  53  79 110 148 193 235 275 321
#     4   9  18  35  57  79 108 147 185 222 272 328
#     4  10  21  38  58  81 110 147 186 224 276 331
#     4  10  21  38  61  88 113 137 173 224 276 330
#     4  11  22  37  54  80 116 149 184 232 281 319
#     4   8  16  33  53  74 105 145 186 227 270 316
#
# _framework density 18.664491999999999
#
# number of rings (size 3 to 8) (size 9 to 14) (size 15 to 20)
#    0.000    2.167    1.667    3.000    0.000    3.333 
#    0.000    6.667    0.000    0.000    0.000    0.000 
#    0.000    0.000    0.000    0.000    0.000    0.000 
#
# Total GULP energy -297548.042121 kJ/mol
# GULP energy per Si atom -12397.835088 kJ/mol
# Density = 1.862201 g / cm^3
# Si number density = 18.664492 Si / 1000 Ang^3
#
#
#
# Elastic Constant Matrix: (Units=GPa)
#
#
# Indices 1 2 3 4 5 6 
#
# 1 128.5816 27.8675 45.8273 0.0000 14.6192 0.0001
# 2 27.8675 49.2087 28.7858 0.0000 7.7368 0.0003
# 3 45.8273 28.7858 109.4684 -0.0001 19.8888 0.0000
# 4 0.0000 0.0000 -0.0001 28.9061 0.0000 -0.6043
# 5 14.6192 7.7368 19.8888 0.0000 21.4075 0.0000
# 6 0.0001 0.0003 0.0000 -0.6043 0.0000 31.2411
#
#
#
# Elastic Compliance Matrix: (Units=1/GPa)
#
#
# Indices 1 2 3 4 5 6 
#
# 1 0.009826 -0.003553 -0.002639 0.000000 -0.002974 0.000000
# 2 -0.003553 0.025506 -0.004795 0.000000 -0.002337 0.000000
# 3 -0.002639 -0.004795 0.013063 0.000000 -0.008602 0.000000
# 4 0.000000 0.000000 0.000000 0.034609 0.000000 0.000669
# 5 -0.002974 -0.002337 -0.008602 0.000000 0.057580 0.000000
# 6 0.000000 0.000000 0.000000 0.000669 0.000000 0.032022
#
#
# Mechanical properties :
#
#
# Convention : Reuss Voigt Hill
#
# Bulk Modulus (GPa) = 37.84791 54.69111 46.26951
# Shear Modulus (GPa) = 24.58360 28.62946 26.60653
#
# Velocity S-wave (km/s) = 3.63317 3.92075 3.77970
# Velocity P-wave (km/s) = 6.15808 7.06132 6.62511
#
# Compressibility (1/GPa) = 0.02642154
#
# Stress axis : x y z
#
# Youngs Moduli (GPa) = 101.77192 39.20602 76.54968
#
# Poissons Ratio (x) = 0.13931 0.20199
# Poissons Ratio (y) = 0.36163 0.36706
# Poissons Ratio (z) = 0.26854 0.18799
#
# Static dielectric constant tensor:
#      x y z
#    x 3.594750 0.000000 0.301200 
#    y 0.000000 3.341520 0.000000 
#    z 0.301200 0.000000 3.511780 
# 
# 
# High freq. dielectric constant tensor:
#      x y z
#    x 1.725570 0.000000 0.016850 
#    y 0.000000 1.718780 0.000000 
#    z 0.016850 0.000000 1.712930 
# 
# From -- ./inp_files/380254.got.cif
#   From: 2010.06.25/outbox.cif.g09.slc.cpg/sg12_191_cif.got.tgz:380254.got - 2010.06.28 00:19:55.
