data_PCOD8107288
_publ_section_title
;
Structure prediction by ZEFSAII (Michael W. Deem and Ramdas Pophale) SiO2 
 PCOD8107288
Probable space group: C 2/M
;
_chemical_formula_sum "Si O2"
_cell_formula_units_Z 56
_cell_length_a 24.741630
_cell_length_b 9.241947
_cell_length_c 14.054489
_cell_angle_alpha 90.000000
_cell_angle_beta 122.844295
_cell_angle_gamma 90.000000
_cell_volume 2699.991597
_symmetry_space_group_name_H-M "C 2/M"
_symmetry_group_IT_number 12
_symmetry_cell_setting 'monoclinic'
loop_
_space_group_symop_operation_xyz
x,y,z
-x,y,-z
-x,-y,-z
x,-y,z
1/2+x,1/2+y,z
1/2-x,1/2+y,-z
1/2-x,1/2-y,-z
1/2+x,1/2-y,z
loop_
_atom_site_type_symbol
_atom_site_label
_atom_site_fract_x
_atom_site_fract_y
_atom_site_fract_z
Si Si1 0.185560 0.669047 0.423160
Si Si2 0.699767 0.665605 0.770411
Si Si3 0.616753 0.662464 0.509097
Si Si4 0.345253 0.832903 0.897526
Si Si5 0.630185 0.832035 0.860376
Si Si6 0.002426 0.837711 0.724941
Si Si7 0.097527 0.170071 0.206220
O O1 0.195128 0.500000 0.418082
O O2 0.250000 0.750000 0.500000
O O3 0.142802 0.704524 0.473190
O O4 0.157071 0.737619 0.301346
O O5 0.701352 0.500000 0.805900
O O6 0.641129 0.689121 0.639289
O O7 0.770849 0.705372 0.797250
O O8 0.685117 0.762120 0.847747
O O9 0.640317 0.500000 0.498982
O O10 0.540414 0.669714 0.413220
O O11 0.400884 0.733314 0.899834
O O12 0.360960 0.000000 0.890143
O O13 0.352153 0.797796 0.014866
O O14 0.560367 0.771228 0.767157
O O15 0.628669 0.000000 0.836399
O O16 0.963840 0.796518 0.785720
O O17 0.029551 0.000000 0.762262
O O18 0.111733 0.000000 0.218877
#
# Coordination Sequence:
#
# PCOD8107288 Si02
#       7
#     8   8   8   8   8   8   8
#     4  11  20  31  51  80 116 154 189 231 284 342
#     4  10  21  39  62  84 111 149 191 238 294 344
#     4   9  19  36  58  84 111 144 190 240 288 344
#     4  10  22  39  59  86 117 151 190 237 293 348
#     4  11  24  39  57  83 116 153 196 241 284 338
#     4   9  20  39  59  83 116 151 190 232 286 350
#     4  10  21  37  59  86 114 148 191 239 288 344
#
# _framework density 20.740805000000002
#
# number of rings (size 3 to 8) (size 9 to 14) (size 15 to 20)
#    0.000    2.000    0.000    4.286    0.000    7.429 
#    0.000    5.714    0.000    0.000    0.000    0.000 
#    0.000    0.000    0.000    0.000    0.000    0.000 
#
# Total GULP energy -346946.791665 kJ/mol
# GULP energy per Si atom -12390.956845 kJ/mol
# Density = 2.069360 g / cm^3
# Si number density = 20.740805 Si / 1000 Ang^3
#
#
#
# Elastic Constant Matrix: (Units=GPa)
#
#
# Indices 1 2 3 4 5 6 
#
# 1 42.9393 13.1764 0.8383 0.0000 -2.4443 0.0000
# 2 13.1764 78.3730 14.5663 0.0000 -4.1068 0.0000
# 3 0.8383 14.5663 60.8147 0.0000 0.9133 0.0000
# 4 0.0000 0.0000 0.0000 31.4453 0.0000 -3.8913
# 5 -2.4443 -4.1068 0.9133 0.0000 30.2067 0.0000
# 6 0.0000 0.0000 0.0000 -3.8913 0.0000 36.7246
#
#
#
# Elastic Compliance Matrix: (Units=1/GPa)
#
#
# Indices 1 2 3 4 5 6 
#
# 1 0.024641 -0.004189 0.000642 0.000000 0.001405 0.000000
# 2 -0.004189 0.014177 -0.003363 0.000000 0.001690 0.000000
# 3 0.000642 -0.003363 0.017254 0.000000 -0.000927 0.000000
# 4 0.000000 0.000000 0.000000 0.032224 0.000000 0.003414
# 5 0.001405 0.001690 -0.000927 0.000000 0.033477 0.000000
# 6 0.000000 0.000000 0.000000 0.003414 0.000000 0.027592
#
#
# Mechanical properties :
#
#
# Convention : Reuss Voigt Hill
#
# Bulk Modulus (GPa) = 23.66648 26.58767 25.12708
# Shear Modulus (GPa) = 28.20577 29.91171 29.05874
#
# Velocity S-wave (km/s) = 3.69171 3.80171 3.74711
# Velocity P-wave (km/s) = 5.44123 5.66723 5.55538
#
# Compressibility (1/GPa) = 0.04225385
#
# Stress axis : x y z
#
# Youngs Moduli (GPa) = 40.58197 70.53479 57.95734
#
# Poissons Ratio (x) = 0.29544 -0.03724
# Poissons Ratio (y) = 0.16998 0.19493
# Poissons Ratio (z) = -0.02607 0.23724
#
# Static dielectric constant tensor:
#      x y z
#    x 3.519190 0.000000 -0.041700 
#    y 0.000000 4.306030 0.000000 
#    z -0.041700 0.000000 3.862310 
# 
# 
# High freq. dielectric constant tensor:
#      x y z
#    x 1.802070 0.000000 -0.001360 
#    y 0.000000 1.809930 0.000000 
#    z -0.001360 0.000000 1.816180 
# 
# From -- ./inp_files/238920.got.cif
#   From: 2010.06.25/outbox.cif.g09.slc.cpg/sg12_120_cif.got.tgz:238920.got - 2010.06.28 00:19:55.
