data_PCOD8107381
_publ_section_title
;
Structure prediction by ZEFSAII (Michael W. Deem and Ramdas Pophale) SiO2 
 PCOD8107381
Probable space group: C 2/M
;
_chemical_formula_sum "Si O2"
_cell_formula_units_Z 48
_cell_length_a 27.197870
_cell_length_b 13.460688
_cell_length_c 9.546990
_cell_angle_alpha 90.000000
_cell_angle_beta 39.037324
_cell_angle_gamma 90.000000
_cell_volume 2201.352325
_symmetry_space_group_name_H-M "C 2/M"
_symmetry_group_IT_number 12
_symmetry_cell_setting 'monoclinic'
loop_
_space_group_symop_operation_xyz
x,y,z
-x,y,-z
-x,-y,-z
x,-y,z
1/2+x,1/2+y,z
1/2-x,1/2+y,-z
1/2-x,1/2-y,-z
1/2+x,1/2-y,z
loop_
_atom_site_type_symbol
_atom_site_label
_atom_site_fract_x
_atom_site_fract_y
_atom_site_fract_z
Si Si1 0.203335 0.180922 0.873706
Si Si2 0.132934 0.253645 0.478426
Si Si3 0.495169 0.110714 0.348493
Si Si4 0.311018 0.385878 0.406674
Si Si5 0.830534 0.607152 0.090603
Si Si6 0.413495 0.388802 0.655249
O O1 0.295716 0.167064 0.695277
O O2 0.183126 0.163346 0.757144
O O3 0.189341 0.295608 0.956381
O O4 0.144729 0.108398 0.083425
O O5 0.055254 0.318647 0.639836
O O6 0.137678 0.186379 0.607659
O O7 0.132620 0.175348 0.354202
O O8 0.500000 0.148928 0.500000
O O9 0.459025 0.000000 0.431826
O O10 0.577445 0.110117 0.085937
O O11 0.342829 0.500000 0.337148
O O12 0.219970 0.385297 0.654954
O O13 0.810045 0.500000 0.061792
O O14 0.500000 0.345936 0.500000
O O15 0.424032 0.500000 0.574033
#
# Coordination Sequence:
#
# PCOD8107381 Si02
#       6
#     8   8   8   8   8   8
#     4  11  22  40  63  88 118 156 200 247 296 351
#     4  11  21  38  63  92 120 152 197 247 299 351
#     4  10  21  37  59  89 124 160 196 241 298 355
#     4  10  22  41  63  87 119 158 199 244 295 352
#     4   9  18  35  58  83 115 154 192 235 290 347
#     4  11  24  41  61  86 120 160 200 245 297 353
#
# _framework density 21.804779
#
# number of rings (size 3 to 8) (size 9 to 14) (size 15 to 20)
#    0.000    1.667    0.000    6.000    0.000    3.333 
#    0.000   11.667    0.000   15.000    0.000    0.000 
#    0.000    0.000    0.000    0.000    0.000    0.000 
#
# Total GULP energy -297328.825556 kJ/mol
# GULP energy per Si atom -12388.701065 kJ/mol
# Density = 2.175515 g / cm^3
# Si number density = 21.804779 Si / 1000 Ang^3
#
#
#
# Elastic Constant Matrix: (Units=GPa)
#
#
# Indices 1 2 3 4 5 6 
#
# 1 122.9188 38.3183 38.0898 0.0000 4.1764 0.0000
# 2 38.3183 107.4771 16.0941 0.0000 -6.3686 0.0000
# 3 38.0898 16.0941 55.3011 0.0000 4.6837 0.0000
# 4 0.0000 0.0000 0.0000 27.4061 0.0000 -6.8770
# 5 4.1764 -6.3686 4.6837 0.0000 25.7190 0.0000
# 6 0.0000 0.0000 0.0000 -6.8770 0.0000 25.6212
#
#
#
# Elastic Compliance Matrix: (Units=1/GPa)
#
#
# Indices 1 2 3 4 5 6 
#
# 1 0.011223 -0.003076 -0.006720 0.000000 -0.001360 0.000000
# 2 -0.003076 0.010800 -0.001314 0.000000 0.003413 0.000000
# 3 -0.006720 -0.001314 0.023389 0.000000 -0.003494 0.000000
# 4 0.000000 0.000000 0.000000 0.039123 0.000000 0.010501
# 5 -0.001360 0.003413 -0.003494 0.000000 0.040584 0.000000
# 6 0.000000 0.000000 0.000000 0.010501 0.000000 0.041849
#
#
# Mechanical properties :
#
#
# Convention : Reuss Voigt Hill
#
# Bulk Modulus (GPa) = 43.11455 52.30016 47.70735
# Shear Modulus (GPa) = 25.39142 28.62892 27.01017
#
# Velocity S-wave (km/s) = 3.41616 3.62742 3.52337
# Velocity P-wave (km/s) = 5.94778 6.44840 6.20315
#
# Compressibility (1/GPa) = 0.02319403
#
# Stress axis : x y z
#
# Youngs Moduli (GPa) = 89.10524 92.59454 42.75459
#
# Poissons Ratio (x) = 0.28478 0.28729
# Poissons Ratio (y) = 0.27405 0.05617
# Poissons Ratio (z) = 0.59875 0.12164
#
# Static dielectric constant tensor:
#      x y z
#    x 3.664680 0.000000 -0.179250 
#    y 0.000000 4.346830 0.000000 
#    z -0.179250 0.000000 3.856450 
# 
# 
# High freq. dielectric constant tensor:
#      x y z
#    x 1.828890 0.000000 -0.012710 
#    y 0.000000 1.880590 0.000000 
#    z -0.012710 0.000000 1.850080 
# 
# From -- ./inp_files/73656.got.cif
#   From: 2010.06.25/outbox.cif.g09.slc.cpg/sg12_37_cif.got.tgz:73656.got - 2010.06.28 00:19:55.
