data_PCOD8107350
_publ_section_title
;
Structure prediction by ZEFSAII (Michael W. Deem and Ramdas Pophale) SiO2 
 PCOD8107350
Probable space group: C 2/M
;
_chemical_formula_sum "Si O2"
_cell_formula_units_Z 56
_cell_length_a 31.014017
_cell_length_b 8.907589
_cell_length_c 11.935639
_cell_angle_alpha 90.000000
_cell_angle_beta 120.038631
_cell_angle_gamma 90.000000
_cell_volume 2854.468845
_symmetry_space_group_name_H-M "C 2/M"
_symmetry_group_IT_number 12
_symmetry_cell_setting 'monoclinic'
loop_
_space_group_symop_operation_xyz
x,y,z
-x,y,-z
-x,-y,-z
x,-y,z
1/2+x,1/2+y,z
1/2-x,1/2+y,-z
1/2-x,1/2-y,-z
1/2+x,1/2-y,z
loop_
_atom_site_type_symbol
_atom_site_label
_atom_site_fract_x
_atom_site_fract_y
_atom_site_fract_z
Si Si1 0.671347 0.328413 0.412624
Si Si2 0.057189 0.822860 0.580099
Si Si3 0.511237 0.177502 0.891358
Si Si4 0.764341 0.671659 0.680960
Si Si5 0.922023 0.676568 0.620224
Si Si6 0.713549 0.824667 0.039965
Si Si7 0.898805 0.322344 0.141992
O O1 0.653156 0.500000 0.379850
O O2 0.708141 0.306569 0.565595
O O3 0.698937 0.283713 0.334691
O O4 0.625212 0.217116 0.365686
O O5 0.084293 0.761729 0.505144
O O6 0.082931 0.753842 0.721368
O O7 0.000000 0.771455 0.500000
O O8 0.063209 0.000000 0.592744
O O9 0.470721 0.235839 0.749158
O O10 0.565750 0.225391 0.916534
O O11 0.506665 0.000000 0.894831
O O12 0.500000 0.247852 0.000000
O O13 0.782247 0.500000 0.685549
O O14 0.765307 0.717036 0.811348
O O15 0.924436 0.500000 0.601191
O O16 0.714369 0.000000 0.018073
O O17 0.750000 0.750000 0.000000
O O18 0.656900 0.765165 0.955973
O O19 0.901390 0.500000 0.162464
#
# Coordination Sequence:
#
# PCOD8107350 Si02
#       7
#     8   8   8   8   8   8   8
#     4  10  21  37  59  88 120 151 190 241 292 348
#     4  11  23  39  59  83 118 154 191 240 295 351
#     4   9  19  35  59  89 118 150 192 240 289 346
#     4   9  20  40  61  83 114 153 196 242 294 346
#     4  11  22  36  61  89 117 152 193 240 289 350
#     4  10  23  40  61  87 118 156 201 250 295 351
#     4  10  21  39  62  88 116 152 201 249 293 347
#
# _framework density 19.618362000000001
#
# number of rings (size 3 to 8) (size 9 to 14) (size 15 to 20)
#    0.000    2.000    1.429    1.286    4.000    2.286 
#    0.000    0.000    0.000    2.143    0.000    0.000 
#    0.000    0.000    0.000    0.000    0.000    0.000 
#
# Total GULP energy -347275.460451 kJ/mol
# GULP energy per Si atom -12402.695016 kJ/mol
# Density = 1.957371 g / cm^3
# Si number density = 19.618362 Si / 1000 Ang^3
#
#
#
# Elastic Constant Matrix: (Units=GPa)
#
#
# Indices 1 2 3 4 5 6 
#
# 1 138.2174 34.5110 70.3079 0.0000 1.4197 0.0000
# 2 34.5110 35.7644 34.9254 0.0000 0.9433 0.0000
# 3 70.3079 34.9254 125.8330 0.0000 -14.4090 0.0000
# 4 0.0000 0.0000 0.0000 20.2383 0.0000 -0.1878
# 5 1.4197 0.9433 -14.4090 0.0000 32.5659 0.0000
# 6 0.0000 0.0000 0.0000 -0.1878 0.0000 34.4838
#
#
#
# Elastic Compliance Matrix: (Units=1/GPa)
#
#
# Indices 1 2 3 4 5 6 
#
# 1 0.011256 -0.006003 -0.004908 0.000000 -0.002488 0.000000
# 2 -0.006003 0.042758 -0.009086 0.000000 -0.004997 0.000000
# 3 -0.004908 -0.009086 0.013974 0.000000 0.006660 0.000000
# 4 0.000000 0.000000 0.000000 0.049414 0.000000 0.000269
# 5 -0.002488 -0.004997 0.006660 0.000000 0.033907 0.000000
# 6 0.000000 0.000000 0.000000 0.000269 0.000000 0.029001
#
#
# Mechanical properties :
#
#
# Convention : Reuss Voigt Hill
#
# Bulk Modulus (GPa) = 35.72176 64.36703 50.04439
# Shear Modulus (GPa) = 21.77389 28.12898 24.95143
#
# Velocity S-wave (km/s) = 3.33509 3.79067 3.57016
# Velocity P-wave (km/s) = 5.75137 7.21386 6.52373
#
# Compressibility (1/GPa) = 0.02799414
#
# Stress axis : x y z
#
# Youngs Moduli (GPa) = 88.84173 23.38768 71.56335
#
# Poissons Ratio (x) = 0.14040 0.35123
# Poissons Ratio (y) = 0.53332 0.65019
# Poissons Ratio (z) = 0.43603 0.21249
#
# Static dielectric constant tensor:
#      x y z
#    x 3.743650 0.000000 0.097770 
#    y 0.000000 3.378850 0.000000 
#    z 0.097770 0.000000 3.757230 
# 
# 
# High freq. dielectric constant tensor:
#      x y z
#    x 1.773610 0.000000 -0.001810 
#    y 0.000000 1.746900 0.000000 
#    z -0.001810 0.000000 1.771400 
# 
# From -- ./inp_files/181114.got.cif
#   From: 2010.06.25/outbox.cif.g09.slc.cpg/sg12_91_cif.got.tgz:181114.got - 2010.06.28 00:19:55.
