data_PCOD8107404
_publ_section_title
;
Structure prediction by ZEFSAII (Michael W. Deem and Ramdas Pophale) SiO2 
 PCOD8107404
Probable space group: C 2/M
;
_chemical_formula_sum "Si O2"
_cell_formula_units_Z 64
_cell_length_a 31.971946
_cell_length_b 22.628406
_cell_length_c 9.327703
_cell_angle_alpha 90.000000
_cell_angle_beta 29.214371
_cell_angle_gamma 90.000000
_cell_volume 3293.726249
_symmetry_space_group_name_H-M "C 2/M"
_symmetry_group_IT_number 12
_symmetry_cell_setting 'monoclinic'
loop_
_space_group_symop_operation_xyz
x,y,z
-x,y,-z
-x,-y,-z
x,-y,z
1/2+x,1/2+y,z
1/2-x,1/2+y,-z
1/2-x,1/2-y,-z
1/2+x,1/2-y,z
loop_
_atom_site_type_symbol
_atom_site_label
_atom_site_fract_x
_atom_site_fract_y
_atom_site_fract_z
Si Si1 0.158316 0.360631 0.250638
Si Si2 0.724563 0.340104 0.835408
Si Si3 0.157675 0.640438 0.785414
Si Si4 0.255118 0.933881 0.243285
Si Si5 0.569045 0.566688 0.691121
Si Si6 0.412097 0.569332 0.682407
Si Si7 0.998093 0.434424 0.173403
Si Si8 0.099666 0.730053 0.188454
O O1 0.223350 0.333704 0.172389
O O2 0.077217 0.389599 0.567461
O O3 0.126550 0.309115 0.242767
O O4 0.203249 0.412730 0.028821
O O5 0.793842 0.338254 0.501353
O O6 0.669186 0.400382 0.997634
O O7 0.657659 0.287676 0.016845
O O8 0.226342 0.609798 0.682480
O O9 0.114901 0.696260 0.992838
O O10 0.086329 0.591876 0.966627
O O11 0.154292 0.932679 0.527428
O O12 0.288062 0.000000 0.177702
O O13 0.536709 0.500000 0.757390
O O14 0.579110 0.596581 0.504804
O O15 0.500000 0.599789 0.000000
O O16 0.500000 0.583619 0.500000
O O17 0.390879 0.500000 0.744263
O O18 0.985262 0.500000 0.280635
O O19 0.000000 0.441555 0.000000
O O20 0.000000 0.747767 0.500000
#
# Coordination Sequence:
#
# PCOD8107404 Si02
#       8
#     8   8   8   8   8   8   8   8
#     4  11  22  41  65  90 125 164 211 265 316 382
#     4  12  24  41  66  93 124 164 218 261 323 381
#     4  11  24  41  63  93 128 163 211 267 317 380
#     4  10  21  37  59  91 126 165 206 249 314 388
#     4   9  18  34  55  79 119 164 198 242 299 363
#     4  10  22  38  59  90 126 162 202 256 318 379
#     4  11  22  38  64  99 135 169 203 257 328 389
#     4  11  24  45  67  87 121 166 214 269 322 374
#
# _framework density 19.430879999999998
#
# number of rings (size 3 to 8) (size 9 to 14) (size 15 to 20)
#    0.000    1.375    3.750    1.875    1.750    1.500 
#    0.000    1.875    0.000    0.750    0.000    0.000 
#    0.000    0.000    0.000    0.000    0.000    0.000 
#
# Total GULP energy -396821.819169 kJ/mol
# GULP energy per Si atom -12400.681849 kJ/mol
# Density = 1.938665 g / cm^3
# Si number density = 19.430880 Si / 1000 Ang^3
#
#
#
# Elastic Constant Matrix: (Units=GPa)
#
#
# Indices 1 2 3 4 5 6 
#
# 1 83.1549 27.0698 25.2245 0.0000 -10.0853 0.0000
# 2 27.0698 83.3557 33.8846 0.0000 -5.1830 0.0000
# 3 25.2245 33.8846 93.3463 0.0000 -6.9059 0.0000
# 4 0.0000 0.0000 0.0000 21.3997 0.0000 2.3786
# 5 -10.0853 -5.1830 -6.9059 0.0000 28.2939 0.0000
# 6 0.0000 0.0000 0.0000 2.3786 0.0000 19.8253
#
#
#
# Elastic Compliance Matrix: (Units=1/GPa)
#
#
# Indices 1 2 3 4 5 6 
#
# 1 0.014334 -0.003466 -0.002326 0.000000 0.003906 0.000000
# 2 -0.003466 0.014963 -0.004464 0.000000 0.000416 0.000000
# 3 -0.002326 -0.004464 0.013076 0.000000 0.001545 0.000000
# 4 0.000000 0.000000 0.000000 0.047361 0.000000 -0.005682
# 5 0.003906 0.000416 0.001545 0.000000 0.037189 0.000000
# 6 0.000000 0.000000 0.000000 -0.005682 0.000000 0.051122
#
#
# Mechanical properties :
#
#
# Convention : Reuss Voigt Hill
#
# Bulk Modulus (GPa) = 45.74628 48.02386 46.88507
# Shear Modulus (GPa) = 24.29015 25.48231 24.88623
#
# Velocity S-wave (km/s) = 3.53948 3.62530 3.58265
# Velocity P-wave (km/s) = 6.34808 6.50328 6.42615
#
# Compressibility (1/GPa) = 0.02185970
#
# Stress axis : x y z
#
# Youngs Moduli (GPa) = 69.76645 66.83135 76.47553
#
# Poissons Ratio (x) = 0.23166 0.17788
# Poissons Ratio (y) = 0.24184 0.34139
# Poissons Ratio (z) = 0.16227 0.29834
#
# Static dielectric constant tensor:
#      x y z
#    x 3.667640 0.000000 0.031810 
#    y 0.000000 3.551360 0.000000 
#    z 0.031810 0.000000 3.659510 
# 
# 
# High freq. dielectric constant tensor:
#      x y z
#    x 1.769250 0.000000 -0.003540 
#    y 0.000000 1.743170 0.000000 
#    z -0.003540 0.000000 1.768130 
# 
# From -- ./inp_files/113605.got.cif
#   From: 2010.06.25/outbox.cif.g09.slc.cpg/sg12_57_cif.got.tgz:113605.got - 2010.06.28 00:19:55.
