data_PCOD8107246
_publ_section_title
;
Structure prediction by ZEFSAII (Michael W. Deem and Ramdas Pophale) SiO2 
 PCOD8107246
Probable space group: C 2/M
;
_chemical_formula_sum "Si O2"
_cell_formula_units_Z 44
_cell_length_a 9.892903
_cell_length_b 28.674612
_cell_length_c 8.578570
_cell_angle_alpha 90.000000
_cell_angle_beta 122.866336
_cell_angle_gamma 90.000000
_cell_volume 2044.014042
_symmetry_space_group_name_H-M "C 2/M"
_symmetry_group_IT_number 12
_symmetry_cell_setting 'monoclinic'
loop_
_space_group_symop_operation_xyz
x,y,z
-x,y,-z
-x,-y,-z
x,-y,z
1/2+x,1/2+y,z
1/2-x,1/2+y,-z
1/2-x,1/2-y,-z
1/2+x,1/2-y,z
loop_
_atom_site_type_symbol
_atom_site_label
_atom_site_fract_x
_atom_site_fract_y
_atom_site_fract_z
Si Si1 0.140051 0.947391 0.465268
Si Si2 0.000000 0.747903 0.500000
Si Si3 0.188115 0.819656 0.787309
Si Si4 0.404471 0.636313 0.787452
Si Si5 0.903557 0.600376 0.792264
Si Si6 0.383829 0.824154 0.212472
O O1 0.139429 0.912072 0.321437
O O2 0.315726 0.942885 0.655813
O O3 0.000000 0.935464 0.500000
O O4 0.121027 0.000000 0.390321
O O5 0.841323 0.779216 0.360691
O O6 0.012271 0.714043 0.355421
O O7 0.262352 0.863878 0.748876
O O8 0.011888 0.831460 0.743269
O O9 0.307967 0.804558 0.002966
O O10 0.249268 0.666686 0.737763
O O11 0.500000 0.621006 0.000000
O O12 0.028121 0.626663 0.757938
O O13 0.000000 0.580454 0.000000
#
# Coordination Sequence:
#
# PCOD8107246 Si02
#       6
#     8   4   8   8   8   8
#     4  11  22  38  65  96 118 149 200 245 292 361
#     4  12  22  36  56  84 122 152 204 254 298 324
#     4  10  21  37  59  82 114 162 204 239 290 357
#     4  10  21  41  62  85 120 161 198 240 298 357
#     4  10  21  41  62  85 120 161 198 240 298 357
#     4  10  23  37  57  86 118 156 200 245 296 349
#
# _framework density 21.526271000000001
#
# number of rings (size 3 to 8) (size 9 to 14) (size 15 to 20)
#    0.000    1.636    1.818    2.727    0.000    3.636 
#    0.000    7.273    0.000    0.000    0.000    0.000 
#    0.000    0.000    0.000    0.000    0.000    0.000 
#
# Total GULP energy -272696.010845 kJ/mol
# GULP energy per Si atom -12395.273220 kJ/mol
# Density = 2.147728 g / cm^3
# Si number density = 21.526271 Si / 1000 Ang^3
#
#
#
# Elastic Constant Matrix: (Units=GPa)
#
#
# Indices 1 2 3 4 5 6 
#
# 1 96.3675 11.3262 14.1038 0.0000 7.7912 0.0000
# 2 11.3262 79.2670 56.6875 0.0000 1.0897 0.0000
# 3 14.1038 56.6875 131.8195 0.0000 13.5394 0.0000
# 4 0.0000 0.0000 0.0000 25.7701 0.0000 8.4853
# 5 7.7912 1.0897 13.5394 0.0000 22.8374 0.0000
# 6 0.0000 0.0000 0.0000 8.4853 0.0000 1.9344
#
#
#
# Elastic Compliance Matrix: (Units=1/GPa)
#
#
# Indices 1 2 3 4 5 6 
#
# 1 0.010851 -0.001342 -0.000224 0.000000 -0.003505 0.000000
# 2 -0.001342 0.018738 -0.008380 0.000000 0.004532 0.000000
# 3 -0.000224 -0.008380 0.011889 0.000000 -0.006572 0.000000
# 4 0.000000 0.000000 0.000000 -0.087336 0.000000 0.383095
# 5 -0.003505 0.004532 -0.006572 0.000000 0.048664 0.000000
# 6 0.000000 0.000000 0.000000 0.383095 0.000000 -1.163477
#
#
# Mechanical properties :
#
#
# Convention : Reuss Voigt Hill
#
# Bulk Modulus (GPa) = 46.32678 52.40988 49.36833
# Shear Modulus (GPa) = -4.41079 25.13083 10.36002
#
# Velocity S-wave (km/s) = -1.43299 3.42050 2.19617
# Velocity P-wave (km/s) = 4.33933 6.32452 5.42353
#
# Compressibility (1/GPa) = 0.02158579
#
# Stress axis : x y z
#
# Youngs Moduli (GPa) = 92.15886 53.36763 84.11265
#
# Poissons Ratio (x) = 0.07163 0.01882
# Poissons Ratio (y) = 0.12370 0.70486
# Poissons Ratio (z) = 0.02062 0.44722
#
# Static dielectric constant tensor:
#      x y z
#    x 3.835760 0.000000 0.078260 
#    y 0.000000 3.554840 0.000000 
#    z 0.078260 0.000000 4.198690 
# 
# 
# High freq. dielectric constant tensor:
#      x y z
#    x 1.831600 0.000000 0.007890 
#    y 0.000000 1.821960 0.000000 
#    z 0.007890 0.000000 1.867890 
# 
# From -- ./inp_files/42379.got.cif
#   From: 2010.06.25/outbox.cif.g09.slc.cpg/sg12_22_cif.got.tgz:42379.got - 2010.06.28 00:19:55.
