data_PCOD8107914
_publ_section_title
;
Structure prediction by ZEFSAII (Michael W. Deem and Ramdas Pophale) SiO2 
 PCOD8107914
Probable space group: C 2/M
;
_chemical_formula_sum "Si O2"
_cell_formula_units_Z 56
_cell_length_a 9.294496
_cell_length_b 26.598615
_cell_length_c 18.660402
_cell_angle_alpha 90.000000
_cell_angle_beta 143.006285
_cell_angle_gamma 90.000000
_cell_volume 2775.911791
_symmetry_space_group_name_H-M "C 2/M"
_symmetry_group_IT_number 12
_symmetry_cell_setting 'monoclinic'
loop_
_space_group_symop_operation_xyz
x,y,z
-x,y,-z
-x,-y,-z
x,-y,z
1/2+x,1/2+y,z
1/2-x,1/2+y,-z
1/2-x,1/2-y,-z
1/2+x,1/2-y,z
loop_
_atom_site_type_symbol
_atom_site_label
_atom_site_fract_x
_atom_site_fract_y
_atom_site_fract_z
Si Si1 0.219558 0.442053 0.041966
Si Si2 0.732366 0.403986 0.241397
Si Si3 0.578739 0.940247 0.824354
Si Si4 0.285921 0.806450 0.357169
Si Si5 0.516790 0.280575 0.381244
Si Si6 0.141274 0.443424 0.488891
Si Si7 0.426670 0.611029 0.393253
O O1 0.228954 0.500000 0.065946
O O2 0.473889 0.419926 0.168004
O O3 0.192759 0.432797 0.947323
O O4 0.000000 0.417295 0.000000
O O5 0.747976 0.409245 0.161140
O O6 0.782193 0.350479 0.297150
O O7 0.956278 0.440261 0.349607
O O8 0.324566 0.912738 0.727013
O O9 0.558706 0.000000 0.798184
O O10 0.500000 0.813682 0.500000
O O11 0.303522 0.758078 0.312035
O O12 0.046123 0.798140 0.309834
O O13 0.750000 0.250000 0.500000
O O14 0.442509 0.328779 0.398787
O O15 0.230945 0.500000 0.534644
O O16 0.373285 0.408906 0.581070
O O17 0.000000 0.422011 0.500000
O O18 0.500000 0.590575 0.500000
#
# Coordination Sequence:
#
# PCOD8107914 Si02
#       7
#     8   8   8   8   8   8   8
#     4  10  24  44  65  89 120 164 220 270 313 370
#     4  12  22  39  64  90 123 167 212 257 316 376
#     4  11  25  41  63  93 130 171 215 261 310 381
#     4  10  22  37  63  94 130 162 210 256 320 373
#     4  10  21  38  58  89 128 167 206 261 305 376
#     4  11  23  35  54  87 130 166 198 248 311 377
#     4  12  23  37  62  92 131 164 209 251 321 379
#
# _framework density 20.173551
#
# number of rings (size 3 to 8) (size 9 to 14) (size 15 to 20)
#    0.000    1.143    1.429    6.429    6.000    1.714 
#    0.000    0.000    0.000    0.857    0.000    0.000 
#    0.000    0.000    0.000    0.000    0.000    0.000 
#
# Total GULP energy -346974.034864 kJ/mol
# GULP energy per Si atom -12391.929817 kJ/mol
# Density = 2.012763 g / cm^3
# Si number density = 20.173551 Si / 1000 Ang^3
#
#
#
# Elastic Constant Matrix: (Units=GPa)
#
#
# Indices 1 2 3 4 5 6 
#
# 1 127.5018 51.4749 22.6697 0.0002 4.5358 0.0041
# 2 51.4749 114.4306 33.1375 0.0003 -0.5803 0.0004
# 3 22.6697 33.1375 48.8055 0.0088 16.9286 0.0394
# 4 0.0002 0.0003 0.0088 15.5043 0.0019 -3.8071
# 5 4.5358 -0.5803 16.9286 0.0019 37.1691 0.0090
# 6 0.0041 0.0004 0.0394 -3.8071 0.0090 17.4524
#
#
#
# Elastic Compliance Matrix: (Units=1/GPa)
#
#
# Indices 1 2 3 4 5 6 
#
# 1 0.009733 -0.003881 -0.001725 0.000002 -0.000462 0.000002
# 2 -0.003881 0.013006 -0.008625 0.000009 0.004605 0.000020
# 3 -0.001725 -0.008625 0.032209 -0.000034 -0.014594 -0.000072
# 4 0.000002 0.000009 -0.000034 0.068149 0.000008 0.014866
# 5 -0.000462 0.004605 -0.014594 0.000008 0.033679 0.000017
# 6 0.000002 0.000020 -0.000072 0.014866 0.000017 0.060542
#
#
# Mechanical properties :
#
#
# Convention : Reuss Voigt Hill
#
# Bulk Modulus (GPa) = 37.75729 56.14468 46.95098
# Shear Modulus (GPa) = 19.63793 26.25554 22.94673
#
# Velocity S-wave (km/s) = 3.12340 3.61152 3.37629
# Velocity P-wave (km/s) = 5.63599 6.72919 6.20671
#
# Compressibility (1/GPa) = 0.02648495
#
# Stress axis : x y z
#
# Youngs Moduli (GPa) = 102.74240 76.88867 31.04691
#
# Poissons Ratio (x) = 0.29840 0.05357
# Poissons Ratio (y) = 0.39874 0.26779
# Poissons Ratio (z) = 0.17728 0.66318
#
# Static dielectric constant tensor:
#      x y z
#    x 4.316870 0.000000 -0.087900 
#    y 0.000000 3.650380 -0.000010 
#    z -0.087900 -0.000010 3.536330 
# 
# 
# High freq. dielectric constant tensor:
#      x y z
#    x 1.817110 0.000000 -0.003160 
#    y 0.000000 1.784530 0.000000 
#    z -0.003160 0.000000 1.749090 
# 
# From -- ./inp_files/259882.got.cif
#   From: 2010.06.25/outbox.cif.g09.slc.cpg/sg12_130_cif.got.tgz:259882.got - 2010.06.28 00:19:55.
