data_PCOD8107121
_publ_section_title
;
Structure prediction by ZEFSAII (Michael W. Deem and Ramdas Pophale) SiO2 
 PCOD8107121
Probable space group: C 2/M
;
_chemical_formula_sum "Si O2"
_cell_formula_units_Z 56
_cell_length_a 17.764592
_cell_length_b 8.853196
_cell_length_c 28.684673
_cell_angle_alpha 90.000000
_cell_angle_beta 38.835581
_cell_angle_gamma 90.000000
_cell_volume 2829.003451
_symmetry_space_group_name_H-M "C 2/M"
_symmetry_group_IT_number 12
_symmetry_cell_setting 'monoclinic'
loop_
_space_group_symop_operation_xyz
x,y,z
-x,y,-z
-x,-y,-z
x,-y,z
1/2+x,1/2+y,z
1/2-x,1/2+y,-z
1/2-x,1/2-y,-z
1/2+x,1/2-y,z
loop_
_atom_site_type_symbol
_atom_site_label
_atom_site_fract_x
_atom_site_fract_y
_atom_site_fract_z
Si Si1 0.199897 0.178972 0.070791
Si Si2 0.984090 0.325835 0.644900
Si Si3 0.866710 0.320284 0.073845
Si Si4 0.070370 0.822129 0.780482
Si Si5 0.233305 0.321697 0.779909
Si Si6 0.842054 0.326246 0.353878
Si Si7 0.902912 0.327624 0.506828
O O1 0.277644 0.240319 0.076776
O O2 0.063555 0.233229 0.143161
O O3 0.209430 0.000000 0.062588
O O4 0.250000 0.250000 0.000000
O O5 0.942633 0.500000 0.663033
O O6 0.871672 0.222547 0.711361
O O7 0.085546 0.297215 0.634005
O O8 0.037604 0.273425 0.569873
O O9 0.866765 0.500000 0.073858
O O10 0.822623 0.258473 0.144994
O O11 0.000000 0.256785 0.000000
O O12 0.163750 0.747287 0.770176
O O13 0.100237 0.776160 0.713689
O O14 0.082619 0.000000 0.779319
O O15 0.221045 0.500000 0.783290
O O16 0.847352 0.500000 0.335566
O O17 0.705519 0.281826 0.428702
O O18 0.856508 0.500000 0.525076
O O19 0.000000 0.311314 0.500000
#
# Coordination Sequence:
#
# PCOD8107121 Si02
#       7
#     8   8   8   8   8   8   8
#     4  10  21  37  58  84 114 151 192 235 287 343
#     4  10  22  39  58  85 121 155 188 233 290 346
#     4   9  18  34  56  82 113 147 185 232 284 338
#     4  11  23  39  58  82 117 156 193 238 293 348
#     4  11  22  37  61  88 113 149 196 241 287 343
#     4  11  23  38  59  87 117 152 196 242 283 334
#     4  10  21  38  60  84 114 155 194 233 290 348
#
# _framework density 19.794955999999999
#
# number of rings (size 3 to 8) (size 9 to 14) (size 15 to 20)
#    0.000    1.714    0.000    4.286    0.000    6.571 
#    0.000    1.429    0.000    3.857    0.000    0.000 
#    0.000    0.000    0.000    0.000    0.000    0.000 
#
# Total GULP energy -347360.014632 kJ/mol
# GULP energy per Si atom -12405.714808 kJ/mol
# Density = 1.974990 g / cm^3
# Si number density = 19.794956 Si / 1000 Ang^3
#
#
#
# Elastic Constant Matrix: (Units=GPa)
#
#
# Indices 1 2 3 4 5 6 
#
# 1 91.6477 26.4394 42.2673 -0.0004 3.5220 -0.0032
# 2 26.4394 45.2652 32.0945 -0.0007 -3.9986 -0.0056
# 3 42.2673 32.0945 149.6550 0.0000 5.2710 -0.0005
# 4 -0.0004 -0.0007 0.0000 34.0070 0.0001 4.2764
# 5 3.5220 -3.9986 5.2710 0.0001 44.0652 -0.0004
# 6 -0.0032 -0.0056 -0.0005 4.2764 -0.0004 13.6263
#
#
#
# Elastic Compliance Matrix: (Units=1/GPa)
#
#
# Indices 1 2 3 4 5 6 
#
# 1 0.014004 -0.006528 -0.002506 0.000000 -0.001412 0.000000
# 2 -0.006528 0.029510 -0.004617 -0.000001 0.003752 0.000011
# 3 -0.002506 -0.004617 0.008423 0.000000 -0.001226 -0.000002
# 4 0.000000 -0.000001 0.000000 0.030614 0.000000 -0.009608
# 5 -0.001412 0.003752 -0.001226 0.000000 0.023294 0.000002
# 6 0.000000 0.000011 -0.000002 -0.009608 0.000002 0.076403
#
#
# Mechanical properties :
#
#
# Convention : Reuss Voigt Hill
#
# Bulk Modulus (GPa) = 40.59082 54.24113 47.41598
# Shear Modulus (GPa) = 22.96088 30.72414 26.84251
#
# Velocity S-wave (km/s) = 3.40948 3.94397 3.68642
# Velocity P-wave (km/s) = 6.00413 6.94268 6.49039
#
# Compressibility (1/GPa) = 0.02463611
#
# Stress axis : x y z
#
# Youngs Moduli (GPa) = 71.40576 33.88654 118.72210
#
# Poissons Ratio (x) = 0.22122 0.29746
# Poissons Ratio (y) = 0.46615 0.54815
# Poissons Ratio (z) = 0.17891 0.15646
#
# Static dielectric constant tensor:
#      x y z
#    x 3.798520 0.000000 0.006230 
#    y 0.000000 3.478890 0.000000 
#    z 0.006230 0.000000 3.898590 
# 
# 
# High freq. dielectric constant tensor:
#      x y z
#    x 1.791080 0.000000 0.002630 
#    y 0.000000 1.755990 0.000000 
#    z 0.002630 0.000000 1.789040 
# 
# From -- ./inp_files/362881.got.cif
#   From: 2010.06.25/outbox.cif.g09.slc.cpg/sg12_182_cif.got.tgz:362881.got - 2010.06.28 00:19:55.
