data_PCOD8107708
_publ_section_title
;
Structure prediction by ZEFSAII (Michael W. Deem and Ramdas Pophale) SiO2 
 PCOD8107708
Probable space group: C 2/M
;
_chemical_formula_sum "Si O2"
_cell_formula_units_Z 56
_cell_length_a 26.852906
_cell_length_b 17.479953
_cell_length_c 9.584533
_cell_angle_alpha 90.000000
_cell_angle_beta 144.515540
_cell_angle_gamma 90.000000
_cell_volume 2611.508004
_symmetry_space_group_name_H-M "C 2/M"
_symmetry_group_IT_number 12
_symmetry_cell_setting 'monoclinic'
loop_
_space_group_symop_operation_xyz
x,y,z
-x,y,-z
-x,-y,-z
x,-y,z
1/2+x,1/2+y,z
1/2-x,1/2+y,-z
1/2-x,1/2-y,-z
1/2+x,1/2-y,z
loop_
_atom_site_type_symbol
_atom_site_label
_atom_site_fract_x
_atom_site_fract_y
_atom_site_fract_z
Si Si1 0.233539 0.089331 0.441303
Si Si2 0.832814 0.698853 0.205913
Si Si3 0.079218 0.090854 0.272754
Si Si4 0.729939 0.588130 0.121123
Si Si5 0.580524 0.650369 0.587968
Si Si6 0.081900 0.585592 0.782832
Si Si7 0.577094 0.088720 0.087140
O O1 0.166914 0.124022 0.402461
O O2 0.196068 0.103905 0.200352
O O3 0.328784 0.126513 0.671831
O O4 0.242377 0.000000 0.493195
O O5 0.816453 0.638667 0.294689
O O6 0.911049 0.757483 0.409954
O O7 0.847495 0.648052 0.100345
O O8 0.750000 0.750000 0.000000
O O9 0.069368 0.116488 0.409191
O O10 0.080133 0.000000 0.270144
O O11 0.000000 0.122194 0.000000
O O12 0.755757 0.500000 0.161550
O O13 0.660938 0.611521 0.847889
O O14 0.500000 0.629991 0.500000
O O15 0.121374 0.500000 0.859842
O O16 0.000000 0.595847 0.500000
O O17 0.051324 0.601494 0.868864
O O18 0.582869 0.000000 0.143357
O O19 0.500000 0.127873 0.000000
#
# Coordination Sequence:
#
# PCOD8107708 Si02
#       7
#     8   8   8   8   8   8   8
#     4   9  19  35  58  88 125 156 192 258 317 367
#     4  10  23  39  59  85 125 165 207 253 307 370
#     4  10  21  38  64  96 126 159 207 264 319 372
#     4  10  21  38  65  94 120 158 211 260 312 369
#     4  11  23  40  63  88 129 169 206 255 313 380
#     4  10  21  37  64  91 117 156 212 267 313 367
#     4   9  19  34  55  89 125 155 195 254 323 374
#
# _framework density 21.443546999999999
#
# number of rings (size 3 to 8) (size 9 to 14) (size 15 to 20)
#    0.000    2.143    0.000    2.143    6.000    2.286 
#    0.000    0.714    6.286    0.000    0.000    0.000 
#    0.000    0.000    0.000    0.000    0.000    0.000 
#
# Total GULP energy -347044.273386 kJ/mol
# GULP energy per Si atom -12394.438335 kJ/mol
# Density = 2.139474 g / cm^3
# Si number density = 21.443547 Si / 1000 Ang^3
#
#
#
# Elastic Constant Matrix: (Units=GPa)
#
#
# Indices 1 2 3 4 5 6 
#
# 1 191.9198 43.5578 73.2045 0.0000 2.4375 0.0000
# 2 43.5578 68.9917 18.4856 0.0000 0.4977 0.0000
# 3 73.2045 18.4856 128.7763 0.0000 -11.2571 0.0000
# 4 0.0000 0.0000 0.0000 1.9815 0.0000 10.8866
# 5 2.4375 0.4977 -11.2571 0.0000 35.8165 0.0000
# 6 0.0000 0.0000 0.0000 10.8866 0.0000 25.3964
#
#
#
# Elastic Compliance Matrix: (Units=1/GPa)
#
#
# Indices 1 2 3 4 5 6 
#
# 1 0.007570 -0.003717 -0.003918 0.000000 -0.001695 0.000000
# 2 -0.003717 0.016929 -0.000324 0.000000 -0.000084 0.000000
# 3 -0.003918 -0.000324 0.010347 0.000000 0.003523 0.000000
# 4 0.000000 0.000000 0.000000 -0.372402 0.000000 0.159637
# 5 -0.001695 -0.000084 0.003523 0.000000 0.029144 0.000000
# 6 0.000000 0.000000 0.000000 0.159637 0.000000 -0.029056
#
#
# Mechanical properties :
#
#
# Convention : Reuss Voigt Hill
#
# Bulk Modulus (GPa) = 52.83433 73.35373 63.09403
# Shear Modulus (GPa) = -15.86096 29.60155 6.87029
#
# Velocity S-wave (km/s) = -2.72262 3.71946 1.79189
# Velocity P-wave (km/s) = 3.84821 7.26140 5.81105
#
# Compressibility (1/GPa) = 0.01892709
#
# Stress axis : x y z
#
# Youngs Moduli (GPa) = 132.09803 59.07038 96.64545
#
# Poissons Ratio (x) = 0.21959 0.37864
# Poissons Ratio (y) = 0.49106 0.03134
# Poissons Ratio (z) = 0.51754 0.01915
#
# Static dielectric constant tensor:
#      x y z
#    x 3.987260 0.000000 1.133270 
#    y 0.000000 3.948380 0.000000 
#    z 1.133270 0.000000 0.612950 
# 
# 
# High freq. dielectric constant tensor:
#      x y z
#    x 1.860790 0.000000 0.000570 
#    y 0.000000 1.812280 0.000000 
#    z 0.000570 0.000000 1.831860 
# 
# From -- ./inp_files/106014.got.cif
#   From: 2010.06.25/outbox.cif.g09.slc.cpg/sg12_54_cif.got.tgz:106014.got - 2010.06.28 00:19:55.
