data_PCOD8107471
_publ_section_title
;
Structure prediction by ZEFSAII (Michael W. Deem and Ramdas Pophale) SiO2 
 PCOD8107471
Probable space group: C 2/M
;
_chemical_formula_sum "Si O2"
_cell_formula_units_Z 56
_cell_length_a 23.695811
_cell_length_b 8.787024
_cell_length_c 15.374759
_cell_angle_alpha 90.000000
_cell_angle_beta 61.152749
_cell_angle_gamma 90.000000
_cell_volume 2804.017621
_symmetry_space_group_name_H-M "C 2/M"
_symmetry_group_IT_number 12
_symmetry_cell_setting 'monoclinic'
loop_
_space_group_symop_operation_xyz
x,y,z
-x,y,-z
-x,-y,-z
x,-y,z
1/2+x,1/2+y,z
1/2-x,1/2+y,-z
1/2-x,1/2-y,-z
1/2+x,1/2-y,z
loop_
_atom_site_type_symbol
_atom_site_label
_atom_site_fract_x
_atom_site_fract_y
_atom_site_fract_z
Si Si1 0.020636 0.680919 0.078716
Si Si2 0.215730 0.324876 0.155057
Si Si3 0.285915 0.679707 0.391802
Si Si4 0.575556 0.176947 0.700963
Si Si5 0.663323 0.823360 0.004497
Si Si6 0.814880 0.821683 0.651847
Si Si7 0.940618 0.323916 0.484439
O O1 0.020108 0.500000 0.080187
O O2 0.973924 0.740171 0.189922
O O3 0.092188 0.741677 0.042774
O O4 0.000000 0.744709 0.000000
O O5 0.214055 0.500000 0.184335
O O6 0.289494 0.270776 0.092910
O O7 0.176899 0.225670 0.254086
O O8 0.179323 0.295230 0.092644
O O9 0.281189 0.500000 0.401208
O O10 0.250000 0.750000 0.500000
O O11 0.359754 0.728313 0.335635
O O12 0.249564 0.737842 0.333088
O O13 0.543693 0.200543 0.629292
O O14 0.591848 0.000000 0.703863
O O15 0.669715 0.000000 0.974319
O O16 0.877569 0.773221 0.551760
O O17 0.805478 0.000000 0.648196
O O18 0.925819 0.500000 0.516055
O O19 0.000000 0.266789 0.500000
#
# Coordination Sequence:
#
# PCOD8107471 Si02
#       7
#     8   8   8   8   8   8   8
#     4   9  19  35  58  89 120 156 201 246 294 358
#     4  10  21  37  60  88 121 157 200 254 308 361
#     4  12  24  41  63  89 122 158 199 249 305 363
#     4  10  21  38  62  90 121 162 206 248 300 362
#     4   9  19  37  61  87 119 158 203 249 300 363
#     4  12  25  40  62  90 121 159 205 254 306 365
#     4  10  22  39  62  90 124 164 205 248 302 368
#
# _framework density 19.971343999999998
#
# number of rings (size 3 to 8) (size 9 to 14) (size 15 to 20)
#    0.000    1.714    1.429    3.000    4.000    0.857 
#    0.000    0.714    0.000    0.857    0.000    0.000 
#    0.000    0.000    0.000    0.000    0.000    0.000 
#
# Total GULP energy -347304.669261 kJ/mol
# GULP energy per Si atom -12403.738188 kJ/mol
# Density = 1.992589 g / cm^3
# Si number density = 19.971344 Si / 1000 Ang^3
#
#
#
# Elastic Constant Matrix: (Units=GPa)
#
#
# Indices 1 2 3 4 5 6 
#
# 1 137.1971 39.6834 54.3182 0.0000 -7.5251 0.0000
# 2 39.6834 90.8777 38.0098 0.0000 1.6036 0.0001
# 3 54.3182 38.0098 135.4877 0.0000 -1.2376 0.0000
# 4 0.0000 0.0000 0.0000 26.0549 0.0000 -4.7145
# 5 -7.5251 1.6036 -1.2376 0.0000 27.1776 0.0000
# 6 0.0000 0.0001 0.0000 -4.7145 0.0000 26.9515
#
#
#
# Elastic Compliance Matrix: (Units=1/GPa)
#
#
# Indices 1 2 3 4 5 6 
#
# 1 0.009449 -0.002944 -0.002938 0.000000 0.002656 0.000000
# 2 -0.002944 0.013406 -0.002596 0.000000 -0.001724 0.000000
# 3 -0.002938 -0.002596 0.009285 0.000000 -0.000238 0.000000
# 4 0.000000 0.000000 0.000000 0.039635 0.000000 0.006933
# 5 0.002656 -0.001724 -0.000238 0.000000 0.037621 0.000000
# 6 0.000000 0.000000 0.000000 0.006933 0.000000 0.038316
#
#
# Mechanical properties :
#
#
# Convention : Reuss Voigt Hill
#
# Bulk Modulus (GPa) = 65.86398 69.73170 67.79784
# Shear Modulus (GPa) = 29.45839 31.47352 30.46596
#
# Velocity S-wave (km/s) = 3.84478 3.97411 3.90998
# Velocity P-wave (km/s) = 7.26365 7.48664 7.37599
#
# Compressibility (1/GPa) = 0.01518280
#
# Stress axis : x y z
#
# Youngs Moduli (GPa) = 105.82798 74.59471 107.70260
#
# Poissons Ratio (x) = 0.21962 0.31644
# Poissons Ratio (y) = 0.31158 0.27962
# Poissons Ratio (z) = 0.31093 0.19367
#
# Static dielectric constant tensor:
#      x y z
#    x 3.831050 0.000000 0.095890 
#    y 0.000000 3.450850 0.000000 
#    z 0.095890 0.000000 3.659500 
# 
# 
# High freq. dielectric constant tensor:
#      x y z
#    x 1.785980 0.000000 0.005000 
#    y 0.000000 1.760460 0.000000 
#    z 0.005000 0.000000 1.789540 
# 
# From -- ./inp_files/238328.got.cif
#   From: 2010.06.25/outbox.cif.g09.slc.cpg/sg12_120_cif.got.tgz:238328.got - 2010.06.28 00:19:55.
