data_PCOD8107824
_publ_section_title
;
Structure prediction by ZEFSAII (Michael W. Deem and Ramdas Pophale) SiO2 
 PCOD8107824
Probable space group: C 2/M
;
_chemical_formula_sum "Si O2"
_cell_formula_units_Z 64
_cell_length_a 30.808032
_cell_length_b 9.098116
_cell_length_c 14.838983
_cell_angle_alpha 90.000000
_cell_angle_beta 130.303484
_cell_angle_gamma 90.000000
_cell_volume 3171.997811
_symmetry_space_group_name_H-M "C 2/M"
_symmetry_group_IT_number 12
_symmetry_cell_setting 'monoclinic'
loop_
_space_group_symop_operation_xyz
x,y,z
-x,y,-z
-x,-y,-z
x,-y,z
1/2+x,1/2+y,z
1/2-x,1/2+y,-z
1/2-x,1/2-y,-z
1/2+x,1/2-y,z
loop_
_atom_site_type_symbol
_atom_site_label
_atom_site_fract_x
_atom_site_fract_y
_atom_site_fract_z
Si Si1 0.459959 0.665822 0.867624
Si Si2 0.860433 0.331903 0.800086
Si Si3 0.249069 0.827121 0.401657
Si Si4 0.874839 0.335170 0.021149
Si Si5 0.169972 0.672433 0.651760
Si Si6 0.751961 0.827870 0.098350
Si Si7 0.538920 0.826654 0.470205
Si Si8 0.525145 0.334896 0.769940
O O1 0.439860 0.500000 0.863130
O O2 0.404505 0.769313 0.785599
O O3 0.494047 0.671946 0.822338
O O4 0.500000 0.727235 0.000000
O O5 0.844897 0.500000 0.755335
O O6 0.804054 0.234467 0.725003
O O7 0.890898 0.317695 0.937905
O O8 0.250000 0.750000 0.500000
O O9 0.304219 0.792071 0.413105
O O10 0.242717 0.000000 0.409209
O O11 0.887506 0.500000 0.072045
O O12 0.911265 0.228270 0.133513
O O13 0.808648 0.298365 0.938096
O O14 0.176125 0.500000 0.680894
O O15 0.200759 0.759475 0.772951
O O16 0.104341 0.724429 0.567049
O O17 0.764955 0.000000 0.103611
O O18 0.750000 0.750000 0.000000
O O19 0.500000 0.769115 0.500000
O O20 0.512953 0.760703 0.345968
O O21 0.535795 0.000000 0.457897
O O22 0.530636 0.500000 0.740315
#
# Coordination Sequence:
#
# PCOD8107824 Si02
#       8
#     8   8   8   8   8   8   8   8
#     4  10  21  38  57  86 127 166 200 246 307 365
#     4  11  22  38  61  89 122 163 210 256 310 371
#     4  11  24  41  63  91 126 167 212 259 313 379
#     4  10  22  40  62  90 126 165 206 254 313 375
#     4  10  23  44  67  94 127 167 213 260 316 379
#     4  11  24  42  66  96 128 163 204 258 318 376
#     4  10  24  46  68  89 122 167 211 262 319 375
#     4  11  24  40  63  93 126 165 211 260 311 368
#
# _framework density 20.176559999999998
#
# number of rings (size 3 to 8) (size 9 to 14) (size 15 to 20)
#    0.000    1.500    2.500    1.500    3.500    4.000 
#    0.000    0.000    0.000    0.000    0.000    0.000 
#    0.000    0.000    0.000    0.000    0.000    0.000 
#
# Total GULP energy -396849.128911 kJ/mol
# GULP energy per Si atom -12401.535278 kJ/mol
# Density = 2.013064 g / cm^3
# Si number density = 20.176560 Si / 1000 Ang^3
#
#
#
# Elastic Constant Matrix: (Units=GPa)
#
#
# Indices 1 2 3 4 5 6 
#
# 1 103.1441 46.3289 51.6147 0.0000 11.9635 0.0000
# 2 46.3289 58.5514 44.2290 0.0000 5.2256 0.0000
# 3 51.6147 44.2290 123.8708 0.0000 8.7822 0.0000
# 4 0.0000 0.0000 0.0000 54.9213 0.0000 0.3321
# 5 11.9635 5.2256 8.7822 0.0000 36.1453 0.0000
# 6 0.0000 0.0000 0.0000 0.3321 0.0000 29.1130
#
#
#
# Elastic Compliance Matrix: (Units=1/GPa)
#
#
# Indices 1 2 3 4 5 6 
#
# 1 0.016110 -0.010357 -0.002791 0.000000 -0.003157 0.000000
# 2 -0.010357 0.030113 -0.006482 0.000000 0.000650 0.000000
# 3 -0.002791 -0.006482 0.011619 0.000000 -0.000962 0.000000
# 4 0.000000 0.000000 0.000000 0.018209 0.000000 -0.000208
# 5 -0.003157 0.000650 -0.000962 0.000000 0.028851 0.000000
# 6 0.000000 0.000000 0.000000 -0.000208 0.000000 0.034351
#
#
# Mechanical properties :
#
#
# Convention : Reuss Voigt Hill
#
# Bulk Modulus (GPa) = 53.81945 63.32349 58.57147
# Shear Modulus (GPa) = 27.06988 33.59551 30.33270
#
# Velocity S-wave (km/s) = 3.66683 4.08496 3.88153
# Velocity P-wave (km/s) = 6.68279 7.32817 7.01291
#
# Compressibility (1/GPa) = 0.01858064
#
# Stress axis : x y z
#
# Youngs Moduli (GPa) = 62.07342 33.20833 86.06868
#
# Poissons Ratio (x) = 0.34394 0.24020
# Poissons Ratio (y) = 0.64290 0.55794
# Poissons Ratio (z) = 0.17324 0.21527
#
# Static dielectric constant tensor:
#      x y z
#    x 3.912780 0.000000 0.053310 
#    y 0.000000 3.861620 0.000000 
#    z 0.053310 0.000000 3.524820 
# 
# 
# High freq. dielectric constant tensor:
#      x y z
#    x 1.796360 0.000000 0.002920 
#    y 0.000000 1.790630 0.000000 
#    z 0.002920 0.000000 1.788970 
# 
# From -- ./inp_files/249960.got.cif
#   From: 2010.06.25/outbox.cif.g09.slc.cpg/sg12_125_cif.got.tgz:249960.got - 2010.06.28 00:19:55.
