data_PCOD8107470
_publ_section_title
;
Structure prediction by ZEFSAII (Michael W. Deem and Ramdas Pophale) SiO2 
 PCOD8107470
Probable space group: C 2/M
;
_chemical_formula_sum "Si O2"
_cell_formula_units_Z 56
_cell_length_a 28.090461
_cell_length_b 8.716517
_cell_length_c 20.858574
_cell_angle_alpha 90.000000
_cell_angle_beta 33.007952
_cell_angle_gamma 90.000000
_cell_volume 2782.197965
_symmetry_space_group_name_H-M "C 2/M"
_symmetry_group_IT_number 12
_symmetry_cell_setting 'monoclinic'
loop_
_space_group_symop_operation_xyz
x,y,z
-x,y,-z
-x,-y,-z
x,-y,z
1/2+x,1/2+y,z
1/2-x,1/2+y,-z
1/2-x,1/2-y,-z
1/2+x,1/2-y,z
loop_
_atom_site_type_symbol
_atom_site_label
_atom_site_fract_x
_atom_site_fract_y
_atom_site_fract_z
Si Si1 0.322142 0.819033 0.964387
Si Si2 0.595991 0.179771 0.884537
Si Si3 0.735779 0.818115 0.828583
Si Si4 0.865333 0.675830 0.429167
Si Si5 0.419602 0.818378 0.635733
Si Si6 0.812585 0.323754 0.348339
Si Si7 0.963882 0.179504 0.721529
O O1 0.415785 0.753809 0.837122
O O2 0.323182 0.000000 0.956015
O O3 0.250000 0.750000 0.000000
O O4 0.301268 0.769435 0.060372
O O5 0.666240 0.246793 0.855469
O O6 0.624002 0.217212 0.780986
O O7 0.589563 0.000000 0.905547
O O8 0.500000 0.255260 0.000000
O O9 0.828490 0.738779 0.708398
O O10 0.749085 0.000000 0.808037
O O11 0.888269 0.500000 0.418787
O O12 0.866641 0.709296 0.351812
O O13 0.770492 0.714028 0.564092
O O14 0.934044 0.784092 0.387183
O O15 0.500000 0.763832 0.500000
O O16 0.427003 0.746251 0.697429
O O17 0.418986 0.000000 0.643024
O O18 0.780508 0.500000 0.382836
O O19 0.946417 0.000000 0.740673
#
# Coordination Sequence:
#
# PCOD8107470 Si02
#       7
#     8   8   8   8   8   8   8
#     4  11  22  38  61  89 121 157 199 248 303 360
#     4   9  19  36  61  90 119 156 204 249 293 357
#     4  10  22  39  63  92 121 161 206 250 303 363
#     4  10  21  37  60  88 121 157 198 252 308 363
#     4  11  25  43  63  90 125 162 201 250 312 373
#     4   9  19  37  61  88 118 157 202 249 304 362
#     4  12  25  40  62  90 120 159 206 252 302 363
#
# _framework density 20.127972
#
# number of rings (size 3 to 8) (size 9 to 14) (size 15 to 20)
#    0.000    1.714    1.429    2.571    4.000    2.286 
#    0.000    0.000    0.000    0.857    0.000    0.000 
#    0.000    0.000    0.000    0.000    0.000    0.000 
#
# Total GULP energy -347304.979076 kJ/mol
# GULP energy per Si atom -12403.749253 kJ/mol
# Density = 2.008216 g / cm^3
# Si number density = 20.127972 Si / 1000 Ang^3
#
#
#
# Elastic Constant Matrix: (Units=GPa)
#
#
# Indices 1 2 3 4 5 6 
#
# 1 109.0290 27.1029 54.9363 -0.0045 -20.4191 0.0009
# 2 27.1029 60.6021 39.8947 -0.0123 -2.9320 0.0071
# 3 54.9363 39.8947 133.6885 -0.0081 -6.4663 0.0048
# 4 -0.0045 -0.0123 -0.0081 30.7115 0.0076 -5.1541
# 5 -20.4191 -2.9320 -6.4663 0.0076 27.3633 -0.0036
# 6 0.0009 0.0071 0.0048 -5.1541 -0.0036 26.2048
#
#
#
# Elastic Compliance Matrix: (Units=1/GPa)
#
#
# Indices 1 2 3 4 5 6 
#
# 1 0.013752 -0.002841 -0.004372 -0.000002 0.008925 0.000002
# 2 -0.002841 0.021138 -0.005193 0.000006 -0.001082 -0.000004
# 3 -0.004372 -0.005193 0.010765 0.000000 -0.001275 -0.000001
# 4 -0.000002 0.000006 0.000000 0.033673 -0.000009 0.006623
# 5 0.008925 -0.001082 -0.001275 -0.000009 0.042788 0.000004
# 6 0.000002 -0.000004 -0.000001 0.006623 0.000004 0.039464
#
#
# Mechanical properties :
#
#
# Convention : Reuss Voigt Hill
#
# Bulk Modulus (GPa) = 47.97573 60.79859 54.38716
# Shear Modulus (GPa) = 25.86157 28.94829 27.40493
#
# Velocity S-wave (km/s) = 3.58838 3.79649 3.69390
# Velocity P-wave (km/s) = 6.40747 7.03487 6.72849
#
# Compressibility (1/GPa) = 0.02084387
#
# Stress axis : x y z
#
# Youngs Moduli (GPa) = 72.71520 47.30910 92.89768
#
# Poissons Ratio (x) = 0.13439 0.40613
# Poissons Ratio (y) = 0.20656 0.48240
# Poissons Ratio (z) = 0.31790 0.24567
#
# Static dielectric constant tensor:
#      x y z
#    x 3.772210 -0.000010 0.012270 
#    y -0.000010 3.497310 0.000020 
#    z 0.012270 0.000020 3.884300 
# 
# 
# High freq. dielectric constant tensor:
#      x y z
#    x 1.792050 0.000000 -0.002310 
#    y 0.000000 1.770610 0.000000 
#    z -0.002310 0.000000 1.796900 
# 
# From -- ./inp_files/329565.got.cif
#   From: 2010.06.25/outbox.cif.g09.slc.cpg/sg12_165_cif.got.tgz:329565.got - 2010.06.28 00:19:55.
