data_PCOD8107472
_publ_section_title
;
Structure prediction by ZEFSAII (Michael W. Deem and Ramdas Pophale) SiO2 
 PCOD8107472
Probable space group: C 2/M
;
_chemical_formula_sum "Si O2"
_cell_formula_units_Z 48
_cell_length_a 28.551248
_cell_length_b 8.745747
_cell_length_c 11.244052
_cell_angle_alpha 90.000000
_cell_angle_beta 124.642557
_cell_angle_gamma 90.000000
_cell_volume 2309.904020
_symmetry_space_group_name_H-M "C 2/M"
_symmetry_group_IT_number 12
_symmetry_cell_setting 'monoclinic'
loop_
_space_group_symop_operation_xyz
x,y,z
-x,y,-z
-x,-y,-z
x,-y,z
1/2+x,1/2+y,z
1/2-x,1/2+y,-z
1/2-x,1/2-y,-z
1/2+x,1/2-y,z
loop_
_atom_site_type_symbol
_atom_site_label
_atom_site_fract_x
_atom_site_fract_y
_atom_site_fract_z
Si Si1 0.404283 0.324889 0.572225
Si Si2 0.190532 0.825602 0.936972
Si Si3 0.028013 0.176481 0.794257
Si Si4 0.631826 0.327654 0.098069
Si Si5 0.187687 0.678321 0.401745
Si Si6 0.413417 0.821292 0.335628
O O1 0.384687 0.500000 0.541213
O O2 0.461730 0.305579 0.735916
O O3 0.351497 0.228263 0.544517
O O4 0.422945 0.271646 0.469451
O O5 0.147953 0.720402 0.802813
O O6 0.188824 0.000000 0.887554
O O7 0.250000 0.750000 0.000000
O O8 0.176941 0.820504 0.056742
O O9 0.038910 0.275259 0.691615
O O10 0.043566 0.000000 0.786615
O O11 0.069580 0.229067 0.961965
O O12 0.627503 0.500000 0.143092
O O13 0.654584 0.218975 0.233677
O O14 0.196906 0.500000 0.422217
O O15 0.250000 0.750000 0.500000
O O16 0.417939 0.000000 0.369152
#
# Coordination Sequence:
#
# PCOD8107472 Si02
#       6
#     8   8   8   8   8   8
#     4  11  23  41  65  91 123 166 210 253 305 366
#     4  10  21  37  60  88 121 161 206 253 305 365
#     4   9  20  40  66  94 125 162 204 251 307 368
#     4   9  20  41  64  88 121 159 202 252 303 361
#     4  12  27  45  64  88 121 162 208 256 308 367
#     4  11  22  36  58  92 131 164 201 252 308 365
#
# _framework density 20.780086000000001
#
# number of rings (size 3 to 8) (size 9 to 14) (size 15 to 20)
#    0.000    1.667    0.000    5.500    2.333    7.333 
#    0.000    3.333    0.000    0.000    0.000    0.000 
#    0.000    0.000    0.000    0.000    0.000    0.000 
#
# Total GULP energy -297624.389387 kJ/mol
# GULP energy per Si atom -12401.016224 kJ/mol
# Density = 2.073279 g / cm^3
# Si number density = 20.780086 Si / 1000 Ang^3
#
#
#
# Elastic Constant Matrix: (Units=GPa)
#
#
# Indices 1 2 3 4 5 6 
#
# 1 92.4175 46.5045 46.1932 0.0000 31.8176 0.0000
# 2 46.5045 119.5586 35.1352 0.0000 0.3100 0.0000
# 3 46.1932 35.1352 93.5582 0.0000 0.5661 0.0000
# 4 0.0000 0.0000 0.0000 34.1095 0.0000 -3.4151
# 5 31.8176 0.3100 0.5661 0.0000 23.6679 0.0000
# 6 0.0000 0.0000 0.0000 -3.4151 0.0000 34.5389
#
#
#
# Elastic Compliance Matrix: (Units=1/GPa)
#
#
# Indices 1 2 3 4 5 6 
#
# 1 0.050872 -0.013883 -0.019494 0.000000 -0.067740 0.000000
# 2 -0.013883 0.013191 0.001789 0.000000 0.018448 0.000000
# 3 -0.019494 0.001789 0.019486 0.000000 0.025716 0.000000
# 4 0.000000 0.000000 0.000000 0.029611 0.000000 0.002928
# 5 -0.067740 0.018448 0.025716 0.000000 0.132460 0.000000
# 6 0.000000 0.000000 0.000000 0.002928 0.000000 0.029242
#
#
# Mechanical properties :
#
#
# Convention : Reuss Voigt Hill
#
# Bulk Modulus (GPa) = 49.08438 62.35557 55.71998
# Shear Modulus (GPa) = 14.50005 30.31001 22.40503
#
# Velocity S-wave (km/s) = 2.64443 3.82332 3.28715
# Velocity P-wave (km/s) = 5.74423 7.04009 6.42491
#
# Compressibility (1/GPa) = 0.02037308
#
# Stress axis : x y z
#
# Youngs Moduli (GPa) = 19.65732 75.81208 51.31980
#
# Poissons Ratio (x) = 1.05251 1.00041
# Poissons Ratio (y) = 0.27291 -0.09183
# Poissons Ratio (z) = 0.38319 -0.13566
#
# Static dielectric constant tensor:
#      x y z
#    x 3.749080 0.000000 0.180520 
#    y 0.000000 3.748340 0.000000 
#    z 0.180520 0.000000 3.838070 
# 
# 
# High freq. dielectric constant tensor:
#      x y z
#    x 1.815770 0.000000 0.015100 
#    y 0.000000 1.812930 0.000000 
#    z 0.015100 0.000000 1.818700 
# 
# From -- ./inp_files/180267.got.cif
#   From: 2010.06.25/outbox.cif.g09.slc.cpg/sg12_91_cif.got.tgz:180267.got - 2010.06.28 00:19:55.
