data_PCOD8107209
_publ_section_title
;
Structure prediction by ZEFSAII (Michael W. Deem and Ramdas Pophale) SiO2 
 PCOD8107209
Probable space group: C 2/M
;
_chemical_formula_sum "Si O2"
_cell_formula_units_Z 64
_cell_length_a 30.097949
_cell_length_b 8.998885
_cell_length_c 15.568367
_cell_angle_alpha 90.000000
_cell_angle_beta 130.606043
_cell_angle_gamma 90.000000
_cell_volume 3201.300106
_symmetry_space_group_name_H-M "C 2/M"
_symmetry_group_IT_number 12
_symmetry_cell_setting 'monoclinic'
loop_
_space_group_symop_operation_xyz
x,y,z
-x,y,-z
-x,-y,-z
x,-y,z
1/2+x,1/2+y,z
1/2-x,1/2+y,-z
1/2-x,1/2-y,-z
1/2+x,1/2-y,z
loop_
_atom_site_type_symbol
_atom_site_label
_atom_site_fract_x
_atom_site_fract_y
_atom_site_fract_z
Si Si1 0.240863 0.326726 0.579084
Si Si2 0.702908 0.675937 0.003449
Si Si3 0.498713 0.164516 0.774643
Si Si4 0.110012 0.330113 0.468054
Si Si5 0.398026 0.168164 0.215585
Si Si6 0.047045 0.824988 0.992428
Si Si7 0.432789 0.326828 0.422165
Si Si8 0.821010 0.823509 0.835376
O O1 0.252777 0.500000 0.581826
O O2 0.250000 0.250000 0.500000
O O3 0.175358 0.292331 0.524415
O O4 0.283656 0.261944 0.707562
O O5 0.707208 0.500000 0.998182
O O6 0.639308 0.732096 0.896139
O O7 0.750000 0.750000 0.000000
O O8 0.709736 0.723059 0.112658
O O9 0.431106 0.195216 0.666797
O O10 0.535063 0.173055 0.731831
O O11 0.522899 0.288199 0.868395
O O12 0.506036 0.000000 0.825031
O O13 0.103724 0.500000 0.493598
O O14 0.091727 0.212515 0.516110
O O15 0.394374 0.235500 0.305783
O O16 0.373277 0.000000 0.186848
O O17 0.050175 0.000000 0.006953
O O18 0.112563 0.758883 0.088082
O O19 0.000000 0.756318 0.000000
O O20 0.500000 0.278767 0.500000
O O21 0.424604 0.500000 0.393288
O O22 0.823300 0.000000 0.835216
#
# Coordination Sequence:
#
# PCOD8107209 Si02
#       8
#     8   8   8   8   8   8   8   8
#     4  10  23  43  65  88 118 160 205 253 306 361
#     4  11  23  40  62  90 123 162 207 254 304 366
#     4  10  21  37  58  87 120 154 197 247 301 361
#     4  10  22  40  61  86 120 162 205 247 301 370
#     4  11  22  38  60  85 120 163 201 246 307 364
#     4  10  21  37  61  89 115 151 195 244 304 364
#     4  11  23  37  57  89 124 158 198 248 303 360
#     4   9  20  40  61  86 122 157 196 247 304 359
#
# _framework density 19.991878
#
# number of rings (size 3 to 8) (size 9 to 14) (size 15 to 20)
#    0.000    1.750    2.500    1.125    3.500    2.250 
#    0.000    1.875    0.000    0.000    0.000    0.000 
#    0.000    0.000    0.000    0.000    0.000    0.000 
#
# Total GULP energy -396796.955408 kJ/mol
# GULP energy per Si atom -12399.904856 kJ/mol
# Density = 1.994638 g / cm^3
# Si number density = 19.991878 Si / 1000 Ang^3
#
#
#
# Elastic Constant Matrix: (Units=GPa)
#
#
# Indices 1 2 3 4 5 6 
#
# 1 129.4254 39.9294 70.4950 0.0000 -0.7655 0.0000
# 2 39.9294 52.4439 37.1038 0.0000 -4.5783 0.0000
# 3 70.4950 37.1038 151.0877 0.0000 -0.6223 0.0000
# 4 0.0000 0.0000 0.0000 32.7226 0.0000 -4.3824
# 5 -0.7655 -4.5783 -0.6223 0.0000 34.3585 0.0000
# 6 0.0000 0.0000 0.0000 -4.3824 0.0000 28.4287
#
#
#
# Elastic Compliance Matrix: (Units=1/GPa)
#
#
# Indices 1 2 3 4 5 6 
#
# 1 0.011816 -0.006233 -0.003985 0.000000 -0.000639 0.000000
# 2 -0.006233 0.026673 -0.003628 0.000000 0.003350 0.000000
# 3 -0.003985 -0.003628 0.009368 0.000000 -0.000403 0.000000
# 4 0.000000 0.000000 0.000000 0.031204 0.000000 0.004810
# 5 -0.000639 0.003350 -0.000403 0.000000 0.029530 0.000000
# 6 0.000000 0.000000 0.000000 0.004810 0.000000 0.035917
#
#
# Mechanical properties :
#
#
# Convention : Reuss Voigt Hill
#
# Bulk Modulus (GPa) = 49.59375 69.77925 59.68650
# Shear Modulus (GPa) = 27.94514 31.46389 29.70452
#
# Velocity S-wave (km/s) = 3.74281 3.97146 3.85883
# Velocity P-wave (km/s) = 6.59840 7.48395 7.05509
#
# Compressibility (1/GPa) = 0.02016383
#
# Stress axis : x y z
#
# Youngs Moduli (GPa) = 84.62904 37.49111 106.75202
#
# Poissons Ratio (x) = 0.23368 0.42543
# Poissons Ratio (y) = 0.52748 0.38733
# Poissons Ratio (z) = 0.33727 0.13603
#
# Static dielectric constant tensor:
#      x y z
#    x 2.634780 0.000000 -0.490080 
#    y 0.000000 3.461570 0.000000 
#    z -0.490080 0.000000 3.397590 
# 
# 
# High freq. dielectric constant tensor:
#      x y z
#    x 1.783600 0.000000 0.004090 
#    y 0.000000 1.762450 0.000000 
#    z 0.004090 0.000000 1.787290 
# 
# From -- ./inp_files/249987.got.cif
#   From: 2010.06.25/outbox.cif.g09.slc.cpg/sg12_125_cif.got.tgz:249987.got - 2010.06.28 00:19:55.
