data_PCOD8107647
_publ_section_title
;
Structure prediction by ZEFSAII (Michael W. Deem and Ramdas Pophale) SiO2 
 PCOD8107647
Probable space group: C 2/M
;
_chemical_formula_sum "Si O2"
_cell_formula_units_Z 56
_cell_length_a 14.835024
_cell_length_b 17.738456
_cell_length_c 12.989570
_cell_angle_alpha 90.000000
_cell_angle_beta 123.250986
_cell_angle_gamma 90.000000
_cell_volume 2858.570123
_symmetry_space_group_name_H-M "C 2/M"
_symmetry_group_IT_number 12
_symmetry_cell_setting 'monoclinic'
loop_
_space_group_symop_operation_xyz
x,y,z
-x,y,-z
-x,-y,-z
x,-y,z
1/2+x,1/2+y,z
1/2-x,1/2+y,-z
1/2-x,1/2-y,-z
1/2+x,1/2-y,z
loop_
_atom_site_type_symbol
_atom_site_label
_atom_site_fract_x
_atom_site_fract_y
_atom_site_fract_z
Si Si1 0.721178 0.584657 0.680252
Si Si2 0.412210 0.827424 0.861931
Si Si3 0.880331 0.084512 0.950469
Si Si4 0.013377 0.758143 0.733822
Si Si5 0.583349 0.417371 0.796411
Si Si6 0.265896 0.787654 0.212393
Si Si7 0.163276 0.232523 0.531506
O O1 0.705561 0.500000 0.626839
O O2 0.848678 0.600793 0.775585
O O3 0.668223 0.594430 0.758685
O O4 0.666975 0.644265 0.567916
O O5 0.462257 0.783491 0.797766
O O6 0.326571 0.773928 0.865682
O O7 0.500000 0.854122 0.000000
O O8 0.784868 0.130636 0.837220
O O9 0.874460 0.000000 0.901612
O O10 0.855433 0.085706 0.056289
O O11 0.000000 0.117861 0.000000
O O12 0.999682 0.848293 0.743026
O O13 0.136395 0.730392 0.804046
O O14 0.952501 0.744081 0.587348
O O15 0.526045 0.500000 0.749201
O O16 0.310733 0.785610 0.356140
O O17 0.250000 0.250000 0.500000
#
# Coordination Sequence:
#
# PCOD8107647 Si02
#       7
#     8   8   8   8   8   8   8
#     4  10  22  42  62  90 126 159 203 257 311 370
#     4  11  23  38  61  94 121 161 205 251 308 372
#     4  10  22  40  61  91 129 165 206 259 313 369
#     4  12  22  38  65  90 123 163 203 254 314 365
#     4  10  21  37  62  93 125 156 197 256 318 365
#     4  11  22  38  61  89 122 159 208 255 303 367
#     4  11  22  42  62  89 122 161 208 259 304 366
#
# _framework density 19.590212999999999
#
# number of rings (size 3 to 8) (size 9 to 14) (size 15 to 20)
#    0.000    1.286    5.714    2.571    2.000    2.000 
#    0.000    2.857    0.000    0.857    0.000    0.000 
#    0.000    0.000    0.000    0.000    0.000    0.000 
#
# Total GULP energy -347093.434545 kJ/mol
# GULP energy per Si atom -12396.194091 kJ/mol
# Density = 1.954563 g / cm^3
# Si number density = 19.590213 Si / 1000 Ang^3
#
#
#
# Elastic Constant Matrix: (Units=GPa)
#
#
# Indices 1 2 3 4 5 6 
#
# 1 90.6661 37.0740 19.7354 0.0000 -5.4194 0.0000
# 2 37.0740 98.2315 31.6672 0.0000 -9.2516 0.0000
# 3 19.7354 31.6672 84.7844 0.0000 3.4556 0.0000
# 4 0.0000 0.0000 0.0000 27.8624 0.0000 -1.4865
# 5 -5.4194 -9.2516 3.4556 0.0000 33.1760 0.0000
# 6 0.0000 0.0000 0.0000 -1.4865 0.0000 25.4373
#
#
#
# Elastic Compliance Matrix: (Units=1/GPa)
#
#
# Indices 1 2 3 4 5 6 
#
# 1 0.013219 -0.004412 -0.001473 0.000000 0.001082 0.000000
# 2 -0.004412 0.013515 -0.004163 0.000000 0.003482 0.000000
# 3 -0.001473 -0.004163 0.013808 0.000000 -0.002840 0.000000
# 4 0.000000 0.000000 0.000000 0.036003 0.000000 0.002104
# 5 0.001082 0.003482 -0.002840 0.000000 0.031586 0.000000
# 6 0.000000 0.000000 0.000000 0.002104 0.000000 0.039435
#
#
# Mechanical properties :
#
#
# Convention : Reuss Voigt Hill
#
# Bulk Modulus (GPa) = 48.90951 50.07057 49.49004
# Shear Modulus (GPa) = 28.65691 29.64216 29.14954
#
# Velocity S-wave (km/s) = 3.82883 3.89409 3.86160
# Velocity P-wave (km/s) = 6.67586 6.77001 6.72310
#
# Compressibility (1/GPa) = 0.02044592
#
# Stress axis : x y z
#
# Youngs Moduli (GPa) = 75.64856 73.99097 72.42134
#
# Poissons Ratio (x) = 0.32646 0.10669
# Poissons Ratio (y) = 0.33378 0.30148
# Poissons Ratio (z) = 0.11144 0.30801
#
# Static dielectric constant tensor:
#      x y z
#    x 3.779290 0.000000 0.104940 
#    y 0.000000 3.749370 0.000000 
#    z 0.104940 0.000000 3.832700 
# 
# 
# High freq. dielectric constant tensor:
#      x y z
#    x 1.766270 0.000000 -0.010630 
#    y 0.000000 1.753490 0.000000 
#    z -0.010630 0.000000 1.761160 
# 
# From -- ./inp_files/146242.got.cif
#   From: 2010.06.25/outbox.cif.g09.slc.cpg/sg12_74_cif.got.tgz:146242.got - 2010.06.28 00:19:55.
