data_PCOD8107924
_publ_section_title
;
Structure prediction by ZEFSAII (Michael W. Deem and Ramdas Pophale) SiO2 
 PCOD8107924
Probable space group: C 2/M
;
_chemical_formula_sum "Si O2"
_cell_formula_units_Z 52
_cell_length_a 15.001265
_cell_length_b 15.731290
_cell_length_c 21.057473
_cell_angle_alpha 90.000000
_cell_angle_beta 32.590807
_cell_angle_gamma 90.000000
_cell_volume 2676.661998
_symmetry_space_group_name_H-M "C 2/M"
_symmetry_group_IT_number 12
_symmetry_cell_setting 'monoclinic'
loop_
_space_group_symop_operation_xyz
x,y,z
-x,y,-z
-x,-y,-z
x,-y,z
1/2+x,1/2+y,z
1/2-x,1/2+y,-z
1/2-x,1/2-y,-z
1/2+x,1/2-y,z
loop_
_atom_site_type_symbol
_atom_site_label
_atom_site_fract_x
_atom_site_fract_y
_atom_site_fract_z
Si Si1 0.096446 0.656137 0.211431
Si Si2 0.756509 0.500000 0.274756
Si Si3 0.888083 0.836462 0.124928
Si Si4 0.653463 0.597035 0.042827
Si Si5 0.438844 0.500000 0.373397
Si Si6 0.650759 0.000000 0.642917
Si Si7 0.380413 0.853190 0.125864
Si Si8 0.572864 0.655195 0.225981
O O1 0.197584 0.648794 0.218146
O O2 0.003506 0.748059 0.261628
O O3 0.960263 0.583760 0.291549
O O4 0.224768 0.650654 0.075687
O O5 0.586988 0.500000 0.336433
O O6 0.730809 0.500000 0.365895
O O7 0.870501 0.418178 0.190299
O O8 0.935980 0.739741 0.115584
O O9 0.956979 0.891715 0.142671
O O10 0.000000 0.867768 0.000000
O O11 0.708044 0.500000 0.004401
O O12 0.672699 0.628020 0.103203
O O13 0.264842 0.500000 0.512952
O O14 0.440348 0.583311 0.326575
O O15 0.199409 0.841392 0.207175
O O16 0.500000 0.890887 0.000000
#
# Coordination Sequence:
#
# PCOD8107924 Si02
#       8
#     8   4   8   8   4   4   8   8
#     4  10  22  36  55  89 116 142 181 229 285 320
#     4  10  22  34  56  79 107 146 183 234 281 319
#     4   8  18  33  51  78 118 152 172 209 276 342
#     4  11  20  32  59  87 117 146 177 220 277 350
#     4  10  23  46  57  75 107 149 203 226 285 318
#     4  12  25  36  60  82 109 146 193 247 259 327
#     4   9  18  32  52  81 116 146 172 221 282 339
#     4  10  21  38  59  80 113 150 183 228 273 346
#
# _framework density 19.427181999999998
#
# number of rings (size 3 to 8) (size 9 to 14) (size 15 to 20)
#    0.000    2.154    1.538    1.846    5.385    1.538 
#    0.000    0.000    0.000    1.846    0.000    0.000 
#    0.000    0.000    0.000    0.000    0.000    0.000 
#
# Total GULP energy -322180.874231 kJ/mol
# GULP energy per Si atom -12391.572086 kJ/mol
# Density = 1.938297 g / cm^3
# Si number density = 19.427182 Si / 1000 Ang^3
#
#
#
# Elastic Constant Matrix: (Units=GPa)
#
#
# Indices 1 2 3 4 5 6 
#
# 1 41.2607 37.1371 17.7097 -0.0007 3.5684 0.0001
# 2 37.1371 142.4949 42.0807 -0.0014 6.7462 0.0004
# 3 17.7097 42.0807 85.2308 -0.0039 10.4494 0.0016
# 4 -0.0007 -0.0014 -0.0039 10.1930 0.0017 0.3180
# 5 3.5684 6.7462 10.4494 0.0017 18.6615 -0.0006
# 6 0.0001 0.0004 0.0016 0.3180 -0.0006 13.9259
#
#
#
# Elastic Compliance Matrix: (Units=1/GPa)
#
#
# Indices 1 2 3 4 5 6 
#
# 1 0.032366 -0.007525 -0.002775 0.000001 -0.001915 0.000000
# 2 -0.007525 0.009975 -0.003324 0.000000 -0.000306 0.000000
# 3 -0.002775 -0.003324 0.014751 0.000006 -0.006527 -0.000002
# 4 0.000001 0.000000 0.000006 0.098176 -0.000013 -0.002242
# 5 -0.001915 -0.000306 -0.006527 -0.000013 0.057718 0.000003
# 6 0.000000 0.000000 -0.000002 -0.002242 0.000003 0.071860
#
#
# Mechanical properties :
#
#
# Convention : Reuss Voigt Hill
#
# Bulk Modulus (GPa) = 33.50784 51.42681 42.46733
# Shear Modulus (GPa) = 15.52596 20.02668 17.77632
#
# Velocity S-wave (km/s) = 2.83006 3.21418 3.02822
# Velocity P-wave (km/s) = 5.28813 6.34852 5.84243
#
# Compressibility (1/GPa) = 0.02984376
#
# Stress axis : x y z
#
# Youngs Moduli (GPa) = 30.89680 100.25035 67.79286
#
# Poissons Ratio (x) = 0.75439 0.18813
# Poissons Ratio (y) = 0.23250 0.22533
# Poissons Ratio (z) = 0.08574 0.33322
#
# Static dielectric constant tensor:
#      x y z
#    x 3.684570 0.000000 0.014750 
#    y 0.000000 3.980800 0.000000 
#    z 0.014750 0.000000 3.126320 
# 
# 
# High freq. dielectric constant tensor:
#      x y z
#    x 1.753920 0.000000 0.000000 
#    y 0.000000 1.774060 0.000000 
#    z 0.000000 0.000000 1.700270 
# 
# From -- ./inp_files/311499.got.cif
#   From: 2010.06.25/outbox.cif.g09.slc.cpg/sg12_156_cif.got.tgz:311499.got - 2010.06.28 00:19:55.
