data_PCOD8107272
_publ_section_title
;
Structure prediction by ZEFSAII (Michael W. Deem and Ramdas Pophale) SiO2 
 PCOD8107272
Probable space group: C 2/M
;
_chemical_formula_sum "Si O2"
_cell_formula_units_Z 48
_cell_length_a 20.496600
_cell_length_b 8.796397
_cell_length_c 22.322949
_cell_angle_alpha 90.000000
_cell_angle_beta 143.319577
_cell_angle_gamma 90.000000
_cell_volume 2404.185232
_symmetry_space_group_name_H-M "C 2/M"
_symmetry_group_IT_number 12
_symmetry_cell_setting 'monoclinic'
loop_
_space_group_symop_operation_xyz
x,y,z
-x,y,-z
-x,-y,-z
x,-y,z
1/2+x,1/2+y,z
1/2-x,1/2+y,-z
1/2-x,1/2-y,-z
1/2+x,1/2-y,z
loop_
_atom_site_type_symbol
_atom_site_label
_atom_site_fract_x
_atom_site_fract_y
_atom_site_fract_z
Si Si1 0.336932 0.178434 0.108215
Si Si2 0.487111 0.819421 0.556941
Si Si3 0.737399 0.179663 0.555092
Si Si4 0.585649 0.821727 0.114036
Si Si5 0.298135 0.177971 0.216634
Si Si6 0.448813 0.320429 0.784123
O O1 0.297621 0.216259 0.146163
O O2 0.455433 0.248283 0.184697
O O3 0.343666 0.000000 0.101819
O O4 0.250000 0.250000 0.000000
O O5 0.500000 0.751763 0.500000
O O6 0.374580 0.754339 0.500333
O O7 0.586992 0.765906 0.671843
O O8 0.481762 0.000000 0.550656
O O9 0.750000 0.250000 0.500000
O O10 0.835318 0.230462 0.670595
O O11 0.733567 0.000000 0.545806
O O12 0.704952 0.770319 0.181702
O O13 0.547098 0.737192 0.145194
O O14 0.585933 0.000000 0.126884
O O15 0.500000 0.775712 0.000000
O O16 0.279226 0.000000 0.214941
O O17 0.464158 0.500000 0.795658
#
# Coordination Sequence:
#
# PCOD8107272 Si02
#       6
#     8   8   8   8   8   8
#     4  11  23  39  60  86 118 155 195 241 292 346
#     4   9  17  33  57  82 109 143 184 227 274 333
#     4  10  21  37  59  86 116 152 192 236 286 344
#     4  11  24  40  59  84 115 152 194 243 297 350
#     4  10  21  37  59  85 113 149 190 234 287 346
#     4  11  23  39  61  88 118 155 198 241 290 350
#
# _framework density 19.965184000000001
#
# number of rings (size 3 to 8) (size 9 to 14) (size 15 to 20)
#    0.000    1.667    0.000    4.500    0.000   10.667 
#    0.000    0.833    0.000    2.000    0.000    0.000 
#    0.000    0.000    0.000    0.000    0.000    0.000 
#
# Total GULP energy -297719.449849 kJ/mol
# GULP energy per Si atom -12404.977077 kJ/mol
# Density = 1.991974 g / cm^3
# Si number density = 19.965184 Si / 1000 Ang^3
#
#
#
# Elastic Constant Matrix: (Units=GPa)
#
#
# Indices 1 2 3 4 5 6 
#
# 1 103.8626 21.3455 18.0738 0.0000 2.8528 0.0000
# 2 21.3455 48.9408 24.4661 0.0000 -3.6400 0.0000
# 3 18.0738 24.4661 103.9263 0.0000 -1.1766 0.0000
# 4 0.0000 0.0000 0.0000 28.4720 0.0000 1.2145
# 5 2.8528 -3.6400 -1.1766 0.0000 45.0107 0.0000
# 6 0.0000 0.0000 0.0000 1.2145 0.0000 38.1650
#
#
#
# Elastic Compliance Matrix: (Units=1/GPa)
#
#
# Indices 1 2 3 4 5 6 
#
# 1 0.010692 -0.004314 -0.000856 0.000000 -0.001049 0.000000
# 2 -0.004314 0.025034 -0.005119 0.000000 0.002164 0.000000
# 3 -0.000856 -0.005119 0.010975 0.000000 -0.000073 0.000000
# 4 0.000000 0.000000 0.000000 0.035170 0.000000 -0.001119
# 5 -0.001049 0.002164 -0.000073 0.000000 0.022457 0.000000
# 6 0.000000 0.000000 0.000000 -0.001119 0.000000 0.026238
#
#
# Mechanical properties :
#
#
# Convention : Reuss Voigt Hill
#
# Bulk Modulus (GPa) = 38.27721 42.72227 40.49974
# Shear Modulus (GPa) = 31.27914 35.18583 33.23249
#
# Velocity S-wave (km/s) = 3.96243 4.20260 4.08428
# Velocity P-wave (km/s) = 6.33625 6.70775 6.52465
#
# Compressibility (1/GPa) = 0.02612520
#
# Stress axis : x y z
#
# Youngs Moduli (GPa) = 93.52468 39.94544 91.11379
#
# Poissons Ratio (x) = 0.17231 0.07798
# Poissons Ratio (y) = 0.40343 0.46639
# Poissons Ratio (z) = 0.08005 0.20447
#
# Static dielectric constant tensor:
#      x y z
#    x 3.738970 0.000000 0.059990 
#    y 0.000000 3.470820 0.000000 
#    z 0.059990 0.000000 3.886600 
# 
# 
# High freq. dielectric constant tensor:
#      x y z
#    x 1.797870 0.000000 0.000970 
#    y 0.000000 1.762180 0.000000 
#    z 0.000970 0.000000 1.798690 
# 
# From -- ./inp_files/229326.got.cif
#   From: 2010.06.25/outbox.cif.g09.slc.cpg/sg12_115_cif.got.tgz:229326.got - 2010.06.28 00:19:55.
