data_PCOD8107868
_publ_section_title
;
Structure prediction by ZEFSAII (Michael W. Deem and Ramdas Pophale) SiO2 
 PCOD8107868
Probable space group: C 2/M
;
_chemical_formula_sum "Si O2"
_cell_formula_units_Z 56
_cell_length_a 14.732152
_cell_length_b 14.395919
_cell_length_c 16.762747
_cell_angle_alpha 90.000000
_cell_angle_beta 51.343673
_cell_angle_gamma 90.000000
_cell_volume 2776.194953
_symmetry_space_group_name_H-M "C 2/M"
_symmetry_group_IT_number 12
_symmetry_cell_setting 'monoclinic'
loop_
_space_group_symop_operation_xyz
x,y,z
-x,y,-z
-x,-y,-z
x,-y,z
1/2+x,1/2+y,z
1/2-x,1/2+y,-z
1/2-x,1/2-y,-z
1/2+x,1/2-y,z
loop_
_atom_site_type_symbol
_atom_site_label
_atom_site_fract_x
_atom_site_fract_y
_atom_site_fract_z
Si Si1 0.032645 0.105190 0.610668
Si Si2 0.549530 0.279377 0.207707
Si Si3 0.655579 0.899437 0.117937
Si Si4 0.311887 0.605631 0.622918
Si Si5 0.127289 0.102704 0.905802
Si Si6 0.285447 0.108072 0.089238
Si Si7 0.360769 0.227652 0.193377
O O1 0.130606 0.131977 0.492838
O O2 0.041028 0.178027 0.678769
O O3 0.905242 0.113353 0.642285
O O4 0.052759 0.000000 0.630088
O O5 0.594228 0.176763 0.207800
O O6 0.658915 0.348015 0.142429
O O7 0.486561 0.258395 0.158067
O O8 0.793742 0.900379 0.058591
O O9 0.600967 0.000000 0.169313
O O10 0.639830 0.879459 0.032373
O O11 0.262994 0.500000 0.647027
O O12 0.211865 0.680828 0.695006
O O13 0.189140 0.173630 0.810065
O O14 0.118098 0.000000 0.871635
O O15 0.000000 0.139523 0.000000
O O16 0.359206 0.156223 0.119579
O O17 0.267965 0.000000 0.120976
#
# Coordination Sequence:
#
# PCOD8107868 Si02
#       7
#     8   8   8   8   8   8   8
#     4   9  18  36  65  90 116 153 200 253 303 356
#     4  12  23  36  60  90 121 157 202 245 303 362
#     4  10  22  39  57  80 120 164 202 245 300 357
#     4   9  18  37  62  91 120 153 197 251 307 358
#     4  10  21  38  58  82 116 162 211 251 290 348
#     4  11  23  41  62  87 122 163 207 256 297 349
#     4  12  24  34  62  91 124 157 200 247 305 363
#
# _framework density 20.171493999999999
#
# number of rings (size 3 to 8) (size 9 to 14) (size 15 to 20)
#    0.000    1.571    2.857    3.000    2.000    4.000 
#    0.000    1.429    0.000    0.857    0.000    4.000 
#    0.000    0.000    0.000    0.000    0.000    0.000 
#
# Total GULP energy -346924.804679 kJ/mol
# GULP energy per Si atom -12390.171596 kJ/mol
# Density = 2.012558 g / cm^3
# Si number density = 20.171494 Si / 1000 Ang^3
#
#
#
# Elastic Constant Matrix: (Units=GPa)
#
#
# Indices 1 2 3 4 5 6 
#
# 1 92.9031 47.1618 20.1139 0.0000 12.5452 0.0000
# 2 47.1618 176.1494 74.2018 0.0000 13.4404 0.0000
# 3 20.1139 74.2018 68.4436 0.0000 12.4648 0.0000
# 4 0.0000 0.0000 0.0000 38.8263 0.0000 -0.0904
# 5 12.5452 13.4404 12.4648 0.0000 11.5388 0.0000
# 6 0.0000 0.0000 0.0000 -0.0904 0.0000 22.0354
#
#
#
# Elastic Compliance Matrix: (Units=1/GPa)
#
#
# Indices 1 2 3 4 5 6 
#
# 1 0.013942 -0.003704 0.002357 0.000000 -0.013390 0.000000
# 2 -0.003704 0.011433 -0.011969 0.000000 0.003640 0.000000
# 3 0.002357 -0.011969 0.030901 0.000000 -0.022001 0.000000
# 4 0.000000 0.000000 0.000000 0.025756 0.000000 0.000106
# 5 -0.013390 0.003640 -0.022001 0.000000 0.120749 0.000000
# 6 0.000000 0.000000 0.000000 0.000106 0.000000 0.045382
#
#
# Mechanical properties :
#
#
# Convention : Reuss Voigt Hill
#
# Bulk Modulus (GPa) = 33.73437 68.93901 51.33669
# Shear Modulus (GPa) = 17.56384 27.54802 22.55593
#
# Velocity S-wave (km/s) = 2.95401 3.69953 3.34759
# Velocity P-wave (km/s) = 5.32869 7.24565 6.35981
#
# Compressibility (1/GPa) = 0.02964335
#
# Stress axis : x y z
#
# Youngs Moduli (GPa) = 71.72563 87.46717 32.36165
#
# Poissons Ratio (x) = 0.32398 -0.07627
# Poissons Ratio (y) = 0.26567 0.38734
# Poissons Ratio (z) = -0.16905 1.04690
#
# Static dielectric constant tensor:
#      x y z
#    x 3.649010 0.000000 0.098240 
#    y 0.000000 3.967180 0.000000 
#    z 0.098240 0.000000 3.420600 
# 
# 
# High freq. dielectric constant tensor:
#      x y z
#    x 1.779090 0.000000 0.005750 
#    y 0.000000 1.804270 0.000000 
#    z 0.005750 0.000000 1.753630 
# 
# From -- ./inp_files/270181.got.cif
#   From: 2010.06.25/outbox.cif.g09.slc.cpg/sg12_136_cif.got.tgz:270181.got - 2010.06.28 00:19:55.
