data_PCOD8107556
_publ_section_title
;
Structure prediction by ZEFSAII (Michael W. Deem and Ramdas Pophale) SiO2 
 PCOD8107556
Probable space group: C 2/M
;
_chemical_formula_sum "Si O2"
_cell_formula_units_Z 56
_cell_length_a 10.000138
_cell_length_b 22.185392
_cell_length_c 14.529741
_cell_angle_alpha 90.000000
_cell_angle_beta 119.701770
_cell_angle_gamma 90.000000
_cell_volume 2800.005612
_symmetry_space_group_name_H-M "C 2/M"
_symmetry_group_IT_number 12
_symmetry_cell_setting 'monoclinic'
loop_
_space_group_symop_operation_xyz
x,y,z
-x,y,-z
-x,-y,-z
x,-y,z
1/2+x,1/2+y,z
1/2-x,1/2+y,-z
1/2-x,1/2-y,-z
1/2+x,1/2-y,z
loop_
_atom_site_type_symbol
_atom_site_label
_atom_site_fract_x
_atom_site_fract_y
_atom_site_fract_z
Si Si1 0.332748 0.500000 0.400775
Si Si2 0.157191 0.694058 0.357840
Si Si3 0.836208 0.882477 0.282143
Si Si4 0.368455 0.119753 0.302676
Si Si5 0.174971 0.167992 0.398270
Si Si6 0.673722 0.930659 0.055457
Si Si7 0.966060 0.500000 0.595151
Si Si8 0.169029 0.069388 0.082916
O O1 0.500000 0.500000 0.500000
O O2 0.302396 0.442025 0.328543
O O3 0.216017 0.500000 0.447300
O O4 0.236024 0.671503 0.291097
O O5 0.151354 0.765794 0.349678
O O6 0.261926 0.670121 0.477015
O O7 0.981722 0.672826 0.309278
O O8 0.782080 0.891444 0.158869
O O9 0.016515 0.868253 0.344453
O O10 0.301076 0.133042 0.380565
O O11 0.461996 0.058008 0.332485
O O12 0.228579 0.113123 0.183558
O O13 0.684544 0.000000 0.090886
O O14 0.500000 0.906612 0.000000
O O15 0.723245 0.922686 0.967839
O O16 0.000000 0.500000 0.500000
O O17 0.164325 0.000000 0.115606
O O18 0.000000 0.092137 0.000000
#
# Coordination Sequence:
#
# PCOD8107556 Si02
#       8
#     4   8   8   8   8   8   4   8
#     4  12  26  40  60  95 136 168 194 255 327 383
#     4  11  23  43  64  89 124 170 216 254 299 376
#     4  12  23  40  64  93 126 162 204 263 313 369
#     4  12  23  40  66  91 126 164 210 260 314 376
#     4  11  25  41  64  91 124 170 216 252 303 372
#     4  10  21  37  61  88 120 158 207 250 307 378
#     4  12  26  40  60  96 134 168 198 250 327 389
#     4  10  21  39  59  88 124 162 205 256 311 380
#
# _framework density 19.999960000000002
#
# number of rings (size 3 to 8) (size 9 to 14) (size 15 to 20)
#    0.000    0.857    2.857    5.143    2.000    2.286 
#    0.000    0.000    0.000   17.143    0.000    0.000 
#    0.000    0.000    0.000    0.000    0.000    0.000 
#
# Total GULP energy -347413.748943 kJ/mol
# GULP energy per Si atom -12407.633891 kJ/mol
# Density = 1.995444 g / cm^3
# Si number density = 19.999960 Si / 1000 Ang^3
#
#
#
# Elastic Constant Matrix: (Units=GPa)
#
#
# Indices 1 2 3 4 5 6 
#
# 1 114.8684 20.2497 3.7786 0.0000 17.1090 0.0000
# 2 20.2497 76.6709 19.9364 0.0000 3.0360 0.0000
# 3 3.7786 19.9364 77.8233 0.0000 12.2708 0.0000
# 4 0.0000 0.0000 0.0000 15.0795 0.0000 5.9912
# 5 17.1090 3.0360 12.2708 0.0000 32.7331 0.0000
# 6 0.0000 0.0000 0.0000 5.9912 0.0000 24.6241
#
#
#
# Elastic Compliance Matrix: (Units=1/GPa)
#
#
# Indices 1 2 3 4 5 6 
#
# 1 0.009940 -0.002686 0.001047 0.000000 -0.005339 0.000000
# 2 -0.002686 0.014700 -0.003870 0.000000 0.001492 0.000000
# 3 0.001047 -0.003870 0.014688 0.000000 -0.005695 0.000000
# 4 0.000000 0.000000 0.000000 0.073412 0.000000 -0.017862
# 5 -0.005339 0.001492 -0.005695 0.000000 0.035337 0.000000
# 6 0.000000 0.000000 0.000000 -0.017862 0.000000 0.044957
#
#
# Mechanical properties :
#
#
# Convention : Reuss Voigt Hill
#
# Bulk Modulus (GPa) = 35.32436 39.69912 37.51174
# Shear Modulus (GPa) = 23.42055 29.51388 26.46721
#
# Velocity S-wave (km/s) = 3.42574 3.84565 3.64175
# Velocity P-wave (km/s) = 5.77479 6.29376 6.03985
#
# Compressibility (1/GPa) = 0.02830908
#
# Stress axis : x y z
#
# Youngs Moduli (GPa) = 100.60479 68.02927 68.08199
#
# Poissons Ratio (x) = 0.18274 -0.07130
# Poissons Ratio (y) = 0.27024 0.26351
# Poissons Ratio (z) = -0.10536 0.26330
#
# Static dielectric constant tensor:
#      x y z
#    x 3.808550 0.000000 -0.017960 
#    y 0.000000 3.653100 0.000000 
#    z -0.017960 0.000000 3.621390 
# 
# 
# High freq. dielectric constant tensor:
#      x y z
#    x 1.799310 0.000000 0.004070 
#    y 0.000000 1.770200 0.000000 
#    z 0.004070 0.000000 1.778610 
# 
# From -- ./inp_files/199008.got.cif
#   From: 2010.06.25/outbox.cif.g09.slc.cpg/sg12_100_cif.got.tgz:199008.got - 2010.06.28 00:19:55.
