data_PCOD8107494
_publ_section_title
;
Structure prediction by ZEFSAII (Michael W. Deem and Ramdas Pophale) SiO2 
 PCOD8107494
Probable space group: C 2/M
;
_chemical_formula_sum "Si O2"
_cell_formula_units_Z 56
_cell_length_a 18.720707
_cell_length_b 8.824859
_cell_length_c 18.524190
_cell_angle_alpha 90.000000
_cell_angle_beta 61.237204
_cell_angle_gamma 90.000000
_cell_volume 2682.750490
_symmetry_space_group_name_H-M "C 2/M"
_symmetry_group_IT_number 12
_symmetry_cell_setting 'monoclinic'
loop_
_space_group_symop_operation_xyz
x,y,z
-x,y,-z
-x,-y,-z
x,-y,z
1/2+x,1/2+y,z
1/2-x,1/2+y,-z
1/2-x,1/2-y,-z
1/2+x,1/2-y,z
loop_
_atom_site_type_symbol
_atom_site_label
_atom_site_fract_x
_atom_site_fract_y
_atom_site_fract_z
Si Si1 0.764073 0.830432 0.686365
Si Si2 0.990110 0.675585 0.308176
Si Si3 0.828090 0.679571 0.001509
Si Si4 0.573047 0.174218 0.414320
Si Si5 0.683270 0.833209 0.577551
Si Si6 0.845868 0.177696 0.148139
Si Si7 0.985814 0.177918 0.854769
O O1 0.846515 0.770163 0.609404
O O2 0.698241 0.832904 0.655401
O O3 0.730561 0.719500 0.764288
O O4 0.777109 0.000000 0.711212
O O5 0.980959 0.500000 0.287599
O O6 0.907084 0.735362 0.386692
O O7 0.058335 0.692769 0.335921
O O8 0.010406 0.781491 0.231152
O O9 0.820085 0.500000 0.000997
O O10 0.911099 0.730112 0.923470
O O11 0.750000 0.750000 0.000000
O O12 0.833337 0.730432 0.081378
O O13 0.500000 0.237614 0.500000
O O14 0.588766 0.000000 0.427535
O O15 0.750000 0.750000 0.500000
O O16 0.683207 0.000000 0.544566
O O17 0.931172 0.224341 0.144207
O O18 0.843641 0.000000 0.132365
O O19 0.969355 0.000000 0.871402
#
# Coordination Sequence:
#
# PCOD8107494 Si02
#       7
#     8   8   8   8   8   8   8
#     4  11  23  39  62  92 127 167 212 267 322 381
#     4  10  21  39  62  89 124 168 215 263 316 379
#     4  12  27  46  71 100 133 170 209 259 315 378
#     4  10  22  40  62  87 123 171 218 267 324 386
#     4  10  21  37  60  89 122 162 212 264 319 377
#     4  11  24  44  69  97 131 171 214 261 316 381
#     4  11  24  43  68  98 131 169 213 262 317 380
#
# _framework density 20.874098
#
# number of rings (size 3 to 8) (size 9 to 14) (size 15 to 20)
#    0.000    1.286    1.429    3.857    2.000    7.143 
#    0.000    0.000    0.000    0.000    0.000    0.000 
#    0.000    0.000    0.000    0.000    0.000    0.000 
#
# Total GULP energy -347241.505786 kJ/mol
# GULP energy per Si atom -12401.482349 kJ/mol
# Density = 2.082659 g / cm^3
# Si number density = 20.874098 Si / 1000 Ang^3
#
#
#
# Elastic Constant Matrix: (Units=GPa)
#
#
# Indices 1 2 3 4 5 6 
#
# 1 90.2098 39.1279 24.9741 -0.0001 -7.4878 -0.0001
# 2 39.1279 103.8360 39.8317 -0.0001 -5.5584 -0.0001
# 3 24.9741 39.8317 104.8065 0.0000 -9.2928 0.0000
# 4 -0.0001 -0.0001 0.0000 40.1421 0.0000 -2.3157
# 5 -7.4878 -5.5584 -9.2928 0.0000 41.7901 -0.0001
# 6 -0.0001 -0.0001 0.0000 -2.3157 -0.0001 32.5389
#
#
#
# Elastic Compliance Matrix: (Units=1/GPa)
#
#
# Indices 1 2 3 4 5 6 
#
# 1 0.013543 -0.004490 -0.001386 0.000000 0.001521 0.000000
# 2 -0.004490 0.012776 -0.003781 0.000000 0.000054 0.000000
# 3 -0.001386 -0.003781 0.011468 0.000000 0.001799 0.000000
# 4 0.000000 0.000000 0.000000 0.025014 0.000000 0.001780
# 5 0.001521 0.000054 0.001799 0.000000 0.024609 0.000000
# 6 0.000000 0.000000 0.000000 0.001780 0.000000 0.030859
#
#
# Mechanical properties :
#
#
# Convention : Reuss Voigt Hill
#
# Bulk Modulus (GPa) = 54.13229 56.30220 55.21725
# Shear Modulus (GPa) = 34.78510 35.88878 35.33694
#
# Velocity S-wave (km/s) = 4.08661 4.15094 4.11890
# Velocity P-wave (km/s) = 6.94667 7.07139 7.00931
#
# Compressibility (1/GPa) = 0.01847326
#
# Stress axis : x y z
#
# Youngs Moduli (GPa) = 73.84012 78.27310 87.19972
#
# Poissons Ratio (x) = 0.35147 0.12083
# Poissons Ratio (y) = 0.33156 0.32967
# Poissons Ratio (z) = 0.10232 0.29592
#
# Static dielectric constant tensor:
#      x y z
#    x 3.739430 0.000000 0.558900 
#    y 0.000000 3.765570 0.000000 
#    z 0.558900 0.000000 2.326420 
# 
# 
# High freq. dielectric constant tensor:
#      x y z
#    x 1.830390 0.000000 -0.001780 
#    y 0.000000 1.813390 0.000000 
#    z -0.001780 0.000000 1.827710 
# 
# From -- ./inp_files/275260.got.cif
#   From: 2010.06.25/outbox.cif.g09.slc.cpg/sg12_138_cif.got.tgz:275260.got - 2010.06.28 00:19:55.
