data_PCOD8107041
_publ_section_title
;
Structure prediction by ZEFSAII (Michael W. Deem and Ramdas Pophale) SiO2 
 PCOD8107041
Probable space group: C 2/M
;
_chemical_formula_sum "Si O2"
_cell_formula_units_Z 48
_cell_length_a 13.856011
_cell_length_b 20.606645
_cell_length_c 11.766612
_cell_angle_alpha 90.000000
_cell_angle_beta 42.805197
_cell_angle_gamma 90.000000
_cell_volume 2282.923837
_symmetry_space_group_name_H-M "C 2/M"
_symmetry_group_IT_number 12
_symmetry_cell_setting 'monoclinic'
loop_
_space_group_symop_operation_xyz
x,y,z
-x,y,-z
-x,-y,-z
x,-y,z
1/2+x,1/2+y,z
1/2-x,1/2+y,-z
1/2-x,1/2-y,-z
1/2+x,1/2-y,z
loop_
_atom_site_type_symbol
_atom_site_label
_atom_site_fract_x
_atom_site_fract_y
_atom_site_fract_z
Si Si1 0.596493 0.927820 0.148121
Si Si2 0.276503 0.071244 0.478693
Si Si3 0.752711 0.192615 0.905667
Si Si4 0.842450 0.609017 0.662215
Si Si5 0.782437 0.238863 0.282926
Si Si6 0.421310 0.307590 0.378418
O O1 0.429897 0.909578 0.294756
O O2 0.662265 0.931482 0.217763
O O3 0.618102 0.000000 0.076201
O O4 0.676997 0.873207 0.008131
O O5 0.285426 0.065789 0.607613
O O6 0.164713 0.125176 0.538224
O O7 0.229330 0.000000 0.475031
O O8 0.676025 0.211223 0.852733
O O9 0.916238 0.177066 0.736130
O O10 0.750000 0.250000 0.000000
O O11 0.746424 0.672504 0.759439
O O12 0.000000 0.633415 0.500000
O O13 0.640671 0.258997 0.474051
O O14 0.908359 0.227374 0.265664
#
# Coordination Sequence:
#
# PCOD8107041 Si02
#       6
#     8   8   8   8   8   8
#     4  10  21  37  57  88 126 162 200 250 308 363
#     4   9  19  37  60  85 117 163 212 249 295 360
#     4  12  24  38  61  93 127 161 194 250 315 366
#     4   9  15  30  58  84 113 154 199 249 297 355
#     4  10  21  39  62  87 123 154 207 249 301 359
#     4  10  23  39  63  90 115 163 207 254 296 355
#
# _framework density 21.025668
#
# number of rings (size 3 to 8) (size 9 to 14) (size 15 to 20)
#    0.000    2.000    1.667    2.000    7.000    3.333 
#    0.000    0.833    0.000    7.000    0.000    0.000 
#    0.000    0.000    0.000    0.000    0.000    0.000 
#
# Total GULP energy -297499.900639 kJ/mol
# GULP energy per Si atom -12395.829193 kJ/mol
# Density = 2.097781 g / cm^3
# Si number density = 21.025668 Si / 1000 Ang^3
#
#
#
# Elastic Constant Matrix: (Units=GPa)
#
#
# Indices 1 2 3 4 5 6 
#
# 1 50.2765 25.7422 16.0822 0.0021 7.6279 -0.0015
# 2 25.7422 122.8859 37.0987 0.0010 -0.5108 -0.0008
# 3 16.0822 37.0987 59.6515 0.0042 3.8953 -0.0033
# 4 0.0021 0.0010 0.0042 37.4038 -0.0026 0.9638
# 5 7.6279 -0.5108 3.8953 -0.0026 28.6275 0.0019
# 6 -0.0015 -0.0008 -0.0033 0.9638 0.0019 19.8346
#
#
#
# Elastic Compliance Matrix: (Units=1/GPa)
#
#
# Indices 1 2 3 4 5 6 
#
# 1 0.023977 -0.003957 -0.003614 -0.000001 -0.005968 0.000002
# 2 -0.003957 0.010702 -0.005721 0.000001 0.002024 -0.000001
# 3 -0.003614 -0.005721 0.021431 -0.000002 -0.002055 0.000003
# 4 -0.000001 0.000001 -0.000002 0.026769 0.000003 -0.001301
# 5 -0.005968 0.002024 -0.002055 0.000003 0.036837 -0.000004
# 6 0.000002 -0.000001 0.000003 -0.001301 -0.000004 0.050480
#
#
# Mechanical properties :
#
#
# Convention : Reuss Voigt Hill
#
# Bulk Modulus (GPa) = 33.86792 43.40668 38.63730
# Shear Modulus (GPa) = 24.19875 27.43257 25.81566
#
# Velocity S-wave (km/s) = 3.39619 3.61601 3.50782
# Velocity P-wave (km/s) = 5.61442 6.17442 5.90107
#
# Compressibility (1/GPa) = 0.02952647
#
# Stress axis : x y z
#
# Youngs Moduli (GPa) = 41.70624 93.43960 46.66176
#
# Poissons Ratio (x) = 0.36970 0.16863
# Poissons Ratio (y) = 0.16501 0.26697
# Poissons Ratio (z) = 0.15073 0.53460
#
# Static dielectric constant tensor:
#      x y z
#    x 3.745790 0.000000 0.134230 
#    y 0.000000 3.851990 0.000000 
#    z 0.134230 0.000000 3.606300 
# 
# 
# High freq. dielectric constant tensor:
#      x y z
#    x 1.811440 0.000000 0.007520 
#    y 0.000000 1.827560 0.000000 
#    z 0.007520 0.000000 1.803950 
# 
# From -- ./inp_files/147916.got.cif
#   From: 2010.06.25/outbox.cif.g09.slc.cpg/sg12_74_cif.got.tgz:147916.got - 2010.06.28 00:19:55.
