data_PCOD8107966
_publ_section_title
;
Structure prediction by ZEFSAII (Michael W. Deem and Ramdas Pophale) SiO2 
 PCOD8107966
Probable space group: C 2/M
;
_chemical_formula_sum "Si O2"
_cell_formula_units_Z 56
_cell_length_a 20.238568
_cell_length_b 8.972469
_cell_length_c 20.120156
_cell_angle_alpha 90.000000
_cell_angle_beta 128.506209
_cell_angle_gamma 90.000000
_cell_volume 2859.104444
_symmetry_space_group_name_H-M "C 2/M"
_symmetry_group_IT_number 12
_symmetry_cell_setting 'monoclinic'
loop_
_space_group_symop_operation_xyz
x,y,z
-x,y,-z
-x,-y,-z
x,-y,z
1/2+x,1/2+y,z
1/2-x,1/2+y,-z
1/2-x,1/2-y,-z
1/2+x,1/2-y,z
loop_
_atom_site_type_symbol
_atom_site_label
_atom_site_fract_x
_atom_site_fract_y
_atom_site_fract_z
Si Si1 0.247907 0.173005 0.815283
Si Si2 0.444506 0.325865 0.276745
Si Si3 0.962810 0.671031 0.548109
Si Si4 0.993764 0.676489 0.173084
Si Si5 0.834580 0.823244 0.747956
Si Si6 0.320333 0.826697 0.000170
Si Si7 0.730499 0.827391 0.556380
O O1 0.153231 0.216752 0.776758
O O2 0.275254 0.274157 0.771215
O O3 0.308539 0.210538 0.915242
O O4 0.253738 0.000000 0.798528
O O5 0.456510 0.500000 0.269661
O O6 0.494032 0.282806 0.373843
O O7 0.485479 0.234384 0.242614
O O8 0.979899 0.500000 0.580155
O O9 0.864385 0.706841 0.481446
O O10 0.000000 0.706591 0.500000
O O11 0.004617 0.500000 0.180806
O O12 0.074409 0.747828 0.187780
O O13 0.912902 0.728088 0.079687
O O14 0.791941 0.767510 0.652733
O O15 0.843819 0.000000 0.755376
O O16 0.309230 0.000000 0.006848
O O17 0.250000 0.750000 0.000000
O O18 0.750000 0.750000 0.500000
O O19 0.746705 0.000000 0.555453
#
# Coordination Sequence:
#
# PCOD8107966 Si02
#       7
#     8   8   8   8   8   8   8
#     4  10  22  40  61  87 122 159 195 243 298 353
#     4  11  22  37  60  89 120 154 198 249 297 352
#     4  10  21  38  59  83 114 152 198 248 297 353
#     4  11  23  39  62  89 119 157 198 242 296 355
#     4  11  24  41  61  88 121 157 200 247 297 354
#     4  10  21  39  63  90 120 156 198 243 293 352
#     4  10  22  39  59  83 113 153 196 241 293 349
#
# _framework density 19.586552000000001
#
# number of rings (size 3 to 8) (size 9 to 14) (size 15 to 20)
#    0.000    1.571    1.429    3.000    0.000    8.286 
#    0.000    2.857    0.000    0.000    0.000    0.000 
#    0.000    0.000    0.000    0.000    0.000    0.000 
#
# Total GULP energy -347360.446692 kJ/mol
# GULP energy per Si atom -12405.730239 kJ/mol
# Density = 1.954197 g / cm^3
# Si number density = 19.586552 Si / 1000 Ang^3
#
#
#
# Elastic Constant Matrix: (Units=GPa)
#
#
# Indices 1 2 3 4 5 6 
#
# 1 90.1446 33.5844 17.2082 0.0000 -1.2532 0.0000
# 2 33.5844 56.6826 29.7241 0.0000 3.1087 0.0000
# 3 17.2082 29.7241 99.8628 0.0000 4.4676 0.0000
# 4 0.0000 0.0000 0.0000 29.9082 0.0000 1.3677
# 5 -1.2532 3.1087 4.4676 0.0000 31.7394 0.0000
# 6 0.0000 0.0000 0.0000 1.3677 0.0000 35.2328
#
#
#
# Elastic Compliance Matrix: (Units=1/GPa)
#
#
# Indices 1 2 3 4 5 6 
#
# 1 0.014298 -0.008559 0.000021 0.000000 0.001400 0.000000
# 2 -0.008559 0.026073 -0.006195 0.000000 -0.002020 0.000000
# 3 0.000021 -0.006195 0.011902 0.000000 -0.001068 0.000000
# 4 0.000000 0.000000 0.000000 0.033495 0.000000 -0.001300
# 5 0.001400 -0.002020 -0.001068 0.000000 0.031910 0.000000
# 6 0.000000 0.000000 0.000000 -0.001300 0.000000 0.028433
#
#
# Mechanical properties :
#
#
# Convention : Reuss Voigt Hill
#
# Bulk Modulus (GPa) = 43.84839 45.30260 44.57549
# Shear Modulus (GPa) = 27.29570 30.45429 28.87499
#
# Velocity S-wave (km/s) = 3.73714 3.94745 3.84373
# Velocity P-wave (km/s) = 6.40759 6.62994 6.51971
#
# Compressibility (1/GPa) = 0.02280585
#
# Stress axis : x y z
#
# Youngs Moduli (GPa) = 69.94217 38.35388 84.02036
#
# Poissons Ratio (x) = 0.32828 -0.00179
# Poissons Ratio (y) = 0.59865 0.52054
# Poissons Ratio (z) = -0.00149 0.23762
#
# Static dielectric constant tensor:
#      x y z
#    x 3.644170 0.000000 0.150070 
#    y 0.000000 3.545340 0.000000 
#    z 0.150070 0.000000 3.860340 
# 
# 
# High freq. dielectric constant tensor:
#      x y z
#    x 1.772510 0.000000 0.004400 
#    y 0.000000 1.761590 0.000000 
#    z 0.004400 0.000000 1.777270 
# 
# From -- ./inp_files/320220.got.cif
#   From: 2010.06.25/outbox.cif.g09.slc.cpg/sg12_161_cif.got.tgz:320220.got - 2010.06.28 00:19:55.
