data_PCOD8107575
_publ_section_title
;
Structure prediction by ZEFSAII (Michael W. Deem and Ramdas Pophale) SiO2 
 PCOD8107575
Probable space group: C 2/M
;
_chemical_formula_sum "Si O2"
_cell_formula_units_Z 64
_cell_length_a 9.161987
_cell_length_b 29.755527
_cell_length_c 16.683733
_cell_angle_alpha 90.000000
_cell_angle_beta 138.705450
_cell_angle_gamma 90.000000
_cell_volume 3001.570544
_symmetry_space_group_name_H-M "C 2/M"
_symmetry_group_IT_number 12
_symmetry_cell_setting 'monoclinic'
loop_
_space_group_symop_operation_xyz
x,y,z
-x,y,-z
-x,-y,-z
x,-y,z
1/2+x,1/2+y,z
1/2-x,1/2+y,-z
1/2-x,1/2-y,-z
1/2+x,1/2-y,z
loop_
_atom_site_type_symbol
_atom_site_label
_atom_site_fract_x
_atom_site_fract_y
_atom_site_fract_z
Si Si1 0.027266 0.048933 0.670016
Si Si2 0.602156 0.276863 0.657024
Si Si3 0.282236 0.946740 0.217033
Si Si4 0.317932 0.162948 0.866031
Si Si5 0.487717 0.084974 0.841073
Si Si6 0.845147 0.695097 0.598265
Si Si7 0.150563 0.920745 0.886697
Si Si8 0.597691 0.896668 0.455236
O O1 0.847551 0.085808 0.570230
O O2 0.262656 0.058877 0.725945
O O3 0.080225 0.045936 0.786543
O O4 0.942488 0.000000 0.607101
O O5 0.682735 0.295547 0.775450
O O6 0.369116 0.300463 0.545533
O O7 0.780481 0.287621 0.660823
O O8 0.551972 0.223822 0.648431
O O9 0.359339 0.919577 0.171652
O O10 0.442236 0.936803 0.358579
O O11 0.042270 0.924730 0.128267
O O12 0.270474 0.000000 0.197038
O O13 0.428342 0.136685 0.836202
O O14 0.163118 0.128907 0.852546
O O15 0.500000 0.183991 0.000000
O O16 0.616701 0.066486 0.973967
O O17 0.909321 0.642714 0.615029
O O18 0.500000 0.879942 0.500000
#
# Coordination Sequence:
#
# PCOD8107575 Si02
#       8
#     8   8   8   8   8   8   8   8
#     4  11  22  39  62  86 120 166 213 259 308 371
#     4  10  21  40  64  96 125 153 199 251 306 373
#     4  12  25  39  59  89 127 169 211 268 318 362
#     4   9  19  39  65  90 124 168 206 248 302 370
#     4  10  22  39  60  91 123 164 214 257 308 360
#     4  10  23  38  65  92 122 157 198 256 309 368
#     4  10  21  37  61  90 123 164 212 254 308 362
#     4  12  26  41  62  88 123 164 209 259 323 380
#
# _framework density 21.322171999999998
#
# number of rings (size 3 to 8) (size 9 to 14) (size 15 to 20)
#    0.000    1.500    1.250    4.875    3.500    5.000 
#    0.000    1.875    0.000    1.500    0.000    0.000 
#    0.000    0.000    0.000    0.000    0.000    0.000 
#
# Total GULP energy -396626.051890 kJ/mol
# GULP energy per Si atom -12394.564122 kJ/mol
# Density = 2.127364 g / cm^3
# Si number density = 21.322172 Si / 1000 Ang^3
#
#
#
# Elastic Constant Matrix: (Units=GPa)
#
#
# Indices 1 2 3 4 5 6 
#
# 1 105.5052 32.4722 16.6161 0.0000 3.7707 0.0000
# 2 32.4722 103.0822 46.7400 0.0000 1.5757 0.0000
# 3 16.6161 46.7400 90.4602 0.0000 9.0284 0.0000
# 4 0.0000 0.0000 0.0000 29.2895 0.0000 -1.3013
# 5 3.7707 1.5757 9.0284 0.0000 24.4649 0.0000
# 6 0.0000 0.0000 0.0000 -1.3013 0.0000 12.0106
#
#
#
# Elastic Compliance Matrix: (Units=1/GPa)
#
#
# Indices 1 2 3 4 5 6 
#
# 1 0.010545 -0.003245 -0.000124 0.000000 -0.001371 0.000000
# 2 -0.003245 0.013733 -0.006708 0.000000 0.002091 0.000000
# 3 -0.000124 -0.006708 0.015053 0.000000 -0.005104 0.000000
# 4 0.000000 0.000000 0.000000 0.034307 0.000000 0.003717
# 5 -0.001371 0.002091 -0.005104 0.000000 0.042835 0.000000
# 6 0.000000 0.000000 0.000000 0.003717 0.000000 0.083663
#
#
# Mechanical properties :
#
#
# Convention : Reuss Voigt Hill
#
# Bulk Modulus (GPa) = 52.14473 54.52269 53.33371
# Shear Modulus (GPa) = 22.05732 26.70095 24.37913
#
# Velocity S-wave (km/s) = 3.21982 3.54257 3.38504
# Velocity P-wave (km/s) = 6.19126 6.50842 6.35182
#
# Compressibility (1/GPa) = 0.01917740
#
# Stress axis : x y z
#
# Youngs Moduli (GPa) = 94.82820 72.81737 66.43259
#
# Poissons Ratio (x) = 0.23629 0.00821
# Poissons Ratio (y) = 0.30771 0.44566
# Poissons Ratio (z) = 0.01172 0.48849
#
# Static dielectric constant tensor:
#      x y z
#    x 3.882640 0.000000 0.078530 
#    y 0.000000 3.571600 0.000000 
#    z 0.078530 0.000000 3.928050 
# 
# 
# High freq. dielectric constant tensor:
#      x y z
#    x 1.838910 0.000000 0.001230 
#    y 0.000000 1.813700 0.000000 
#    z 0.001230 0.000000 1.839960 
# 
# From -- ./inp_files/260382.got.cif
#   From: 2010.06.25/outbox.cif.g09.slc.cpg/sg12_131_cif.got.tgz:260382.got - 2010.06.28 00:19:55.
