data_PCOD8107778
_publ_section_title
;
Structure prediction by ZEFSAII (Michael W. Deem and Ramdas Pophale) SiO2 
 PCOD8107778
Probable space group: C 2/M
;
_chemical_formula_sum "Si O2"
_cell_formula_units_Z 56
_cell_length_a 20.291015
_cell_length_b 7.921492
_cell_length_c 30.728604
_cell_angle_alpha 90.000000
_cell_angle_beta 143.627444
_cell_angle_gamma 90.000000
_cell_volume 2929.089617
_symmetry_space_group_name_H-M "C 2/M"
_symmetry_group_IT_number 12
_symmetry_cell_setting 'monoclinic'
loop_
_space_group_symop_operation_xyz
x,y,z
-x,y,-z
-x,-y,-z
x,-y,z
1/2+x,1/2+y,z
1/2-x,1/2+y,-z
1/2-x,1/2-y,-z
1/2+x,1/2-y,z
loop_
_atom_site_type_symbol
_atom_site_label
_atom_site_fract_x
_atom_site_fract_y
_atom_site_fract_z
Si Si1 0.773267 0.309142 0.919151
Si Si2 0.824476 0.500000 0.424339
Si Si3 0.174990 0.302185 0.149224
Si Si4 0.548088 0.810986 0.831110
Si Si5 0.965482 0.500000 0.411970
Si Si6 0.802906 0.307160 0.675457
Si Si7 0.836947 0.192701 0.312219
Si Si8 0.542390 0.687396 0.921629
O O1 0.817073 0.500000 0.943851
O O2 0.789223 0.235248 0.879171
O O3 0.643987 0.308170 0.863491
O O4 0.843700 0.203666 0.991105
O O5 0.898756 0.500000 0.421106
O O6 0.751482 0.671822 0.386431
O O7 0.902694 0.500000 0.508509
O O8 0.153566 0.500000 0.138263
O O9 0.273175 0.255373 0.234564
O O10 0.060238 0.214822 0.100776
O O11 0.431562 0.756754 0.747930
O O12 0.539350 0.810249 0.878802
O O13 0.577876 0.000000 0.832832
O O14 0.936475 0.327937 0.370420
O O15 0.787039 0.500000 0.649638
O O16 0.749980 0.290687 0.694888
O O17 0.884204 0.000000 0.335104
O O18 0.537208 0.500000 0.899512
#
# Coordination Sequence:
#
# PCOD8107778 Si02
#       8
#     8   4   8   8   4   8   8   8
#     4  11  24  39  54  77 112 144 187 235 287 329
#     4   9  18  30  50  78 121 138 176 219 271 339
#     4  10  21  38  57  78 108 147 187 232 280 334
#     4  11  22  38  57  78 109 144 189 235 278 333
#     4   9  18  30  48  84 112 147 170 220 277 325
#     4   9  18  31  53  79 106 145 182 222 272 331
#     4   9  17  32  53  78 108 143 184 220 271 334
#     4  12  24  36  57  80 105 147 187 234 284 333
#
# _framework density 19.118569999999998
#
# number of rings (size 3 to 8) (size 9 to 14) (size 15 to 20)
#    0.000    1.857    1.429    3.000    3.000    3.429 
#    0.000    2.857    0.000    0.000    0.000    1.000 
#    0.000    0.000    0.000    0.000    0.000    0.000 
#
# Total GULP energy -347225.107020 kJ/mol
# GULP energy per Si atom -12400.896679 kJ/mol
# Density = 1.907506 g / cm^3
# Si number density = 19.118570 Si / 1000 Ang^3
#
#
#
# Elastic Constant Matrix: (Units=GPa)
#
#
# Indices 1 2 3 4 5 6 
#
# 1 70.5870 14.2958 29.0868 -0.0002 11.8277 0.0000
# 2 14.2958 91.2959 59.9878 -0.0001 8.6675 -0.0006
# 3 29.0868 59.9878 136.7257 -0.0002 17.9557 0.0005
# 4 -0.0002 -0.0001 -0.0002 33.8028 0.0001 2.2461
# 5 11.8277 8.6675 17.9557 0.0001 11.3029 0.0000
# 6 0.0000 -0.0006 0.0005 2.2461 0.0000 15.6750
#
#
#
# Elastic Compliance Matrix: (Units=1/GPa)
#
#
# Indices 1 2 3 4 5 6 
#
# 1 0.017477 -0.000223 -0.001568 0.000000 -0.015626 0.000000
# 2 -0.000223 0.015410 -0.006561 0.000000 -0.001161 0.000001
# 3 -0.001568 -0.006561 0.012194 0.000000 -0.012699 -0.000001
# 4 0.000000 0.000000 0.000000 0.029868 0.000000 -0.004280
# 5 -0.015626 -0.001161 -0.012699 0.000000 0.125888 0.000001
# 6 0.000000 0.000001 -0.000001 -0.004280 0.000001 0.064409
#
#
# Mechanical properties :
#
#
# Convention : Reuss Voigt Hill
#
# Bulk Modulus (GPa) = 35.24082 56.14992 45.69537
# Shear Modulus (GPa) = 17.15809 25.17201 21.16505
#
# Velocity S-wave (km/s) = 2.99901 3.63247 3.33083
# Velocity P-wave (km/s) = 5.51950 6.85756 6.22459
#
# Compressibility (1/GPa) = 0.02837618
#
# Stress axis : x y z
#
# Youngs Moduli (GPa) = 57.21959 64.89488 82.00859
#
# Poissons Ratio (x) = 0.01446 0.12860
# Poissons Ratio (y) = 0.01275 0.53806
# Poissons Ratio (z) = 0.08972 0.42578
#
# Static dielectric constant tensor:
#      x y z
#    x 3.196410 0.000000 -0.003970 
#    y 0.000000 3.581500 0.000000 
#    z -0.003970 0.000000 3.542900 
# 
# 
# High freq. dielectric constant tensor:
#      x y z
#    x 1.707270 0.000000 0.004740 
#    y 0.000000 1.754830 0.000000 
#    z 0.004740 0.000000 1.737600 
# 
# From -- ./inp_files/380839.got.cif
#   From: 2010.06.25/outbox.cif.g09.slc.cpg/sg12_191_cif.got.tgz:380839.got - 2010.06.28 00:19:55.
