data_PCOD8107841
_publ_section_title
;
Structure prediction by ZEFSAII (Michael W. Deem and Ramdas Pophale) SiO2 
 PCOD8107841
Probable space group: C 2/M
;
_chemical_formula_sum "Si O2"
_cell_formula_units_Z 56
_cell_length_a 8.946451
_cell_length_b 18.215031
_cell_length_c 28.873422
_cell_angle_alpha 90.000000
_cell_angle_beta 39.284832
_cell_angle_gamma 90.000000
_cell_volume 2979.225655
_symmetry_space_group_name_H-M "C 2/M"
_symmetry_group_IT_number 12
_symmetry_cell_setting 'monoclinic'
loop_
_space_group_symop_operation_xyz
x,y,z
-x,y,-z
-x,-y,-z
x,-y,z
1/2+x,1/2+y,z
1/2-x,1/2+y,-z
1/2-x,1/2-y,-z
1/2+x,1/2-y,z
loop_
_atom_site_type_symbol
_atom_site_label
_atom_site_fract_x
_atom_site_fract_y
_atom_site_fract_z
Si Si1 0.148263 0.171428 0.771004
Si Si2 0.849320 0.085387 0.630337
Si Si3 0.504952 0.173557 0.229001
Si Si4 0.754265 0.330594 0.068831
Si Si5 0.095641 0.172214 0.931284
Si Si6 0.676918 0.170736 0.499958
Si Si7 0.002194 0.585114 0.629570
O O1 0.333586 0.190368 0.766045
O O2 0.253936 0.112538 0.710069
O O3 0.106079 0.248394 0.756321
O O4 0.913093 0.135108 0.850875
O O5 0.696707 0.115119 0.710127
O O6 0.716636 0.099455 0.613631
O O7 0.095933 0.126549 0.571210
O O8 0.895391 0.000000 0.627520
O O9 0.667805 0.138191 0.148876
O O10 0.829219 0.252214 0.070299
O O11 0.616340 0.323228 0.054039
O O12 0.000000 0.375412 0.000000
O O13 0.000000 0.128300 0.000000
O O14 0.500000 0.179727 0.500000
O O15 0.750000 0.250000 0.500000
O O16 0.547873 0.127691 0.571623
O O17 0.976685 0.500000 0.624035
#
# Coordination Sequence:
#
# PCOD8107841 Si02
#       7
#     8   8   8   8   8   8   8
#     4   9  18  31  49  74 101 132 171 214 257 303
#     4  10  21  38  58  79 106 140 175 211 256 309
#     4   9  18  31  49  74 101 132 171 214 257 303
#     4   9  15  24  40  65  96 127 163 207 255 302
#     4   9  15  24  40  65  96 127 163 207 255 302
#     4  12  25  40  59  83 109 135 169 212 257 306
#     4  10  21  38  58  79 106 140 175 211 256 309
#
# _framework density 18.79683
#
# number of rings (size 3 to 8) (size 9 to 14) (size 15 to 20)
#    0.000    2.286    0.000    4.286    0.000    6.857 
#    0.000    0.000    0.000    0.857    0.000    0.000 
#    0.000    0.000    0.000    0.000    0.000    7.714 
#
# Total GULP energy -346991.023801 kJ/mol
# GULP energy per Si atom -12392.536564 kJ/mol
# Density = 1.875405 g / cm^3
# Si number density = 18.796830 Si / 1000 Ang^3
#
#
#
# Elastic Constant Matrix: (Units=GPa)
#
#
# Indices 1 2 3 4 5 6 
#
# 1 93.0367 43.4320 71.2114 -0.0219 -8.0650 -0.0077
# 2 43.4320 91.5937 62.5031 -0.0118 -6.9015 -0.0005
# 3 71.2114 62.5031 186.7065 0.0067 -9.5866 -0.0081
# 4 -0.0219 -0.0118 0.0067 -9.8177 0.0095 -1.2426
# 5 -8.0650 -6.9015 -9.5866 0.0095 19.2324 0.0047
# 6 -0.0077 -0.0005 -0.0081 -1.2426 0.0047 18.8263
#
#
#
# Elastic Compliance Matrix: (Units=1/GPa)
#
#
# Indices 1 2 3 4 5 6 
#
# 1 0.016715 -0.004475 -0.004721 -0.000032 0.003051 0.000002
# 2 -0.004475 0.015495 -0.003378 -0.000009 0.002000 -0.000004
# 3 -0.004721 -0.003378 0.008337 0.000021 0.000964 0.000003
# 4 -0.000032 -0.000009 0.000021 -0.101012 0.000045 -0.006667
# 5 0.003051 0.002000 0.000964 0.000045 0.054473 -0.000009
# 6 0.000002 -0.000004 0.000003 -0.006667 -0.000009 0.052677
#
#
# Mechanical properties :
#
#
# Convention : Reuss Voigt Hill
#
# Bulk Modulus (GPa) = 64.93245 80.62554 72.77900
# Shear Modulus (GPa) = 64.96457 18.59422 41.77940
#
# Velocity S-wave (km/s) = 5.88528 3.14860 4.71965
# Velocity P-wave (km/s) = 8.98896 7.49697 8.27665
#
# Compressibility (1/GPa) = 0.01540062
#
# Stress axis : x y z
#
# Youngs Moduli (GPa) = 59.82634 64.53514 119.95024
#
# Poissons Ratio (x) = 0.28878 0.56624
# Poissons Ratio (y) = 0.26771 0.40518
# Poissons Ratio (z) = 0.28242 0.21800
#
# Static dielectric constant tensor:
#      x y z
#    x 3.561480 0.000020 0.000240 
#    y 0.000020 3.129050 0.000040 
#    z 0.000240 0.000040 4.879770 
# 
# 
# High freq. dielectric constant tensor:
#      x y z
#    x 1.730760 0.000000 0.000130 
#    y 0.000000 1.684950 0.000000 
#    z 0.000130 0.000000 1.764290 
# 
# From -- ./inp_files/372776.got.cif
#   From: 2010.06.25/outbox.cif.g09.slc.cpg/sg12_187_cif.got.tgz:372776.got - 2010.06.28 00:19:55.
