data_PCOD8107082
_publ_section_title
;
Structure prediction by ZEFSAII (Michael W. Deem and Ramdas Pophale) SiO2 
 PCOD8107082
Probable space group: C 2/M
;
_chemical_formula_sum "Si O2"
_cell_formula_units_Z 48
_cell_length_a 27.409883
_cell_length_b 8.954793
_cell_length_c 16.916445
_cell_angle_alpha 90.000000
_cell_angle_beta 36.200048
_cell_angle_gamma 90.000000
_cell_volume 2452.279351
_symmetry_space_group_name_H-M "C 2/M"
_symmetry_group_IT_number 12
_symmetry_cell_setting 'monoclinic'
loop_
_space_group_symop_operation_xyz
x,y,z
-x,y,-z
-x,-y,-z
x,-y,z
1/2+x,1/2+y,z
1/2-x,1/2+y,-z
1/2-x,1/2-y,-z
1/2+x,1/2-y,z
loop_
_atom_site_type_symbol
_atom_site_label
_atom_site_fract_x
_atom_site_fract_y
_atom_site_fract_z
Si Si1 0.479965 0.675435 0.616309
Si Si2 0.307513 0.172373 0.256618
Si Si3 0.372762 0.322858 0.466297
Si Si4 0.425441 0.323481 0.225954
Si Si5 0.838414 0.676889 0.893724
Si Si6 0.094598 0.671353 0.024400
O O1 0.500000 0.712170 0.500000
O O2 0.465112 0.500000 0.649347
O O3 0.555570 0.737885 0.570101
O O4 0.397262 0.762755 0.747689
O O5 0.215697 0.238317 0.388960
O O6 0.371031 0.262934 0.226296
O O7 0.311954 0.000000 0.276919
O O8 0.330083 0.192134 0.135200
O O9 0.373035 0.500000 0.469725
O O10 0.389146 0.263893 0.356480
O O11 0.424654 0.500000 0.223939
O O12 0.518723 0.269327 0.093277
O O13 0.829623 0.500000 0.899226
O O14 0.875448 0.727399 0.929538
O O15 0.750000 0.750000 0.000000
O O16 0.065510 0.500000 0.065849
#
# Coordination Sequence:
#
# PCOD8107082 Si02
#       6
#     8   8   8   8   8   8
#     4  10  21  39  66  91 117 155 197 242 298 360
#     4  10  21  37  58  83 114 153 200 239 279 343
#     4   9  19  36  58  85 115 150 190 238 287 342
#     4  11  21  36  58  85 118 151 191 240 296 346
#     4  11  24  41  63  90 121 155 197 246 299 354
#     4  10  22  39  60  84 114 154 196 238 285 347
#
# _framework density 19.573626999999998
#
# number of rings (size 3 to 8) (size 9 to 14) (size 15 to 20)
#    0.000    1.833    1.667    2.000    2.333    3.667 
#    0.000    1.667    0.000    0.000    0.000    0.000 
#    0.000    0.000    0.000    0.000    0.000    0.000 
#
# Total GULP energy -297710.763154 kJ/mol
# GULP energy per Si atom -12404.615131 kJ/mol
# Density = 1.952908 g / cm^3
# Si number density = 19.573627 Si / 1000 Ang^3
#
#
#
# Elastic Constant Matrix: (Units=GPa)
#
#
# Indices 1 2 3 4 5 6 
#
# 1 105.4821 37.0992 50.4294 -0.0026 -5.6636 0.0012
# 2 37.0992 56.0322 39.7533 -0.0055 -3.6990 0.0049
# 3 50.4294 39.7533 140.5751 -0.0087 -9.8850 0.0052
# 4 -0.0026 -0.0055 -0.0087 30.0212 0.0042 -0.9205
# 5 -5.6636 -3.6990 -9.8850 0.0042 40.5872 -0.0019
# 6 0.0012 0.0049 0.0052 -0.9205 -0.0019 25.0237
#
#
#
# Elastic Compliance Matrix: (Units=1/GPa)
#
#
# Indices 1 2 3 4 5 6 
#
# 1 0.013214 -0.006727 -0.002800 -0.000001 0.000549 0.000001
# 2 -0.006727 0.025761 -0.004856 0.000003 0.000226 -0.000004
# 3 -0.002800 -0.004856 0.009597 0.000001 0.001504 -0.000001
# 4 -0.000001 0.000003 0.000001 0.033347 -0.000003 0.001227
# 5 0.000549 0.000226 0.001504 -0.000003 0.025102 0.000001
# 6 0.000001 -0.000004 -0.000001 0.001227 0.000001 0.040007
#
#
# Mechanical properties :
#
#
# Convention : Reuss Voigt Hill
#
# Bulk Modulus (GPa) = 50.48581 61.85035 56.16808
# Shear Modulus (GPa) = 27.41309 30.78024 29.09666
#
# Velocity S-wave (km/s) = 3.74640 3.96982 3.85973
# Velocity P-wave (km/s) = 6.67554 7.25810 6.97291
#
# Compressibility (1/GPa) = 0.01980755
#
# Stress axis : x y z
#
# Youngs Moduli (GPa) = 75.67739 38.81890 104.20059
#
# Poissons Ratio (x) = 0.26112 0.29171
# Poissons Ratio (y) = 0.50905 0.50598
# Poissons Ratio (z) = 0.21186 0.18850
#
# Static dielectric constant tensor:
#      x y z
#    x 3.677420 -0.000010 0.011880 
#    y -0.000010 3.349230 0.000010 
#    z 0.011880 0.000010 3.786830 
# 
# 
# High freq. dielectric constant tensor:
#      x y z
#    x 1.769890 0.000000 0.001760 
#    y 0.000000 1.741680 0.000000 
#    z 0.001760 0.000000 1.779400 
# 
# From -- ./inp_files/244652.got.cif
#   From: 2010.06.25/outbox.cif.g09.slc.cpg/sg12_123_cif.got.tgz:244652.got - 2010.06.28 00:19:55.
