data_PCOD8107370
_publ_section_title
;
Structure prediction by ZEFSAII (Michael W. Deem and Ramdas Pophale) SiO2 
 PCOD8107370
Probable space group: C 2/M
;
_chemical_formula_sum "Si O2"
_cell_formula_units_Z 64
_cell_length_a 14.337492
_cell_length_b 9.527481
_cell_length_c 22.931004
_cell_angle_alpha 90.000000
_cell_angle_beta 94.526351
_cell_angle_gamma 90.000000
_cell_volume 3122.609894
_symmetry_space_group_name_H-M "C 2/M"
_symmetry_group_IT_number 12
_symmetry_cell_setting 'monoclinic'
loop_
_space_group_symop_operation_xyz
x,y,z
-x,y,-z
-x,-y,-z
x,-y,z
1/2+x,1/2+y,z
1/2-x,1/2+y,-z
1/2-x,1/2-y,-z
1/2+x,1/2-y,z
loop_
_atom_site_type_symbol
_atom_site_label
_atom_site_fract_x
_atom_site_fract_y
_atom_site_fract_z
Si Si1 0.671542 0.843485 0.785336
Si Si2 0.829642 0.754713 0.088189
Si Si3 0.639265 0.849671 0.035099
Si Si4 0.782125 0.662647 0.703271
Si Si5 0.040235 0.342082 0.219194
Si Si6 0.467712 0.343739 0.889407
Si Si7 0.730224 0.336776 0.412212
Si Si8 0.106179 0.338934 0.489803
O O1 0.687237 0.839699 0.855582
O O2 0.729135 0.721196 0.757182
O O3 0.563882 0.812393 0.763675
O O4 0.700121 0.000000 0.765153
O O5 0.739167 0.848724 0.072273
O O6 0.920147 0.851483 0.103397
O O7 0.846961 0.656336 0.033510
O O8 0.571316 0.727125 0.053744
O O9 0.592654 0.000000 0.047076
O O10 0.754356 0.500000 0.691105
O O11 0.892476 0.677960 0.721828
O O12 0.754114 0.757403 0.647396
O O13 0.048625 0.500000 0.194533
O O14 0.070383 0.239112 0.168602
O O15 0.426809 0.500000 0.884054
O O16 0.705049 0.500000 0.401006
O O17 0.828263 0.321002 0.450651
O O18 0.644050 0.263770 0.441544
O O19 0.109638 0.500000 0.467337
O O20 0.000000 0.295529 0.500000
#
# Coordination Sequence:
#
# PCOD8107370 Si02
#       8
#     8   8   8   8   8   8   8   8
#     4  10  21  39  60  81 107 143 190 238 283 335
#     4  10  23  39  58  81 110 143 182 230 285 344
#     4  11  23  38  58  82 109 143 182 225 281 349
#     4  11  23  39  59  84 117 155 192 233 283 336
#     4   9  21  40  59  79 108 149 191 231 282 345
#     4  11  23  38  58  83 111 142 180 232 289 342
#     4  10  21  37  59  89 122 155 195 240 279 322
#     4   9  19  38  63  89 121 161 197 231 278 331
#
# _framework density 20.495676
#
# number of rings (size 3 to 8) (size 9 to 14) (size 15 to 20)
#    0.000    1.875    0.000    3.000    0.000   12.750 
#    0.000    5.000    0.000    0.000    0.000    0.000 
#    0.000    0.000    0.000    0.000    0.000    0.000 
#
# Total GULP energy -396829.147891 kJ/mol
# GULP energy per Si atom -12400.910872 kJ/mol
# Density = 2.044903 g / cm^3
# Si number density = 20.495676 Si / 1000 Ang^3
#
#
#
# Elastic Constant Matrix: (Units=GPa)
#
#
# Indices 1 2 3 4 5 6 
#
# 1 89.5599 42.7500 39.6078 0.0000 -2.5342 0.0000
# 2 42.7500 148.5940 49.9083 0.0000 -5.0906 0.0000
# 3 39.6078 49.9083 90.3738 0.0000 0.4618 0.0000
# 4 0.0000 0.0000 0.0000 17.5837 0.0000 -10.7920
# 5 -2.5342 -5.0906 0.4618 0.0000 22.4675 0.0000
# 6 0.0000 0.0000 0.0000 -10.7920 0.0000 23.6830
#
#
#
# Elastic Compliance Matrix: (Units=1/GPa)
#
#
# Indices 1 2 3 4 5 6 
#
# 1 0.014609 -0.002467 -0.005046 0.000000 0.001192 0.000000
# 2 -0.002467 0.008767 -0.003769 0.000000 0.001786 0.000000
# 3 -0.005046 -0.003769 0.015367 0.000000 -0.001739 0.000000
# 4 0.000000 0.000000 0.000000 0.078952 0.000000 0.035977
# 5 0.001192 0.001786 -0.001739 0.000000 0.045084 0.000000
# 6 0.000000 0.000000 0.000000 0.035977 0.000000 0.058619
#
#
# Mechanical properties :
#
#
# Convention : Reuss Voigt Hill
#
# Bulk Modulus (GPa) = 61.81412 65.89554 63.85483
# Shear Modulus (GPa) = 20.05182 25.83095 22.94139
#
# Velocity S-wave (km/s) = 3.13124 3.55394 3.34927
# Velocity P-wave (km/s) = 6.58012 7.00438 6.79556
#
# Compressibility (1/GPa) = 0.01617753
#
# Stress axis : x y z
#
# Youngs Moduli (GPa) = 68.45195 114.06843 65.07416
#
# Poissons Ratio (x) = 0.28143 0.32837
# Poissons Ratio (y) = 0.16888 0.24527
# Poissons Ratio (z) = 0.34542 0.42994
#
# Static dielectric constant tensor:
#      x y z
#    x 3.825250 0.000000 0.123670 
#    y 0.000000 3.672480 0.000000 
#    z 0.123670 0.000000 3.534530 
# 
# 
# High freq. dielectric constant tensor:
#      x y z
#    x 1.806960 0.000000 0.007700 
#    y 0.000000 1.804570 0.000000 
#    z 0.007700 0.000000 1.788630 
# 
# From -- ./inp_files/338795.got.cif
#   From: 2010.06.25/outbox.cif.g09.slc.cpg/sg12_170_cif.got.tgz:338795.got - 2010.06.28 00:19:55.
