data_PCOD8107095
_publ_section_title
;
Structure prediction by ZEFSAII (Michael W. Deem and Ramdas Pophale) SiO2 
 PCOD8107095
Probable space group: C 2/M
;
_chemical_formula_sum "Si O2"
_cell_formula_units_Z 64
_cell_length_a 19.792472
_cell_length_b 9.008083
_cell_length_c 21.309969
_cell_angle_alpha 90.000000
_cell_angle_beta 62.061735
_cell_angle_gamma 90.000000
_cell_volume 3356.592731
_symmetry_space_group_name_H-M "C 2/M"
_symmetry_group_IT_number 12
_symmetry_cell_setting 'monoclinic'
loop_
_space_group_symop_operation_xyz
x,y,z
-x,y,-z
-x,-y,-z
x,-y,z
1/2+x,1/2+y,z
1/2-x,1/2+y,-z
1/2-x,1/2-y,-z
1/2+x,1/2-y,z
loop_
_atom_site_type_symbol
_atom_site_label
_atom_site_fract_x
_atom_site_fract_y
_atom_site_fract_z
Si Si1 0.194426 0.175806 0.820679
Si Si2 0.229780 0.174276 0.444034
Si Si3 0.943424 0.825745 0.473134
Si Si4 0.670379 0.174337 0.050094
Si Si5 0.844434 0.824603 0.301034
Si Si6 0.489412 0.324659 0.317050
Si Si7 0.587196 0.673121 0.978361
Si Si8 0.141896 0.325983 0.205657
O O1 0.161772 0.229708 0.768089
O O2 0.139577 0.237261 0.899351
O O3 0.280882 0.232526 0.794043
O O4 0.192825 0.000000 0.824716
O O5 0.250000 0.250000 0.500000
O O6 0.141831 0.210530 0.467373
O O7 0.278550 0.241155 0.366896
O O8 0.245034 0.000000 0.443446
O O9 0.960025 0.760737 0.396604
O O10 0.000000 0.753298 0.500000
O O11 0.957698 0.000000 0.463098
O O12 0.645817 0.214659 0.130972
O O13 0.680043 0.000000 0.036553
O O14 0.750000 0.250000 0.000000
O O15 0.604716 0.237073 0.033724
O O16 0.927512 0.778558 0.291193
O O17 0.830864 0.000000 0.314250
O O18 0.499144 0.500000 0.314490
O O19 0.570898 0.255554 0.267260
O O20 0.603939 0.500000 0.983116
O O21 0.500000 0.702589 0.000000
O O22 0.131542 0.500000 0.220685
#
# Coordination Sequence:
#
# PCOD8107095 Si02
#       8
#     8   8   8   8   8   8   8   8
#     4   9  19  38  58  81 117 153 185 233 288 339
#     4  11  21  37  61  84 111 147 189 235 284 337
#     4   9  19  36  56  80 113 147 181 230 283 327
#     4  11  22  39  62  85 116 153 195 246 295 347
#     4  10  21  38  59  83 114 150 190 233 282 337
#     4  10  21  37  58  84 112 147 192 233 275 338
#     4  10  21  38  63  89 116 154 200 240 288 355
#     4  10  22  39  57  81 117 153 185 232 292 343
#
# _framework density 19.066953999999999
#
# number of rings (size 3 to 8) (size 9 to 14) (size 15 to 20)
#    0.000    2.000    2.500    0.750    3.500    1.750 
#    0.000    0.625    0.000    1.875    0.000    0.000 
#    0.000    0.000    0.000    0.000    0.000    0.000 
#
# Total GULP energy -396852.937169 kJ/mol
# GULP energy per Si atom -12401.654287 kJ/mol
# Density = 1.902356 g / cm^3
# Si number density = 19.066954 Si / 1000 Ang^3
#
#
#
# Elastic Constant Matrix: (Units=GPa)
#
#
# Indices 1 2 3 4 5 6 
#
# 1 149.8242 29.0364 69.2750 0.0001 8.6300 -0.0008
# 2 29.0364 34.7070 26.5484 0.0001 0.1497 -0.0024
# 3 69.2750 26.5484 108.1850 0.0000 -1.3930 0.0001
# 4 0.0001 0.0001 0.0000 29.8206 0.0001 -5.1105
# 5 8.6300 0.1497 -1.3930 0.0001 42.2398 0.0001
# 6 -0.0008 -0.0024 0.0001 -5.1105 0.0001 26.9486
#
#
#
# Elastic Compliance Matrix: (Units=1/GPa)
#
#
# Indices 1 2 3 4 5 6 
#
# 1 0.010176 -0.004305 -0.005488 0.000000 -0.002245 0.000000
# 2 -0.004305 0.037300 -0.006390 0.000000 0.000537 0.000003
# 3 -0.005488 -0.006390 0.014347 0.000000 0.001617 -0.000001
# 4 0.000000 0.000000 0.000000 0.034660 0.000000 0.006573
# 5 -0.002245 0.000537 0.001617 0.000000 0.024184 0.000000
# 6 0.000000 0.000003 -0.000001 0.006573 0.000000 0.038354
#
#
# Mechanical properties :
#
#
# Convention : Reuss Voigt Hill
#
# Bulk Modulus (GPa) = 33.94916 60.27065 47.10991
# Shear Modulus (GPa) = 24.85012 30.99222 27.92117
#
# Velocity S-wave (km/s) = 3.61405 4.03605 3.83087
# Velocity P-wave (km/s) = 5.93793 7.30741 6.65798
#
# Compressibility (1/GPa) = 0.02945581
#
# Stress axis : x y z
#
# Youngs Moduli (GPa) = 98.27171 26.80979 69.70276
#
# Poissons Ratio (x) = 0.11543 0.38255
# Poissons Ratio (y) = 0.42310 0.44537
# Poissons Ratio (z) = 0.53935 0.17130
#
# Static dielectric constant tensor:
#      x y z
#    x 3.805070 0.000000 -0.009500 
#    y 0.000000 3.179360 0.000000 
#    z -0.009500 0.000000 3.302140 
# 
# 
# High freq. dielectric constant tensor:
#      x y z
#    x 1.758620 0.000000 0.002210 
#    y 0.000000 1.711610 0.000000 
#    z 0.002210 0.000000 1.751640 
# 
# From -- ./inp_files/319984.got.cif
#   From: 2010.06.25/outbox.cif.g09.slc.cpg/sg12_160_cif.got.tgz:319984.got - 2010.06.28 00:19:55.
