data_PCOD8107788
_publ_section_title
;
Structure prediction by ZEFSAII (Michael W. Deem and Ramdas Pophale) SiO2 
 PCOD8107788
Probable space group: C 2/M
;
_chemical_formula_sum "Si O2"
_cell_formula_units_Z 56
_cell_length_a 19.484322
_cell_length_b 8.745527
_cell_length_c 21.320887
_cell_angle_alpha 90.000000
_cell_angle_beta 54.088370
_cell_angle_gamma 90.000000
_cell_volume 2942.524378
_symmetry_space_group_name_H-M "C 2/M"
_symmetry_group_IT_number 12
_symmetry_cell_setting 'monoclinic'
loop_
_space_group_symop_operation_xyz
x,y,z
-x,y,-z
-x,-y,-z
x,-y,z
1/2+x,1/2+y,z
1/2-x,1/2+y,-z
1/2-x,1/2-y,-z
1/2+x,1/2-y,z
loop_
_atom_site_type_symbol
_atom_site_label
_atom_site_fract_x
_atom_site_fract_y
_atom_site_fract_z
Si Si1 0.399581 0.328344 0.790144
Si Si2 0.508960 0.317908 0.378039
Si Si3 0.902347 0.327652 0.038800
Si Si4 0.837518 0.320378 0.633200
Si Si5 0.761497 0.672218 0.206111
Si Si6 0.841769 0.179548 0.949704
Si Si7 0.681863 0.318736 0.488959
O O1 0.432972 0.500000 0.779925
O O2 0.462773 0.250318 0.705439
O O3 0.304523 0.321994 0.815234
O O4 0.395920 0.251547 0.861342
O O5 0.522107 0.500000 0.374235
O O6 0.570505 0.248404 0.398245
O O7 0.412599 0.268230 0.439987
O O8 0.872612 0.500000 0.037404
O O9 0.850744 0.273421 0.128346
O O10 0.889180 0.214705 0.988249
O O11 0.000000 0.322154 0.000000
O O12 0.847121 0.500000 0.619243
O O13 0.766567 0.285294 0.723572
O O14 0.802248 0.246789 0.588466
O O15 0.767338 0.500000 0.230480
O O16 0.832287 0.000000 0.944948
O O17 0.750000 0.250000 0.000000
O O18 0.691262 0.500000 0.483492
O O19 0.750000 0.250000 0.500000
#
# Coordination Sequence:
#
# PCOD8107788 Si02
#       7
#     8   8   8   8   8   8   8
#     4   8  15  31  55  81 107 140 181 229 278 323
#     4   9  19  38  62  84 111 149 189 227 278 337
#     4  10  21  38  57  79 113 153 192 234 283 335
#     4  11  22  36  59  89 115 144 188 237 278 328
#     4   9  17  35  58  79 110 149 189 231 282 336
#     4  11  20  33  56  83 114 148 188 233 279 331
#     4  11  23  40  61  84 116 153 186 226 281 339
#
# _framework density 19.031279000000001
#
# number of rings (size 3 to 8) (size 9 to 14) (size 15 to 20)
#    0.000    2.143    1.429    3.429    0.000    3.714 
#    2.571    0.714    0.000    0.000    0.000    0.000 
#    0.000    0.000    0.000    0.000    0.000    0.000 
#
# Total GULP energy -347090.524868 kJ/mol
# GULP energy per Si atom -12396.090174 kJ/mol
# Density = 1.898796 g / cm^3
# Si number density = 19.031279 Si / 1000 Ang^3
#
#
#
# Elastic Constant Matrix: (Units=GPa)
#
#
# Indices 1 2 3 4 5 6 
#
# 1 99.3899 35.2465 66.6502 -0.0001 6.2559 -0.0011
# 2 35.2465 65.8361 37.8049 -0.0001 6.9030 -0.0019
# 3 66.6502 37.8049 134.1800 -0.0001 4.7077 -0.0001
# 4 -0.0001 -0.0001 -0.0001 25.8779 0.0001 4.7902
# 5 6.2559 6.9030 4.7077 0.0001 30.3128 0.0000
# 6 -0.0011 -0.0019 -0.0001 4.7902 0.0000 27.6087
#
#
#
# Elastic Compliance Matrix: (Units=1/GPa)
#
#
# Indices 1 2 3 4 5 6 
#
# 1 0.016341 -0.004750 -0.006735 0.000000 -0.001245 0.000000
# 2 -0.004750 0.019847 -0.003125 0.000000 -0.003054 0.000001
# 3 -0.006735 -0.003125 0.011668 0.000000 0.000289 0.000000
# 4 0.000000 0.000000 0.000000 0.039925 0.000000 -0.006927
# 5 -0.001245 -0.003054 0.000289 0.000000 0.033897 0.000000
# 6 0.000000 0.000001 0.000000 -0.006927 0.000000 0.037422
#
#
# Mechanical properties :
#
#
# Convention : Reuss Voigt Hill
#
# Bulk Modulus (GPa) = 53.66063 64.31212 58.98637
# Shear Modulus (GPa) = 25.70265 27.40686 26.55475
#
# Velocity S-wave (km/s) = 3.67897 3.79898 3.73945
# Velocity P-wave (km/s) = 6.80468 7.28760 7.05028
#
# Compressibility (1/GPa) = 0.01863564
#
# Stress axis : x y z
#
# Youngs Moduli (GPa) = 61.19743 50.38493 85.70283
#
# Poissons Ratio (x) = 0.23935 0.57717
# Poissons Ratio (y) = 0.29072 0.26783
# Poissons Ratio (z) = 0.41214 0.15746
#
# Static dielectric constant tensor:
#      x y z
#    x 3.268040 0.000000 0.034210 
#    y 0.000000 3.457590 0.000000 
#    z 0.034210 0.000000 3.862130 
# 
# 
# High freq. dielectric constant tensor:
#      x y z
#    x 1.717760 0.000000 0.001970 
#    y 0.000000 1.719990 0.000000 
#    z 0.001970 0.000000 1.762430 
# 
# From -- ./inp_files/313700.got.cif
#   From: 2010.06.25/outbox.cif.g09.slc.cpg/sg12_157_cif.got.tgz:313700.got - 2010.06.28 00:19:55.
