data_PCOD8107061
_publ_section_title
;
Structure prediction by ZEFSAII (Michael W. Deem and Ramdas Pophale) SiO2 
 PCOD8107061
Probable space group: C 2/M
;
_chemical_formula_sum "Si O2"
_cell_formula_units_Z 48
_cell_length_a 29.131500
_cell_length_b 9.396812
_cell_length_c 18.467337
_cell_angle_alpha 90.000000
_cell_angle_beta 30.200952
_cell_angle_gamma 90.000000
_cell_volume 2542.993586
_symmetry_space_group_name_H-M "C 2/M"
_symmetry_group_IT_number 12
_symmetry_cell_setting 'monoclinic'
loop_
_space_group_symop_operation_xyz
x,y,z
-x,y,-z
-x,-y,-z
x,-y,z
1/2+x,1/2+y,z
1/2-x,1/2+y,-z
1/2-x,1/2-y,-z
1/2+x,1/2-y,z
loop_
_atom_site_type_symbol
_atom_site_label
_atom_site_fract_x
_atom_site_fract_y
_atom_site_fract_z
Si Si1 0.944979 0.840659 0.647977
Si Si2 0.543868 0.668347 0.656505
Si Si3 0.599959 0.833358 0.889768
Si Si4 0.724278 0.161275 0.104505
Si Si5 0.897351 0.161179 0.969926
Si Si6 0.258598 0.668351 0.563169
O O1 0.863376 0.734523 0.740852
O O2 0.000000 0.850678 0.500000
O O3 0.005963 0.777336 0.630790
O O4 0.909578 0.000000 0.717254
O O5 0.539077 0.500000 0.663356
O O6 0.647829 0.719294 0.525782
O O7 0.480171 0.725794 0.808814
O O8 0.620646 0.755537 0.935883
O O9 0.674158 0.786716 0.728967
O O10 0.606278 0.000000 0.896307
O O11 0.500000 0.787370 0.000000
O O12 0.805451 0.166103 0.050137
O O13 0.701076 0.000000 0.113968
O O14 0.750000 0.250000 0.000000
O O15 0.920264 0.000000 0.962572
O O16 0.258911 0.500000 0.547554
O O17 0.250000 0.750000 0.500000
#
# Coordination Sequence:
#
# PCOD8107061 Si02
#       6
#     8   8   8   8   8   8
#     4  10  21  37  60  85 115 155 197 238 286 346
#     4   9  18  36  56  80 111 146 189 232 275 332
#     4  10  22  38  57  86 118 143 181 235 286 338
#     4  11  22  38  59  85 119 155 196 243 289 341
#     4  10  21  37  58  82 112 148 190 236 279 337
#     4  10  21  37  59  82 111 148 184 228 279 335
#
# _framework density 18.875391
#
# number of rings (size 3 to 8) (size 9 to 14) (size 15 to 20)
#    0.000    2.000    1.667    1.500    2.333    2.667 
#    0.000    0.833    0.000    0.000    0.000    0.000 
#    0.000    0.000    0.000    0.000    0.000    0.000 
#
# Total GULP energy -297614.320728 kJ/mol
# GULP energy per Si atom -12400.596697 kJ/mol
# Density = 1.883243 g / cm^3
# Si number density = 18.875391 Si / 1000 Ang^3
#
#
#
# Elastic Constant Matrix: (Units=GPa)
#
#
# Indices 1 2 3 4 5 6 
#
# 1 91.3004 40.3105 65.4175 -0.0005 6.1941 -0.0003
# 2 40.3105 70.4291 46.2725 -0.0009 1.2169 -0.0008
# 3 65.4175 46.2725 147.2746 0.0006 -4.7421 -0.0011
# 4 -0.0005 -0.0009 0.0006 23.4163 -0.0005 1.9671
# 5 6.1941 1.2169 -4.7421 -0.0005 39.9110 0.0006
# 6 -0.0003 -0.0008 -0.0011 1.9671 0.0006 32.3062
#
#
#
# Elastic Compliance Matrix: (Units=1/GPa)
#
#
# Indices 1 2 3 4 5 6 
#
# 1 0.018554 -0.006392 -0.006344 0.000000 -0.003438 0.000000
# 2 -0.006392 0.020153 -0.003494 0.000001 -0.000038 0.000000
# 3 -0.006344 -0.003494 0.010782 -0.000001 0.002372 0.000000
# 4 0.000000 0.000001 -0.000001 0.042925 0.000000 -0.002614
# 5 -0.003438 -0.000038 0.002372 0.000000 0.025872 0.000000
# 6 0.000000 0.000000 0.000000 -0.002614 0.000000 0.031113
#
#
# Mechanical properties :
#
#
# Convention : Reuss Voigt Hill
#
# Bulk Modulus (GPa) = 58.72116 68.11168 63.41642
# Shear Modulus (GPa) = 26.66168 29.59361 28.12765
#
# Velocity S-wave (km/s) = 3.76242 3.96389 3.86447
# Velocity P-wave (km/s) = 7.07473 7.55733 7.32001
#
# Compressibility (1/GPa) = 0.01702964
#
# Stress axis : x y z
#
# Youngs Moduli (GPa) = 53.89801 49.61936 92.74732
#
# Poissons Ratio (x) = 0.31717 0.58836
# Poissons Ratio (y) = 0.34452 0.32406
# Poissons Ratio (z) = 0.34191 0.17337
#
# Static dielectric constant tensor:
#      x y z
#    x 3.442640 -0.000010 -0.139700 
#    y -0.000010 2.831670 0.000000 
#    z -0.139700 0.000000 3.723980 
# 
# 
# High freq. dielectric constant tensor:
#      x y z
#    x 1.740830 0.000000 -0.003050 
#    y 0.000000 1.713930 0.000000 
#    z -0.003050 0.000000 1.746880 
# 
# From -- ./inp_files/244719.got.cif
#   From: 2010.06.25/outbox.cif.g09.slc.cpg/sg12_123_cif.got.tgz:244719.got - 2010.06.28 00:19:55.
