data_PCOD8107180
_publ_section_title
;
Structure prediction by ZEFSAII (Michael W. Deem and Ramdas Pophale) SiO2 
 PCOD8107180
Probable space group: C 2/M
;
_chemical_formula_sum "Si O2"
_cell_formula_units_Z 40
_cell_length_a 15.158395
_cell_length_b 9.276306
_cell_length_c 30.024023
_cell_angle_alpha 90.000000
_cell_angle_beta 150.564723
_cell_angle_gamma 90.000000
_cell_volume 2074.759355
_symmetry_space_group_name_H-M "C 2/M"
_symmetry_group_IT_number 12
_symmetry_cell_setting 'monoclinic'
loop_
_space_group_symop_operation_xyz
x,y,z
-x,y,-z
-x,-y,-z
x,-y,z
1/2+x,1/2+y,z
1/2-x,1/2+y,-z
1/2-x,1/2-y,-z
1/2+x,1/2-y,z
loop_
_atom_site_type_symbol
_atom_site_label
_atom_site_fract_x
_atom_site_fract_y
_atom_site_fract_z
Si Si1 0.507004 0.669803 0.271294
Si Si2 0.416607 0.667887 0.593356
Si Si3 0.206885 0.328274 0.281322
Si Si4 0.879612 0.344589 0.086022
Si Si5 0.193360 0.840530 0.097297
O O1 0.499240 0.500000 0.257863
O O2 0.570531 0.704074 0.348931
O O3 0.649144 0.744208 0.300537
O O4 0.305181 0.733860 0.178184
O O5 0.386012 0.500000 0.572407
O O6 0.250000 0.750000 0.500000
O O7 0.593555 0.718514 0.644478
O O8 0.190155 0.500000 0.282437
O O9 0.080415 0.283557 0.183149
O O10 0.889445 0.500000 0.066432
O O11 0.803533 0.361308 0.101401
O O12 0.750000 0.250000 0.000000
O O13 0.167210 0.000000 0.108103
O O14 0.000000 0.771774 0.000000
#
# Coordination Sequence:
#
# PCOD8107180 Si02
#       5
#     8   8   8   8   8
#     4  10  21  37  58  86 116 145 187 242 287 328
#     4  10  23  41  61  86 114 148 191 238 290 342
#     4   9  20  40  59  78 114 156 188 226 283 349
#     4   9  18  31  50  76 107 143 182 223 269 325
#     4   9  19  35  53  77 111 151 189 224 274 340
#
# _framework density 19.279343999999998
#
# number of rings (size 3 to 8) (size 9 to 14) (size 15 to 20)
#    0.000    2.600    0.000    1.800    2.800    6.800 
#    0.000    4.000    0.000    0.000    0.000    0.000 
#    0.000    0.000    0.000    0.000    0.000    0.000 
#
# Total GULP energy -247866.440853 kJ/mol
# GULP energy per Si atom -12393.322043 kJ/mol
# Density = 1.923546 g / cm^3
# Si number density = 19.279344 Si / 1000 Ang^3
#
#
#
# Elastic Constant Matrix: (Units=GPa)
#
#
# Indices 1 2 3 4 5 6 
#
# 1 84.0764 52.4087 73.9956 -0.0016 6.1719 0.0005
# 2 52.4087 88.3007 80.6132 0.0003 -4.6190 -0.0001
# 3 73.9956 80.6132 195.8312 0.0053 12.6182 -0.0013
# 4 -0.0016 0.0003 0.0053 -70.2172 -0.0007 27.9718
# 5 6.1719 -4.6190 12.6182 -0.0007 32.7897 0.0001
# 6 0.0005 -0.0001 -0.0013 27.9718 0.0001 18.6151
#
#
#
# Elastic Compliance Matrix: (Units=1/GPa)
#
#
# Indices 1 2 3 4 5 6 
#
# 1 0.021532 -0.009248 -0.004085 -0.000001 -0.003784 0.000000
# 2 -0.009248 0.023164 -0.006525 0.000000 0.007515 0.000000
# 3 -0.004085 -0.006525 0.009583 0.000001 -0.003838 0.000000
# 4 -0.000001 0.000000 0.000001 -0.008909 0.000000 0.013387
# 5 -0.003784 0.007515 -0.003838 0.000000 0.033745 0.000000
# 6 0.000000 0.000000 0.000000 0.013387 0.000000 0.033604
#
#
# Mechanical properties :
#
#
# Convention : Reuss Voigt Hill
#
# Bulk Modulus (GPa) = 68.66983 86.91595 77.79289
# Shear Modulus (GPa) = 31.78820 6.98358 19.38589
#
# Velocity S-wave (km/s) = 4.06497 1.90530 3.17444
# Velocity P-wave (km/s) = 7.59787 7.07252 7.33990
#
# Compressibility (1/GPa) = 0.01456244
#
# Stress axis : x y z
#
# Youngs Moduli (GPa) = 46.44299 43.17020 104.34699
#
# Poissons Ratio (x) = 0.39924 0.42627
# Poissons Ratio (y) = 0.42951 0.68089
# Poissons Ratio (z) = 0.18973 0.28169
#
# Static dielectric constant tensor:
#      x y z
#    x 3.409920 -0.000050 0.470250 
#    y -0.000050 2.116810 -0.000050 
#    z 0.470250 -0.000050 4.028130 
# 
# 
# High freq. dielectric constant tensor:
#      x y z
#    x 1.742900 0.000000 0.010350 
#    y 0.000000 1.744320 0.000000 
#    z 0.010350 0.000000 1.757990 
# 
# From -- ./inp_files/211233.got.cif
#   From: 2010.06.25/outbox.cif.g09.slc.cpg/sg12_106_cif.got.tgz:211233.got - 2010.06.28 00:19:55.
