data_PCOD8107361
_publ_section_title
;
Structure prediction by ZEFSAII (Michael W. Deem and Ramdas Pophale) SiO2 
 PCOD8107361
Probable space group: C 2/M
;
_chemical_formula_sum "Si O2"
_cell_formula_units_Z 64
_cell_length_a 23.499892
_cell_length_b 9.069979
_cell_length_c 29.731768
_cell_angle_alpha 90.000000
_cell_angle_beta 150.445764
_cell_angle_gamma 90.000000
_cell_volume 3125.773646
_symmetry_space_group_name_H-M "C 2/M"
_symmetry_group_IT_number 12
_symmetry_cell_setting 'monoclinic'
loop_
_space_group_symop_operation_xyz
x,y,z
-x,y,-z
-x,-y,-z
x,-y,z
1/2+x,1/2+y,z
1/2-x,1/2+y,-z
1/2-x,1/2-y,-z
1/2+x,1/2-y,z
loop_
_atom_site_type_symbol
_atom_site_label
_atom_site_fract_x
_atom_site_fract_y
_atom_site_fract_z
Si Si1 0.225562 0.171561 0.030444
Si Si2 0.575541 0.662438 0.394889
Si Si3 0.330219 0.826322 0.696754
Si Si4 0.464932 0.672565 0.862341
Si Si5 0.857002 0.675992 0.209380
Si Si6 0.373812 0.170301 0.396143
Si Si7 0.239662 0.829538 0.217475
Si Si8 0.251625 0.161602 0.439082
O O1 0.311452 0.224942 0.128945
O O2 0.241251 0.000000 0.031462
O O3 0.250000 0.250000 0.000000
O O4 0.098725 0.204124 0.963749
O O5 0.531735 0.500000 0.380739
O O6 0.478785 0.747116 0.300326
O O7 0.622171 0.760670 0.468690
O O8 0.688287 0.638330 0.442389
O O9 0.436528 0.758086 0.797066
O O10 0.208556 0.777845 0.633325
O O11 0.333940 0.761909 0.649285
O O12 0.343872 0.000000 0.705133
O O13 0.439841 0.500000 0.837542
O O14 0.380579 0.734560 0.844208
O O15 0.871411 0.500000 0.222188
O O16 0.770811 0.735324 0.189729
O O17 0.500000 0.212734 0.500000
O O18 0.348894 0.199961 0.325948
O O19 0.345294 0.000000 0.387305
O O20 0.217167 0.000000 0.194950
O O21 0.274327 0.000000 0.432654
#
# Coordination Sequence:
#
# PCOD8107361 Si02
#       8
#     8   8   8   8   8   8   8   8
#     4  10  23  40  61  89 118 150 195 245 299 357
#     4  10  22  38  56  83 115 151 194 241 291 347
#     4  11  22  34  54  85 116 149 192 243 297 346
#     4   9  19  39  61  82 112 154 200 243 289 350
#     4  10  21  37  59  89 119 152 191 242 303 354
#     4   9  18  33  54  81 114 155 199 234 281 348
#     4   8  16  33  57  84 113 148 194 241 284 341
#     4  10  21  38  58  79 111 156 201 239 285 349
#
# _framework density 20.474930000000001
#
# number of rings (size 3 to 8) (size 9 to 14) (size 15 to 20)
#    0.000    2.375    0.000    2.625    3.500    3.250 
#    0.000    5.000    0.000    0.000    0.000    5.250 
#    0.000    0.000    0.000    0.000    0.000    0.000 
#
# Total GULP energy -396566.819754 kJ/mol
# GULP energy per Si atom -12392.713117 kJ/mol
# Density = 2.042833 g / cm^3
# Si number density = 20.474930 Si / 1000 Ang^3
#
#
#
# Elastic Constant Matrix: (Units=GPa)
#
#
# Indices 1 2 3 4 5 6 
#
# 1 76.3013 18.2250 32.4175 -0.0002 -11.2374 0.0000
# 2 18.2250 96.2733 45.1198 0.0004 -4.5499 0.0003
# 3 32.4175 45.1198 117.8447 0.0014 -1.8386 0.0004
# 4 -0.0002 0.0004 0.0014 23.7160 0.0007 -1.4749
# 5 -11.2374 -4.5499 -1.8386 0.0007 27.2513 0.0001
# 6 0.0000 0.0003 0.0004 -1.4749 0.0001 23.7998
#
#
#
# Elastic Compliance Matrix: (Units=1/GPa)
#
#
# Indices 1 2 3 4 5 6 
#
# 1 0.015894 -0.000871 -0.003943 0.000000 0.006143 0.000000
# 2 -0.000871 0.012794 -0.004636 0.000000 0.001464 0.000000
# 3 -0.003943 -0.004636 0.011320 -0.000001 -0.001636 0.000000
# 4 0.000000 0.000000 -0.000001 0.042329 -0.000001 0.002623
# 5 0.006143 0.001464 -0.001636 -0.000001 0.039363 0.000000
# 6 0.000000 0.000000 0.000000 0.002623 0.000000 0.042180
#
#
# Mechanical properties :
#
#
# Convention : Reuss Voigt Hill
#
# Bulk Modulus (GPa) = 47.37486 53.54931 50.46208
# Shear Modulus (GPa) = 26.34154 27.93054 27.13604
#
# Velocity S-wave (km/s) = 3.59071 3.69742 3.64446
# Velocity P-wave (km/s) = 6.35446 6.66621 6.51220
#
# Compressibility (1/GPa) = 0.02110824
#
# Stress axis : x y z
#
# Youngs Moduli (GPa) = 62.91774 78.16227 88.33954
#
# Poissons Ratio (x) = 0.06804 0.34833
# Poissons Ratio (y) = 0.05477 0.40956
# Poissons Ratio (z) = 0.24809 0.36237
#
# Static dielectric constant tensor:
#      x y z
#    x 3.800240 0.000000 -0.110700 
#    y 0.000000 3.687700 0.000000 
#    z -0.110700 0.000000 3.779240 
# 
# 
# High freq. dielectric constant tensor:
#      x y z
#    x 1.794360 0.000000 -0.004070 
#    y 0.000000 1.780250 0.000000 
#    z -0.004070 0.000000 1.801410 
# 
# From -- ./inp_files/382514.got.cif
#   From: 2010.06.25/outbox.cif.g09.slc.cpg/sg12_192_cif.got.tgz:382514.got - 2010.06.28 00:19:55.
