data_PCOD8107832
_publ_section_title
;
Structure prediction by ZEFSAII (Michael W. Deem and Ramdas Pophale) SiO2 
 PCOD8107832
Probable space group: C 2/M
;
_chemical_formula_sum "Si O2"
_cell_formula_units_Z 36
_cell_length_a 5.090647
_cell_length_b 31.011507
_cell_length_c 12.752443
_cell_angle_alpha 90.000000
_cell_angle_beta 102.624877
_cell_angle_gamma 90.000000
_cell_volume 1964.535270
_symmetry_space_group_name_H-M "C 2/M"
_symmetry_group_IT_number 12
_symmetry_cell_setting 'monoclinic'
loop_
_space_group_symop_operation_xyz
x,y,z
-x,y,-z
-x,-y,-z
x,-y,z
1/2+x,1/2+y,z
1/2-x,1/2+y,-z
1/2-x,1/2-y,-z
1/2+x,1/2-y,z
loop_
_atom_site_type_symbol
_atom_site_label
_atom_site_fract_x
_atom_site_fract_y
_atom_site_fract_z
Si Si1 0.485349 0.271362 0.376428
Si Si2 0.781027 0.450368 0.069850
Si Si3 0.495135 0.084735 0.701597
Si Si4 0.470112 0.629402 0.619704
Si Si5 0.295791 0.000000 0.575220
O O1 0.500000 0.259032 0.500000
O O2 0.676647 0.240602 0.321692
O O3 0.574066 0.320242 0.363103
O O4 0.756292 0.500000 0.103349
O O5 0.851623 0.421977 0.176369
O O6 0.500000 0.433300 0.000000
O O7 0.000000 0.444095 0.000000
O O8 0.250238 0.117591 0.700575
O O9 0.347937 0.041443 0.651021
O O10 0.711911 0.102922 0.637738
O O11 0.500000 0.618417 0.500000
O O12 0.500000 0.000000 0.500000
O O13 0.000000 0.000000 0.500000
#
# Coordination Sequence:
#
# PCOD8107832 Si02
#       5
#     8   8   8   8   4
#     4   9  17  31  50  73 103 142 179 212 256 309
#     4  10  21  38  58  76  98 133 183 237 283 311
#     4  12  22  37  53  78 108 144 185 221 266 314
#     4  11  22  34  53  79 115 148 177 217 260 314
#     4  12  24  36  50  72 108 152 184 206 241 312
#
# _framework density 18.324946000000001
#
# number of rings (size 3 to 8) (size 9 to 14) (size 15 to 20)
#    0.000    1.333    1.111    6.667    0.000    3.556 
#    0.000    0.000    0.000    0.000    0.000    0.000 
#    0.000   62.222    0.000    0.000    0.000    0.000 
#
# Total GULP energy -223186.107915 kJ/mol
# GULP energy per Si atom -12399.228218 kJ/mol
# Density = 1.828324 g / cm^3
# Si number density = 18.324946 Si / 1000 Ang^3
#
#
#
# Elastic Constant Matrix: (Units=GPa)
#
#
# Indices 1 2 3 4 5 6 
#
# 1 149.8318 47.4479 29.0766 0.0000 20.0461 0.0000
# 2 47.4479 76.2181 29.4179 0.0000 0.9833 0.0000
# 3 29.0766 29.4179 71.4054 0.0000 17.5509 0.0000
# 4 0.0000 0.0000 0.0000 10.1035 0.0000 5.7247
# 5 20.0461 0.9833 17.5509 0.0000 25.8535 0.0000
# 6 0.0000 0.0000 0.0000 5.7247 0.0000 34.4236
#
#
#
# Elastic Compliance Matrix: (Units=1/GPa)
#
#
# Indices 1 2 3 4 5 6 
#
# 1 0.009471 -0.005962 0.000419 0.000000 -0.007401 0.000000
# 2 -0.005962 0.019808 -0.008023 0.000000 0.009316 0.000000
# 3 0.000419 -0.008023 0.020577 0.000000 -0.013989 0.000000
# 4 0.000000 0.000000 0.000000 0.109272 0.000000 -0.018172
# 5 -0.007401 0.009316 -0.013989 0.000000 0.053560 0.000000
# 6 0.000000 0.000000 0.000000 -0.018172 0.000000 0.032072
#
#
# Mechanical properties :
#
#
# Convention : Reuss Voigt Hill
#
# Bulk Modulus (GPa) = 44.00458 56.59335 50.29897
# Shear Modulus (GPa) = 17.89110 26.84365 22.36737
#
# Velocity S-wave (km/s) = 3.12801 3.83151 3.49749
# Velocity P-wave (km/s) = 6.09192 7.10804 6.61951
#
# Compressibility (1/GPa) = 0.02272491
#
# Stress axis : x y z
#
# Youngs Moduli (GPa) = 105.58331 50.48414 48.59677
#
# Poissons Ratio (x) = 0.30100 -0.02035
# Poissons Ratio (y) = 0.62951 0.38987
# Poissons Ratio (z) = -0.04422 0.40501
#
# Static dielectric constant tensor:
#      x y z
#    x 3.734110 0.000000 0.123660 
#    y 0.000000 3.008610 0.000000 
#    z 0.123660 0.000000 3.075960 
# 
# 
# High freq. dielectric constant tensor:
#      x y z
#    x 1.741520 0.000000 0.008440 
#    y 0.000000 1.703500 0.000000 
#    z 0.008440 0.000000 1.667510 
# 
# From -- ./inp_files/115376.got.cif
#   From: 2010.06.25/outbox.cif.g09.slc.cpg/sg12_58_cif.got.tgz:115376.got - 2010.06.28 00:19:55.
