data_PCOD8107195
_publ_section_title
;
Structure prediction by ZEFSAII (Michael W. Deem and Ramdas Pophale) SiO2 
 PCOD8107195
Probable space group: C 2/M
;
_chemical_formula_sum "Si O2"
_cell_formula_units_Z 64
_cell_length_a 9.128959
_cell_length_b 28.466194
_cell_length_c 14.041229
_cell_angle_alpha 90.000000
_cell_angle_beta 59.009087
_cell_angle_gamma 90.000000
_cell_volume 3127.971286
_symmetry_space_group_name_H-M "C 2/M"
_symmetry_group_IT_number 12
_symmetry_cell_setting 'monoclinic'
loop_
_space_group_symop_operation_xyz
x,y,z
-x,y,-z
-x,-y,-z
x,-y,z
1/2+x,1/2+y,z
1/2-x,1/2+y,-z
1/2-x,1/2-y,-z
1/2+x,1/2-y,z
loop_
_atom_site_type_symbol
_atom_site_label
_atom_site_fract_x
_atom_site_fract_y
_atom_site_fract_z
Si Si1 0.919064 0.552229 0.929816
Si Si2 0.151663 0.389465 0.522646
Si Si3 0.288449 0.052193 0.320920
Si Si4 0.594563 0.786526 0.566271
Si Si5 0.270648 0.782823 0.804573
Si Si6 0.513673 0.370526 0.384623
Si Si7 0.683769 0.362609 0.977017
Si Si8 0.578652 0.694161 0.187888
O O1 0.839364 0.500000 0.971260
O O2 0.777066 0.588063 0.943208
O O3 0.062400 0.549972 0.803480
O O4 0.000000 0.571155 0.000000
O O5 0.131583 0.429980 0.607002
O O6 0.159797 0.338466 0.571930
O O7 0.334383 0.392902 0.408523
O O8 0.000000 0.395888 0.500000
O O9 0.145813 0.087257 0.329787
O O10 0.210365 0.000000 0.362041
O O11 0.500000 0.791764 0.500000
O O12 0.750000 0.750000 0.500000
O O13 0.453127 0.773815 0.691551
O O14 0.279558 0.825679 0.875686
O O15 0.272363 0.734064 0.862361
O O16 0.107066 0.787851 0.789625
O O17 0.500000 0.353740 0.500000
O O18 0.558080 0.326834 0.301337
O O19 0.500000 0.374039 0.000000
O O20 0.662642 0.344249 0.091249
#
# Coordination Sequence:
#
# PCOD8107195 Si02
#       8
#     8   8   8   8   8   8   8   8
#     4  10  21  39  63  89 115 148 195 248 301 358
#     4  10  21  37  58  86 120 155 194 243 298 353
#     4  10  22  40  62  87 115 152 197 244 300 363
#     4  11  22  36  55  82 117 157 198 240 288 342
#     4  11  23  39  60  86 122 160 201 245 294 353
#     4  10  22  39  60  85 120 159 201 247 297 355
#     4  10  23  41  62  88 121 157 197 247 303 360
#     4  11  23  40  59  87 120 159 203 246 295 356
#
# _framework density 20.460546000000001
#
# number of rings (size 3 to 8) (size 9 to 14) (size 15 to 20)
#    0.000    1.625    0.000    4.875    0.000   11.750 
#    0.000    0.625    0.000    3.750    0.000    0.000 
#    0.000    0.000    0.000    0.000    0.000    0.000 
#
# Total GULP energy -396605.352604 kJ/mol
# GULP energy per Si atom -12393.917269 kJ/mol
# Density = 2.041398 g / cm^3
# Si number density = 20.460546 Si / 1000 Ang^3
#
#
#
# Elastic Constant Matrix: (Units=GPa)
#
#
# Indices 1 2 3 4 5 6 
#
# 1 98.0228 68.4627 35.9606 0.0000 -8.4212 0.0000
# 2 68.4627 145.7061 44.3198 0.0000 -0.7259 0.0000
# 3 35.9606 44.3198 81.4393 0.0000 -0.4524 0.0000
# 4 0.0000 0.0000 0.0000 26.4933 0.0000 -7.4714
# 5 -8.4212 -0.7259 -0.4524 0.0000 27.9054 0.0000
# 6 0.0000 0.0000 0.0000 -7.4714 0.0000 37.1171
#
#
#
# Elastic Compliance Matrix: (Units=1/GPa)
#
#
# Indices 1 2 3 4 5 6 
#
# 1 0.016619 -0.006664 -0.003685 0.000000 0.004782 0.000000
# 2 -0.006664 0.010897 -0.002998 0.000000 -0.001776 0.000000
# 3 -0.003685 -0.002998 0.015532 0.000000 -0.000938 0.000000
# 4 0.000000 0.000000 0.000000 0.040017 0.000000 0.008055
# 5 0.004782 -0.001776 -0.000938 0.000000 0.037217 0.000000
# 6 0.000000 0.000000 0.000000 0.008055 0.000000 0.028563
#
#
# Mechanical properties :
#
#
# Convention : Reuss Voigt Hill
#
# Bulk Modulus (GPa) = 61.14326 69.18383 65.16355
# Shear Modulus (GPa) = 27.62568 30.06481 28.84525
#
# Velocity S-wave (km/s) = 3.67848 3.83744 3.75880
# Velocity P-wave (km/s) = 6.92748 7.31582 7.12430
#
# Compressibility (1/GPa) = 0.01635503
#
# Stress axis : x y z
#
# Youngs Moduli (GPa) = 60.17288 91.76623 64.38127
#
# Poissons Ratio (x) = 0.61152 0.23725
# Poissons Ratio (y) = 0.40099 0.19300
# Poissons Ratio (z) = 0.22175 0.27509
#
# Static dielectric constant tensor:
#      x y z
#    x 3.684580 0.000000 -0.003580 
#    y 0.000000 4.117510 0.000000 
#    z -0.003580 0.000000 3.745780 
# 
# 
# High freq. dielectric constant tensor:
#      x y z
#    x 1.803160 0.000000 -0.000600 
#    y 0.000000 1.804910 0.000000 
#    z -0.000600 0.000000 1.806700 
# 
# From -- ./inp_files/201243.got.cif
#   From: 2010.06.25/outbox.cif.g09.slc.cpg/sg12_101_cif.got.tgz:201243.got - 2010.06.28 00:19:55.
