data_PCOD8107151
_publ_section_title
;
Structure prediction by ZEFSAII (Michael W. Deem and Ramdas Pophale) SiO2 
 PCOD8107151
Probable space group: C 2/M
;
_chemical_formula_sum "Si O2"
_cell_formula_units_Z 64
_cell_length_a 28.538683
_cell_length_b 9.116575
_cell_length_c 23.933636
_cell_angle_alpha 90.000000
_cell_angle_beta 146.996687
_cell_angle_gamma 90.000000
_cell_volume 3391.733725
_symmetry_space_group_name_H-M "C 2/M"
_symmetry_group_IT_number 12
_symmetry_cell_setting 'monoclinic'
loop_
_space_group_symop_operation_xyz
x,y,z
-x,y,-z
-x,-y,-z
x,-y,z
1/2+x,1/2+y,z
1/2-x,1/2+y,-z
1/2-x,1/2-y,-z
1/2+x,1/2-y,z
loop_
_atom_site_type_symbol
_atom_site_label
_atom_site_fract_x
_atom_site_fract_y
_atom_site_fract_z
Si Si1 0.099235 0.667469 0.493417
Si Si2 0.667804 0.827500 0.892410
Si Si3 0.670380 0.674043 0.670379
Si Si4 0.099236 0.667469 0.705054
Si Si5 0.500000 0.825098 0.212174
Si Si6 0.999999 0.674572 0.087389
Si Si7 0.636522 0.174281 0.136522
Si Si8 0.832197 0.327500 0.556803
O O1 0.116315 0.500000 0.528755
O O2 0.121319 0.772435 0.566559
O O3 0.157794 0.709810 0.498775
O O4 1.000000 0.688305 0.376889
O O5 0.657796 0.790191 0.816815
O O6 0.584485 0.765831 0.841306
O O7 0.677275 0.000000 0.911303
O O8 0.750000 0.750000 0.000000
O O9 0.669904 0.500000 0.669903
O O10 0.621319 0.727564 0.676078
O O11 0.767333 0.738824 0.767333
O O12 0.116315 0.500000 0.703874
O O13 0.499999 0.760067 0.149477
O O14 0.584486 0.765831 0.327664
O O15 0.500000 0.000000 0.212567
O O16 0.999998 0.500000 0.089080
O O17 0.085503 0.729558 0.140505
O O18 0.914498 0.729562 0.969499
O O19 0.640150 0.000000 0.140149
O O20 0.822724 0.500000 0.556751
O O21 0.750000 0.250000 0.500000
#
# Coordination Sequence:
#
# PCOD8107151 Si02
#       8
#     8   8   8   8   8   8   8   8
#     4  10  21  40  59  76 106 151 192 223 268 339
#     4  10  21  37  58  85 113 146 189 234 278 332
#     4  11  23  34  54  88 113 134 178 241 291 323
#     4  10  21  40  59  76 106 151 192 223 268 339
#     4   9  17  32  56  80 105 144 190 227 267 329
#     4   8  14  27  48  71 104 140 170 210 263 318
#     4   8  16  29  44  75 111 136 165 212 272 325
#     4  10  21  37  58  85 113 146 189 234 278 332
#
# _framework density 18.869406000000001
#
# number of rings (size 3 to 8) (size 9 to 14) (size 15 to 20)
#    0.000    2.500    1.250    1.500    3.500    3.000 
#    0.000    0.625    0.000    0.000    0.000    7.000 
#    0.000    0.000    0.000    0.000    0.000    0.000 
#
# Total GULP energy -396774.536358 kJ/mol
# GULP energy per Si atom -12399.204261 kJ/mol
# Density = 1.882646 g / cm^3
# Si number density = 18.869406 Si / 1000 Ang^3
#
#
#
# Elastic Constant Matrix: (Units=GPa)
#
#
# Indices 1 2 3 4 5 6 
#
# 1 136.6720 41.9520 69.0708 0.0000 -7.5441 0.0000
# 2 41.9520 42.7528 38.6786 0.0000 -3.9341 0.0000
# 3 69.0708 38.6786 128.8341 0.0000 -1.8759 0.0000
# 4 0.0000 0.0000 0.0000 24.3026 0.0000 5.2818
# 5 -7.5441 -3.9341 -1.8759 0.0000 37.4737 0.0000
# 6 0.0000 0.0000 0.0000 5.2818 0.0000 19.9080
#
#
#
# Elastic Compliance Matrix: (Units=1/GPa)
#
#
# Indices 1 2 3 4 5 6 
#
# 1 0.011806 -0.007897 -0.003939 0.000000 0.001351 0.000000
# 2 -0.007897 0.037711 -0.007058 0.000000 0.002016 0.000000
# 3 -0.003939 -0.007058 0.011979 0.000000 -0.000934 0.000000
# 4 0.000000 0.000000 0.000000 0.043666 0.000000 -0.011585
# 5 0.001351 0.002016 -0.000934 0.000000 0.027122 0.000000
# 6 0.000000 0.000000 0.000000 -0.011585 0.000000 0.053305
#
#
# Mechanical properties :
#
#
# Convention : Reuss Voigt Hill
#
# Bulk Modulus (GPa) = 42.18145 67.51796 54.84971
# Shear Modulus (GPa) = 21.61888 26.90736 24.26312
#
# Velocity S-wave (km/s) = 3.38851 3.78031 3.58976
# Velocity P-wave (km/s) = 6.14103 7.41038 6.80536
#
# Compressibility (1/GPa) = 0.02370710
#
# Stress axis : x y z
#
# Youngs Moduli (GPa) = 84.70264 26.51770 83.47844
#
# Poissons Ratio (x) = 0.20941 0.32882
# Poissons Ratio (y) = 0.66890 0.58922
# Poissons Ratio (z) = 0.33364 0.18717
#
# Static dielectric constant tensor:
#      x y z
#    x 3.656610 0.000000 0.011530 
#    y 0.000000 2.981390 0.000000 
#    z 0.011530 0.000000 3.666200 
# 
# 
# High freq. dielectric constant tensor:
#      x y z
#    x 1.746690 0.000000 -0.002230 
#    y 0.000000 1.684510 0.000000 
#    z -0.002230 0.000000 1.744830 
# 
# From -- ./inp_files/353428.got.cif
#   From: 2010.06.25/outbox.cif.g09.slc.cpg/sg12_177_cif.got.tgz:353428.got - 2010.06.28 00:19:55.
