data_PCOD8107791
_publ_section_title
;
Structure prediction by ZEFSAII (Michael W. Deem and Ramdas Pophale) SiO2 
 PCOD8107791
Probable space group: C 2/M
;
_chemical_formula_sum "Si O2"
_cell_formula_units_Z 48
_cell_length_a 14.130033
_cell_length_b 8.785351
_cell_length_c 22.204156
_cell_angle_alpha 90.000000
_cell_angle_beta 108.265613
_cell_angle_gamma 90.000000
_cell_volume 2617.481133
_symmetry_space_group_name_H-M "C 2/M"
_symmetry_group_IT_number 12
_symmetry_cell_setting 'monoclinic'
loop_
_space_group_symop_operation_xyz
x,y,z
-x,y,-z
-x,-y,-z
x,-y,z
1/2+x,1/2+y,z
1/2-x,1/2+y,-z
1/2-x,1/2-y,-z
1/2+x,1/2-y,z
loop_
_atom_site_type_symbol
_atom_site_label
_atom_site_fract_x
_atom_site_fract_y
_atom_site_fract_z
Si Si1 0.948402 0.678613 0.396332
Si Si2 0.309745 0.680355 0.827051
Si Si3 0.985240 0.677956 0.170120
Si Si4 0.380506 0.320841 0.261223
Si Si5 0.648760 0.176766 0.500207
Si Si6 0.282018 0.175654 0.067904
O O1 0.931891 0.500000 0.378780
O O2 0.918292 0.783555 0.335034
O O3 0.882614 0.734075 0.439859
O O4 0.063627 0.712454 0.434318
O O5 0.294652 0.500000 0.817521
O O6 0.420888 0.726386 0.832904
O O7 0.233056 0.763128 0.766919
O O8 0.285675 0.735521 0.890283
O O9 0.011746 0.500000 0.178968
O O10 0.951894 0.733550 0.228984
O O11 0.897622 0.709952 0.104734
O O12 0.386019 0.500000 0.250103
O O13 0.750000 0.250000 0.500000
O O14 0.666644 0.000000 0.508367
O O15 0.262371 0.000000 0.055640
O O16 0.250000 0.250000 0.000000
#
# Coordination Sequence:
#
# PCOD8107791 Si02
#       6
#     8   8   8   8   8   8
#     4   9  19  37  55  75 107 144 176 215 266 320
#     4  10  21  38  57  80 109 143 181 224 269 318
#     4  10  21  38  57  80 109 143 181 224 269 318
#     4  11  22  36  56  82 109 143 181 222 271 322
#     4   9  19  35  56  78 104 139 177 217 265 314
#     4   9  20  36  55  79 109 142 178 220 267 316
#
# _framework density 18.338241
#
# number of rings (size 3 to 8) (size 9 to 14) (size 15 to 20)
#    0.000    2.333    0.000    4.500    0.000    7.333 
#    0.000    8.333    0.000    0.000    0.000    0.000 
#    0.000    0.000    0.000    0.000    0.000    0.000 
#
# Total GULP energy -297615.364572 kJ/mol
# GULP energy per Si atom -12400.640191 kJ/mol
# Density = 1.829650 g / cm^3
# Si number density = 18.338241 Si / 1000 Ang^3
#
#
#
# Elastic Constant Matrix: (Units=GPa)
#
#
# Indices 1 2 3 4 5 6 
#
# 1 107.6147 20.8508 30.6962 0.0000 3.4423 0.0000
# 2 20.8508 55.1725 38.3954 0.0000 4.8762 0.0000
# 3 30.6962 38.3954 116.9085 0.0000 4.8696 0.0000
# 4 0.0000 0.0000 0.0000 34.5603 0.0000 0.2571
# 5 3.4423 4.8762 4.8696 0.0000 14.0980 0.0000
# 6 0.0000 0.0000 0.0000 0.2571 0.0000 37.1745
#
#
#
# Elastic Compliance Matrix: (Units=1/GPa)
#
#
# Indices 1 2 3 4 5 6 
#
# 1 0.010341 -0.002539 -0.001839 0.000000 -0.001012 0.000000
# 2 -0.002539 0.024553 -0.007172 0.000000 -0.005395 0.000000
# 3 -0.001839 -0.007172 0.011435 0.000000 -0.001020 0.000000
# 4 0.000000 0.000000 0.000000 0.028936 0.000000 -0.000200
# 5 -0.001012 -0.005395 -0.001020 0.000000 0.073397 0.000000
# 6 0.000000 0.000000 0.000000 -0.000200 0.000000 0.026902
#
#
# Mechanical properties :
#
#
# Convention : Reuss Voigt Hill
#
# Bulk Modulus (GPa) = 43.05199 51.06449 47.05824
# Shear Modulus (GPa) = 24.22394 29.81679 27.02037
#
# Velocity S-wave (km/s) = 3.63843 4.03666 3.84271
# Velocity P-wave (km/s) = 6.41705 7.04504 6.73836
#
# Compressibility (1/GPa) = 0.02322773
#
# Stress axis : x y z
#
# Youngs Moduli (GPa) = 96.69949 40.72890 87.45329
#
# Poissons Ratio (x) = 0.10340 0.16086
# Poissons Ratio (y) = 0.24550 0.62724
# Poissons Ratio (z) = 0.17786 0.29212
#
# Static dielectric constant tensor:
#      x y z
#    x 3.428320 0.000000 -0.096260 
#    y 0.000000 3.341830 0.000000 
#    z -0.096260 0.000000 3.598970 
# 
# 
# High freq. dielectric constant tensor:
#      x y z
#    x 1.715510 0.000000 0.000710 
#    y 0.000000 1.713110 0.000000 
#    z 0.000710 0.000000 1.714220 
# 
# From -- ./inp_files/308299.got.cif
#   From: 2010.06.25/outbox.cif.g09.slc.cpg/sg12_155_cif.got.tgz:308299.got - 2010.06.28 00:19:55.
