data_PCOD8107889
_publ_section_title
;
Structure prediction by ZEFSAII (Michael W. Deem and Ramdas Pophale) SiO2 
 PCOD8107889
Probable space group: C 2/M
;
_chemical_formula_sum "Si O2"
_cell_formula_units_Z 56
_cell_length_a 26.909718
_cell_length_b 9.173156
_cell_length_c 11.671370
_cell_angle_alpha 90.000000
_cell_angle_beta 104.469223
_cell_angle_gamma 90.000000
_cell_volume 2789.662209
_symmetry_space_group_name_H-M "C 2/M"
_symmetry_group_IT_number 12
_symmetry_cell_setting 'monoclinic'
loop_
_space_group_symop_operation_xyz
x,y,z
-x,y,-z
-x,-y,-z
x,-y,z
1/2+x,1/2+y,z
1/2-x,1/2+y,-z
1/2-x,1/2-y,-z
1/2+x,1/2-y,z
loop_
_atom_site_type_symbol
_atom_site_label
_atom_site_fract_x
_atom_site_fract_y
_atom_site_fract_z
Si Si1 0.802839 0.831242 0.008157
Si Si2 0.898208 0.167063 0.216558
Si Si3 0.495300 0.329758 0.125903
Si Si4 0.623104 0.170974 0.577740
Si Si5 0.324623 0.834928 0.801226
Si Si6 0.916783 0.331311 0.691897
Si Si7 0.227412 0.832515 0.594669
O O1 0.831274 0.771354 0.912097
O O2 0.790497 0.000000 0.982563
O O3 0.750000 0.750000 0.000000
O O4 0.840993 0.806775 0.136257
O O5 0.938733 0.205484 0.140442
O O6 0.908505 0.272426 0.330508
O O7 0.905069 0.000000 0.260300
O O8 0.507208 0.500000 0.130158
O O9 0.536096 0.259171 0.233846
O O10 0.500000 0.264796 0.000000
O O11 0.590012 0.205242 0.445862
O O12 0.675957 0.257747 0.607059
O O13 0.634885 0.000000 0.594623
O O14 0.364370 0.786604 0.725880
O O15 0.267083 0.822349 0.721604
O O16 0.335795 0.000000 0.847708
O O17 0.929170 0.500000 0.717712
O O18 0.250000 0.750000 0.500000
O O19 0.216926 0.000000 0.554839
#
# Coordination Sequence:
#
# PCOD8107889 Si02
#       7
#     8   8   8   8   8   8   8
#     4  11  23  39  60  87 119 156 198 244 296 355
#     4  10  23  42  61  86 122 159 197 248 305 356
#     4  10  22  42  66  90 117 152 200 251 299 359
#     4  11  23  40  60  88 124 160 203 247 296 361
#     4  10  21  38  58  84 121 157 195 247 297 350
#     4  10  22  40  60  87 121 154 195 247 300 354
#     4  11  21  36  58  86 123 163 201 244 295 351
#
# _framework density 20.074114999999999
#
# number of rings (size 3 to 8) (size 9 to 14) (size 15 to 20)
#    0.000    1.571    1.429    3.000    0.000   10.000 
#    0.000    2.857    0.000    0.000    0.000    0.000 
#    0.000    0.000    0.000    0.000    0.000    0.000 
#
# Total GULP energy -347339.137848 kJ/mol
# GULP energy per Si atom -12404.969209 kJ/mol
# Density = 2.002843 g / cm^3
# Si number density = 20.074115 Si / 1000 Ang^3
#
#
#
# Elastic Constant Matrix: (Units=GPa)
#
#
# Indices 1 2 3 4 5 6 
#
# 1 101.2910 49.4692 47.3264 0.0000 0.6092 0.0000
# 2 49.4692 104.7420 65.4937 0.0000 -3.5681 0.0000
# 3 47.3264 65.4937 118.8627 0.0000 -13.3458 0.0000
# 4 0.0000 0.0000 0.0000 38.9055 0.0000 -2.8777
# 5 0.6092 -3.5681 -13.3458 0.0000 37.2738 0.0000
# 6 0.0000 0.0000 0.0000 -2.8777 0.0000 36.9890
#
#
#
# Elastic Compliance Matrix: (Units=1/GPa)
#
#
# Indices 1 2 3 4 5 6 
#
# 1 0.013537 -0.004515 -0.003100 0.000000 -0.001763 0.000000
# 2 -0.004515 0.016157 -0.007213 0.000000 -0.000962 0.000000
# 3 -0.003100 -0.007213 0.014117 0.000000 0.004415 0.000000
# 4 0.000000 0.000000 0.000000 0.025852 0.000000 0.002011
# 5 -0.001763 -0.000962 0.004415 0.000000 0.028346 0.000000
# 6 0.000000 0.000000 0.000000 0.002011 0.000000 0.027192
#
#
# Mechanical properties :
#
#
# Convention : Reuss Voigt Hill
#
# Bulk Modulus (GPa) = 70.64487 72.16382 71.40434
# Shear Modulus (GPa) = 31.33329 33.47410 32.40369
#
# Velocity S-wave (km/s) = 3.95508 4.08796 4.02207
# Velocity P-wave (km/s) = 7.49168 7.63601 7.56419
#
# Compressibility (1/GPa) = 0.01415531
#
# Stress axis : x y z
#
# Youngs Moduli (GPa) = 73.87365 61.89258 70.83471
#
# Poissons Ratio (x) = 0.27945 0.21958
# Poissons Ratio (y) = 0.33354 0.51092
# Poissons Ratio (z) = 0.22901 0.44642
#
# Static dielectric constant tensor:
#      x y z
#    x 3.935900 0.000000 -0.231230 
#    y 0.000000 3.748690 0.000000 
#    z -0.231230 0.000000 3.793120 
# 
# 
# High freq. dielectric constant tensor:
#      x y z
#    x 1.786850 0.000000 -0.006950 
#    y 0.000000 1.784220 0.000000 
#    z -0.006950 0.000000 1.790910 
# 
# From -- ./inp_files/181003.got.cif
#   From: 2010.06.25/outbox.cif.g09.slc.cpg/sg12_91_cif.got.tgz:181003.got - 2010.06.28 00:19:55.
