data_PCOD8107221
_publ_section_title
;
Structure prediction by ZEFSAII (Michael W. Deem and Ramdas Pophale) SiO2 
 PCOD8107221
Probable space group: C 2/M
;
_chemical_formula_sum "Si O2"
_cell_formula_units_Z 64
_cell_length_a 29.295145
_cell_length_b 8.791530
_cell_length_c 11.849735
_cell_angle_alpha 90.000000
_cell_angle_beta 86.233777
_cell_angle_gamma 90.000000
_cell_volume 3045.298163
_symmetry_space_group_name_H-M "C 2/M"
_symmetry_group_IT_number 12
_symmetry_cell_setting 'monoclinic'
loop_
_space_group_symop_operation_xyz
x,y,z
-x,y,-z
-x,-y,-z
x,-y,z
1/2+x,1/2+y,z
1/2-x,1/2+y,-z
1/2-x,1/2-y,-z
1/2+x,1/2-y,z
loop_
_atom_site_type_symbol
_atom_site_label
_atom_site_fract_x
_atom_site_fract_y
_atom_site_fract_z
Si Si1 0.404734 0.827752 0.573864
Si Si2 0.660838 0.177754 0.786094
Si Si3 0.540281 0.324677 0.080402
Si Si4 0.247203 0.679011 0.624129
Si Si5 0.855922 0.822917 0.981347
Si Si6 0.507396 0.172796 0.304354
Si Si7 0.673103 0.821952 0.243253
Si Si8 0.912819 0.824103 0.346639
O O1 0.457812 0.811435 0.597151
O O2 0.373930 0.782718 0.685130
O O3 0.393078 0.716373 0.472895
O O4 0.393937 0.000000 0.536275
O O5 0.699396 0.225015 0.689747
O O6 0.612051 0.226204 0.744455
O O7 0.661234 0.000000 0.811971
O O8 0.668919 0.265128 0.901879
O O9 0.537276 0.500000 0.119827
O O10 0.589734 0.288821 0.018418
O O11 0.534502 0.214903 0.187170
O O12 0.500000 0.286011 0.000000
O O13 0.251786 0.500000 0.609625
O O14 0.250000 0.750000 0.500000
O O15 0.286610 0.738011 0.698844
O O16 0.831782 0.737245 0.882415
O O17 0.846328 0.000000 0.967285
O O18 0.466298 0.287872 0.331925
O O19 0.489198 0.000000 0.299036
O O20 0.683672 0.000000 0.239835
O O21 0.904452 0.000000 0.322201
#
# Coordination Sequence:
#
# PCOD8107221 Si02
#       8
#     8   8   8   8   8   8   8   8
#     4  10  22  40  61  89 125 166 213 260 313 379
#     4  11  25  45  67  92 127 167 210 260 317 383
#     4  10  21  37  58  87 125 166 211 266 319 372
#     4  11  25  45  70 101 131 165 211 264 324 387
#     4  11  23  40  65  96 132 169 212 266 321 377
#     4  11  22  38  60  87 122 166 213 260 313 379
#     4  11  23  42  68  96 130 172 216 264 319 383
#     4  12  25  39  60  91 126 165 212 265 322 379
#
# _framework density 21.016003000000001
#
# number of rings (size 3 to 8) (size 9 to 14) (size 15 to 20)
#    0.000    1.125    1.250    4.875    0.000   10.750 
#    0.000    0.000    0.000    0.000    0.000    0.000 
#    0.000    0.000    0.000    0.000    0.000    0.000 
#
# Total GULP energy -397004.762949 kJ/mol
# GULP energy per Si atom -12406.398842 kJ/mol
# Density = 2.096817 g / cm^3
# Si number density = 21.016003 Si / 1000 Ang^3
#
#
#
# Elastic Constant Matrix: (Units=GPa)
#
#
# Indices 1 2 3 4 5 6 
#
# 1 88.0014 39.2478 34.0447 0.0000 7.5125 0.0000
# 2 39.2478 60.0937 39.3061 0.0000 -10.3048 0.0000
# 3 34.0447 39.3061 128.7130 0.0000 -2.2328 0.0000
# 4 0.0000 0.0000 0.0000 41.2818 0.0000 2.2342
# 5 7.5125 -10.3048 -2.2328 0.0000 34.4771 0.0000
# 6 0.0000 0.0000 0.0000 2.2342 0.0000 32.1789
#
#
#
# Elastic Compliance Matrix: (Units=1/GPa)
#
#
# Indices 1 2 3 4 5 6 
#
# 1 0.017932 -0.012290 -0.001123 0.000000 -0.007653 0.000000
# 2 -0.012290 0.030448 -0.005850 0.000000 0.011400 0.000000
# 3 -0.001123 -0.005850 0.009838 0.000000 -0.000867 0.000000
# 4 0.000000 0.000000 0.000000 0.024315 0.000000 -0.001688
# 5 -0.007653 0.011400 -0.000867 0.000000 0.034024 0.000000
# 6 0.000000 0.000000 0.000000 -0.001688 0.000000 0.031193
#
#
# Mechanical properties :
#
#
# Convention : Reuss Voigt Hill
#
# Bulk Modulus (GPa) = 50.77855 55.77835 53.27845
# Shear Modulus (GPa) = 25.92828 32.53486 29.23157
#
# Velocity S-wave (km/s) = 3.51627 3.93886 3.73355
# Velocity P-wave (km/s) = 6.37965 6.87638 6.63267
#
# Compressibility (1/GPa) = 0.01969335
#
# Stress axis : x y z
#
# Youngs Moduli (GPa) = 55.76526 32.84258 101.65085
#
# Poissons Ratio (x) = 0.40363 0.11414
# Poissons Ratio (y) = 0.68534 0.59464
# Poissons Ratio (z) = 0.06262 0.19212
#
# Static dielectric constant tensor:
#      x y z
#    x 6.480820 0.000000 1.699860 
#    y 0.000000 3.789820 0.000000 
#    z 1.699860 0.000000 4.999280 
# 
# 
# High freq. dielectric constant tensor:
#      x y z
#    x 1.826210 0.000000 0.000990 
#    y 0.000000 1.827170 0.000000 
#    z 0.000990 0.000000 1.835380 
# 
# From -- ./inp_files/187587.got.cif
#   From: 2010.06.25/outbox.cif.g09.slc.cpg/sg12_94_cif.got.tgz:187587.got - 2010.06.28 00:19:55.
