data_PCOD8107034
_publ_section_title
;
Structure prediction by ZEFSAII (Michael W. Deem and Ramdas Pophale) SiO2 
 PCOD8107034
Probable space group: C 2/M
;
_chemical_formula_sum "Si O2"
_cell_formula_units_Z 56
_cell_length_a 13.550242
_cell_length_b 11.480523
_cell_length_c 21.021929
_cell_angle_alpha 90.000000
_cell_angle_beta 56.677402
_cell_angle_gamma 90.000000
_cell_volume 2732.592780
_symmetry_space_group_name_H-M "C 2/M"
_symmetry_group_IT_number 12
_symmetry_cell_setting 'monoclinic'
loop_
_space_group_symop_operation_xyz
x,y,z
-x,y,-z
-x,-y,-z
x,-y,z
1/2+x,1/2+y,z
1/2-x,1/2+y,-z
1/2-x,1/2-y,-z
1/2+x,1/2-y,z
loop_
_atom_site_type_symbol
_atom_site_label
_atom_site_fract_x
_atom_site_fract_y
_atom_site_fract_z
Si Si1 0.854725 0.128649 0.425664
Si Si2 0.790033 0.632561 0.947648
Si Si3 0.402946 0.632004 0.083684
Si Si4 0.231668 0.131446 0.303158
Si Si5 0.472768 0.221005 0.176394
Si Si6 0.866746 0.273783 0.546460
Si Si7 0.049037 0.865615 0.264119
O O1 0.850648 0.180167 0.496950
O O2 0.726173 0.124972 0.437327
O O3 0.948482 0.191196 0.345748
O O4 0.902517 0.000000 0.418989
O O5 0.761207 0.500000 0.986908
O O6 0.726089 0.640580 0.902076
O O7 0.931420 0.634699 0.888767
O O8 0.750000 0.750000 0.000000
O O9 0.435841 0.500000 0.090143
O O10 0.405529 0.704726 0.147077
O O11 0.500000 0.681564 0.000000
O O12 0.371992 0.151557 0.249973
O O13 0.165955 0.217083 0.374811
O O14 0.175746 0.150582 0.252978
O O15 0.209469 0.000000 0.334607
O O16 0.547878 0.301715 0.197223
O O17 0.000000 0.323710 0.500000
O O18 0.020447 0.000000 0.260289
#
# Coordination Sequence:
#
# PCOD8107034 Si02
#       7
#     8   8   8   8   8   8   8
#     4  10  21  37  57  87 118 152 203 252 294 349
#     4  11  24  43  67  95 127 162 204 254 309 373
#     4  10  21  40  65  91 121 163 205 246 300 373
#     4  11  23  38  57  88 122 155 196 246 306 358
#     4  12  22  40  63  90 123 160 198 253 307 361
#     4  11  21  37  62  83 114 161 201 243 297 357
#     4  10  21  37  60  88 121 158 201 251 300 359
#
# _framework density 20.493358000000001
#
# number of rings (size 3 to 8) (size 9 to 14) (size 15 to 20)
#    0.000    1.286    4.286    2.143    0.000    1.429 
#    0.000    2.143    0.000    0.857    0.000    0.000 
#    0.000    0.000    0.000    0.000    0.000    0.000 
#
# Total GULP energy -347039.148605 kJ/mol
# GULP energy per Si atom -12394.255307 kJ/mol
# Density = 2.044671 g / cm^3
# Si number density = 20.493358 Si / 1000 Ang^3
#
#
#
# Elastic Constant Matrix: (Units=GPa)
#
#
# Indices 1 2 3 4 5 6 
#
# 1 104.1177 17.7226 16.0921 0.0000 -8.7631 0.0000
# 2 17.7226 76.5504 24.1661 0.0000 8.7975 0.0000
# 3 16.0921 24.1661 63.9327 0.0000 -2.9377 0.0000
# 4 0.0000 0.0000 0.0000 19.8838 0.0000 -2.1246
# 5 -8.7631 8.7975 -2.9377 0.0000 46.0196 0.0000
# 6 0.0000 0.0000 0.0000 -2.1246 0.0000 22.3673
#
#
#
# Elastic Compliance Matrix: (Units=1/GPa)
#
#
# Indices 1 2 3 4 5 6 
#
# 1 0.010425 -0.002136 -0.001712 0.000000 0.002284 0.000000
# 2 -0.002136 0.015757 -0.005592 0.000000 -0.003776 0.000000
# 3 -0.001712 -0.005592 0.018274 0.000000 0.001910 0.000000
# 4 0.000000 0.000000 0.000000 0.050808 0.000000 0.004826
# 5 0.002284 -0.003776 0.001910 0.000000 0.023009 0.000000
# 6 0.000000 0.000000 0.000000 0.004826 0.000000 0.045166
#
#
# Mechanical properties :
#
#
# Convention : Reuss Voigt Hill
#
# Bulk Modulus (GPa) = 39.09785 40.06249 39.58017
# Shear Modulus (GPa) = 26.19957 30.09549 28.14753
#
# Velocity S-wave (km/s) = 3.57941 3.83632 3.71009
# Velocity P-wave (km/s) = 6.01686 6.26216 6.14073
#
# Compressibility (1/GPa) = 0.02557686
#
# Stress axis : x y z
#
# Youngs Moduli (GPa) = 95.92474 63.46385 54.72324
#
# Poissons Ratio (x) = 0.13553 0.09367
# Poissons Ratio (y) = 0.20486 0.30601
# Poissons Ratio (z) = 0.16420 0.35489
#
# Static dielectric constant tensor:
#      x y z
#    x 3.931960 0.000000 -0.113350 
#    y 0.000000 3.599160 0.000000 
#    z -0.113350 0.000000 3.619550 
# 
# 
# High freq. dielectric constant tensor:
#      x y z
#    x 1.817950 0.000000 -0.004870 
#    y 0.000000 1.783010 0.000000 
#    z -0.004870 0.000000 1.793170 
# 
# From -- ./inp_files/304705.got.cif
#   From: 2010.06.25/outbox.cif.g09.slc.cpg/sg12_153_cif.got.tgz:304705.got - 2010.06.28 00:19:55.
