data_PCOD8107822
_publ_section_title
;
Structure prediction by ZEFSAII (Michael W. Deem and Ramdas Pophale) SiO2 
 PCOD8107822
Probable space group: C 2/M
;
_chemical_formula_sum "Si O2"
_cell_formula_units_Z 44
_cell_length_a 14.325117
_cell_length_b 9.383035
_cell_length_c 16.923422
_cell_angle_alpha 90.000000
_cell_angle_beta 99.421860
_cell_angle_gamma 90.000000
_cell_volume 2244.042571
_symmetry_space_group_name_H-M "C 2/M"
_symmetry_group_IT_number 12
_symmetry_cell_setting 'monoclinic'
loop_
_space_group_symop_operation_xyz
x,y,z
-x,y,-z
-x,-y,-z
x,-y,z
1/2+x,1/2+y,z
1/2-x,1/2+y,-z
1/2-x,1/2-y,-z
1/2+x,1/2-y,z
loop_
_atom_site_type_symbol
_atom_site_label
_atom_site_fract_x
_atom_site_fract_y
_atom_site_fract_z
Si Si1 0.207758 0.000000 0.523967
Si Si2 0.395719 0.000000 0.454923
Si Si3 0.772814 0.328486 0.201009
Si Si4 0.974280 0.000000 0.587601
Si Si5 0.373164 0.714796 0.365040
Si Si6 0.110192 0.669559 0.106012
Si Si7 0.896843 0.333013 0.070581
O O1 0.189348 0.864031 0.576971
O O2 0.316552 0.000000 0.512502
O O3 0.141051 0.000000 0.433521
O O4 0.500000 0.000000 0.500000
O O5 0.388705 0.129813 0.396547
O O6 0.773685 0.500000 0.216915
O O7 0.818162 0.232045 0.275734
O O8 0.667655 0.267193 0.175699
O O9 0.826995 0.282420 0.129074
O O10 0.000000 0.000000 0.500000
O O11 0.024279 0.138103 0.634204
O O12 0.128609 0.500000 0.121539
O O13 0.002439 0.714478 0.107973
O O14 0.135499 0.722049 0.020225
O O15 0.898710 0.500000 0.062835
#
# Coordination Sequence:
#
# PCOD8107822 Si02
#       7
#     4   4   8   4   8   8   8
#     4  10  22  42  64  82 109 147 187 233 271 338
#     4  12  22  40  62  88 110 146 187 221 279 341
#     4  11  21  36  53  85 125 144 178 238 291 321
#     4   8  18  40  62  76 109 145 182 228 274 329
#     4  10  21  38  57  86 113 145 183 232 283 330
#     4   9  18  35  61  81 108 154 202 226 264 340
#     4   8  17  36  57  81 111 155 194 229 273 327
#
# _framework density 19.607471
#
# number of rings (size 3 to 8) (size 9 to 14) (size 15 to 20)
#    0.000    2.545    0.909    3.818    2.545    0.000 
#    6.545    2.727    0.000    0.000    0.000    0.000 
#    0.000    0.000    0.000    0.000    0.000    0.000 
#
# Total GULP energy -272552.328885 kJ/mol
# GULP energy per Si atom -12388.742222 kJ/mol
# Density = 1.956284 g / cm^3
# Si number density = 19.607471 Si / 1000 Ang^3
#
#
#
# Elastic Constant Matrix: (Units=GPa)
#
#
# Indices 1 2 3 4 5 6 
#
# 1 96.3694 26.2002 33.9560 0.0000 19.6011 0.0000
# 2 26.2002 98.3798 34.6781 0.0000 13.8152 0.0000
# 3 33.9560 34.6781 79.2627 0.0000 35.2105 0.0000
# 4 0.0000 0.0000 0.0000 50.1087 0.0000 -17.6123
# 5 19.6011 13.8152 35.2105 0.0000 28.0608 0.0000
# 6 0.0000 0.0000 0.0000 -17.6123 0.0000 51.6101
#
#
#
# Elastic Compliance Matrix: (Units=1/GPa)
#
#
# Indices 1 2 3 4 5 6 
#
# 1 0.012744 -0.001831 -0.002496 0.000000 -0.004869 0.000000
# 2 -0.001831 0.012310 -0.005597 0.000000 0.002242 0.000000
# 3 -0.002496 -0.005597 0.031939 0.000000 -0.035577 0.000000
# 4 0.000000 0.000000 0.000000 0.022677 0.000000 0.007739
# 5 -0.004869 0.002242 -0.035577 0.000000 0.082577 0.000000
# 6 0.000000 0.000000 0.000000 0.007739 0.000000 0.022017
#
#
# Mechanical properties :
#
#
# Convention : Reuss Voigt Hill
#
# Bulk Modulus (GPa) = 26.92069 51.52007 39.22038
# Shear Modulus (GPa) = 23.09543 37.90107 30.49825
#
# Velocity S-wave (km/s) = 3.43576 4.40135 3.94819
# Velocity P-wave (km/s) = 5.43129 7.22232 6.38987
#
# Compressibility (1/GPa) = 0.03714615
#
# Stress axis : x y z
#
# Youngs Moduli (GPa) = 78.46737 81.23156 31.31000
#
# Poissons Ratio (x) = 0.14870 0.07814
# Poissons Ratio (y) = 0.14364 0.17526
# Poissons Ratio (z) = 0.19582 0.45469
#
# Static dielectric constant tensor:
#      x y z
#    x 2.354870 0.000000 2.261040 
#    y 0.000000 2.391660 0.000000 
#    z 2.261040 0.000000 1.435190 
# 
# 
# High freq. dielectric constant tensor:
#      x y z
#    x 1.760540 0.000000 0.018540 
#    y 0.000000 1.756100 0.000000 
#    z 0.018540 0.000000 1.760230 
# 
# From -- ./inp_files/267292.got.cif
#   From: 2010.06.25/outbox.cif.g09.slc.cpg/sg12_134_cif.got.tgz:267292.got - 2010.06.28 00:19:55.
