data_PCOD8107766
_publ_section_title
;
Structure prediction by ZEFSAII (Michael W. Deem and Ramdas Pophale) SiO2 
 PCOD8107766
Probable space group: C 2/M
;
_chemical_formula_sum "Si O2"
_cell_formula_units_Z 56
_cell_length_a 11.598540
_cell_length_b 13.490828
_cell_length_c 18.279628
_cell_angle_alpha 90.000000
_cell_angle_beta 77.667213
_cell_angle_gamma 90.000000
_cell_volume 2794.279498
_symmetry_space_group_name_H-M "C 2/M"
_symmetry_group_IT_number 12
_symmetry_cell_setting 'monoclinic'
loop_
_space_group_symop_operation_xyz
x,y,z
-x,y,-z
-x,-y,-z
x,-y,z
1/2+x,1/2+y,z
1/2-x,1/2+y,-z
1/2-x,1/2-y,-z
1/2+x,1/2-y,z
loop_
_atom_site_type_symbol
_atom_site_label
_atom_site_fract_x
_atom_site_fract_y
_atom_site_fract_z
Si Si1 0.191274 0.302578 0.245566
Si Si2 0.121617 0.882863 0.889926
Si Si3 0.860083 0.885038 0.952455
Si Si4 0.945617 0.388855 0.262375
Si Si5 0.249682 0.389167 0.822085
Si Si6 0.636018 0.614378 0.500798
Si Si7 0.709773 0.250988 0.621588
O O1 0.307624 0.328523 0.183503
O O2 0.165303 0.185859 0.233733
O O3 0.215819 0.313314 0.328633
O O4 0.084401 0.370708 0.233836
O O5 0.985543 0.845762 0.904091
O O6 0.135881 0.000000 0.875883
O O7 0.172480 0.844963 0.962209
O O8 0.755447 0.863673 0.908204
O O9 0.881866 0.000000 0.962479
O O10 0.926412 0.500000 0.295561
O O11 0.883435 0.379199 0.191150
O O12 0.895903 0.309796 0.326561
O O13 0.299738 0.500000 0.802141
O O14 0.500000 0.621634 0.500000
O O15 0.677743 0.500000 0.499566
O O16 0.656243 0.667334 0.575346
O O17 0.708441 0.670872 0.428922
#
# Coordination Sequence:
#
# PCOD8107766 Si02
#       7
#     8   8   8   8   8   8   8
#     4  11  22  34  59  85 117 150 196 237 278 340
#     4   9  18  33  55  84 114 148 191 250 297 329
#     4   8  16  34  56  77 110 152 197 243 296 343
#     4  10  21  38  56  82 121 156 185 230 289 343
#     4   9  20  36  55  77 110 153 195 237 288 341
#     4  10  21  40  64  88 114 145 188 236 274 326
#     4  10  22  39  59  86 118 153 186 223 284 348
#
# _framework density 20.040944
#
# number of rings (size 3 to 8) (size 9 to 14) (size 15 to 20)
#    0.000    2.429    0.000    2.571    4.000    2.286 
#    0.000    1.429    0.000    8.143    0.000    0.000 
#    0.000    0.000    0.000    0.000    0.000    0.000 
#
# Total GULP energy -347026.308844 kJ/mol
# GULP energy per Si atom -12393.796744 kJ/mol
# Density = 1.999533 g / cm^3
# Si number density = 20.040944 Si / 1000 Ang^3
#
#
#
# Elastic Constant Matrix: (Units=GPa)
#
#
# Indices 1 2 3 4 5 6 
#
# 1 97.5308 47.3628 61.1508 0.0000 19.2974 0.0000
# 2 47.3628 90.9399 50.9089 0.0000 11.9256 0.0000
# 3 61.1508 50.9089 124.5313 0.0000 25.2007 0.0000
# 4 0.0000 0.0000 0.0000 37.6430 0.0000 -6.5211
# 5 19.2974 11.9256 25.2007 0.0000 35.2057 0.0000
# 6 0.0000 0.0000 0.0000 -6.5211 0.0000 31.2062
#
#
#
# Elastic Compliance Matrix: (Units=1/GPa)
#
#
# Indices 1 2 3 4 5 6 
#
# 1 0.016947 -0.005321 -0.005416 0.000000 -0.003610 0.000000
# 2 -0.005321 0.015948 -0.003980 0.000000 0.000364 0.000000
# 3 -0.005416 -0.003980 0.013382 0.000000 -0.005262 0.000000
# 4 0.000000 0.000000 0.000000 0.027563 0.000000 0.005760
# 5 -0.003610 0.000364 -0.005262 0.000000 0.034026 0.000000
# 6 0.000000 0.000000 0.000000 0.005760 0.000000 0.033249
#
#
# Mechanical properties :
#
#
# Convention : Reuss Voigt Hill
#
# Bulk Modulus (GPa) = 59.37519 70.20523 64.79021
# Shear Modulus (GPa) = 28.38262 31.04961 29.71611
#
# Velocity S-wave (km/s) = 3.76737 3.94040 3.85485
# Velocity P-wave (km/s) = 6.97247 7.47056 7.22581
#
# Compressibility (1/GPa) = 0.01684205
#
# Stress axis : x y z
#
# Youngs Moduli (GPa) = 59.00658 62.70352 74.72907
#
# Poissons Ratio (x) = 0.33364 0.40474
# Poissons Ratio (y) = 0.31397 0.29745
# Poissons Ratio (z) = 0.31959 0.24958
#
# Static dielectric constant tensor:
#      x y z
#    x 3.555110 0.000000 0.256370 
#    y 0.000000 3.766430 0.000000 
#    z 0.256370 0.000000 3.623720 
# 
# 
# High freq. dielectric constant tensor:
#      x y z
#    x 1.774410 0.000000 0.020970 
#    y 0.000000 1.787940 0.000000 
#    z 0.020970 0.000000 1.775390 
# 
# From -- ./inp_files/262851.got.cif
#   From: 2010.06.25/outbox.cif.g09.slc.cpg/sg12_132_cif.got.tgz:262851.got - 2010.06.28 00:19:55.
