data_PCOD8107385
_publ_section_title
;
Structure prediction by ZEFSAII (Michael W. Deem and Ramdas Pophale) SiO2 
 PCOD8107385
Probable space group: C 2/M
;
_chemical_formula_sum "Si O2"
_cell_formula_units_Z 56
_cell_length_a 28.923141
_cell_length_b 8.805674
_cell_length_c 12.481449
_cell_angle_alpha 90.000000
_cell_angle_beta 60.168195
_cell_angle_gamma 90.000000
_cell_volume 2757.638067
_symmetry_space_group_name_H-M "C 2/M"
_symmetry_group_IT_number 12
_symmetry_cell_setting 'monoclinic'
loop_
_space_group_symop_operation_xyz
x,y,z
-x,y,-z
-x,-y,-z
x,-y,z
1/2+x,1/2+y,z
1/2-x,1/2+y,-z
1/2-x,1/2-y,-z
1/2+x,1/2-y,z
loop_
_atom_site_type_symbol
_atom_site_label
_atom_site_fract_x
_atom_site_fract_y
_atom_site_fract_z
Si Si1 0.193405 0.821512 0.589115
Si Si2 0.548128 0.671145 0.025416
Si Si3 0.108771 0.675076 0.530349
Si Si4 0.102675 0.324180 0.293561
Si Si5 0.694912 0.822409 0.031477
Si Si6 0.346370 0.175824 0.152202
Si Si7 0.504897 0.322394 0.306957
O O1 0.250000 0.750000 0.500000
O O2 0.149644 0.768474 0.554729
O O3 0.176745 0.778952 0.727847
O O4 0.198726 0.000000 0.573714
O O5 0.571712 0.500000 0.999968
O O6 0.528502 0.719892 0.164543
O O7 0.500000 0.681739 0.000000
O O8 0.591635 0.790041 0.935541
O O9 0.112319 0.500000 0.560569
O O10 0.124777 0.697545 0.387972
O O11 0.049166 0.731132 0.617043
O O12 0.089931 0.500000 0.283694
O O13 0.147051 0.258333 0.160760
O O14 0.048007 0.229808 0.345320
O O15 0.698971 0.000000 0.046483
O O16 0.750000 0.750000 0.000000
O O17 0.684571 0.781220 0.920317
O O18 0.339350 0.000000 0.190561
O O19 0.492917 0.500000 0.333498
#
# Coordination Sequence:
#
# PCOD8107385 Si02
#       7
#     8   8   8   8   8   8   8
#     4  12  27  47  69  94 128 166 212 265 318 379
#     4  10  21  37  59  89 126 168 211 259 313 369
#     4  11  24  42  66  94 128 172 218 263 319 379
#     4  10  22  42  64  92 130 171 212 262 319 380
#     4  10  23  41  64  95 128 165 212 262 318 379
#     4  11  23  42  67  96 127 164 211 259 314 379
#     4  11  22  37  61  95 132 171 215 263 318 378
#
# _framework density 20.307233
#
# number of rings (size 3 to 8) (size 9 to 14) (size 15 to 20)
#    0.000    1.286    1.429    3.857    2.000    6.571 
#    0.000    0.000    0.000    0.000    0.000    0.000 
#    0.000    0.000    0.000    0.000    0.000    0.000 
#
# Total GULP energy -347371.702031 kJ/mol
# GULP energy per Si atom -12406.132215 kJ/mol
# Density = 2.026101 g / cm^3
# Si number density = 20.307233 Si / 1000 Ang^3
#
#
#
# Elastic Constant Matrix: (Units=GPa)
#
#
# Indices 1 2 3 4 5 6 
#
# 1 130.4867 53.0714 55.0482 0.0000 -1.5175 0.0000
# 2 53.0714 105.3030 55.3713 0.0000 3.6959 0.0000
# 3 55.0482 55.3713 87.1952 0.0000 15.5273 0.0000
# 4 0.0000 0.0000 0.0000 47.7716 0.0000 -2.7459
# 5 -1.5175 3.6959 15.5273 0.0000 26.1027 0.0000
# 6 0.0000 0.0000 0.0000 -2.7459 0.0000 40.9613
#
#
#
# Elastic Compliance Matrix: (Units=1/GPa)
#
#
# Indices 1 2 3 4 5 6 
#
# 1 0.011507 -0.002540 -0.006526 0.000000 0.004911 0.000000
# 2 -0.002540 0.015157 -0.008515 0.000000 0.002771 0.000000
# 3 -0.006526 -0.008515 0.023319 0.000000 -0.013045 0.000000
# 4 0.000000 0.000000 0.000000 0.021014 0.000000 0.001409
# 5 0.004911 0.002771 -0.013045 0.000000 0.045963 0.000000
# 6 0.000000 0.000000 0.000000 0.001409 0.000000 0.024508
#
#
# Mechanical properties :
#
#
# Convention : Reuss Voigt Hill
#
# Bulk Modulus (GPa) = 67.47437 72.21854 69.84645
# Shear Modulus (GPa) = 27.53779 33.60007 30.56893
#
# Velocity S-wave (km/s) = 3.68646 4.07207 3.88406
# Velocity P-wave (km/s) = 7.17070 7.59929 7.38810
#
# Compressibility (1/GPa) = 0.01482044
#
# Stress axis : x y z
#
# Youngs Moduli (GPa) = 86.90393 65.97780 42.88434
#
# Poissons Ratio (x) = 0.16760 0.27986
# Poissons Ratio (y) = 0.22075 0.36515
# Poissons Ratio (z) = 0.56713 0.56178
#
# Static dielectric constant tensor:
#      x y z
#    x 3.400590 0.000000 0.137690 
#    y 0.000000 3.404960 0.000000 
#    z 0.137690 0.000000 4.041340 
# 
# 
# High freq. dielectric constant tensor:
#      x y z
#    x 1.802770 0.000000 0.005390 
#    y 0.000000 1.796100 0.000000 
#    z 0.005390 0.000000 1.808970 
# 
# From -- ./inp_files/180691.got.cif
#   From: 2010.06.25/outbox.cif.g09.slc.cpg/sg12_91_cif.got.tgz:180691.got - 2010.06.28 00:19:55.
