data_PCOD8107869
_publ_section_title
;
Structure prediction by ZEFSAII (Michael W. Deem and Ramdas Pophale) SiO2 
 PCOD8107869
Probable space group: C 2/M
;
_chemical_formula_sum "Si O2"
_cell_formula_units_Z 40
_cell_length_a 25.324171
_cell_length_b 8.722575
_cell_length_c 15.398175
_cell_angle_alpha 90.000000
_cell_angle_beta 144.058464
_cell_angle_gamma 90.000000
_cell_volume 1996.444715
_symmetry_space_group_name_H-M "C 2/M"
_symmetry_group_IT_number 12
_symmetry_cell_setting 'monoclinic'
loop_
_space_group_symop_operation_xyz
x,y,z
-x,y,-z
-x,-y,-z
x,-y,z
1/2+x,1/2+y,z
1/2-x,1/2+y,-z
1/2-x,1/2-y,-z
1/2+x,1/2-y,z
loop_
_atom_site_type_symbol
_atom_site_label
_atom_site_fract_x
_atom_site_fract_y
_atom_site_fract_z
Si Si1 0.179634 0.680423 0.839799
Si Si2 0.645119 0.681533 0.188411
Si Si3 0.500439 0.318994 0.331301
Si Si4 0.188121 0.820768 0.667733
Si Si5 0.507196 0.681272 0.145564
O O1 0.182946 0.500000 0.853523
O O2 0.208684 0.727052 0.782022
O O3 0.079854 0.740017 0.724449
O O4 0.250000 0.750000 0.000000
O O5 0.662445 0.500000 0.211143
O O6 0.738585 0.772198 0.306471
O O7 0.595950 0.736116 0.211534
O O8 0.582839 0.732068 0.024287
O O9 0.483138 0.500000 0.307047
O O10 0.591012 0.275837 0.501789
O O11 0.506289 0.250989 0.241448
O O12 0.194330 0.000000 0.695952
O O13 0.510741 0.500000 0.153876
#
# Coordination Sequence:
#
# PCOD8107869 Si02
#       5
#     8   8   8   8   8
#     4  12  25  41  62  85 110 143 186 234 284 340
#     4   9  17  33  58  83 109 147 196 240 279 331
#     4  10  21  38  58  82 117 155 189 230 281 335
#     4  11  23  37  55  83 118 153 189 232 282 332
#     4   8  16  33  57  82 108 146 193 237 283 331
#
# _framework density 20.035615
#
# number of rings (size 3 to 8) (size 9 to 14) (size 15 to 20)
#    0.000    2.000    0.000    5.400    0.000    6.400 
#    0.000    3.000    0.000    0.000    0.000    0.000 
#    0.000    0.000    0.000    0.000    0.000    0.000 
#
# Total GULP energy -248047.104587 kJ/mol
# GULP energy per Si atom -12402.355229 kJ/mol
# Density = 1.999001 g / cm^3
# Si number density = 20.035615 Si / 1000 Ang^3
#
#
#
# Elastic Constant Matrix: (Units=GPa)
#
#
# Indices 1 2 3 4 5 6 
#
# 1 96.0693 19.0595 21.8543 0.0000 18.4139 0.0000
# 2 19.0595 54.7572 35.3635 0.0000 13.9423 0.0000
# 3 21.8543 35.3635 72.7005 0.0000 18.1001 0.0000
# 4 0.0000 0.0000 0.0000 23.8170 0.0000 4.2394
# 5 18.4139 13.9423 18.1001 0.0000 43.0283 0.0000
# 6 0.0000 0.0000 0.0000 4.2394 0.0000 30.3146
#
#
#
# Elastic Compliance Matrix: (Units=1/GPa)
#
#
# Indices 1 2 3 4 5 6 
#
# 1 0.011917 -0.002165 -0.001602 0.000000 -0.003724 0.000000
# 2 -0.002165 0.027516 -0.012001 0.000000 -0.002941 0.000000
# 3 -0.001602 -0.012001 0.021151 0.000000 -0.004323 0.000000
# 4 0.000000 0.000000 0.000000 0.043059 0.000000 -0.006022
# 5 -0.003724 -0.002941 -0.004323 0.000000 0.027606 0.000000
# 6 0.000000 0.000000 0.000000 -0.006022 0.000000 0.033829
#
#
# Mechanical properties :
#
#
# Convention : Reuss Voigt Hill
#
# Bulk Modulus (GPa) = 34.42751 41.78685 38.10718
# Shear Modulus (GPa) = 24.23702 29.24863 26.74283
#
# Velocity S-wave (km/s) = 3.48184 3.82492 3.65741
# Velocity P-wave (km/s) = 5.77796 6.35675 6.07425
#
# Compressibility (1/GPa) = 0.02904654
#
# Stress axis : x y z
#
# Youngs Moduli (GPa) = 83.91390 36.34302 47.27984
#
# Poissons Ratio (x) = 0.07869 0.07574
# Poissons Ratio (y) = 0.18168 0.56742
# Poissons Ratio (z) = 0.13442 0.43617
#
# Static dielectric constant tensor:
#      x y z
#    x 4.107890 0.000000 -0.089340 
#    y 0.000000 3.349060 0.000000 
#    z -0.089340 0.000000 3.739160 
# 
# 
# High freq. dielectric constant tensor:
#      x y z
#    x 1.800910 0.000000 0.003720 
#    y 0.000000 1.756790 0.000000 
#    z 0.003720 0.000000 1.784140 
# 
# From -- ./inp_files/211257.got.cif
#   From: 2010.06.25/outbox.cif.g09.slc.cpg/sg12_106_cif.got.tgz:211257.got - 2010.06.28 00:19:55.
