data_PCOD8107032
_publ_section_title
;
Structure prediction by ZEFSAII (Michael W. Deem and Ramdas Pophale) SiO2 
 PCOD8107032
Probable space group: C 2/M
;
_chemical_formula_sum "Si O2"
_cell_formula_units_Z 40
_cell_length_a 17.729601
_cell_length_b 24.022233
_cell_length_c 10.158249
_cell_angle_alpha 90.000000
_cell_angle_beta 149.391086
_cell_angle_gamma 90.000000
_cell_volume 2202.919049
_symmetry_space_group_name_H-M "C 2/M"
_symmetry_group_IT_number 12
_symmetry_cell_setting 'monoclinic'
loop_
_space_group_symop_operation_xyz
x,y,z
-x,y,-z
-x,-y,-z
x,-y,z
1/2+x,1/2+y,z
1/2-x,1/2+y,-z
1/2-x,1/2-y,-z
1/2+x,1/2-y,z
loop_
_atom_site_type_symbol
_atom_site_label
_atom_site_fract_x
_atom_site_fract_y
_atom_site_fract_z
Si Si1 0.668274 0.604861 0.901722
Si Si2 0.638262 0.000000 0.113057
Si Si3 0.168038 0.893848 0.601713
Si Si4 0.136445 0.500000 0.801666
Si Si5 0.835778 0.774071 0.505751
Si Si6 0.182862 0.777475 0.027234
O O1 0.499577 0.585017 0.664656
O O2 0.699339 0.624245 0.798881
O O3 0.702559 0.656106 0.048914
O O4 0.770093 0.553945 0.095550
O O5 0.729655 0.055078 0.287414
O O6 0.500000 0.000000 0.000000
O O7 0.592460 0.000000 0.890141
O O8 0.197965 0.840015 0.556016
O O9 0.000000 0.500000 0.500000
O O10 0.750000 0.750000 0.500000
O O11 0.010089 0.762022 0.782607
O O12 0.777593 0.742096 0.291951
O O13 0.250000 0.750000 0.000000
#
# Coordination Sequence:
#
# PCOD8107032 Si02
#       6
#     8   4   8   4   8   8
#     4   9  18  36  61  82 107 147 197 234 276 337
#     4  10  21  37  59  83 113 148 186 232 290 342
#     4   9  18  37  60  82 107 150 196 230 273 348
#     4  10  21  37  57  87 115 138 186 248 288 324
#     4  11  23  38  58  87 123 152 193 241 294 343
#     4  11  21  38  60  85 114 157 196 237 285 347
#
# _framework density 18.157726
#
# number of rings (size 3 to 8) (size 9 to 14) (size 15 to 20)
#    0.000    2.000    2.000    1.800    0.000    5.600 
#    3.600    0.000    0.000    1.200    0.000    0.000 
#    0.000    0.000    0.000    0.000    0.000    0.000 
#
# Total GULP energy -248010.662850 kJ/mol
# GULP energy per Si atom -12400.533142 kJ/mol
# Density = 1.811640 g / cm^3
# Si number density = 18.157726 Si / 1000 Ang^3
#
#
#
# Elastic Constant Matrix: (Units=GPa)
#
#
# Indices 1 2 3 4 5 6 
#
# 1 119.6315 57.2987 25.2437 0.0000 12.7594 0.0000
# 2 57.2987 111.9036 45.9527 0.0000 12.3497 0.0000
# 3 25.2437 45.9527 72.2256 0.0000 5.2180 0.0000
# 4 0.0000 0.0000 0.0000 31.3966 0.0000 6.2113
# 5 12.7594 12.3497 5.2180 0.0000 26.9568 0.0000
# 6 0.0000 0.0000 0.0000 6.2113 0.0000 30.8165
#
#
#
# Elastic Compliance Matrix: (Units=1/GPa)
#
#
# Indices 1 2 3 4 5 6 
#
# 1 0.011284 -0.005319 -0.000355 0.000000 -0.002835 0.000000
# 2 -0.005319 0.015070 -0.007517 0.000000 -0.002931 0.000000
# 3 -0.000355 -0.007517 0.018754 0.000000 -0.000018 0.000000
# 4 0.000000 0.000000 0.000000 0.033173 0.000000 -0.006686
# 5 -0.002835 -0.002931 -0.000018 0.000000 0.039785 0.000000
# 6 0.000000 0.000000 0.000000 -0.006686 0.000000 0.033798
#
#
# Mechanical properties :
#
#
# Convention : Reuss Voigt Hill
#
# Bulk Modulus (GPa) = 53.40385 62.30566 57.85476
# Shear Modulus (GPa) = 27.10192 29.51836 28.31014
#
# Velocity S-wave (km/s) = 3.86759 4.03633 3.95286
# Velocity P-wave (km/s) = 7.02988 7.49070 7.26395
#
# Compressibility (1/GPa) = 0.01872524
#
# Stress axis : x y z
#
# Youngs Moduli (GPa) = 88.62126 66.35523 53.32279
#
# Poissons Ratio (x) = 0.35296 0.01892
# Poissons Ratio (y) = 0.47140 0.40085
# Poissons Ratio (z) = 0.03144 0.49882
#
# Static dielectric constant tensor:
#      x y z
#    x 3.266880 0.000000 0.157520 
#    y 0.000000 3.513440 0.000000 
#    z 0.157520 0.000000 3.314050 
# 
# 
# High freq. dielectric constant tensor:
#      x y z
#    x 1.695210 0.000000 0.010820 
#    y 0.000000 1.717580 0.000000 
#    z 0.010820 0.000000 1.703230 
# 
# From -- ./inp_files/79805.got.cif
#   From: 2010.06.25/outbox.cif.g09.slc.cpg/sg12_40_cif.got.tgz:79805.got - 2010.06.28 00:19:55.
