data_PCOD8107442
_publ_section_title
;
Structure prediction by ZEFSAII (Michael W. Deem and Ramdas Pophale) SiO2 
 PCOD8107442
Probable space group: C 2/M
;
_chemical_formula_sum "Si O2"
_cell_formula_units_Z 40
_cell_length_a 25.490107
_cell_length_b 8.331988
_cell_length_c 9.030009
_cell_angle_alpha 90.000000
_cell_angle_beta 90.351880
_cell_angle_gamma 90.000000
_cell_volume 1917.786632
_symmetry_space_group_name_H-M "C 2/M"
_symmetry_group_IT_number 12
_symmetry_cell_setting 'monoclinic'
loop_
_space_group_symop_operation_xyz
x,y,z
-x,y,-z
-x,-y,-z
x,-y,z
1/2+x,1/2+y,z
1/2-x,1/2+y,-z
1/2-x,1/2-y,-z
1/2+x,1/2-y,z
loop_
_atom_site_type_symbol
_atom_site_label
_atom_site_fract_x
_atom_site_fract_y
_atom_site_fract_z
Si Si1 0.659447 0.314469 0.826089
Si Si2 0.257493 0.685895 0.663941
Si Si3 0.555278 0.314324 0.662414
Si Si4 0.944808 0.685402 0.656389
Si Si5 0.349698 0.185305 0.855806
O O1 0.669316 0.500000 0.785384
O O2 0.704607 0.206980 0.756156
O O3 0.604163 0.253408 0.759962
O O4 0.659852 0.295243 0.002248
O O5 0.273224 0.500000 0.661346
O O6 0.250000 0.750000 0.500000
O O7 0.303833 0.787590 0.737477
O O8 0.544058 0.500000 0.691682
O O9 0.504047 0.215930 0.712964
O O10 0.567513 0.288825 0.489555
O O11 0.937349 0.500000 0.614262
O O12 0.904937 0.736817 0.784391
O O13 0.350271 0.000000 0.904196
#
# Coordination Sequence:
#
# PCOD8107442 Si02
#       5
#     8   8   8   8   8
#     4  11  24  41  61  88 121 158 197 242 296 352
#     4  12  25  42  65  90 118 154 196 244 293 350
#     4  10  21  37  60  87 117 154 197 243 292 346
#     4  10  21  37  60  87 117 154 197 243 292 346
#     4  11  24  41  61  88 121 158 197 242 296 352
#
# _framework density 20.857377
#
# number of rings (size 3 to 8) (size 9 to 14) (size 15 to 20)
#    0.000    1.200    0.000    7.200    0.000   10.400 
#    0.000    4.000    0.000    0.000    0.000    0.000 
#    0.000    0.000    0.000    0.000    0.000    0.000 
#
# Total GULP energy -248154.297343 kJ/mol
# GULP energy per Si atom -12407.714867 kJ/mol
# Density = 2.080990 g / cm^3
# Si number density = 20.857377 Si / 1000 Ang^3
#
#
#
# Elastic Constant Matrix: (Units=GPa)
#
#
# Indices 1 2 3 4 5 6 
#
# 1 116.2688 22.5757 44.2916 0.0000 -13.4163 0.0000
# 2 22.5757 49.5476 16.2183 0.0000 -0.5591 0.0000
# 3 44.2916 16.2183 79.8932 0.0000 -24.8320 0.0000
# 4 0.0000 0.0000 0.0000 32.1638 0.0000 -1.6426
# 5 -13.4163 -0.5591 -24.8320 0.0000 30.0793 0.0000
# 6 0.0000 0.0000 0.0000 -1.6426 0.0000 32.6623
#
#
#
# Elastic Compliance Matrix: (Units=1/GPa)
#
#
# Indices 1 2 3 4 5 6 
#
# 1 0.011405 -0.003398 -0.005477 0.000000 0.000502 0.000000
# 2 -0.003398 0.023060 -0.004217 0.000000 -0.004569 0.000000
# 3 -0.005477 -0.004217 0.021019 0.000000 0.014831 0.000000
# 4 0.000000 0.000000 0.000000 0.031171 0.000000 0.001568
# 5 0.000502 -0.004569 0.014831 0.000000 0.045628 0.000000
# 6 0.000000 0.000000 0.000000 0.001568 0.000000 0.030695
#
#
# Mechanical properties :
#
#
# Convention : Reuss Voigt Hill
#
# Bulk Modulus (GPa) = 34.13067 45.76453 39.94760
# Shear Modulus (GPa) = 25.13469 29.82266 27.47868
#
# Velocity S-wave (km/s) = 3.47518 3.78542 3.63362
# Velocity P-wave (km/s) = 5.70104 6.41055 6.06618
#
# Compressibility (1/GPa) = 0.02929916
#
# Stress axis : x y z
#
# Youngs Moduli (GPa) = 87.68207 43.36550 47.57684
#
# Poissons Ratio (x) = 0.14736 0.26056
# Poissons Ratio (y) = 0.29796 0.20064
# Poissons Ratio (z) = 0.48021 0.18288
#
# Static dielectric constant tensor:
#      x y z
#    x 4.051290 0.000000 0.011250 
#    y 0.000000 3.739910 0.000000 
#    z 0.011250 0.000000 3.735320 
# 
# 
# High freq. dielectric constant tensor:
#      x y z
#    x 1.831760 0.000000 -0.000860 
#    y 0.000000 1.823320 0.000000 
#    z -0.000860 0.000000 1.813720 
# 
# From -- ./inp_files/101099.got.cif
#   From: 2010.06.25/outbox.cif.g09.slc.cpg/sg12_51_cif.got.tgz:101099.got - 2010.06.28 00:19:55.
