data_PCOD8107807
_publ_section_title
;
Structure prediction by ZEFSAII (Michael W. Deem and Ramdas Pophale) SiO2 
 PCOD8107807
Probable space group: C 2/M
;
_chemical_formula_sum "Si O2"
_cell_formula_units_Z 48
_cell_length_a 22.516113
_cell_length_b 10.874917
_cell_length_c 11.228210
_cell_angle_alpha 90.000000
_cell_angle_beta 71.934930
_cell_angle_gamma 90.000000
_cell_volume 2613.819872
_symmetry_space_group_name_H-M "C 2/M"
_symmetry_group_IT_number 12
_symmetry_cell_setting 'monoclinic'
loop_
_space_group_symop_operation_xyz
x,y,z
-x,y,-z
-x,-y,-z
x,-y,z
1/2+x,1/2+y,z
1/2-x,1/2+y,-z
1/2-x,1/2-y,-z
1/2+x,1/2-y,z
loop_
_atom_site_type_symbol
_atom_site_label
_atom_site_fract_x
_atom_site_fract_y
_atom_site_fract_z
Si Si1 0.702791 0.858955 0.667373
Si Si2 0.557457 0.139319 0.391582
Si Si3 0.967763 0.740856 0.839018
Si Si4 0.666957 0.257743 0.451750
Si Si5 0.413724 0.854540 0.104695
Si Si6 0.596521 0.500000 0.497020
Si Si7 0.967186 0.000000 0.713566
O O1 0.668828 0.832498 0.563402
O O2 0.763835 0.774460 0.645836
O O3 0.655631 0.829984 0.804187
O O4 0.723714 0.000000 0.657108
O O5 0.500000 0.204045 0.500000
O O6 0.544036 0.147854 0.261199
O O7 0.623130 0.202868 0.377103
O O8 0.562253 0.000000 0.431085
O O9 0.037595 0.716638 0.841432
O O10 0.958183 0.881144 0.802786
O O11 0.917668 0.705876 0.971722
O O12 0.637938 0.385557 0.511852
O O13 0.429713 0.000000 0.091647
O O14 0.534785 0.500000 0.613576
O O15 0.583153 0.500000 0.362796
#
# Coordination Sequence:
#
# PCOD8107807 Si02
#       7
#     8   8   8   8   8   4   4
#     4  10  21  38  57  82 111 151 187 229 277 332
#     4  11  21  34  57  85 112 141 184 238 283 323
#     4  11  21  36  57  84 111 147 183 235 279 336
#     4  11  21  35  58  82 115 144 188 230 278 334
#     4  10  21  38  59  80 112 148 191 231 278 328
#     4  11  20  36  54  86 112 153 175 226 286 340
#     4  11  22  33  58  82 120 143 181 224 286 344
#
# _framework density 18.363928000000001
#
# number of rings (size 3 to 8) (size 9 to 14) (size 15 to 20)
#    0.000    1.333    2.500    5.500    0.000    4.000 
#    0.000    1.667    0.000    0.000    0.000    0.000 
#    0.000    0.000    0.000    0.000    0.000    0.000 
#
# Total GULP energy -297647.408678 kJ/mol
# GULP energy per Si atom -12401.975362 kJ/mol
# Density = 1.832213 g / cm^3
# Si number density = 18.363928 Si / 1000 Ang^3
#
#
#
# Elastic Constant Matrix: (Units=GPa)
#
#
# Indices 1 2 3 4 5 6 
#
# 1 86.2610 20.4593 57.9036 0.0000 -8.1350 0.0000
# 2 20.4593 80.9784 36.0755 0.0000 -10.2573 0.0000
# 3 57.9036 36.0755 128.2674 0.0000 -6.9557 0.0000
# 4 0.0000 0.0000 0.0000 5.4656 0.0000 -14.0588
# 5 -8.1350 -10.2573 -6.9557 0.0000 28.4294 0.0000
# 6 0.0000 0.0000 0.0000 -14.0588 0.0000 19.7926
#
#
#
# Elastic Compliance Matrix: (Units=1/GPa)
#
#
# Indices 1 2 3 4 5 6 
#
# 1 0.016913 -0.000667 -0.007295 0.000000 0.002814 0.000000
# 2 -0.000667 0.014651 -0.003591 0.000000 0.004217 0.000000
# 3 -0.007295 -0.003591 0.012076 0.000000 -0.000428 0.000000
# 4 0.000000 0.000000 0.000000 -0.221221 0.000000 -0.157134
# 5 0.002814 0.004217 -0.000428 0.000000 0.037397 0.000000
# 6 0.000000 0.000000 0.000000 -0.157134 0.000000 -0.061089
#
#
# Mechanical properties :
#
#
# Convention : Reuss Voigt Hill
#
# Bulk Modulus (GPa) = 48.69725 58.26483 53.48104
# Shear Modulus (GPa) = -29.18468 22.80877 -3.18796
#
# Velocity S-wave (km/s) = -3.99085 3.52808 -1.31900
# Velocity P-wave (km/s) = 2.31075 6.95653 5.18328
#
# Compressibility (1/GPa) = 0.02053504
#
# Stress axis : x y z
#
# Youngs Moduli (GPa) = 59.12599 68.25304 82.80827
#
# Poissons Ratio (x) = 0.04551 0.60408
# Poissons Ratio (y) = 0.03942 0.29737
# Poissons Ratio (z) = 0.43132 0.24510
#
# Static dielectric constant tensor:
#      x y z
#    x 3.350280 0.000000 -0.054110 
#    y 0.000000 3.475050 0.000000 
#    z -0.054110 0.000000 3.349440 
# 
# 
# High freq. dielectric constant tensor:
#      x y z
#    x 1.710390 0.000000 -0.002050 
#    y 0.000000 1.722040 0.000000 
#    z -0.002050 0.000000 1.704330 
# 
# From -- ./inp_files/164141.got.cif
#   From: 2010.06.25/outbox.cif.g09.slc.cpg/sg12_83_cif.got.tgz:164141.got - 2010.06.28 00:19:55.
