data_PCOD8107726
_publ_section_title
;
Structure prediction by ZEFSAII (Michael W. Deem and Ramdas Pophale) SiO2 
 PCOD8107726
Probable space group: C 2/M
;
_chemical_formula_sum "Si O2"
_cell_formula_units_Z 56
_cell_length_a 17.569286
_cell_length_b 31.020060
_cell_length_c 8.696259
_cell_angle_alpha 90.000000
_cell_angle_beta 144.327617
_cell_angle_gamma 90.000000
_cell_volume 2763.816964
_symmetry_space_group_name_H-M "C 2/M"
_symmetry_group_IT_number 12
_symmetry_cell_setting 'monoclinic'
loop_
_space_group_symop_operation_xyz
x,y,z
-x,y,-z
-x,-y,-z
x,-y,z
1/2+x,1/2+y,z
1/2-x,1/2+y,-z
1/2-x,1/2-y,-z
1/2+x,1/2-y,z
loop_
_atom_site_type_symbol
_atom_site_label
_atom_site_fract_x
_atom_site_fract_y
_atom_site_fract_z
Si Si1 0.845312 0.048651 0.750095
Si Si2 0.945902 0.165926 0.580572
Si Si3 0.783682 0.603022 0.719391
Si Si4 0.901757 0.245124 0.711192
Si Si5 0.300522 0.373695 0.879726
Si Si6 0.595439 0.158717 0.336134
Si Si7 0.094611 0.395814 0.780127
O O1 0.784891 0.066020 0.491827
O O2 0.795547 0.077102 0.810212
O O3 0.795407 0.000000 0.693264
O O4 0.000000 0.050529 0.000000
O O5 0.818194 0.136808 0.377931
O O6 0.913977 0.214023 0.584898
O O7 0.000000 0.170584 0.500000
O O8 0.053246 0.142255 0.860798
O O9 0.891288 0.630978 0.800819
O O10 0.853148 0.579009 0.981222
O O11 0.750000 0.250000 0.500000
O O12 0.954522 0.293106 0.768803
O O13 0.000000 0.225395 0.000000
O O14 0.239591 0.342321 0.649959
O O15 0.218870 0.373854 0.902854
O O16 0.496171 0.141054 0.299074
O O17 0.000000 0.421199 0.500000
#
# Coordination Sequence:
#
# PCOD8107726 Si02
#       7
#     8   8   8   8   8   8   8
#     4  10  21  37  65  98 124 153 197 253 313 381
#     4  12  24  37  59  91 125 163 200 252 322 366
#     4  11  20  38  65  86 125 156 204 251 305 373
#     4  12  25  40  60  88 126 166 220 268 308 365
#     4  10  21  40  62  89 128 159 198 252 320 374
#     4  10  22  39  64  87 117 168 218 253 298 364
#     4  10  21  38  62  88 118 168 212 245 299 369
#
# _framework density 20.261835000000001
#
# number of rings (size 3 to 8) (size 9 to 14) (size 15 to 20)
#    0.000    1.286    4.286    2.143    2.000    1.714 
#    0.000    2.857    0.000   29.143    0.000    0.000 
#    0.000    0.000    0.000    0.000    0.000    0.000 
#
# Total GULP energy -346967.536233 kJ/mol
# GULP energy per Si atom -12391.697723 kJ/mol
# Density = 2.021572 g / cm^3
# Si number density = 20.261835 Si / 1000 Ang^3
#
#
#
# Elastic Constant Matrix: (Units=GPa)
#
#
# Indices 1 2 3 4 5 6 
#
# 1 112.0813 38.7181 44.0454 0.0000 -6.4925 0.0000
# 2 38.7181 105.1268 39.6110 0.0000 -9.6489 0.0000
# 3 44.0454 39.6110 135.1214 0.0000 -13.7512 0.0000
# 4 0.0000 0.0000 0.0000 0.5456 0.0000 -39.7119
# 5 -6.4925 -9.6489 -13.7512 0.0000 37.6933 0.0000
# 6 0.0000 0.0000 0.0000 -39.7119 0.0000 -68.8258
#
#
#
# Elastic Compliance Matrix: (Units=1/GPa)
#
#
# Indices 1 2 3 4 5 6 
#
# 1 0.011038 -0.003038 -0.002693 0.000000 0.000141 0.000000
# 2 -0.003038 0.011630 -0.002253 0.000000 0.001632 0.000000
# 3 -0.002693 -0.002253 0.009174 0.000000 0.002306 0.000000
# 4 0.000000 0.000000 0.000000 0.042627 0.000000 -0.024596
# 5 0.000141 0.001632 0.002306 0.000000 0.027813 0.000000
# 6 0.000000 0.000000 0.000000 -0.024596 0.000000 -0.000338
#
#
# Mechanical properties :
#
#
# Convention : Reuss Voigt Hill
#
# Bulk Modulus (GPa) = 62.99635 66.34206 64.66921
# Shear Modulus (GPa) = 40.58334 9.21296 24.89815
#
# Velocity S-wave (km/s) = 4.48028 2.13467 3.50926
# Velocity P-wave (km/s) = 7.61069 6.23612 6.95743
#
# Compressibility (1/GPa) = 0.01587394
#
# Stress axis : x y z
#
# Youngs Moduli (GPa) = 90.59664 85.98632 109.00565
#
# Poissons Ratio (x) = 0.26119 0.29357
# Poissons Ratio (y) = 0.27519 0.24560
# Poissons Ratio (z) = 0.24400 0.19373
#
# Static dielectric constant tensor:
#      x y z
#    x 3.714700 0.000000 -0.092980 
#    y 0.000000 3.443880 0.000000 
#    z -0.092980 0.000000 4.315990 
# 
# 
# High freq. dielectric constant tensor:
#      x y z
#    x 1.800590 0.000000 0.003870 
#    y 0.000000 1.748670 0.000000 
#    z 0.003870 0.000000 1.824520 
# 
# From -- ./inp_files/80501.got.cif
#   From: 2010.06.25/outbox.cif.g09.slc.cpg/sg12_41_cif.got.tgz:80501.got - 2010.06.28 00:19:55.
