data_PCOD8107627
_publ_section_title
;
Structure prediction by ZEFSAII (Michael W. Deem and Ramdas Pophale) SiO2 
 PCOD8107627
Probable space group: C 2/M
;
_chemical_formula_sum "Si O2"
_cell_formula_units_Z 52
_cell_length_a 17.462598
_cell_length_b 8.553423
_cell_length_c 22.820021
_cell_angle_alpha 90.000000
_cell_angle_beta 130.475456
_cell_angle_gamma 90.000000
_cell_volume 2592.801004
_symmetry_space_group_name_H-M "C 2/M"
_symmetry_group_IT_number 12
_symmetry_cell_setting 'monoclinic'
loop_
_space_group_symop_operation_xyz
x,y,z
-x,y,-z
-x,-y,-z
x,-y,z
1/2+x,1/2+y,z
1/2-x,1/2+y,-z
1/2-x,1/2-y,-z
1/2+x,1/2-y,z
loop_
_atom_site_type_symbol
_atom_site_label
_atom_site_fract_x
_atom_site_fract_y
_atom_site_fract_z
Si Si1 0.633099 0.827059 0.228272
Si Si2 0.895820 0.000000 0.071707
Si Si3 0.243933 0.500000 0.892809
Si Si4 0.926393 0.744349 0.181366
Si Si5 0.382979 0.500000 0.849408
Si Si6 0.566314 0.180466 0.479484
Si Si7 0.466664 0.672334 0.651210
Si Si8 0.275878 0.175782 0.607000
O O1 0.525217 0.844541 0.207147
O O2 0.643309 0.666260 0.195791
O O3 0.720247 0.812231 0.320368
O O4 0.646628 0.000000 0.202449
O O5 0.890961 0.145880 0.111827
O O6 0.996858 0.000000 0.082246
O O7 0.799942 0.000000 0.982521
O O8 0.171449 0.646203 0.852114
O O9 0.326399 0.500000 0.882598
O O10 0.952928 0.823858 0.256285
O O11 0.500000 0.242549 0.500000
O O12 0.506879 0.209421 0.388790
O O13 0.667839 0.279219 0.528787
O O14 0.592408 0.000000 0.500721
O O15 0.467952 0.500000 0.624869
O O16 0.355886 0.706103 0.620060
O O17 0.301511 0.000000 0.598942
#
# Coordination Sequence:
#
# PCOD8107627 Si02
#       8
#     8   4   4   8   4   8   8   8
#     4   9  19  39  64  90 125 173 216 259 303 381
#     4  10  21  44  66  89 125 169 209 247 316 398
#     4  12  23  38  64  98 130 157 200 270 323 369
#     4  10  21  39  65  93 120 160 213 257 313 369
#     4  10  23  38  64  95 132 172 210 255 323 381
#     4  11  25  40  56  83 122 164 201 249 310 363
#     4  11  22  39  63  87 118 156 202 257 299 364
#     4  10  21  37  62  89 115 159 212 254 298 355
#
# _framework density 20.055531999999999
#
# number of rings (size 3 to 8) (size 9 to 14) (size 15 to 20)
#    0.000    1.692    1.538    2.538    6.462    2.462 
#    1.385    1.538    0.000    1.846    0.000    0.000 
#    0.000    0.000    0.000    0.000    0.000    0.000 
#
# Total GULP energy -322164.495116 kJ/mol
# GULP energy per Si atom -12390.942120 kJ/mol
# Density = 2.000988 g / cm^3
# Si number density = 20.055532 Si / 1000 Ang^3
#
#
#
# Elastic Constant Matrix: (Units=GPa)
#
#
# Indices 1 2 3 4 5 6 
#
# 1 89.3514 28.4942 42.2854 0.0000 -6.9280 0.0000
# 2 28.4942 117.5260 34.7367 0.0000 -2.1411 0.0000
# 3 42.2854 34.7367 112.6186 0.0000 -4.9416 0.0000
# 4 0.0000 0.0000 0.0000 6.5386 0.0000 7.7357
# 5 -6.9280 -2.1411 -4.9416 0.0000 22.3921 0.0000
# 6 0.0000 0.0000 0.0000 7.7357 0.0000 23.4670
#
#
#
# Elastic Compliance Matrix: (Units=1/GPa)
#
#
# Indices 1 2 3 4 5 6 
#
# 1 0.014261 -0.002045 -0.004584 0.000000 0.003205 0.000000
# 2 -0.002045 0.009657 -0.002220 0.000000 -0.000199 0.000000
# 3 -0.004584 -0.002220 0.011323 0.000000 0.000869 0.000000
# 4 0.000000 0.000000 0.000000 0.250715 0.000000 -0.082647
# 5 0.003205 -0.000199 0.000869 0.000000 0.045823 0.000000
# 6 0.000000 0.000000 0.000000 -0.082647 0.000000 0.069857
#
#
# Mechanical properties :
#
#
# Convention : Reuss Voigt Hill
#
# Bulk Modulus (GPa) = 56.99270 58.94762 57.97016
# Shear Modulus (GPa) = 11.75969 24.74486 18.25228
#
# Velocity S-wave (km/s) = 2.42411 3.51638 3.02004
# Velocity P-wave (km/s) = 6.02613 6.77810 6.41314
#
# Compressibility (1/GPa) = 0.01754611
#
# Stress axis : x y z
#
# Youngs Moduli (GPa) = 70.11910 103.55298 88.31359
#
# Poissons Ratio (x) = 0.21172 0.40479
# Poissons Ratio (y) = 0.14336 0.19603
# Poissons Ratio (z) = 0.32139 0.22985
#
# Static dielectric constant tensor:
#      x y z
#    x 3.424770 0.000000 -0.015500 
#    y 0.000000 3.591750 0.000000 
#    z -0.015500 0.000000 3.668030 
# 
# 
# High freq. dielectric constant tensor:
#      x y z
#    x 1.761640 0.000000 0.000590 
#    y 0.000000 1.796480 0.000000 
#    z 0.000590 0.000000 1.784150 
# 
# From -- ./inp_files/274475.got.cif
#   From: 2010.06.25/outbox.cif.g09.slc.cpg/sg12_138_cif.got.tgz:274475.got - 2010.06.28 00:19:55.
