data_PCOD8107155
_publ_section_title
;
Structure prediction by ZEFSAII (Michael W. Deem and Ramdas Pophale) SiO2 
 PCOD8107155
Probable space group: C 2/M
;
_chemical_formula_sum "Si O2"
_cell_formula_units_Z 48
_cell_length_a 26.963024
_cell_length_b 8.803458
_cell_length_c 15.198045
_cell_angle_alpha 90.000000
_cell_angle_beta 139.154287
_cell_angle_gamma 90.000000
_cell_volume 2359.410700
_symmetry_space_group_name_H-M "C 2/M"
_symmetry_group_IT_number 12
_symmetry_cell_setting 'monoclinic'
loop_
_space_group_symop_operation_xyz
x,y,z
-x,y,-z
-x,-y,-z
x,-y,z
1/2+x,1/2+y,z
1/2-x,1/2+y,-z
1/2-x,1/2-y,-z
1/2+x,1/2-y,z
loop_
_atom_site_type_symbol
_atom_site_label
_atom_site_fract_x
_atom_site_fract_y
_atom_site_fract_z
Si Si1 0.444228 0.678705 0.503471
Si Si2 0.537532 0.323551 0.143346
Si Si3 0.209658 0.820739 0.363431
Si Si4 0.191877 0.176834 0.988553
Si Si5 0.029607 0.320829 0.776919
Si Si6 0.215028 0.676902 0.714866
O O1 0.500000 0.728428 0.500000
O O2 0.446621 0.500000 0.522826
O O3 0.467658 0.760586 0.624913
O O4 0.359988 0.728679 0.362991
O O5 0.531419 0.500000 0.162070
O O6 0.623276 0.266793 0.249706
O O7 0.494892 0.224804 0.158415
O O8 0.500000 0.291961 0.000000
O O9 0.250000 0.750000 0.500000
O O10 0.249972 0.761944 0.329161
O O11 0.215124 0.000000 0.375472
O O12 0.220911 0.205979 0.126145
O O13 0.183894 0.000000 0.956836
O O14 0.250000 0.250000 0.000000
O O15 0.111020 0.252182 0.864203
O O16 0.034406 0.500000 0.775537
O O17 0.193158 0.500000 0.680673
#
# Coordination Sequence:
#
# PCOD8107155 Si02
#       6
#     8   8   8   8   8   8
#     4  11  24  41  62  88 119 157 202 251 302 359
#     4  10  21  40  64  87 116 157 202 248 301 357
#     4  10  21  37  58  85 115 150 191 236 290 350
#     4  11  23  41  64  90 122 159 200 247 301 360
#     4  12  25  40  61  90 124 161 203 250 299 357
#     4  10  22  40  62  88 119 155 195 242 299 361
#
# _framework density 20.344063999999999
#
# number of rings (size 3 to 8) (size 9 to 14) (size 15 to 20)
#    0.000    1.333    0.000    5.500    0.000   12.333 
#    0.000    1.667    0.000    0.000    0.000    0.000 
#    0.000    0.000    0.000    0.000    0.000    0.000 
#
# Total GULP energy -297770.837456 kJ/mol
# GULP energy per Si atom -12407.118227 kJ/mol
# Density = 2.029776 g / cm^3
# Si number density = 20.344064 Si / 1000 Ang^3
#
#
#
# Elastic Constant Matrix: (Units=GPa)
#
#
# Indices 1 2 3 4 5 6 
#
# 1 103.9770 31.5262 11.0439 0.0000 4.7321 0.0000
# 2 31.5262 85.5250 27.9741 0.0000 1.1762 0.0000
# 3 11.0439 27.9741 89.1443 0.0000 7.0351 0.0000
# 4 0.0000 0.0000 0.0000 30.3072 0.0000 -0.7902
# 5 4.7321 1.1762 7.0351 0.0000 42.3085 0.0000
# 6 0.0000 0.0000 0.0000 -0.7902 0.0000 34.7429
#
#
#
# Elastic Compliance Matrix: (Units=1/GPa)
#
#
# Indices 1 2 3 4 5 6 
#
# 1 0.010879 -0.003993 -0.000008 0.000000 -0.001105 0.000000
# 2 -0.003993 0.014499 -0.004113 0.000000 0.000727 0.000000
# 3 -0.000008 -0.004113 0.012666 0.000000 -0.001991 0.000000
# 4 0.000000 0.000000 0.000000 0.033015 0.000000 0.000751
# 5 -0.001105 0.000727 -0.001991 0.000000 0.024070 0.000000
# 6 0.000000 0.000000 0.000000 0.000751 0.000000 0.028800
#
#
# Mechanical properties :
#
#
# Convention : Reuss Voigt Hill
#
# Bulk Modulus (GPa) = 45.83180 46.63719 46.23449
# Shear Modulus (GPa) = 33.91451 35.34520 34.62985
#
# Velocity S-wave (km/s) = 4.08738 4.17270 4.13026
# Velocity P-wave (km/s) = 6.69722 6.79627 6.74693
#
# Compressibility (1/GPa) = 0.02181891
#
# Stress axis : x y z
#
# Youngs Moduli (GPa) = 91.91890 68.96807 78.94846
#
# Poissons Ratio (x) = 0.27536 0.00061
# Poissons Ratio (y) = 0.36699 0.32470
# Poissons Ratio (z) = 0.00071 0.28365
#
# Static dielectric constant tensor:
#      x y z
#    x 3.842520 0.000000 -0.027120 
#    y 0.000000 3.903490 0.000000 
#    z -0.027120 0.000000 3.919630 
# 
# 
# High freq. dielectric constant tensor:
#      x y z
#    x 1.812380 0.000000 0.000700 
#    y 0.000000 1.791020 0.000000 
#    z 0.000700 0.000000 1.812360 
# 
# From -- ./inp_files/244908.got.cif
#   From: 2010.06.25/outbox.cif.g09.slc.cpg/sg12_123_cif.got.tgz:244908.got - 2010.06.28 00:19:55.
