data_PCOD8107010
_publ_section_title
;
Structure prediction by ZEFSAII (Michael W. Deem and Ramdas Pophale) SiO2 
 PCOD8107010
Probable space group: C 2/M
;
_chemical_formula_sum "Si O2"
_cell_formula_units_Z 56
_cell_length_a 27.301154
_cell_length_b 9.180862
_cell_length_c 12.317621
_cell_angle_alpha 90.000000
_cell_angle_beta 67.306500
_cell_angle_gamma 90.000000
_cell_volume 2848.368761
_symmetry_space_group_name_H-M "C 2/M"
_symmetry_group_IT_number 12
_symmetry_cell_setting 'monoclinic'
loop_
_space_group_symop_operation_xyz
x,y,z
-x,y,-z
-x,-y,-z
x,-y,z
1/2+x,1/2+y,z
1/2-x,1/2+y,-z
1/2-x,1/2-y,-z
1/2+x,1/2-y,z
loop_
_atom_site_type_symbol
_atom_site_label
_atom_site_fract_x
_atom_site_fract_y
_atom_site_fract_z
Si Si1 0.060162 0.670267 0.435855
Si Si2 0.902812 0.671166 0.835792
Si Si3 0.442736 0.668193 0.998283
Si Si4 0.796755 0.167086 0.903487
Si Si5 0.650214 0.328546 0.759557
Si Si6 0.741624 0.334279 0.302093
Si Si7 0.142077 0.828270 0.520297
O O1 0.066000 0.500000 0.454552
O O2 0.076211 0.710819 0.300523
O O3 0.096526 0.751913 0.490661
O O4 0.000000 0.723615 0.500000
O O5 0.894137 0.500000 0.858454
O O6 0.848767 0.755720 0.903381
O O7 0.943299 0.731637 0.890927
O O8 0.433498 0.500000 0.974393
O O9 0.397280 0.721902 0.121026
O O10 0.500000 0.691426 0.000000
O O11 0.792213 0.181703 0.778503
O O12 0.797370 0.000000 0.940978
O O13 0.750000 0.250000 0.000000
O O14 0.657899 0.500000 0.756378
O O15 0.705804 0.261426 0.749622
O O16 0.635920 0.278029 0.649935
O O17 0.759775 0.500000 0.305732
O O18 0.701219 0.281227 0.430695
O O19 0.134825 0.000000 0.510883
#
# Coordination Sequence:
#
# PCOD8107010 Si02
#       7
#     8   8   8   8   8   8   8
#     4  10  23  41  61  89 122 155 197 248 302 356
#     4  11  23  40  62  89 120 156 200 247 300 358
#     4  10  23  42  62  87 119 157 201 249 299 352
#     4  11  22  37  59  88 122 159 200 245 296 353
#     4  10  22  38  59  87 119 155 197 243 293 354
#     4  10  21  37  57  85 119 152 193 241 292 352
#     4  10  21  39  61  89 119 152 197 244 295 354
#
# _framework density 19.660375999999999
#
# number of rings (size 3 to 8) (size 9 to 14) (size 15 to 20)
#    0.000    1.714    1.429    2.143    2.000    6.286 
#    0.000    0.000    0.000    0.000    0.000    0.000 
#    0.000    0.000    0.000    0.000    0.000    0.000 
#
# Total GULP energy -347307.427314 kJ/mol
# GULP energy per Si atom -12403.836690 kJ/mol
# Density = 1.961563 g / cm^3
# Si number density = 19.660376 Si / 1000 Ang^3
#
#
#
# Elastic Constant Matrix: (Units=GPa)
#
#
# Indices 1 2 3 4 5 6 
#
# 1 110.8884 37.9299 26.9061 0.0000 -4.0115 0.0000
# 2 37.9299 59.5917 24.8459 0.0000 6.3476 0.0000
# 3 26.9061 24.8459 59.0150 0.0000 4.1237 0.0000
# 4 0.0000 0.0000 0.0000 26.8185 0.0000 1.8568
# 5 -4.0115 6.3476 4.1237 0.0000 34.6439 0.0000
# 6 0.0000 0.0000 0.0000 1.8568 0.0000 37.1905
#
#
#
# Elastic Compliance Matrix: (Units=1/GPa)
#
#
# Indices 1 2 3 4 5 6 
#
# 1 0.012174 -0.006874 -0.002867 0.000000 0.003010 0.000000
# 2 -0.006874 0.024495 -0.006866 0.000000 -0.004467 0.000000
# 3 -0.002867 -0.006866 0.021255 0.000000 -0.001604 0.000000
# 4 0.000000 0.000000 0.000000 0.037417 0.000000 -0.001868
# 5 0.003010 -0.004467 -0.001604 0.000000 0.030223 0.000000
# 6 0.000000 0.000000 0.000000 -0.001868 0.000000 0.026982
#
#
# Mechanical properties :
#
#
# Convention : Reuss Voigt Hill
#
# Bulk Modulus (GPa) = 40.47080 45.42876 42.94978
# Shear Modulus (GPa) = 25.77378 29.05148 27.41263
#
# Velocity S-wave (km/s) = 3.62463 3.84821 3.73809
# Velocity P-wave (km/s) = 6.17632 6.54996 6.36588
#
# Compressibility (1/GPa) = 0.02470917
#
# Stress axis : x y z
#
# Youngs Moduli (GPa) = 82.14340 40.82502 47.04846
#
# Poissons Ratio (x) = 0.28063 0.13487
# Poissons Ratio (y) = 0.56466 0.32305
# Poissons Ratio (z) = 0.23547 0.28032
#
# Static dielectric constant tensor:
#      x y z
#    x 3.365920 0.000000 -0.148040 
#    y 0.000000 3.570150 0.000000 
#    z -0.148040 0.000000 3.576950 
# 
# 
# High freq. dielectric constant tensor:
#      x y z
#    x 1.773450 0.000000 0.000590 
#    y 0.000000 1.761180 0.000000 
#    z 0.000590 0.000000 1.780710 
# 
# From -- ./inp_files/180661.got.cif
#   From: 2010.06.25/outbox.cif.g09.slc.cpg/sg12_91_cif.got.tgz:180661.got - 2010.06.28 00:19:55.
