data_PCOD8107986
_publ_section_title
;
Structure prediction by ZEFSAII (Michael W. Deem and Ramdas Pophale) SiO2 
 PCOD8107986
Probable space group: C 2/M
;
_chemical_formula_sum "Si O2"
_cell_formula_units_Z 32
_cell_length_a 10.212188
_cell_length_b 8.905509
_cell_length_c 18.507091
_cell_angle_alpha 90.000000
_cell_angle_beta 106.288995
_cell_angle_gamma 90.000000
_cell_volume 1615.560524
_symmetry_space_group_name_H-M "C 2/M"
_symmetry_group_IT_number 12
_symmetry_cell_setting 'monoclinic'
loop_
_space_group_symop_operation_xyz
x,y,z
-x,y,-z
-x,-y,-z
x,-y,z
1/2+x,1/2+y,z
1/2-x,1/2+y,-z
1/2-x,1/2-y,-z
1/2+x,1/2-y,z
loop_
_atom_site_type_symbol
_atom_site_label
_atom_site_fract_x
_atom_site_fract_y
_atom_site_fract_z
Si Si1 0.491580 0.325731 0.213499
Si Si2 0.891541 0.822844 0.041143
Si Si3 0.652500 0.323057 0.542919
Si Si4 0.299969 0.174340 0.297972
O O1 0.458364 0.500000 0.222876
O O2 0.438724 0.271693 0.127644
O O3 0.417782 0.227616 0.262471
O O4 0.653037 0.296121 0.239713
O O5 0.876447 0.000000 0.033859
O O6 0.750000 0.750000 0.000000
O O7 0.000000 0.762761 0.000000
O O8 0.500000 0.273750 0.500000
O O9 0.671159 0.500000 0.542679
O O10 0.750000 0.250000 0.500000
O O11 0.691867 0.267026 0.627709
O O12 0.322523 0.000000 0.318916
#
# Coordination Sequence:
#
# PCOD8107986 Si02
#       4
#     8   8   8   8
#     4  10  22  39  58  84 118 152 189 237 289 340
#     4  10  21  38  59  84 116 152 191 237 287 340
#     4  11  24  41  61  87 119 153 191 236 286 340
#     4  11  23  39  61  87 115 151 194 237 285 341
#
# _framework density 19.807365999999998
#
# number of rings (size 3 to 8) (size 9 to 14) (size 15 to 20)
#    0.000    1.500    0.000    4.500    0.000   13.500 
#    0.000    0.000    0.000    0.000    0.000    0.000 
#    0.000    0.000    0.000    0.000    0.000    0.000 
#
# Total GULP energy -198499.610608 kJ/mol
# GULP energy per Si atom -12406.225663 kJ/mol
# Density = 1.976228 g / cm^3
# Si number density = 19.807366 Si / 1000 Ang^3
#
#
#
# Elastic Constant Matrix: (Units=GPa)
#
#
# Indices 1 2 3 4 5 6 
#
# 1 114.3856 44.3622 32.2628 0.0000 -10.3150 0.0000
# 2 44.3622 47.3928 27.4205 0.0000 1.5767 0.0000
# 3 32.2628 27.4205 120.5991 0.0000 -4.1788 0.0000
# 4 0.0000 0.0000 0.0000 31.5623 0.0000 -0.2612
# 5 -10.3150 1.5767 -4.1788 0.0000 44.6616 0.0000
# 6 0.0000 0.0000 0.0000 -0.2612 0.0000 40.5830
#
#
#
# Elastic Compliance Matrix: (Units=1/GPa)
#
#
# Indices 1 2 3 4 5 6 
#
# 1 0.014393 -0.013176 -0.000726 0.000000 0.003721 0.000000
# 2 -0.013176 0.036444 -0.004927 0.000000 -0.004791 0.000000
# 3 -0.000726 -0.004927 0.009638 0.000000 0.000908 0.000000
# 4 0.000000 0.000000 0.000000 0.031685 0.000000 0.000204
# 5 0.003721 -0.004791 0.000908 0.000000 0.023504 0.000000
# 6 0.000000 0.000000 0.000000 0.000204 0.000000 0.024642
#
#
# Mechanical properties :
#
#
# Convention : Reuss Voigt Hill
#
# Bulk Modulus (GPa) = 43.82821 54.49649 49.16235
# Shear Modulus (GPa) = 26.94392 35.25018 31.09705
#
# Velocity S-wave (km/s) = 3.69222 4.22317 3.96659
# Velocity P-wave (km/s) = 6.35232 7.16611 6.77145
#
# Compressibility (1/GPa) = 0.02281636
#
# Stress axis : x y z
#
# Youngs Moduli (GPa) = 69.47909 27.43906 103.75793
#
# Poissons Ratio (x) = 0.36155 0.07528
# Poissons Ratio (y) = 0.91549 0.51125
# Poissons Ratio (z) = 0.05041 0.13520
#
# Static dielectric constant tensor:
#      x y z
#    x 3.889600 0.000000 -0.293500 
#    y 0.000000 3.632960 0.000000 
#    z -0.293500 0.000000 4.571040 
# 
# 
# High freq. dielectric constant tensor:
#      x y z
#    x 1.789880 0.000000 0.000560 
#    y 0.000000 1.773350 0.000000 
#    z 0.000560 0.000000 1.791650 
# 
# From -- ./inp_files/202051.got.cif
#   From: 2010.06.25/outbox.cif.g09.slc.cpg/sg12_102_cif.got.tgz:202051.got - 2010.06.28 00:19:55.
