data_PCOD8107772
_publ_section_title
;
Structure prediction by ZEFSAII (Michael W. Deem and Ramdas Pophale) SiO2 
 PCOD8107772
Probable space group: C 2/M
;
_chemical_formula_sum "Si O2"
_cell_formula_units_Z 48
_cell_length_a 17.770940
_cell_length_b 9.478746
_cell_length_c 27.240912
_cell_angle_alpha 90.000000
_cell_angle_beta 34.757967
_cell_angle_gamma 90.000000
_cell_volume 2616.027806
_symmetry_space_group_name_H-M "C 2/M"
_symmetry_group_IT_number 12
_symmetry_cell_setting 'monoclinic'
loop_
_space_group_symop_operation_xyz
x,y,z
-x,y,-z
-x,-y,-z
x,-y,z
1/2+x,1/2+y,z
1/2-x,1/2+y,-z
1/2-x,1/2-y,-z
1/2+x,1/2-y,z
loop_
_atom_site_type_symbol
_atom_site_label
_atom_site_fract_x
_atom_site_fract_y
_atom_site_fract_z
Si Si1 0.844174 0.338778 0.581137
Si Si2 0.771892 0.163798 0.251809
Si Si3 0.972977 0.658990 0.093292
Si Si4 0.792539 0.332667 0.429126
Si Si5 0.291002 0.158919 0.095763
Si Si6 0.597091 0.163225 0.253807
O O1 0.805147 0.500000 0.587888
O O2 0.784056 0.294705 0.665477
O O3 0.792249 0.226739 0.570082
O O4 0.000000 0.324705 0.500000
O O5 0.911200 0.242954 0.168634
O O6 0.662422 0.209355 0.270417
O O7 0.803129 0.000000 0.230948
O O8 0.978983 0.500000 0.110433
O O9 0.881122 0.666874 0.095222
O O10 0.120503 0.709333 0.998342
O O11 0.768493 0.500000 0.448428
O O12 0.750000 0.250000 0.500000
O O13 0.944421 0.297676 0.337421
O O14 0.163169 0.256384 0.172251
O O15 0.241291 0.000000 0.113563
O O16 0.620489 0.000000 0.231260
#
# Coordination Sequence:
#
# PCOD8107772 Si02
#       6
#     8   8   8   8   8   8
#     4  10  21  38  57  76 103 136 169 211 260 307
#     4   9  17  30  50  74 100 133 169 204 250 303
#     4   8  14  25  42  68 102 133 163 204 249 291
#     4  11  23  38  56  78 104 134 170 211 256 307
#     4   8  14  25  43  69 100 133 166 202 247 295
#     4   9  18  32  50  74 103 133 166 207 252 297
#
# _framework density 18.348428999999999
#
# number of rings (size 3 to 8) (size 9 to 14) (size 15 to 20)
#    0.000    2.833    0.000    2.500    0.000    5.667 
#    0.000    6.667    0.000    1.000    0.000    0.000 
#    0.000    0.000    0.000    0.000    0.000    0.000 
#
# Total GULP energy -297514.438323 kJ/mol
# GULP energy per Si atom -12396.434930 kJ/mol
# Density = 1.830667 g / cm^3
# Si number density = 18.348429 Si / 1000 Ang^3
#
#
#
# Elastic Constant Matrix: (Units=GPa)
#
#
# Indices 1 2 3 4 5 6 
#
# 1 55.7948 38.7966 44.9031 0.0000 2.4055 -0.0001
# 2 38.7966 83.3413 81.4649 0.0000 0.5047 -0.0003
# 3 44.9031 81.4649 173.7464 -0.0001 7.2316 0.0000
# 4 0.0000 0.0000 -0.0001 40.1413 0.0000 1.0596
# 5 2.4055 0.5047 7.2316 0.0000 21.7347 0.0000
# 6 -0.0001 -0.0003 0.0000 1.0596 0.0000 15.9618
#
#
#
# Elastic Compliance Matrix: (Units=1/GPa)
#
#
# Indices 1 2 3 4 5 6 
#
# 1 0.026965 -0.010733 -0.001848 0.000000 -0.002120 0.000000
# 2 -0.010733 0.026616 -0.009866 0.000000 0.003852 0.000000
# 3 -0.001848 -0.009866 0.010993 0.000000 -0.003224 0.000000
# 4 0.000000 0.000000 0.000000 0.024956 0.000000 -0.001657
# 5 -0.002120 0.003852 -0.003224 0.000000 0.047227 0.000000
# 6 0.000000 0.000000 0.000000 -0.001657 0.000000 0.062760
#
#
# Mechanical properties :
#
#
# Convention : Reuss Voigt Hill
#
# Bulk Modulus (GPa) = 50.81443 71.46797 61.14120
# Shear Modulus (GPa) = 19.92268 25.41543 22.66905
#
# Velocity S-wave (km/s) = 3.29872 3.72581 3.51875
# Velocity P-wave (km/s) = 6.50100 7.58577 7.06424
#
# Compressibility (1/GPa) = 0.01967945
#
# Stress axis : x y z
#
# Youngs Moduli (GPa) = 37.08533 37.57174 90.96602
#
# Poissons Ratio (x) = 0.40327 0.16810
# Poissons Ratio (y) = 0.39805 0.89745
# Poissons Ratio (z) = 0.06853 0.37068
#
# Static dielectric constant tensor:
#      x y z
#    x 3.059060 0.000000 0.000690 
#    y 0.000000 3.451130 0.000000 
#    z 0.000690 0.000000 3.843270 
# 
# 
# High freq. dielectric constant tensor:
#      x y z
#    x 1.670330 0.000000 0.000840 
#    y 0.000000 1.708960 0.000000 
#    z 0.000840 0.000000 1.731730 
# 
# From -- ./inp_files/380133.got.cif
#   From: 2010.06.25/outbox.cif.g09.slc.cpg/sg12_191_cif.got.tgz:380133.got - 2010.06.28 00:19:55.
