data_PCOD8107337
_publ_section_title
;
Structure prediction by ZEFSAII (Michael W. Deem and Ramdas Pophale) SiO2 
 PCOD8107337
Probable space group: C 2/M
;
_chemical_formula_sum "Si O2"
_cell_formula_units_Z 56
_cell_length_a 16.074088
_cell_length_b 21.993297
_cell_length_c 9.474460
_cell_angle_alpha 90.000000
_cell_angle_beta 128.077405
_cell_angle_gamma 90.000000
_cell_volume 2636.600056
_symmetry_space_group_name_H-M "C 2/M"
_symmetry_group_IT_number 12
_symmetry_cell_setting 'monoclinic'
loop_
_space_group_symop_operation_xyz
x,y,z
-x,y,-z
-x,-y,-z
x,-y,z
1/2+x,1/2+y,z
1/2-x,1/2+y,-z
1/2-x,1/2-y,-z
1/2+x,1/2-y,z
loop_
_atom_site_type_symbol
_atom_site_label
_atom_site_fract_x
_atom_site_fract_y
_atom_site_fract_z
Si Si1 0.953283 0.431449 0.596733
Si Si2 0.799067 0.862504 0.337514
Si Si3 0.434902 0.161060 0.795440
Si Si4 0.333937 0.764506 0.470756
Si Si5 0.834675 0.929105 0.093186
Si Si6 0.744965 0.614490 0.277090
Si Si7 0.922134 0.070781 0.695971
O O1 0.992307 0.500000 0.655958
O O2 0.991145 0.396611 0.778303
O O3 0.826302 0.426275 0.453177
O O4 0.000000 0.403219 0.500000
O O5 0.682927 0.856922 0.281531
O O6 0.857994 0.796491 0.406688
O O7 0.792431 0.885761 0.171874
O O8 0.868837 0.912074 0.492258
O O9 0.434028 0.211606 0.668294
O O10 0.500000 0.183366 0.000000
O O11 0.250000 0.750000 0.500000
O O12 0.287102 0.816129 0.317499
O O13 0.954874 0.912748 0.181198
O O14 0.822420 0.000000 0.120460
O O15 0.760271 0.912649 0.884333
O O16 0.631141 0.609864 0.234447
O O17 0.905770 0.000000 0.711414
#
# Coordination Sequence:
#
# PCOD8107337 Si02
#       7
#     8   8   8   8   8   8   8
#     4  10  21  37  59  87 123 162 203 249 306 371
#     4  11  22  42  64  88 131 165 204 260 322 368
#     4  10  22  40  64  89 120 160 211 260 310 370
#     4   9  19  43  65  86 123 163 210 256 305 382
#     4  11  25  39  62 102 132 158 213 268 312 384
#     4  11  21  40  66  87 130 167 206 259 316 360
#     4  11  21  40  66  91 125 171 213 254 321 385
#
# _framework density 21.239474999999999
#
# number of rings (size 3 to 8) (size 9 to 14) (size 15 to 20)
#    0.000    1.571    4.286    2.571    2.000    3.714 
#    5.143    5.714    0.000    0.000    0.000    0.000 
#    0.000    0.000    0.000    0.000    0.000    0.000 
#
# Total GULP energy -347098.127761 kJ/mol
# GULP energy per Si atom -12396.361706 kJ/mol
# Density = 2.119113 g / cm^3
# Si number density = 21.239475 Si / 1000 Ang^3
#
#
#
# Elastic Constant Matrix: (Units=GPa)
#
#
# Indices 1 2 3 4 5 6 
#
# 1 54.9812 32.8035 12.2841 0.0000 -12.7506 0.0000
# 2 32.8035 104.0959 45.4382 0.0000 -14.7430 0.0000
# 3 12.2841 45.4382 103.9400 0.0000 -13.0849 0.0000
# 4 0.0000 0.0000 0.0000 30.4155 0.0000 -11.9910
# 5 -12.7506 -14.7430 -13.0849 0.0000 32.3070 0.0000
# 6 0.0000 0.0000 0.0000 -11.9910 0.0000 25.7169
#
#
#
# Elastic Compliance Matrix: (Units=1/GPa)
#
#
# Indices 1 2 3 4 5 6 
#
# 1 0.023644 -0.006996 0.001092 0.000000 0.006582 0.000000
# 2 -0.006996 0.014328 -0.005228 0.000000 0.001660 0.000000
# 3 0.001092 -0.005228 0.012151 0.000000 0.002967 0.000000
# 4 0.000000 0.000000 0.000000 0.040283 0.000000 0.018783
# 5 0.006582 0.001660 0.002967 0.000000 0.035510 0.000000
# 6 0.000000 0.000000 0.000000 0.018783 0.000000 0.047643
#
#
# Mechanical properties :
#
#
# Convention : Reuss Voigt Hill
#
# Bulk Modulus (GPa) = 35.89282 49.34097 42.61689
# Shear Modulus (GPa) = 24.37749 29.18730 26.78240
#
# Velocity S-wave (km/s) = 3.39151 3.71104 3.55487
# Velocity P-wave (km/s) = 5.68087 6.45319 6.07931
#
# Compressibility (1/GPa) = 0.02786073
#
# Stress axis : x y z
#
# Youngs Moduli (GPa) = 42.29389 69.79267 82.29967
#
# Poissons Ratio (x) = 0.48824 -0.08990
# Poissons Ratio (y) = 0.29587 0.43025
# Poissons Ratio (z) = -0.04620 0.36487
#
# Static dielectric constant tensor:
#      x y z
#    x 3.701380 0.000000 -0.134460 
#    y 0.000000 7.172300 0.000000 
#    z -0.134460 0.000000 3.899260 
# 
# 
# High freq. dielectric constant tensor:
#      x y z
#    x 1.824690 0.000000 -0.007050 
#    y 0.000000 1.830920 0.000000 
#    z -0.007050 0.000000 1.828220 
# 
# From -- ./inp_files/65995.got.cif
#   From: 2010.06.25/outbox.cif.g09.slc.cpg/sg12_33_cif.got.tgz:65995.got - 2010.06.28 00:19:55.
