data_PCOD8107149
_publ_section_title
;
Structure prediction by ZEFSAII (Michael W. Deem and Ramdas Pophale) SiO2 
 PCOD8107149
Probable space group: C 2/M
;
_chemical_formula_sum "Si O2"
_cell_formula_units_Z 40
_cell_length_a 16.870195
_cell_length_b 25.533327
_cell_length_c 8.383121
_cell_angle_alpha 90.000000
_cell_angle_beta 33.990439
_cell_angle_gamma 90.000000
_cell_volume 2018.772749
_symmetry_space_group_name_H-M "C 2/M"
_symmetry_group_IT_number 12
_symmetry_cell_setting 'monoclinic'
loop_
_space_group_symop_operation_xyz
x,y,z
-x,y,-z
-x,-y,-z
x,-y,z
1/2+x,1/2+y,z
1/2-x,1/2+y,-z
1/2-x,1/2-y,-z
1/2+x,1/2-y,z
loop_
_atom_site_type_symbol
_atom_site_label
_atom_site_fract_x
_atom_site_fract_y
_atom_site_fract_z
Si Si1 0.397451 0.649580 0.410940
Si Si2 0.603900 0.941755 0.597787
Si Si3 0.849413 0.254360 0.684472
Si Si4 0.203317 0.149398 0.782664
Si Si5 0.701997 0.058362 0.797107
O O1 0.353128 0.700587 0.581401
O O2 0.341411 0.652262 0.325622
O O3 0.328491 0.599638 0.616092
O O4 0.567826 0.644751 0.125293
O O5 0.697154 0.900366 0.343268
O O6 0.655433 0.940794 0.692416
O O7 0.627772 0.000000 0.486311
O O8 0.436947 0.926880 0.866285
O O9 0.791806 0.298272 0.662285
O O10 0.000000 0.271703 0.500000
O O11 0.750000 0.250000 0.000000
O O12 0.756240 0.000000 0.751544
#
# Coordination Sequence:
#
# PCOD8107149 Si02
#       5
#     8   8   8   8   8
#     4  10  21  37  58  85 113 144 187 230 276 330
#     4   8  15  29  52  83 114 143 179 223 272 325
#     4  12  25  42  57  78 112 150 189 231 282 334
#     4  10  21  37  58  85 113 144 186 232 275 328
#     4   8  15  29  52  83 114 143 178 224 274 323
#
# _framework density 19.814018000000001
#
# number of rings (size 3 to 8) (size 9 to 14) (size 15 to 20)
#    0.000    2.400    2.000    1.800    2.800    0.800 
#    0.000    4.000    0.000    2.400    0.000    0.000 
#    0.000    0.000    0.000    0.000    0.000    0.000 
#
# Total GULP energy -247941.888780 kJ/mol
# GULP energy per Si atom -12397.094439 kJ/mol
# Density = 1.976892 g / cm^3
# Si number density = 19.814018 Si / 1000 Ang^3
#
#
#
# Elastic Constant Matrix: (Units=GPa)
#
#
# Indices 1 2 3 4 5 6 
#
# 1 25.9239 31.9089 26.9744 0.0000 -16.7476 -0.0001
# 2 31.9089 189.5498 108.5241 0.0000 -21.4396 0.0000
# 3 26.9744 108.5241 158.1804 0.0000 -22.7824 -0.0001
# 4 0.0000 0.0000 0.0000 40.3158 0.0000 -12.4446
# 5 -16.7476 -21.4396 -22.7824 0.0000 26.3523 0.0001
# 6 -0.0001 0.0000 -0.0001 -12.4446 0.0001 1.9788
#
#
#
# Elastic Compliance Matrix: (Units=1/GPa)
#
#
# Indices 1 2 3 4 5 6 
#
# 1 0.075507 -0.006754 -0.002424 -0.000001 0.040396 -0.000003
# 2 -0.006754 0.009404 -0.005502 0.000000 -0.001397 0.000001
# 3 -0.002424 -0.005502 0.011015 0.000000 0.003506 0.000000
# 4 -0.000001 0.000000 0.000000 -0.026351 0.000000 -0.165724
# 5 0.040396 -0.001397 0.003506 0.000000 0.065514 0.000000
# 6 -0.000003 0.000001 0.000000 -0.165724 0.000000 -0.536882
#
#
# Mechanical properties :
#
#
# Convention : Reuss Voigt Hill
#
# Bulk Modulus (GPa) = 15.02254 78.71877 46.87065
# Shear Modulus (GPa) = -14.27578 27.47916 6.60169
#
# Velocity S-wave (km/s) = -2.68710 3.72809 1.82731
# Velocity P-wave (km/s) = 1.42448 7.63850 5.30648
#
# Compressibility (1/GPa) = 0.06656664
#
# Stress axis : x y z
#
# Youngs Moduli (GPa) = 13.24381 106.33226 90.78600
#
# Poissons Ratio (x) = 0.71813 0.22010
# Poissons Ratio (y) = 0.08944 0.49948
# Poissons Ratio (z) = 0.03211 0.58502
#
# Static dielectric constant tensor:
#      x y z
#    x 3.289800 0.000000 -0.245330 
#    y 0.000000 3.990980 0.000000 
#    z -0.245330 0.000000 3.930310 
# 
# 
# High freq. dielectric constant tensor:
#      x y z
#    x 1.742380 0.000000 -0.011170 
#    y 0.000000 1.782400 0.000000 
#    z -0.011170 0.000000 1.780380 
# 
# From -- ./inp_files/40300.got.cif
#   From: 2010.06.25/outbox.cif.g09.slc.cpg/sg12_21_cif.got.tgz:40300.got - 2010.06.28 00:19:55.
