data_PCOD8107315
_publ_section_title
;
Structure prediction by ZEFSAII (Michael W. Deem and Ramdas Pophale) SiO2 
 PCOD8107315
Probable space group: C 2/M
;
_chemical_formula_sum "Si O2"
_cell_formula_units_Z 64
_cell_length_a 14.686084
_cell_length_b 19.185450
_cell_length_c 15.195710
_cell_angle_alpha 90.000000
_cell_angle_beta 132.146144
_cell_angle_gamma 90.000000
_cell_volume 3174.479057
_symmetry_space_group_name_H-M "C 2/M"
_symmetry_group_IT_number 12
_symmetry_cell_setting 'monoclinic'
loop_
_space_group_symop_operation_xyz
x,y,z
-x,y,-z
-x,-y,-z
x,-y,z
1/2+x,1/2+y,z
1/2-x,1/2+y,-z
1/2-x,1/2-y,-z
1/2+x,1/2-y,z
loop_
_atom_site_type_symbol
_atom_site_label
_atom_site_fract_x
_atom_site_fract_y
_atom_site_fract_z
Si Si1 0.631744 0.419663 0.118145
Si Si2 0.440454 0.168633 0.602981
Si Si3 0.238487 0.670138 0.352071
Si Si4 0.545038 0.326679 0.385180
Si Si5 0.277297 0.328679 0.661978
Si Si6 0.808084 0.920641 0.245187
Si Si7 0.412211 0.079358 0.016380
Si Si8 0.376091 0.919653 0.185555
O O1 0.617962 0.500000 0.138241
O O2 0.683103 0.377892 0.233985
O O3 0.729543 0.411014 0.102599
O O4 0.500000 0.390466 0.000000
O O5 0.353987 0.154066 0.629935
O O6 0.496382 0.246195 0.641335
O O7 0.361494 0.154782 0.463010
O O8 0.555779 0.117337 0.688255
O O9 0.377701 0.660331 0.476324
O O10 0.218426 0.748510 0.303473
O O11 0.221744 0.613851 0.264147
O O12 0.628358 0.342138 0.355230
O O13 0.429932 0.377119 0.307952
O O14 0.729369 0.918477 0.105154
O O15 0.841235 0.000000 0.292906
O O16 0.458361 0.000000 0.055591
O O17 0.500000 0.116858 0.000000
O O18 0.415820 0.113710 0.116468
O O19 0.413395 0.000000 0.213068
#
# Coordination Sequence:
#
# PCOD8107315 Si02
#       8
#     8   8   8   8   8   8   8   8
#     4  10  23  40  59  84 118 155 193 245 296 338
#     4   9  19  38  61  83 115 154 194 241 287 345
#     4   9  19  37  57  83 119 153 188 236 293 350
#     4   9  20  36  56  84 116 152 192 235 292 352
#     4   9  20  39  61  82 112 161 201 229 286 355
#     4  11  22  34  57  88 117 152 196 245 301 363
#     4   9  19  36  56  80 114 155 190 230 293 356
#     4  10  21  37  59  87 115 149 194 241 291 343
#
# _framework density 20.160786999999999
#
# number of rings (size 3 to 8) (size 9 to 14) (size 15 to 20)
#    0.000    2.500    0.000    2.625    3.500    4.000 
#    0.000    7.500    0.000    0.000    0.000    0.000 
#    0.000    0.000    0.000    0.000    0.000    0.000 
#
# Total GULP energy -396678.012724 kJ/mol
# GULP energy per Si atom -12396.187898 kJ/mol
# Density = 2.011490 g / cm^3
# Si number density = 20.160787 Si / 1000 Ang^3
#
#
#
# Elastic Constant Matrix: (Units=GPa)
#
#
# Indices 1 2 3 4 5 6 
#
# 1 56.1274 40.3757 36.8435 0.0000 7.7896 0.0000
# 2 40.3757 88.6862 56.3805 0.0000 2.0055 0.0000
# 3 36.8435 56.3805 110.8688 0.0000 1.3205 0.0000
# 4 0.0000 0.0000 0.0000 18.9872 0.0000 -9.1761
# 5 7.7896 2.0055 1.3205 0.0000 33.8156 0.0000
# 6 0.0000 0.0000 0.0000 -9.1761 0.0000 21.4890
#
#
#
# Elastic Compliance Matrix: (Units=1/GPa)
#
#
# Indices 1 2 3 4 5 6 
#
# 1 0.028832 -0.010266 -0.004291 0.000000 -0.005865 0.000000
# 2 -0.010266 0.020332 -0.006945 0.000000 0.001430 0.000000
# 3 -0.004291 -0.006945 0.013967 0.000000 0.000855 0.000000
# 4 0.000000 0.000000 0.000000 0.066362 0.000000 0.028338
# 5 -0.005865 0.001430 0.000855 0.000000 0.030805 0.000000
# 6 0.000000 0.000000 0.000000 0.028338 0.000000 0.058636
#
#
# Mechanical properties :
#
#
# Convention : Reuss Voigt Hill
#
# Bulk Modulus (GPa) = 49.68256 58.09797 53.89027
# Shear Modulus (GPa) = 18.61175 22.99722 20.80448
#
# Velocity S-wave (km/s) = 3.04166 3.38108 3.21585
# Velocity P-wave (km/s) = 6.08541 6.64245 6.37002
#
# Compressibility (1/GPa) = 0.02012779
#
# Stress axis : x y z
#
# Youngs Moduli (GPa) = 34.68370 49.18310 71.59552
#
# Poissons Ratio (x) = 0.50489 0.30722
# Poissons Ratio (y) = 0.35605 0.49725
# Poissons Ratio (z) = 0.14883 0.34159
#
# Static dielectric constant tensor:
#      x y z
#    x 3.738710 0.000000 0.006220 
#    y 0.000000 3.493660 0.000000 
#    z 0.006220 0.000000 3.723410 
# 
# 
# High freq. dielectric constant tensor:
#      x y z
#    x 1.797900 0.000000 0.003500 
#    y 0.000000 1.764880 0.000000 
#    z 0.003500 0.000000 1.787000 
# 
# From -- ./inp_files/216805.got.cif
#   From: 2010.06.25/outbox.cif.g09.slc.cpg/sg12_109_cif.got.tgz:216805.got - 2010.06.28 00:19:55.
