data_PCOD8107601
_publ_section_title
;
Structure prediction by ZEFSAII (Michael W. Deem and Ramdas Pophale) SiO2 
 PCOD8107601
Probable space group: C 2/M
;
_chemical_formula_sum "Si O2"
_cell_formula_units_Z 64
_cell_length_a 25.258021
_cell_length_b 16.885547
_cell_length_c 15.073189
_cell_angle_alpha 90.000000
_cell_angle_beta 29.725123
_cell_angle_gamma 90.000000
_cell_volume 3187.577242
_symmetry_space_group_name_H-M "C 2/M"
_symmetry_group_IT_number 12
_symmetry_cell_setting 'monoclinic'
loop_
_space_group_symop_operation_xyz
x,y,z
-x,y,-z
-x,-y,-z
x,-y,z
1/2+x,1/2+y,z
1/2-x,1/2+y,-z
1/2-x,1/2-y,-z
1/2+x,1/2-y,z
loop_
_atom_site_type_symbol
_atom_site_label
_atom_site_fract_x
_atom_site_fract_y
_atom_site_fract_z
Si Si1 0.662845 0.851606 0.716715
Si Si2 0.624291 0.591390 0.678767
Si Si3 0.586540 0.158307 0.175784
Si Si4 0.549115 0.910052 0.047680
Si Si5 0.873458 0.591342 0.559287
Si Si6 0.927140 0.824073 0.894346
Si Si7 0.178751 0.181231 0.764211
Si Si8 0.768723 0.590034 0.896798
O O1 0.755771 0.896845 0.530235
O O2 0.640718 0.894518 0.842148
O O3 0.697696 0.761357 0.681636
O O4 0.554327 0.853890 0.816023
O O5 0.592314 0.500000 0.724106
O O6 0.543880 0.637936 0.731004
O O7 0.613215 0.621848 0.796090
O O8 0.490311 0.125378 0.374423
O O9 0.568919 0.249185 0.176078
O O10 0.693478 0.147349 0.078575
O O11 0.600730 0.106042 0.067346
O O12 0.509291 0.000000 0.098210
O O13 0.865679 0.500000 0.539766
O O14 0.792517 0.642520 0.618558
O O15 0.849873 0.599849 0.697227
O O16 0.886768 0.800006 0.051244
O O17 0.849474 0.888092 0.963093
O O18 0.767796 0.500000 0.932488
#
# Coordination Sequence:
#
# PCOD8107601 Si02
#       8
#     8   8   8   8   8   8   8   8
#     4  11  22  40  58  87 121 153 199 241 295 346
#     4  12  24  38  61  87 119 161 199 236 290 358
#     4  12  21  38  62  90 117 151 203 243 299 352
#     4  11  22  36  60  87 121 156 192 246 295 347
#     4  10  21  37  61  93 123 150 191 248 299 345
#     4  11  24  40  59  87 122 157 197 241 293 350
#     4  11  22  39  60  86 121 157 195 237 293 355
#     4  10  22  40  62  88 120 155 195 246 298 349
#
# _framework density 20.077945
#
# number of rings (size 3 to 8) (size 9 to 14) (size 15 to 20)
#    0.000    1.000    1.250    7.125    1.750    3.000 
#    0.000    0.000    0.000    0.000    0.000    2.625 
#    0.000    0.000    0.000    0.000    0.000    0.000 
#
# Total GULP energy -396978.640099 kJ/mol
# GULP energy per Si atom -12405.582503 kJ/mol
# Density = 2.003225 g / cm^3
# Si number density = 20.077945 Si / 1000 Ang^3
#
#
#
# Elastic Constant Matrix: (Units=GPa)
#
#
# Indices 1 2 3 4 5 6 
#
# 1 117.0199 37.6910 21.6717 0.0000 -1.9702 0.0000
# 2 37.6910 116.7235 1.0914 0.0000 5.1809 0.0000
# 3 21.6717 1.0914 54.2455 0.0000 2.4387 0.0000
# 4 0.0000 0.0000 0.0000 24.3369 0.0000 -0.5628
# 5 -1.9702 5.1809 2.4387 0.0000 20.6315 0.0000
# 6 0.0000 0.0000 0.0000 -0.5628 0.0000 35.5869
#
#
#
# Elastic Compliance Matrix: (Units=1/GPa)
#
#
# Indices 1 2 3 4 5 6 
#
# 1 0.010478 -0.003449 -0.004223 0.000000 0.002366 0.000000
# 2 -0.003449 0.009799 0.001313 0.000000 -0.002945 0.000000
# 3 -0.004223 0.001313 0.020236 0.000000 -0.003125 0.000000
# 4 0.000000 0.000000 0.000000 0.041105 0.000000 0.000650
# 5 0.002366 -0.002945 -0.003125 0.000000 0.049804 0.000000
# 6 0.000000 0.000000 0.000000 0.000650 0.000000 0.028110
#
#
# Mechanical properties :
#
#
# Convention : Reuss Voigt Hill
#
# Bulk Modulus (GPa) = 35.97684 45.43303 40.70494
# Shear Modulus (GPa) = 27.54558 31.28005 29.41282
#
# Velocity S-wave (km/s) = 3.70798 3.95135 3.83159
# Velocity P-wave (km/s) = 6.02409 6.59507 6.31603
#
# Compressibility (1/GPa) = 0.02779566
#
# Stress axis : x y z
#
# Youngs Moduli (GPa) = 95.43400 102.04644 49.41683
#
# Poissons Ratio (x) = 0.35197 0.20870
# Poissons Ratio (y) = 0.32916 -0.06489
# Poissons Ratio (z) = 0.40304 -0.13401
#
# Static dielectric constant tensor:
#      x y z
#    x 3.685640 0.000000 0.040730 
#    y 0.000000 3.715860 0.000000 
#    z 0.040730 0.000000 3.488310 
# 
# 
# High freq. dielectric constant tensor:
#      x y z
#    x 1.789290 0.000000 -0.000170 
#    y 0.000000 1.794520 0.000000 
#    z -0.000170 0.000000 1.774000 
# 
# From -- ./inp_files/241487.got.cif
#   From: 2010.06.25/outbox.cif.g09.slc.cpg/sg12_121_cif.got.tgz:241487.got - 2010.06.28 00:19:55.
