data_PCOD8107933
_publ_section_title
;
Structure prediction by ZEFSAII (Michael W. Deem and Ramdas Pophale) SiO2 
 PCOD8107933
Probable space group: C 2/M
;
_chemical_formula_sum "Si O2"
_cell_formula_units_Z 48
_cell_length_a 30.426942
_cell_length_b 9.145616
_cell_length_c 8.912188
_cell_angle_alpha 90.000000
_cell_angle_beta 86.327428
_cell_angle_gamma 90.000000
_cell_volume 2474.929445
_symmetry_space_group_name_H-M "C 2/M"
_symmetry_group_IT_number 12
_symmetry_cell_setting 'monoclinic'
loop_
_space_group_symop_operation_xyz
x,y,z
-x,y,-z
-x,-y,-z
x,-y,z
1/2+x,1/2+y,z
1/2-x,1/2+y,-z
1/2-x,1/2-y,-z
1/2+x,1/2-y,z
loop_
_atom_site_type_symbol
_atom_site_label
_atom_site_fract_x
_atom_site_fract_y
_atom_site_fract_z
Si Si1 0.588399 0.667443 0.625560
Si Si2 0.172690 0.169814 0.793920
Si Si3 0.073818 0.326965 0.323124
Si Si4 0.150136 0.833258 0.138884
Si Si5 0.246783 0.831930 0.156322
Si Si6 0.002352 0.832171 0.828413
O O1 0.589332 0.500000 0.567784
O O2 0.635248 0.713219 0.684084
O O3 0.577852 0.773228 0.491774
O O4 0.552256 0.686519 0.762965
O O5 0.217298 0.258460 0.740516
O O6 0.184422 0.000000 0.783420
O O7 0.156548 0.211216 0.964287
O O8 0.072270 0.500000 0.322075
O O9 0.114933 0.274673 0.216621
O O10 0.028581 0.267104 0.266296
O O11 0.196080 0.817240 0.222163
O O12 0.132871 0.000000 0.153804
O O13 0.259447 0.000000 0.130148
O O14 0.250000 0.750000 0.000000
O O15 0.986501 0.000000 0.818708
O O16 0.000000 0.778069 0.000000
#
# Coordination Sequence:
#
# PCOD8107933 Si02
#       6
#     8   8   8   8   8   8
#     4  10  21  38  59  81 109 147 183 217 266 328
#     4   9  18  34  58  85 109 138 182 232 275 319
#     4  12  25  37  53  81 115 147 180 223 273 320
#     4   9  18  35  57  80 108 144 187 227 266 322
#     4   9  17  30  52  81 111 143 180 225 274 322
#     4  10  21  40  65  86 105 137 182 224 265 323
#
# _framework density 19.394490999999999
#
# number of rings (size 3 to 8) (size 9 to 14) (size 15 to 20)
#    0.000    2.167    0.000    4.500    0.000    9.667 
#    0.000    2.500    0.000    0.000    0.000    0.000 
#    0.000    0.000    0.000    0.000    0.000    0.000 
#
# Total GULP energy -297595.984711 kJ/mol
# GULP energy per Si atom -12399.832696 kJ/mol
# Density = 1.935035 g / cm^3
# Si number density = 19.394491 Si / 1000 Ang^3
#
#
#
# Elastic Constant Matrix: (Units=GPa)
#
#
# Indices 1 2 3 4 5 6 
#
# 1 90.3071 40.6447 11.4719 0.0000 30.5599 0.0000
# 2 40.6447 96.7485 24.7508 0.0000 19.6076 0.0000
# 3 11.4719 24.7508 60.1942 0.0000 24.2756 0.0000
# 4 0.0000 0.0000 0.0000 20.1303 0.0000 -0.5490
# 5 30.5599 19.6076 24.2756 0.0000 25.6792 0.0000
# 6 0.0000 0.0000 0.0000 -0.5490 0.0000 34.7826
#
#
#
# Elastic Compliance Matrix: (Units=1/GPa)
#
#
# Indices 1 2 3 4 5 6 
#
# 1 0.024551 -0.006147 0.012507 0.000000 -0.036346 0.000000
# 2 -0.006147 0.013925 -0.005198 0.000000 0.001598 0.000000
# 3 0.012507 -0.005198 0.033565 0.000000 -0.042645 0.000000
# 4 0.000000 0.000000 0.000000 0.049698 0.000000 0.000784
# 5 -0.036346 0.001598 -0.042645 0.000000 0.121290 0.000000
# 6 0.000000 0.000000 0.000000 0.000784 0.000000 0.028762
#
#
# Mechanical properties :
#
#
# Convention : Reuss Voigt Hill
#
# Bulk Modulus (GPa) = 13.44759 44.55384 29.00072
# Shear Modulus (GPa) = 16.99198 27.47726 22.23462
#
# Velocity S-wave (km/s) = 2.96315 3.76807 3.38959
# Velocity P-wave (km/s) = 4.31923 6.47714 5.50496
#
# Compressibility (1/GPa) = 0.07436276
#
# Stress axis : x y z
#
# Youngs Moduli (GPa) = 40.73168 71.81464 29.79297
#
# Poissons Ratio (x) = 0.44147 -0.37261
# Poissons Ratio (y) = 0.25039 0.15487
# Poissons Ratio (z) = -0.50942 0.37332
#
# Static dielectric constant tensor:
#      x y z
#    x 4.153610 0.000000 0.230460 
#    y 0.000000 3.564620 0.000000 
#    z 0.230460 0.000000 3.395410 
# 
# 
# High freq. dielectric constant tensor:
#      x y z
#    x 1.774350 0.000000 0.008450 
#    y 0.000000 1.746700 0.000000 
#    z 0.008450 0.000000 1.733210 
# 
# From -- ./inp_files/108743.got.cif
#   From: 2010.06.25/outbox.cif.g09.slc.cpg/sg12_55_cif.got.tgz:108743.got - 2010.06.28 00:19:55.
