data_PCOD8107412
_publ_section_title
;
Structure prediction by ZEFSAII (Michael W. Deem and Ramdas Pophale) SiO2 
 PCOD8107412
Probable space group: C 2/M
;
_chemical_formula_sum "Si O2"
_cell_formula_units_Z 40
_cell_length_a 10.854476
_cell_length_b 14.838337
_cell_length_c 14.367516
_cell_angle_alpha 90.000000
_cell_angle_beta 131.303798
_cell_angle_gamma 90.000000
_cell_volume 1738.373709
_symmetry_space_group_name_H-M "C 2/M"
_symmetry_group_IT_number 12
_symmetry_cell_setting 'monoclinic'
loop_
_space_group_symop_operation_xyz
x,y,z
-x,y,-z
-x,-y,-z
x,-y,z
1/2+x,1/2+y,z
1/2-x,1/2+y,-z
1/2-x,1/2-y,-z
1/2+x,1/2-y,z
loop_
_atom_site_type_symbol
_atom_site_label
_atom_site_fract_x
_atom_site_fract_y
_atom_site_fract_z
Si Si1 0.426690 0.401195 0.362367
Si Si2 0.534904 0.103237 0.745888
Si Si3 0.756628 0.285194 0.281770
Si Si4 0.775593 0.602457 0.464558
Si Si5 0.436438 0.218861 0.073989
O O1 0.500000 0.405089 0.500000
O O2 0.343818 0.500000 0.300040
O O3 0.299491 0.320231 0.289145
O O4 0.581063 0.385250 0.372090
O O5 0.681324 0.161059 0.776259
O O6 0.364448 0.127919 0.606620
O O7 0.528341 0.126308 0.851878
O O8 0.578911 0.000000 0.754956
O O9 0.835863 0.329217 0.414004
O O10 0.558524 0.292869 0.181513
O O11 0.821779 0.500000 0.459364
O O12 0.500000 0.204273 0.000000
O O13 0.250000 0.250000 0.000000
#
# Coordination Sequence:
#
# PCOD8107412 Si02
#       5
#     8   8   8   8   8
#     4  10  21  37  59  96 141 181 224 280 345 417
#     4  11  24  44  72 107 144 183 232 294 355 423
#     4  12  23  41  73 100 142 185 235 288 361 417
#     4  10  22  40  66 106 146 180 225 283 358 436
#     4  12  27  50  72  99 138 190 248 298 343 411
#
# _framework density 23.010010000000001
#
# number of rings (size 3 to 8) (size 9 to 14) (size 15 to 20)
#    0.000    1.000    2.000    4.800    0.000    6.800 
#    0.000    3.000    0.000    0.000    0.000    0.000 
#    0.000    0.000    0.000    0.000    0.000    0.000 
#
# Total GULP energy -247845.719953 kJ/mol
# GULP energy per Si atom -12392.285998 kJ/mol
# Density = 2.295764 g / cm^3
# Si number density = 23.010010 Si / 1000 Ang^3
#
#
#
# Elastic Constant Matrix: (Units=GPa)
#
#
# Indices 1 2 3 4 5 6 
#
# 1 124.3590 68.9773 59.3656 0.0000 4.1442 0.0000
# 2 68.9773 145.2176 66.4178 0.0000 0.5702 0.0000
# 3 59.3656 66.4178 121.8097 0.0000 -2.4377 0.0000
# 4 0.0000 0.0000 0.0000 32.8952 0.0000 -5.8775
# 5 4.1442 0.5702 -2.4377 0.0000 50.3856 0.0000
# 6 0.0000 0.0000 0.0000 -5.8775 0.0000 33.5121
#
#
#
# Elastic Compliance Matrix: (Units=1/GPa)
#
#
# Indices 1 2 3 4 5 6 
#
# 1 0.012093 -0.004042 -0.003712 0.000000 -0.001129 0.000000
# 2 -0.004042 0.010531 -0.003772 0.000000 0.000031 0.000000
# 3 -0.003712 -0.003772 0.012094 0.000000 0.000933 0.000000
# 4 0.000000 0.000000 0.000000 0.031383 0.000000 0.005504
# 5 -0.001129 0.000031 0.000933 0.000000 0.019985 0.000000
# 6 0.000000 0.000000 0.000000 0.005504 0.000000 0.030805
#
#
# Mechanical properties :
#
#
# Convention : Reuss Voigt Hill
#
# Bulk Modulus (GPa) = 85.71755 86.76751 86.24253
# Shear Modulus (GPa) = 34.76307 36.46696 35.61501
#
# Velocity S-wave (km/s) = 3.89109 3.98531 3.93848
# Velocity P-wave (km/s) = 7.58424 7.67902 7.63178
#
# Compressibility (1/GPa) = 0.01166622
#
# Stress axis : x y z
#
# Youngs Moduli (GPa) = 82.69390 94.95870 82.68517
#
# Poissons Ratio (x) = 0.38379 0.30696
# Poissons Ratio (y) = 0.33422 0.31186
# Poissons Ratio (z) = 0.30700 0.35816
#
# Static dielectric constant tensor:
#      x y z
#    x 4.916060 0.000000 0.177030 
#    y 0.000000 4.318910 0.000000 
#    z 0.177030 0.000000 4.122840 
# 
# 
# High freq. dielectric constant tensor:
#      x y z
#    x 1.929710 0.000000 -0.000720 
#    y 0.000000 1.902970 0.000000 
#    z -0.000720 0.000000 1.890750 
# 
# From -- ./inp_files/129241.got.cif
#   From: 2010.06.25/outbox.cif.g09.slc.cpg/sg12_65_cif.got.tgz:129241.got - 2010.06.28 00:19:55.
