data_PCOD8107057
_publ_section_title
;
Structure prediction by ZEFSAII (Michael W. Deem and Ramdas Pophale) SiO2 
 PCOD8107057
Probable space group: C 2/M
;
_chemical_formula_sum "Si O2"
_cell_formula_units_Z 56
_cell_length_a 9.090080
_cell_length_b 17.576422
_cell_length_c 27.191707
_cell_angle_alpha 90.000000
_cell_angle_beta 139.943937
_cell_angle_gamma 90.000000
_cell_volume 2795.812732
_symmetry_space_group_name_H-M "C 2/M"
_symmetry_group_IT_number 12
_symmetry_cell_setting 'monoclinic'
loop_
_space_group_symop_operation_xyz
x,y,z
-x,y,-z
-x,-y,-z
x,-y,z
1/2+x,1/2+y,z
1/2-x,1/2+y,-z
1/2-x,1/2-y,-z
1/2+x,1/2-y,z
loop_
_atom_site_type_symbol
_atom_site_label
_atom_site_fract_x
_atom_site_fract_y
_atom_site_fract_z
Si Si1 0.172336 0.909678 0.002753
Si Si2 0.842734 0.159280 0.286805
Si Si3 0.254885 0.652838 0.547500
Si Si4 0.481002 0.409793 0.848450
Si Si5 0.822462 0.411466 0.852211
Si Si6 0.515392 0.179525 0.718660
Si Si7 0.757616 0.678413 0.558752
O O1 0.091441 0.884776 0.928159
O O2 0.179869 0.000000 0.009611
O O3 0.425946 0.874886 0.075748
O O4 0.000000 0.876274 0.000000
O O5 0.754833 0.101134 0.223368
O O6 0.639921 0.178085 0.272657
O O7 0.923386 0.233814 0.277875
O O8 0.055177 0.114621 0.368414
O O9 0.236153 0.621545 0.486633
O O10 0.365276 0.738694 0.573882
O O11 0.000000 0.641783 0.500000
O O12 0.445062 0.500000 0.836086
O O13 0.641907 0.378110 0.845670
O O14 0.236116 0.371074 0.782686
O O15 0.840622 0.500000 0.867774
O O16 0.377223 0.142376 0.637110
O O17 0.500000 0.700911 0.500000
#
# Coordination Sequence:
#
# PCOD8107057 Si02
#       7
#     8   8   8   8   8   8   8
#     4   9  17  33  58  83 106 138 181 221 259 315
#     4  11  22  35  53  83 112 144 181 224 274 320
#     4   9  18  28  49  74 103 139 180 224 265 313
#     4  10  21  37  58  83 110 143 180 221 268 319
#     4  10  21  37  58  82 111 143 180 222 266 320
#     4  11  22  34  55  81 113 144 180 226 272 323
#     4   9  16  30  47  74 103 137 181 223 265 311
#
# _framework density 20.029954
#
# number of rings (size 3 to 8) (size 9 to 14) (size 15 to 20)
#    0.000    2.143    1.429    2.143    8.000    3.429 
#    0.000    0.714    0.000    1.714    0.000    0.000 
#    0.000    0.000    0.000    0.000    0.000    0.000 
#
# Total GULP energy -346950.973106 kJ/mol
# GULP energy per Si atom -12391.106182 kJ/mol
# Density = 1.998436 g / cm^3
# Si number density = 20.029954 Si / 1000 Ang^3
#
#
#
# Elastic Constant Matrix: (Units=GPa)
#
#
# Indices 1 2 3 4 5 6 
#
# 1 166.5712 9.1553 62.8657 0.0008 -1.6395 0.0005
# 2 9.1553 11.5373 9.5794 0.0013 3.4937 0.0008
# 3 62.8657 9.5794 160.5722 0.0022 -0.2387 0.0017
# 4 0.0008 0.0013 0.0022 -69.2947 -0.0002 -53.8497
# 5 -1.6395 3.4937 -0.2387 -0.0002 43.9355 -0.0001
# 6 0.0005 0.0008 0.0017 -53.8497 -0.0001 -8.0227
#
#
#
# Elastic Compliance Matrix: (Units=1/GPa)
#
#
# Indices 1 2 3 4 5 6 
#
# 1 0.007192 -0.003721 -0.002593 0.000000 0.000550 0.000000
# 2 -0.003721 0.095508 -0.004253 0.000001 -0.007757 0.000001
# 3 -0.002593 -0.004253 0.007497 0.000000 0.000282 0.000000
# 4 0.000000 0.000001 0.000000 0.003423 0.000000 -0.022975
# 5 0.000550 -0.007757 0.000282 0.000000 0.023400 0.000000
# 6 0.000000 0.000001 0.000000 -0.022975 0.000000 0.029564
#
#
# Mechanical properties :
#
#
# Convention : Reuss Voigt Hill
#
# Bulk Modulus (GPa) = 11.22784 55.76460 33.49622
# Shear Modulus (GPa) = 22.99859 10.46231 16.73045
#
# Velocity S-wave (km/s) = 3.39220 2.28794 2.89324
# Velocity P-wave (km/s) = 4.57825 5.90598 5.28399
#
# Compressibility (1/GPa) = 0.08906431
#
# Stress axis : x y z
#
# Youngs Moduli (GPa) = 139.04421 10.47032 133.38649
#
# Poissons Ratio (x) = 0.03896 0.34586
# Poissons Ratio (y) = 0.51735 0.56724
# Poissons Ratio (z) = 0.36053 0.04453
#
# Static dielectric constant tensor:
#      x y z
#    x 3.733730 0.000000 -0.069380 
#    y 0.000000 2.967670 0.000000 
#    z -0.069380 0.000000 4.043430 
# 
# 
# High freq. dielectric constant tensor:
#      x y z
#    x 1.804330 0.000000 -0.003130 
#    y 0.000000 1.706770 0.000000 
#    z -0.003130 0.000000 1.807220 
# 
# From -- ./inp_files/257216.got.cif
#   From: 2010.06.25/outbox.cif.g09.slc.cpg/sg12_129_cif.got.tgz:257216.got - 2010.06.28 00:19:55.
