data_PCOD8107402
_publ_section_title
;
Structure prediction by ZEFSAII (Michael W. Deem and Ramdas Pophale) SiO2 
 PCOD8107402
Probable space group: C 2/M
;
_chemical_formula_sum "Si O2"
_cell_formula_units_Z 64
_cell_length_a 24.084604
_cell_length_b 17.451137
_cell_length_c 20.250480
_cell_angle_alpha 90.000000
_cell_angle_beta 22.509474
_cell_angle_gamma 90.000000
_cell_volume 3258.453656
_symmetry_space_group_name_H-M "C 2/M"
_symmetry_group_IT_number 12
_symmetry_cell_setting 'monoclinic'
loop_
_space_group_symop_operation_xyz
x,y,z
-x,y,-z
-x,-y,-z
x,-y,z
1/2+x,1/2+y,z
1/2-x,1/2+y,-z
1/2-x,1/2-y,-z
1/2+x,1/2-y,z
loop_
_atom_site_type_symbol
_atom_site_label
_atom_site_fract_x
_atom_site_fract_y
_atom_site_fract_z
Si Si1 0.224888 0.188475 0.469910
Si Si2 0.046075 0.914358 0.223882
Si Si3 0.896753 0.914546 0.985633
Si Si4 0.629244 0.221997 0.446653
Si Si5 0.780209 0.316650 0.019200
Si Si6 0.698569 0.776741 0.226250
Si Si7 0.937591 0.411784 0.292913
Si Si8 0.772351 0.913429 0.351808
O O1 0.250000 0.250000 0.500000
O O2 0.193490 0.225435 0.433751
O O3 0.365475 0.132663 0.309866
O O4 0.094019 0.135345 0.635340
O O5 0.133791 0.916234 0.059030
O O6 0.002498 0.000000 0.294550
O O7 0.146028 0.875531 0.169536
O O8 0.061744 0.887648 0.818385
O O9 0.871602 0.000000 0.042395
O O10 0.781059 0.857302 0.144589
O O11 0.455498 0.213121 0.641678
O O12 0.674990 0.257292 0.325502
O O13 0.700577 0.138291 0.374300
O O14 0.919850 0.364823 0.843754
O O15 0.750000 0.250000 0.000000
O O16 0.796542 0.280543 0.074440
O O17 0.975313 0.500000 0.234331
O O18 0.820563 0.405131 0.479591
O O19 0.767455 0.000000 0.331286
#
# Coordination Sequence:
#
# PCOD8107402 Si02
#       8
#     8   8   8   8   8   8   8   8
#     4  12  21  38  66  92 120 158 206 251 303 356
#     4  11  21  36  61  91 123 155 197 251 306 359
#     4  10  21  37  59  91 125 159 198 243 303 369
#     4  11  24  42  60  87 120 164 206 249 305 360
#     4  12  22  38  62  92 122 159 205 254 302 351
#     4  11  25  41  60  86 124 162 204 253 301 360
#     4  11  23  38  62  95 127 156 197 255 313 361
#     4  10  21  38  59  89 126 160 197 242 301 372
#
# _framework density 19.641217999999999
#
# number of rings (size 3 to 8) (size 9 to 14) (size 15 to 20)
#    0.000    1.000    5.000    2.250    1.750    1.500 
#    0.000    2.500    0.000    4.500    0.000    0.000 
#    0.000    0.000    0.000    0.000    0.000    0.000 
#
# Total GULP energy -396734.638159 kJ/mol
# GULP energy per Si atom -12397.957442 kJ/mol
# Density = 1.959651 g / cm^3
# Si number density = 19.641218 Si / 1000 Ang^3
#
#
#
# Elastic Constant Matrix: (Units=GPa)
#
#
# Indices 1 2 3 4 5 6 
#
# 1 100.9339 54.8654 36.6898 -0.0009 -6.2641 0.0003
# 2 54.8654 126.0540 57.4230 -0.0120 -10.2835 0.0102
# 3 36.6898 57.4230 90.5792 -0.0062 -16.0426 0.0039
# 4 -0.0009 -0.0120 -0.0062 40.1033 0.0048 -9.7002
# 5 -6.2641 -10.2835 -16.0426 0.0048 32.3407 -0.0039
# 6 0.0003 0.0102 0.0039 -9.7002 -0.0039 21.1523
#
#
#
# Elastic Compliance Matrix: (Units=1/GPa)
#
#
# Indices 1 2 3 4 5 6 
#
# 1 0.013346 -0.004705 -0.002445 -0.000001 -0.000124 0.000002
# 2 -0.004705 0.012813 -0.006202 0.000002 0.000087 -0.000004
# 3 -0.002445 -0.006202 0.017025 0.000000 0.005999 0.000001
# 4 -0.000001 0.000002 0.000000 0.028047 -0.000002 0.012862
# 5 -0.000124 0.000087 0.005999 -0.000002 0.033900 0.000004
# 6 0.000002 -0.000004 0.000001 0.012862 0.000004 0.053174
#
#
# Mechanical properties :
#
#
# Convention : Reuss Voigt Hill
#
# Bulk Modulus (GPa) = 60.67962 68.39152 64.53557
# Shear Modulus (GPa) = 26.24625 29.95851 28.10238
#
# Velocity S-wave (km/s) = 3.65949 3.90973 3.78668
# Velocity P-wave (km/s) = 6.98691 7.43487 7.21437
#
# Compressibility (1/GPa) = 0.01648000
#
# Stress axis : x y z
#
# Youngs Moduli (GPa) = 74.92740 78.04353 58.73828
#
# Poissons Ratio (x) = 0.36722 0.14362
# Poissons Ratio (y) = 0.35256 0.36428
# Poissons Ratio (z) = 0.18320 0.48401
#
# Static dielectric constant tensor:
#      x y z
#    x 3.483380 -0.000010 -0.264630 
#    y -0.000010 4.005130 0.000010 
#    z -0.264630 0.000010 3.673600 
# 
# 
# High freq. dielectric constant tensor:
#      x y z
#    x 1.749380 0.000000 -0.022960 
#    y 0.000000 1.769800 0.000000 
#    z -0.022960 0.000000 1.763970 
# 
# From -- ./inp_files/112921.got.cif
#   From: 2010.06.25/outbox.cif.g09.slc.cpg/sg12_57_cif.got.tgz:112921.got - 2010.06.28 00:19:55.
