data_PCOD8107428
_publ_section_title
;
Structure prediction by ZEFSAII (Michael W. Deem and Ramdas Pophale) SiO2 
 PCOD8107428
Probable space group: C 2/M
;
_chemical_formula_sum "Si O2"
_cell_formula_units_Z 40
_cell_length_a 9.671535
_cell_length_b 13.040960
_cell_length_c 16.861557
_cell_angle_alpha 90.000000
_cell_angle_beta 97.730039
_cell_angle_gamma 90.000000
_cell_volume 2107.356891
_symmetry_space_group_name_H-M "C 2/M"
_symmetry_group_IT_number 12
_symmetry_cell_setting 'monoclinic'
loop_
_space_group_symop_operation_xyz
x,y,z
-x,y,-z
-x,-y,-z
x,-y,z
1/2+x,1/2+y,z
1/2-x,1/2+y,-z
1/2-x,1/2-y,-z
1/2+x,1/2-y,z
loop_
_atom_site_type_symbol
_atom_site_label
_atom_site_fract_x
_atom_site_fract_y
_atom_site_fract_z
Si Si1 0.920408 0.387050 0.812696
Si Si2 0.231447 0.387680 0.804942
Si Si3 0.205742 0.252979 0.329468
Si Si4 0.137602 0.241239 0.058030
Si Si5 0.474417 0.379435 0.405466
O O1 0.858264 0.500000 0.797112
O O2 0.889869 0.327402 0.729663
O O3 0.855417 0.343731 0.888534
O O4 0.085318 0.386904 0.839201
O O5 0.277671 0.500000 0.781279
O O6 0.215873 0.322393 0.724314
O O7 0.344287 0.349986 0.877362
O O8 0.325833 0.320984 0.381364
O O9 0.103556 0.185257 0.377624
O O10 0.250000 0.250000 0.000000
O O11 0.000000 0.218944 0.000000
O O12 0.500000 0.380332 0.500000
O O13 0.469599 0.500000 0.374896
#
# Coordination Sequence:
#
# PCOD8107428 Si02
#       5
#     8   8   8   8   8
#     4  10  21  37  61  86 112 158 205 245 302 363
#     4  10  21  37  60  86 113 153 202 250 301 355
#     4  11  21  42  63  90 124 161 204 255 301 365
#     4  11  22  37  55  82 116 151 192 245 300 359
#     4  11  24  41  64  95 129 165 203 250 310 368
#
# _framework density 18.981123
#
# number of rings (size 3 to 8) (size 9 to 14) (size 15 to 20)
#    0.000    1.400    4.000    1.800    0.000    1.600 
#    0.000    2.000    0.000    4.800    0.000    0.000 
#    0.000    0.000    0.000    0.000    0.000    0.000 
#
# Total GULP energy -247806.606992 kJ/mol
# GULP energy per Si atom -12390.330350 kJ/mol
# Density = 1.893792 g / cm^3
# Si number density = 18.981123 Si / 1000 Ang^3
#
#
#
# Elastic Constant Matrix: (Units=GPa)
#
#
# Indices 1 2 3 4 5 6 
#
# 1 106.5419 52.2691 43.8622 0.0000 0.4272 0.0000
# 2 52.2691 160.6358 55.4627 0.0000 2.1627 0.0000
# 3 43.8622 55.4627 108.7124 0.0000 3.3476 0.0000
# 4 0.0000 0.0000 0.0000 14.0796 0.0000 -2.9892
# 5 0.4272 2.1627 3.3476 0.0000 35.7118 0.0000
# 6 0.0000 0.0000 0.0000 -2.9892 0.0000 30.6339
#
#
#
# Elastic Compliance Matrix: (Units=1/GPa)
#
#
# Indices 1 2 3 4 5 6 
#
# 1 0.012186 -0.002754 -0.003523 0.000000 0.000351 0.000000
# 2 -0.002754 0.008179 -0.003056 0.000000 -0.000176 0.000000
# 3 -0.003523 -0.003056 0.012207 0.000000 -0.000917 0.000000
# 4 0.000000 0.000000 0.000000 0.072527 0.000000 0.007077
# 5 0.000351 -0.000176 -0.000917 0.000000 0.028094 0.000000
# 6 0.000000 0.000000 0.000000 0.007077 0.000000 0.033334
#
#
# Mechanical properties :
#
#
# Convention : Reuss Voigt Hill
#
# Bulk Modulus (GPa) = 71.90609 75.45313 73.67961
# Shear Modulus (GPa) = 26.33963 31.03814 28.68889
#
# Velocity S-wave (km/s) = 3.72919 4.04816 3.89195
# Velocity P-wave (km/s) = 7.51716 7.85418 7.68752
#
# Compressibility (1/GPa) = 0.01390703
#
# Stress axis : x y z
#
# Youngs Moduli (GPa) = 82.06370 122.26663 81.91815
#
# Poissons Ratio (x) = 0.33667 0.28856
# Poissons Ratio (y) = 0.22597 0.25036
# Poissons Ratio (z) = 0.28907 0.37368
#
# Static dielectric constant tensor:
#      x y z
#    x 3.626010 0.000000 0.006490 
#    y 0.000000 3.848180 0.000000 
#    z 0.006490 0.000000 3.484870 
# 
# 
# High freq. dielectric constant tensor:
#      x y z
#    x 1.739960 0.000000 0.001440 
#    y 0.000000 1.748690 0.000000 
#    z 0.001440 0.000000 1.744290 
# 
# From -- ./inp_files/194456.got.cif
#   From: 2010.06.25/outbox.cif.g09.slc.cpg/sg12_98_cif.got.tgz:194456.got - 2010.06.28 00:19:55.
