data_PCOD8107392
_publ_section_title
;
Structure prediction by ZEFSAII (Michael W. Deem and Ramdas Pophale) SiO2 
 PCOD8107392
Probable space group: C 2/M
;
_chemical_formula_sum "Si O2"
_cell_formula_units_Z 56
_cell_length_a 24.583364
_cell_length_b 8.911395
_cell_length_c 15.329722
_cell_angle_alpha 90.000000
_cell_angle_beta 126.929903
_cell_angle_gamma 90.000000
_cell_volume 2684.539356
_symmetry_space_group_name_H-M "C 2/M"
_symmetry_group_IT_number 12
_symmetry_cell_setting 'monoclinic'
loop_
_space_group_symop_operation_xyz
x,y,z
-x,y,-z
-x,-y,-z
x,-y,z
1/2+x,1/2+y,z
1/2-x,1/2+y,-z
1/2-x,1/2-y,-z
1/2+x,1/2-y,z
loop_
_atom_site_type_symbol
_atom_site_label
_atom_site_fract_x
_atom_site_fract_y
_atom_site_fract_z
Si Si1 0.260841 0.664918 0.097929
Si Si2 0.315347 0.822385 0.734719
Si Si3 0.382740 0.324299 0.639383
Si Si4 0.385074 0.822878 0.286613
Si Si5 0.840469 0.823308 0.405580
Si Si6 0.537922 0.676742 0.801271
Si Si7 0.886442 0.335034 0.970424
O O1 0.295161 0.500000 0.116725
O O2 0.307452 0.772878 0.199526
O O3 0.250000 0.750000 0.000000
O O4 0.189762 0.638528 0.073436
O O5 0.332367 0.755480 0.657434
O O6 0.238304 0.774737 0.686328
O O7 0.318749 0.000000 0.731244
O O8 0.373949 0.767228 0.860881
O O9 0.373669 0.500000 0.643346
O O10 0.361740 0.274349 0.522673
O O11 0.459927 0.273935 0.731828
O O12 0.395704 0.760125 0.395177
O O13 0.430887 0.752443 0.254752
O O14 0.394799 0.000000 0.292462
O O15 0.849279 0.000000 0.398335
O O16 0.546733 0.500000 0.799926
O O17 0.573295 0.726401 0.925871
O O18 0.922465 0.500000 0.003240
#
# Coordination Sequence:
#
# PCOD8107392 Si02
#       7
#     8   8   8   8   8   8   8
#     4  11  20  34  57  87 124 158 196 243 301 361
#     4  10  21  39  65  92 119 153 196 250 307 356
#     4  10  24  43  63  87 118 160 207 251 299 356
#     4  12  24  37  59  92 124 157 200 248 303 360
#     4  10  21  42  66  89 120 156 199 252 306 361
#     4  11  24  41  60  86 123 166 203 242 298 362
#     4  10  21  37  59  90 122 156 197 241 297 361
#
# _framework density 20.860188999999998
#
# number of rings (size 3 to 8) (size 9 to 14) (size 15 to 20)
#    0.000    1.429    2.857    2.571    0.000    4.571 
#    0.000    5.714    0.000    0.000    0.000    0.000 
#    0.000    0.000    0.000    0.000    0.000    0.000 
#
# Total GULP energy -346991.336719 kJ/mol
# GULP energy per Si atom -12392.547740 kJ/mol
# Density = 2.081271 g / cm^3
# Si number density = 20.860189 Si / 1000 Ang^3
#
#
#
# Elastic Constant Matrix: (Units=GPa)
#
#
# Indices 1 2 3 4 5 6 
#
# 1 41.5562 26.1026 27.2624 0.0000 -4.7283 0.0000
# 2 26.1026 81.1564 31.9808 0.0000 -10.2382 0.0000
# 3 27.2624 31.9808 95.5638 0.0000 -20.6263 0.0000
# 4 0.0000 0.0000 0.0000 31.4852 0.0000 -6.4799
# 5 -4.7283 -10.2382 -20.6263 0.0000 32.8061 0.0000
# 6 0.0000 0.0000 0.0000 -6.4799 0.0000 25.7199
#
#
#
# Elastic Compliance Matrix: (Units=1/GPa)
#
#
# Indices 1 2 3 4 5 6 
#
# 1 0.033840 -0.008267 -0.007395 0.000000 -0.002352 0.000000
# 2 -0.008267 0.016293 -0.002608 0.000000 0.002254 0.000000
# 3 -0.007395 -0.002608 0.015088 0.000000 0.007607 0.000000
# 4 0.000000 0.000000 0.000000 0.033498 0.000000 0.008439
# 5 -0.002352 0.002254 0.007607 0.000000 0.035629 0.000000
# 6 0.000000 0.000000 0.000000 0.008439 0.000000 0.041007
#
#
# Mechanical properties :
#
#
# Convention : Reuss Voigt Hill
#
# Bulk Modulus (GPa) = 34.86467 43.21867 39.04167
# Shear Modulus (GPa) = 22.57800 26.86428 24.72114
#
# Velocity S-wave (km/s) = 3.29348 3.59252 3.44624
# Velocity P-wave (km/s) = 5.58681 6.16210 5.88149
#
# Compressibility (1/GPa) = 0.02868233
#
# Stress axis : x y z
#
# Youngs Moduli (GPa) = 29.55066 61.37752 66.27602
#
# Poissons Ratio (x) = 0.50739 0.49012
# Poissons Ratio (y) = 0.24429 0.17282
# Poissons Ratio (z) = 0.21853 0.16005
#
# Static dielectric constant tensor:
#      x y z
#    x 3.673640 0.000000 -0.055900 
#    y 0.000000 3.641520 0.000000 
#    z -0.055900 0.000000 4.063460 
# 
# 
# High freq. dielectric constant tensor:
#      x y z
#    x 1.813520 0.000000 -0.015030 
#    y 0.000000 1.807170 0.000000 
#    z -0.015030 0.000000 1.831250 
# 
# From -- ./inp_files/239008.got.cif
#   From: 2010.06.25/outbox.cif.g09.slc.cpg/sg12_120_cif.got.tgz:239008.got - 2010.06.28 00:19:55.
