data_PCOD8107280
_publ_section_title
;
Structure prediction by ZEFSAII (Michael W. Deem and Ramdas Pophale) SiO2 
 PCOD8107280
Probable space group: C 2/M
;
_chemical_formula_sum "Si O2"
_cell_formula_units_Z 48
_cell_length_a 31.804057
_cell_length_b 16.514069
_cell_length_c 8.936229
_cell_angle_alpha 90.000000
_cell_angle_beta 147.451177
_cell_angle_gamma 90.000000
_cell_volume 2525.153494
_symmetry_space_group_name_H-M "C 2/M"
_symmetry_group_IT_number 12
_symmetry_cell_setting 'monoclinic'
loop_
_space_group_symop_operation_xyz
x,y,z
-x,y,-z
-x,-y,-z
x,-y,z
1/2+x,1/2+y,z
1/2-x,1/2+y,-z
1/2-x,1/2-y,-z
1/2+x,1/2-y,z
loop_
_atom_site_type_symbol
_atom_site_label
_atom_site_fract_x
_atom_site_fract_y
_atom_site_fract_z
Si Si1 0.590855 0.500000 0.097016
Si Si2 0.090856 0.000000 0.448117
Si Si3 0.685927 0.359350 0.883353
Si Si4 0.685927 0.640650 0.232209
Si Si5 0.157155 0.325754 0.146287
Si Si6 0.842845 0.674246 0.203359
Si Si7 0.000000 0.408843 0.677899
O O1 0.606091 0.500000 0.318271
O O2 0.627961 0.580189 0.139801
O O3 0.500000 0.500000 0.783788
O O4 0.127962 0.080189 0.627967
O O5 0.654823 0.269533 0.756297
O O6 0.686870 0.379613 0.060609
O O7 0.773210 0.369743 0.082314
O O8 0.773210 0.630257 0.556948
O O9 0.654823 0.730467 0.172641
O O10 0.169434 0.343456 0.008303
O O11 0.076658 0.362793 0.966956
O O12 0.923342 0.637207 0.507007
O O13 0.000000 0.500000 0.740743
O O14 0.000000 0.408285 0.500000
#
# Coordination Sequence:
#
# PCOD8107280 Si02
#       7
#     4   4   8   8   8   8   8
#     4  11  25  41  59  84 113 148 195 243 294 349
#     4  11  25  41  59  84 113 148 195 243 294 349
#     4  10  21  37  59  85 116 151 190 236 289 342
#     4  10  21  37  59  85 116 151 190 236 289 342
#     4   9  19  36  59  85 116 154 193 231 279 341
#     4   9  19  36  59  85 116 154 193 231 279 341
#     4   9  18  32  55  86 113 148 193 230 270 328
#
# _framework density 19.008745000000001
#
# number of rings (size 3 to 8) (size 9 to 14) (size 15 to 20)
#    0.000    2.333    0.000    1.500    4.667    2.667 
#    0.000    0.833    0.000    1.000    0.000    0.000 
#    0.000    0.000    0.000    0.000    0.000    0.000 
#
# Total GULP energy -297688.835581 kJ/mol
# GULP energy per Si atom -12403.701483 kJ/mol
# Density = 1.896548 g / cm^3
# Si number density = 19.008745 Si / 1000 Ang^3
#
#
#
# Elastic Constant Matrix: (Units=GPa)
#
#
# Indices 1 2 3 4 5 6 
#
# 1 104.4100 63.4555 79.2813 0.0000 21.0995 0.0000
# 2 63.4555 108.9627 87.6143 0.0000 18.1660 0.0000
# 3 79.2813 87.6143 167.7663 0.0000 26.5412 0.0000
# 4 0.0000 0.0000 0.0000 29.1485 0.0000 0.7336
# 5 21.0995 18.1660 26.5412 0.0000 30.6861 0.0000
# 6 0.0000 0.0000 0.0000 0.7336 0.0000 28.1727
#
#
#
# Elastic Compliance Matrix: (Units=1/GPa)
#
#
# Indices 1 2 3 4 5 6 
#
# 1 0.017437 -0.005763 -0.004487 0.000000 -0.004696 0.000000
# 2 -0.005763 0.017903 -0.006460 0.000000 -0.001048 0.000000
# 3 -0.004487 -0.006460 0.012004 0.000000 -0.003473 0.000000
# 4 0.000000 0.000000 0.000000 0.034330 0.000000 -0.000894
# 5 -0.004696 -0.001048 -0.003473 0.000000 0.039442 0.000000
# 6 0.000000 0.000000 0.000000 -0.000894 0.000000 0.035519
#
#
# Mechanical properties :
#
#
# Convention : Reuss Voigt Hill
#
# Bulk Modulus (GPa) = 71.82647 93.53790 82.68219
# Shear Modulus (GPa) = 25.68097 27.65399 26.66748
#
# Velocity S-wave (km/s) = 3.67959 3.81833 3.74960
# Velocity P-wave (km/s) = 7.47801 8.29181 7.89540
#
# Compressibility (1/GPa) = 0.01392244
#
# Stress axis : x y z
#
# Youngs Moduli (GPa) = 57.35055 55.85619 83.30228
#
# Poissons Ratio (x) = 0.32192 0.37379
# Poissons Ratio (y) = 0.33053 0.53816
# Poissons Ratio (z) = 0.25734 0.36085
#
# Static dielectric constant tensor:
#      x y z
#    x 3.433550 0.000000 0.129680 
#    y 0.000000 3.546620 0.000000 
#    z 0.129680 0.000000 3.606010 
# 
# 
# High freq. dielectric constant tensor:
#      x y z
#    x 1.731120 0.000000 0.010350 
#    y 0.000000 1.746910 0.000000 
#    z 0.010350 0.000000 1.744880 
# 
# From -- ./inp_files/112978.got.cif
#   From: 2010.06.25/outbox.cif.g09.slc.cpg/sg12_57_cif.got.tgz:112978.got - 2010.06.28 00:19:55.
