data_PCOD8107711
_publ_section_title
;
Structure prediction by ZEFSAII (Michael W. Deem and Ramdas Pophale) SiO2 
 PCOD8107711
Probable space group: C 2/M
;
_chemical_formula_sum "Si O2"
_cell_formula_units_Z 64
_cell_length_a 28.891414
_cell_length_b 14.046239
_cell_length_c 12.072007
_cell_angle_alpha 90.000000
_cell_angle_beta 38.948524
_cell_angle_gamma 90.000000
_cell_volume 3079.625146
_symmetry_space_group_name_H-M "C 2/M"
_symmetry_group_IT_number 12
_symmetry_cell_setting 'monoclinic'
loop_
_space_group_symop_operation_xyz
x,y,z
-x,y,-z
-x,-y,-z
x,-y,z
1/2+x,1/2+y,z
1/2-x,1/2+y,-z
1/2-x,1/2-y,-z
1/2+x,1/2-y,z
loop_
_atom_site_type_symbol
_atom_site_label
_atom_site_fract_x
_atom_site_fract_y
_atom_site_fract_z
Si Si1 0.298394 0.655296 0.406305
Si Si2 0.387546 0.888682 0.556708
Si Si3 0.887072 0.891745 0.461450
Si Si4 0.851027 0.272042 0.841696
Si Si5 0.651647 0.897795 0.611095
Si Si6 0.512983 0.235218 0.264014
Si Si7 0.724373 0.390738 0.130520
Si Si8 0.426029 0.251275 0.083170
O O1 0.250000 0.750000 0.500000
O O2 0.340405 0.634927 0.441137
O O3 0.236263 0.579272 0.490706
O O4 0.363471 0.666389 0.193369
O O5 0.356470 0.824340 0.712878
O O6 0.345758 0.859412 0.520330
O O7 0.472452 0.861251 0.376402
O O8 0.380692 0.000000 0.599403
O O9 0.829776 0.881847 0.666470
O O10 0.957066 0.823620 0.351464
O O11 0.916819 0.000000 0.396745
O O12 0.929557 0.243767 0.745484
O O13 0.809074 0.171241 0.907994
O O14 0.804401 0.343477 0.008332
O O15 0.604983 0.830605 0.778157
O O16 0.610872 0.000000 0.687936
O O17 0.557614 0.212574 0.068998
O O18 0.734299 0.500000 0.074445
O O19 0.500000 0.293856 0.000000
#
# Coordination Sequence:
#
# PCOD8107711 Si02
#       8
#     8   8   8   8   8   8   8   8
#     4  10  21  37  64  92 127 167 213 263 322 385
#     4  11  23  41  64  92 135 175 217 274 334 394
#     4  11  23  42  66  96 136 175 221 272 327 391
#     4  11  25  41  69  95 132 171 222 272 332 391
#     4  10  22  39  64  93 123 167 215 266 324 385
#     4  12  24  42  63  97 131 176 221 263 329 396
#     4  10  24  44  67  96 129 170 220 277 328 386
#     4  11  21  39  62  89 126 165 209 259 320 381
#
# _framework density 20.781749999999999
#
# number of rings (size 3 to 8) (size 9 to 14) (size 15 to 20)
#    0.000    1.250    3.750    1.875    3.500    3.750 
#    0.000    3.125    0.000    0.000    0.000    0.000 
#    0.000    0.000    0.000    0.000    0.000    0.000 
#
# Total GULP energy -396504.899107 kJ/mol
# GULP energy per Si atom -12390.778097 kJ/mol
# Density = 2.073445 g / cm^3
# Si number density = 20.781750 Si / 1000 Ang^3
#
#
#
# Elastic Constant Matrix: (Units=GPa)
#
#
# Indices 1 2 3 4 5 6 
#
# 1 124.8327 49.3419 46.1211 0.0000 -17.0980 0.0000
# 2 49.3419 99.3951 37.5476 0.0000 -4.6172 0.0000
# 3 46.1211 37.5476 102.8468 0.0000 -10.6975 0.0000
# 4 0.0000 0.0000 0.0000 19.6966 0.0000 -0.7572
# 5 -17.0980 -4.6172 -10.6975 0.0000 34.7674 0.0000
# 6 0.0000 0.0000 0.0000 -0.7572 0.0000 17.6164
#
#
#
# Elastic Compliance Matrix: (Units=1/GPa)
#
#
# Indices 1 2 3 4 5 6 
#
# 1 0.011426 -0.004300 -0.003129 0.000000 0.004085 0.000000
# 2 -0.004300 0.013291 -0.003058 0.000000 -0.001291 0.000000
# 3 -0.003129 -0.003058 0.012439 0.000000 0.001882 0.000000
# 4 0.000000 0.000000 0.000000 0.050854 0.000000 0.002186
# 5 0.004085 -0.001291 0.001882 0.000000 0.031179 0.000000
# 6 0.000000 0.000000 0.000000 0.002186 0.000000 0.056859
#
#
# Mechanical properties :
#
#
# Convention : Reuss Voigt Hill
#
# Bulk Modulus (GPa) = 61.80205 65.89954 63.85080
# Shear Modulus (GPa) = 24.70149 27.35370 26.02760
#
# Velocity S-wave (km/s) = 3.45137 3.63193 3.54280
# Velocity P-wave (km/s) = 6.75913 7.02617 6.89394
#
# Compressibility (1/GPa) = 0.01618069
#
# Stress axis : x y z
#
# Youngs Moduli (GPa) = 87.51873 75.23942 80.39461
#
# Poissons Ratio (x) = 0.32356 0.25156
# Poissons Ratio (y) = 0.37636 0.24585
# Poissons Ratio (z) = 0.27385 0.23009
#
# Static dielectric constant tensor:
#      x y z
#    x 3.666070 0.000000 0.024600 
#    y 0.000000 3.690440 0.000000 
#    z 0.024600 0.000000 3.844860 
# 
# 
# High freq. dielectric constant tensor:
#      x y z
#    x 1.811630 0.000000 -0.007540 
#    y 0.000000 1.814170 0.000000 
#    z -0.007540 0.000000 1.823560 
# 
# From -- ./inp_files/189425.got.cif
#   From: 2010.06.25/outbox.cif.g09.slc.cpg/sg12_95_cif.got.tgz:189425.got - 2010.06.28 00:19:55.
