data_PCOD8107003
_publ_section_title
;
Structure prediction by ZEFSAII (Michael W. Deem and Ramdas Pophale) SiO2 
 PCOD8107003
Probable space group: C 2/M
;
_chemical_formula_sum "Si O2"
_cell_formula_units_Z 44
_cell_length_a 15.807403
_cell_length_b 23.499873
_cell_length_c 13.981147
_cell_angle_alpha 90.000000
_cell_angle_beta 155.204361
_cell_angle_gamma 90.000000
_cell_volume 2178.109208
_symmetry_space_group_name_H-M "C 2/M"
_symmetry_group_IT_number 12
_symmetry_cell_setting 'monoclinic'
loop_
_space_group_symop_operation_xyz
x,y,z
-x,y,-z
-x,-y,-z
x,-y,z
1/2+x,1/2+y,z
1/2-x,1/2+y,-z
1/2-x,1/2-y,-z
1/2+x,1/2-y,z
loop_
_atom_site_type_symbol
_atom_site_label
_atom_site_fract_x
_atom_site_fract_y
_atom_site_fract_z
Si Si1 0.529871 0.364774 0.421040
Si Si2 0.161303 0.257223 0.514199
Si Si3 0.606263 0.062108 0.204182
Si Si4 0.132489 0.356191 0.724984
Si Si5 0.731533 0.062851 0.991717
Si Si6 0.000000 0.799412 0.000000
O O1 0.500000 0.383027 0.500000
O O2 0.530091 0.297295 0.409064
O O3 0.738301 0.391212 0.600100
O O4 0.364424 0.391269 0.182884
O O5 0.250000 0.250000 0.500000
O O6 0.000155 0.308501 0.355375
O O7 0.350753 0.261977 0.780930
O O8 0.463604 0.053290 0.146379
O O9 0.704568 0.000000 0.280406
O O10 0.500000 0.086218 0.000000
O O11 0.168027 0.411486 0.825213
O O12 0.000000 0.376942 0.500000
O O13 0.355247 0.335830 0.921023
O O14 0.833777 0.000000 0.081923
#
# Coordination Sequence:
#
# PCOD8107003 Si02
#       6
#     8   8   8   8   8   4
#     4  12  23  35  59  92 124 160 198 243 298 373
#     4  11  24  39  63  93 123 160 203 253 309 371
#     4  10  21  37  57  84 124 167 199 240 297 361
#     4  10  23  44  64  89 122 161 211 262 309 358
#     4  11  24  41  63  89 122 164 207 254 307 362
#     4  10  22  42  63  88 125 162 200 254 314 364
#
# _framework density 20.201008000000002
#
# number of rings (size 3 to 8) (size 9 to 14) (size 15 to 20)
#    0.000    1.273    1.818    4.364    1.273    8.364 
#    0.000    0.455    0.000    0.000    0.000    0.000 
#    0.000    0.000    0.000    0.000    0.000    0.000 
#
# Total GULP energy -272740.586538 kJ/mol
# GULP energy per Si atom -12397.299388 kJ/mol
# Density = 2.015503 g / cm^3
# Si number density = 20.201008 Si / 1000 Ang^3
#
#
#
# Elastic Constant Matrix: (Units=GPa)
#
#
# Indices 1 2 3 4 5 6 
#
# 1 115.9327 39.0085 39.7327 0.0000 -9.7440 0.0000
# 2 39.0085 108.0398 49.3341 0.0000 -12.5840 0.0000
# 3 39.7327 49.3341 86.0390 0.0001 -6.0406 0.0001
# 4 0.0000 0.0000 0.0001 35.7824 0.0001 -3.2914
# 5 -9.7440 -12.5840 -6.0406 0.0001 36.5826 0.0000
# 6 0.0000 0.0000 0.0001 -3.2914 0.0000 35.8800
#
#
#
# Elastic Compliance Matrix: (Units=1/GPa)
#
#
# Indices 1 2 3 4 5 6 
#
# 1 0.010690 -0.001998 -0.003682 0.000000 0.001552 0.000000
# 2 -0.001998 0.013285 -0.006487 0.000000 0.002967 0.000000
# 3 -0.003682 -0.006487 0.017014 0.000000 -0.000403 0.000000
# 4 0.000000 0.000000 0.000000 0.028185 0.000000 0.002585
# 5 0.001552 0.002967 -0.000403 0.000000 0.028703 0.000000
# 6 0.000000 0.000000 0.000000 0.002585 0.000000 0.028108
#
#
# Mechanical properties :
#
#
# Convention : Reuss Voigt Hill
#
# Bulk Modulus (GPa) = 60.03788 62.90690 61.47239
# Shear Modulus (GPa) = 32.07817 33.77808 32.92813
#
# Velocity S-wave (km/s) = 3.98923 4.09357 4.04174
# Velocity P-wave (km/s) = 7.14166 7.31786 7.23030
#
# Compressibility (1/GPa) = 0.01665615
#
# Stress axis : x y z
#
# Youngs Moduli (GPa) = 93.54247 75.27559 58.77437
#
# Poissons Ratio (x) = 0.15036 0.21643
# Poissons Ratio (y) = 0.18685 0.38124
# Poissons Ratio (z) = 0.34446 0.48828
#
# Static dielectric constant tensor:
#      x y z
#    x 3.767580 0.000000 0.029500 
#    y 0.000000 3.741900 0.000000 
#    z 0.029500 0.000000 3.680430 
# 
# 
# High freq. dielectric constant tensor:
#      x y z
#    x 1.796190 0.000000 -0.001320 
#    y 0.000000 1.788620 0.000000 
#    z -0.001320 0.000000 1.791160 
# 
# From -- ./inp_files/12460.got.cif
#   From: 2010.06.25/outbox.cif.g09.slc.cpg/sg12_7_cif.got.tgz:12460.got - 2010.06.28 00:19:55.
