data_PCOD8107855
_publ_section_title
;
Structure prediction by ZEFSAII (Michael W. Deem and Ramdas Pophale) SiO2 
 PCOD8107855
Probable space group: C 2/M
;
_chemical_formula_sum "Si O2"
_cell_formula_units_Z 64
_cell_length_a 31.067987
_cell_length_b 8.889213
_cell_length_c 22.427396
_cell_angle_alpha 90.000000
_cell_angle_beta 31.633727
_cell_angle_gamma 90.000000
_cell_volume 3248.554504
_symmetry_space_group_name_H-M "C 2/M"
_symmetry_group_IT_number 12
_symmetry_cell_setting 'monoclinic'
loop_
_space_group_symop_operation_xyz
x,y,z
-x,y,-z
-x,-y,-z
x,-y,z
1/2+x,1/2+y,z
1/2-x,1/2+y,-z
1/2-x,1/2-y,-z
1/2+x,1/2-y,z
loop_
_atom_site_type_symbol
_atom_site_label
_atom_site_fract_x
_atom_site_fract_y
_atom_site_fract_z
Si Si1 0.846851 0.676708 0.624276
Si Si2 0.491114 0.823679 0.636190
Si Si3 0.004188 0.821925 0.246172
Si Si4 0.426433 0.678828 0.218560
Si Si5 0.667574 0.322954 0.230656
Si Si6 0.190885 0.821177 0.739944
Si Si7 0.415582 0.329755 0.029539
Si Si8 0.173634 0.169281 0.986780
O O1 0.836555 0.500000 0.648162
O O2 0.937463 0.715748 0.494815
O O3 0.829816 0.758735 0.706012
O O4 0.782179 0.733955 0.649749
O O5 0.520336 0.769903 0.666579
O O6 0.410936 0.734942 0.711977
O O7 0.472608 0.000000 0.658795
O O8 0.938958 0.767950 0.272062
O O9 0.998150 0.000000 0.264843
O O10 0.096738 0.777345 0.117497
O O11 0.437678 0.500000 0.206136
O O12 0.339126 0.727855 0.291574
O O13 0.499510 0.748506 0.091284
O O14 0.663430 0.500000 0.239205
O O15 0.747366 0.275503 0.097932
O O16 0.125533 0.751571 0.864332
O O17 0.189481 0.000000 0.746001
O O18 0.436448 0.500000 0.022292
O O19 0.349396 0.323545 0.055194
O O20 0.198424 0.000000 0.975592
#
# Coordination Sequence:
#
# PCOD8107855 Si02
#       8
#     8   8   8   8   8   8   8   8
#     4  10  21  38  58  81 109 143 183 225 268 320
#     4  11  24  40  58  76 102 146 191 227 270 324
#     4   9  19  36  57  82 113 145 183 226 266 310
#     4   8  14  24  45  81 113 139 173 216 264 308
#     4  12  24  37  58  85 110 136 173 225 284 333
#     4   9  14  24  48  79 110 139 175 219 259 311
#     4   8  12  21  43  76 111 140 169 210 258 309
#     4   9  17  33  56  82 113 146 176 216 267 323
#
# _framework density 19.701069
#
# number of rings (size 3 to 8) (size 9 to 14) (size 15 to 20)
#    0.000    2.500    1.250    3.750    0.000    5.000 
#    0.000    0.625    0.000    0.750    0.000    1.750 
#    0.000    0.000    0.000    0.000    0.000    0.000 
#
# Total GULP energy -396540.900022 kJ/mol
# GULP energy per Si atom -12391.903126 kJ/mol
# Density = 1.965623 g / cm^3
# Si number density = 19.701069 Si / 1000 Ang^3
#
#
#
# Elastic Constant Matrix: (Units=GPa)
#
#
# Indices 1 2 3 4 5 6 
#
# 1 84.9021 17.1024 13.0125 0.0012 -10.2662 -0.0038
# 2 17.1024 43.8400 17.4177 0.0449 3.8341 -0.0066
# 3 13.0125 17.4177 21.5819 0.0205 2.7623 -0.0097
# 4 0.0012 0.0449 0.0205 10.0971 -0.0026 5.4479
# 5 -10.2662 3.8341 2.7623 -0.0026 27.5346 -0.0009
# 6 -0.0038 -0.0066 -0.0097 5.4479 -0.0009 21.9503
#
#
#
# Elastic Compliance Matrix: (Units=1/GPa)
#
#
# Indices 1 2 3 4 5 6 
#
# 1 0.014281 -0.003514 -0.006604 0.000034 0.006477 -0.000010
# 2 -0.003514 0.034548 -0.025305 -0.000118 -0.003582 0.000028
# 3 -0.006604 -0.025305 0.071521 -0.000053 -0.006114 0.000036
# 4 0.000034 -0.000118 -0.000053 0.114352 0.000044 -0.028382
# 5 0.006477 -0.003582 -0.006114 0.000044 0.039845 -0.000012
# 6 -0.000010 0.000028 0.000036 -0.028382 -0.000012 0.052602
#
#
# Mechanical properties :
#
#
# Convention : Reuss Voigt Hill
#
# Bulk Modulus (GPa) = 20.19955 27.26545 23.73250
# Shear Modulus (GPa) = 12.06282 18.76915 15.41599
#
# Velocity S-wave (km/s) = 2.47714 3.08993 2.80035
# Velocity P-wave (km/s) = 4.29615 5.15750 4.74641
#
# Compressibility (1/GPa) = 0.04950606
#
# Stress axis : x y z
#
# Youngs Moduli (GPa) = 70.02112 28.94515 13.98183
#
# Poissons Ratio (x) = 0.10172 0.09233
# Poissons Ratio (y) = 0.24606 0.35380
# Poissons Ratio (z) = 0.46240 0.73245
#
# Static dielectric constant tensor:
#      x y z
#    x 3.810080 -0.000010 -0.149290 
#    y -0.000010 3.083960 0.000020 
#    z -0.149290 0.000020 3.574360 
# 
# 
# High freq. dielectric constant tensor:
#      x y z
#    x 1.779710 0.000000 -0.009560 
#    y 0.000000 1.712220 0.000000 
#    z -0.009560 0.000000 1.758480 
# 
# From -- ./inp_files/353354.got.cif
#   From: 2010.06.25/outbox.cif.g09.slc.cpg/sg12_177_cif.got.tgz:353354.got - 2010.06.28 00:19:55.
