data_PCOD8107218
_publ_section_title
;
Structure prediction by ZEFSAII (Michael W. Deem and Ramdas Pophale) SiO2 
 PCOD8107218
Probable space group: C 2/M
;
_chemical_formula_sum "Si O2"
_cell_formula_units_Z 64
_cell_length_a 14.453615
_cell_length_b 8.884675
_cell_length_c 32.857922
_cell_angle_alpha 90.000000
_cell_angle_beta 129.108483
_cell_angle_gamma 90.000000
_cell_volume 3274.112154
_symmetry_space_group_name_H-M "C 2/M"
_symmetry_group_IT_number 12
_symmetry_cell_setting 'monoclinic'
loop_
_space_group_symop_operation_xyz
x,y,z
-x,y,-z
-x,-y,-z
x,-y,z
1/2+x,1/2+y,z
1/2-x,1/2+y,-z
1/2-x,1/2-y,-z
1/2+x,1/2-y,z
loop_
_atom_site_type_symbol
_atom_site_label
_atom_site_fract_x
_atom_site_fract_y
_atom_site_fract_z
Si Si1 0.262593 0.669970 0.614181
Si Si2 0.910992 0.173567 0.938150
Si Si3 0.688184 0.328050 0.782723
Si Si4 0.969015 0.330080 0.406773
Si Si5 0.662627 0.677526 0.507795
Si Si6 0.961540 0.676497 0.868995
Si Si7 0.499409 0.176910 0.676102
Si Si8 0.337630 0.323395 0.130921
O O1 0.284936 0.500000 0.604975
O O2 0.173439 0.672769 0.627677
O O3 0.199877 0.766491 0.562087
O O4 0.385252 0.742094 0.664158
O O5 0.973766 0.251440 0.916955
O O6 0.787791 0.251923 0.917258
O O7 0.885465 0.000000 0.920517
O O8 0.000000 0.191581 0.000000
O O9 0.659960 0.500000 0.763822
O O10 0.827952 0.293533 0.815904
O O11 0.618851 0.221617 0.732534
O O12 0.644347 0.292289 0.816209
O O13 0.018273 0.500000 0.425430
O O14 0.029470 0.227638 0.458349
O O15 0.996657 0.268268 0.369557
O O16 0.671895 0.500000 0.509596
O O17 0.750000 0.750000 0.500000
O O18 0.988173 0.500000 0.880075
O O19 0.054105 0.749836 0.863542
O O20 0.483355 0.000000 0.674706
O O21 0.332975 0.500000 0.120134
#
# Coordination Sequence:
#
# PCOD8107218 Si02
#       8
#     8   8   8   8   8   8   8   8
#     4  11  23  40  61  84 114 151 185 231 284 337
#     4  10  21  37  58  87 123 161 201 246 294 347
#     4   9  21  40  59  82 114 150 191 241 294 345
#     4  10  23  41  59  83 115 148 185 228 281 340
#     4  12  23  37  60  86 113 148 186 228 280 339
#     4  10  21  38  61  88 118 156 200 247 295 349
#     4  11  23  39  60  85 114 149 189 236 285 343
#     4  10  21  38  61  87 117 157 201 246 295 350
#
# _framework density 19.547284000000001
#
# number of rings (size 3 to 8) (size 9 to 14) (size 15 to 20)
#    0.000    1.625    1.250    4.125    0.000    8.500 
#    0.000    3.750    0.000    0.000    0.000    0.000 
#    0.000    0.000    0.000    0.000    0.000    0.000 
#
# Total GULP energy -396888.193378 kJ/mol
# GULP energy per Si atom -12402.756043 kJ/mol
# Density = 1.950279 g / cm^3
# Si number density = 19.547284 Si / 1000 Ang^3
#
#
#
# Elastic Constant Matrix: (Units=GPa)
#
#
# Indices 1 2 3 4 5 6 
#
# 1 126.1849 56.2375 32.3254 0.0000 10.2928 0.0000
# 2 56.2375 142.5470 56.3335 0.0000 6.7991 0.0000
# 3 32.3254 56.3335 89.0602 0.0000 13.0758 0.0000
# 4 0.0000 0.0000 0.0000 36.3653 0.0000 2.9899
# 5 10.2928 6.7991 13.0758 0.0000 18.5379 0.0000
# 6 0.0000 0.0000 0.0000 2.9899 0.0000 34.9284
#
#
#
# Elastic Compliance Matrix: (Units=1/GPa)
#
#
# Indices 1 2 3 4 5 6 
#
# 1 0.009973 -0.003388 -0.000944 0.000000 -0.003629 0.000000
# 2 -0.003388 0.010516 -0.005725 0.000000 0.002062 0.000000
# 3 -0.000944 -0.005725 0.016517 0.000000 -0.009027 0.000000
# 4 0.000000 0.000000 0.000000 0.027694 0.000000 -0.002371
# 5 -0.003629 0.002062 -0.009027 0.000000 0.061569 0.000000
# 6 0.000000 0.000000 0.000000 -0.002371 0.000000 0.028833
#
#
# Mechanical properties :
#
#
# Convention : Reuss Voigt Hill
#
# Bulk Modulus (GPa) = 59.19771 71.95387 65.57579
# Shear Modulus (GPa) = 27.64783 32.15936 29.90359
#
# Velocity S-wave (km/s) = 3.76494 4.06052 3.91552
# Velocity P-wave (km/s) = 7.01782 7.67293 7.35267
#
# Compressibility (1/GPa) = 0.01689255
#
# Stress axis : x y z
#
# Youngs Moduli (GPa) = 100.27314 95.09312 60.54284
#
# Poissons Ratio (x) = 0.32222 0.05713
# Poissons Ratio (y) = 0.33977 0.34659
# Poissons Ratio (z) = 0.09462 0.54437
#
# Static dielectric constant tensor:
#      x y z
#    x 3.739770 0.000000 0.037470 
#    y 0.000000 3.748660 0.000000 
#    z 0.037470 0.000000 3.454180 
# 
# 
# High freq. dielectric constant tensor:
#      x y z
#    x 1.771660 0.000000 0.006510 
#    y 0.000000 1.774610 0.000000 
#    z 0.006510 0.000000 1.751650 
# 
# From -- ./inp_files/375578.got.cif
#   From: 2010.06.25/outbox.cif.g09.slc.cpg/sg12_188_cif.got.tgz:375578.got - 2010.06.28 00:19:55.
