data_PCOD8107281
_publ_section_title
;
Structure prediction by ZEFSAII (Michael W. Deem and Ramdas Pophale) SiO2 
 PCOD8107281
Probable space group: C 2/M
;
_chemical_formula_sum "Si O2"
_cell_formula_units_Z 40
_cell_length_a 12.591847
_cell_length_b 16.827469
_cell_length_c 9.186360
_cell_angle_alpha 90.000000
_cell_angle_beta 71.896511
_cell_angle_gamma 90.000000
_cell_volume 1850.130498
_symmetry_space_group_name_H-M "C 2/M"
_symmetry_group_IT_number 12
_symmetry_cell_setting 'monoclinic'
loop_
_space_group_symop_operation_xyz
x,y,z
-x,y,-z
-x,-y,-z
x,-y,z
1/2+x,1/2+y,z
1/2-x,1/2+y,-z
1/2-x,1/2-y,-z
1/2+x,1/2-y,z
loop_
_atom_site_type_symbol
_atom_site_label
_atom_site_fract_x
_atom_site_fract_y
_atom_site_fract_z
Si Si1 0.242649 0.907942 0.610745
Si Si2 0.174479 0.338355 0.700804
Si Si3 0.123886 0.180533 0.889902
Si Si4 0.948241 0.411199 0.731856
Si Si5 0.770036 0.587844 0.036793
O O1 0.239844 0.849215 0.471355
O O2 0.137461 0.888847 0.762292
O O3 0.358020 0.889980 0.646773
O O4 0.234336 0.000000 0.567560
O O5 0.179888 0.255862 0.785757
O O6 0.211755 0.405275 0.799219
O O7 0.051447 0.351106 0.686055
O O8 0.189945 0.156148 0.007376
O O9 0.000000 0.196909 0.000000
O O10 0.994820 0.500000 0.685246
O O11 0.891645 0.403638 0.913277
O O12 0.720467 0.500000 0.022995
#
# Coordination Sequence:
#
# PCOD8107281 Si02
#       5
#     8   8   8   8   8
#     4  10  22  40  63  89 119 156 196 240 290 350
#     4  12  21  35  60  93 122 146 188 249 307 347
#     4  11  24  41  59  82 118 165 202 237 288 349
#     4   9  18  34  58  88 120 153 188 232 295 362
#     4  10  21  37  59  85 117 159 203 243 284 346
#
# _framework density 21.620097999999999
#
# number of rings (size 3 to 8) (size 9 to 14) (size 15 to 20)
#    0.000    1.600    0.000    7.200    0.000    6.400 
#    0.000    3.000    0.000    2.400    0.000    0.000 
#    0.000    0.000    0.000    0.000    0.000    0.000 
#
# Total GULP energy -247883.593492 kJ/mol
# GULP energy per Si atom -12394.179675 kJ/mol
# Density = 2.157089 g / cm^3
# Si number density = 21.620098 Si / 1000 Ang^3
#
#
#
# Elastic Constant Matrix: (Units=GPa)
#
#
# Indices 1 2 3 4 5 6 
#
# 1 34.7168 27.5437 27.7953 0.0000 -5.8246 0.0000
# 2 27.5437 86.6603 26.0953 0.0000 2.1078 0.0000
# 3 27.7953 26.0953 143.7643 0.0000 1.7506 0.0000
# 4 0.0000 0.0000 0.0000 13.1407 0.0000 -11.7002
# 5 -5.8246 2.1078 1.7506 0.0000 21.5243 0.0000
# 6 0.0000 0.0000 0.0000 -11.7002 0.0000 20.8297
#
#
#
# Elastic Compliance Matrix: (Units=1/GPa)
#
#
# Indices 1 2 3 4 5 6 
#
# 1 0.047391 -0.013336 -0.006921 0.000000 0.014693 0.000000
# 2 -0.013336 0.015981 -0.000260 0.000000 -0.005153 0.000000
# 3 -0.006921 -0.000260 0.008372 0.000000 -0.002528 0.000000
# 4 0.000000 0.000000 0.000000 0.152239 0.000000 0.085514
# 5 0.014693 -0.005153 -0.002528 0.000000 0.051145 0.000000
# 6 0.000000 0.000000 0.000000 0.085514 0.000000 0.096042
#
#
# Mechanical properties :
#
#
# Convention : Reuss Voigt Hill
#
# Bulk Modulus (GPa) = 32.56123 47.55668 40.05895
# Shear Modulus (GPa) = 11.83598 23.34607 17.59102
#
# Velocity S-wave (km/s) = 2.34231 3.28964 2.85554
# Velocity P-wave (km/s) = 4.73377 6.03931 5.42595
#
# Compressibility (1/GPa) = 0.03071137
#
# Stress axis : x y z
#
# Youngs Moduli (GPa) = 21.10103 62.57246 119.44814
#
# Poissons Ratio (x) = 0.83446 0.82668
# Poissons Ratio (y) = 0.28140 0.03103
# Poissons Ratio (z) = 0.14604 0.01625
#
# Static dielectric constant tensor:
#      x y z
#    x 3.467270 0.000000 -0.049660 
#    y 0.000000 3.936300 0.000000 
#    z -0.049660 0.000000 4.240880 
# 
# 
# High freq. dielectric constant tensor:
#      x y z
#    x 1.807410 0.000000 0.004600 
#    y 0.000000 1.848080 0.000000 
#    z 0.004600 0.000000 1.870460 
# 
# From -- ./inp_files/46893.got.cif
#   From: 2010.06.25/outbox.cif.g09.slc.cpg/sg12_24_cif.got.tgz:46893.got - 2010.06.28 00:19:55.
