data_PCOD8107277
_publ_section_title
;
Structure prediction by ZEFSAII (Michael W. Deem and Ramdas Pophale) SiO2 
 PCOD8107277
Probable space group: C 2/M
;
_chemical_formula_sum "Si O2"
_cell_formula_units_Z 64
_cell_length_a 18.695823
_cell_length_b 9.043410
_cell_length_c 30.192713
_cell_angle_alpha 90.000000
_cell_angle_beta 141.221943
_cell_angle_gamma 90.000000
_cell_volume 3197.164866
_symmetry_space_group_name_H-M "C 2/M"
_symmetry_group_IT_number 12
_symmetry_cell_setting 'monoclinic'
loop_
_space_group_symop_operation_xyz
x,y,z
-x,y,-z
-x,-y,-z
x,-y,z
1/2+x,1/2+y,z
1/2-x,1/2+y,-z
1/2-x,1/2-y,-z
1/2+x,1/2-y,z
loop_
_atom_site_type_symbol
_atom_site_label
_atom_site_fract_x
_atom_site_fract_y
_atom_site_fract_z
Si Si1 0.372215 0.676557 0.564747
Si Si2 0.391642 0.831398 0.920868
Si Si3 0.048644 0.326234 0.308067
Si Si4 0.039592 0.175383 0.566602
Si Si5 0.643274 0.331020 0.831228
Si Si6 0.399584 0.331464 0.836568
Si Si7 0.701563 0.174035 0.297353
Si Si8 0.145954 0.166262 0.929325
O O1 0.360172 0.500000 0.559318
O O2 0.250000 0.750000 0.500000
O O3 0.422582 0.732570 0.634973
O O4 0.455019 0.729655 0.564737
O O5 0.279869 0.818149 0.896841
O O6 0.354792 0.745059 0.859057
O O7 0.420487 0.000000 0.921739
O O8 0.500000 0.763542 0.000000
O O9 0.052710 0.500000 0.320735
O O10 0.137135 0.283848 0.311756
O O11 0.920365 0.278281 0.233199
O O12 0.168182 0.231127 0.637354
O O13 0.000000 0.240451 0.500000
O O14 0.038020 0.000000 0.563798
O O15 0.604073 0.500000 0.802744
O O16 0.608299 0.274442 0.863038
O O17 0.357426 0.500000 0.814507
O O18 0.356307 0.252331 0.771882
O O19 0.536281 0.320535 0.907456
O O20 0.695444 0.000000 0.286099
O O21 0.188928 0.000000 0.944002
O O22 0.250000 0.250000 0.000000
#
# Coordination Sequence:
#
# PCOD8107277 Si02
#       8
#     8   8   8   8   8   8   8   8
#     4  11  23  40  65  94 126 161 199 247 298 355
#     4  10  22  40  62  84 113 158 207 251 299 368
#     4  11  23  39  62  91 123 159 202 252 301 357
#     4   9  19  38  64  91 119 155 201 244 282 339
#     4  10  21  39  60  84 118 159 203 249 301 361
#     4  11  23  38  58  87 122 156 193 253 315 357
#     4  10  21  39  63  88 117 161 208 245 290 357
#     4  10  21  37  59  85 115 153 199 250 305 360
#
# _framework density 20.017737
#
# number of rings (size 3 to 8) (size 9 to 14) (size 15 to 20)
#    0.000    1.750    1.250    2.625    1.750    5.750 
#    0.000    0.625    0.000    2.625    0.000    0.000 
#    0.000    0.000    0.000    0.000    0.000    0.000 
#
# Total GULP energy -396809.965066 kJ/mol
# GULP energy per Si atom -12400.311408 kJ/mol
# Density = 1.997218 g / cm^3
# Si number density = 20.017737 Si / 1000 Ang^3
#
#
#
# Elastic Constant Matrix: (Units=GPa)
#
#
# Indices 1 2 3 4 5 6 
#
# 1 108.6016 36.6470 45.8804 0.0001 -3.6388 -0.0001
# 2 36.6470 64.6136 43.9119 0.0002 -7.0639 -0.0005
# 3 45.8804 43.9119 127.5537 0.0000 -0.0673 -0.0001
# 4 0.0001 0.0002 0.0000 35.9337 0.0000 -1.3945
# 5 -3.6388 -7.0639 -0.0673 0.0000 38.4466 0.0000
# 6 -0.0001 -0.0005 -0.0001 -1.3945 0.0000 28.3343
#
#
#
# Elastic Compliance Matrix: (Units=1/GPa)
#
#
# Indices 1 2 3 4 5 6 
#
# 1 0.012004 -0.005028 -0.002587 0.000000 0.000208 0.000000
# 2 -0.005028 0.022850 -0.006056 0.000000 0.003712 0.000000
# 3 -0.002587 -0.006056 0.010854 0.000000 -0.001339 0.000000
# 4 0.000000 0.000000 0.000000 0.027882 0.000000 0.001372
# 5 0.000208 0.003712 -0.001339 0.000000 0.026709 0.000000
# 6 0.000000 0.000000 0.000000 0.001372 0.000000 0.035360
#
#
# Mechanical properties :
#
#
# Convention : Reuss Voigt Hill
#
# Bulk Modulus (GPa) = 54.44431 61.51639 57.98035
# Shear Modulus (GPa) = 29.56408 32.16488 30.86448
#
# Velocity S-wave (km/s) = 3.84721 4.01286 3.93091
# Velocity P-wave (km/s) = 6.85505 7.22969 7.04486
#
# Compressibility (1/GPa) = 0.01836739
#
# Stress axis : x y z
#
# Youngs Moduli (GPa) = 83.30271 43.76447 92.12815
#
# Poissons Ratio (x) = 0.22004 0.23833
# Poissons Ratio (y) = 0.41882 0.55791
# Poissons Ratio (z) = 0.21550 0.26503
#
# Static dielectric constant tensor:
#      x y z
#    x 3.915260 0.000000 -0.144380 
#    y 0.000000 3.507450 0.000000 
#    z -0.144380 0.000000 3.856120 
# 
# 
# High freq. dielectric constant tensor:
#      x y z
#    x 1.792510 0.000000 0.000140 
#    y 0.000000 1.763670 0.000000 
#    z 0.000140 0.000000 1.792400 
# 
# From -- ./inp_files/378336.got.cif
#   From: 2010.06.25/outbox.cif.g09.slc.cpg/sg12_190_cif.got.tgz:378336.got - 2010.06.28 00:19:55.
