data_PCOD8107093
_publ_section_title
;
Structure prediction by ZEFSAII (Michael W. Deem and Ramdas Pophale) SiO2 
 PCOD8107093
Probable space group: C 2/M
;
_chemical_formula_sum "Si O2"
_cell_formula_units_Z 56
_cell_length_a 14.510733
_cell_length_b 16.822007
_cell_length_c 22.592229
_cell_angle_alpha 90.000000
_cell_angle_beta 29.752012
_cell_angle_gamma 90.000000
_cell_volume 2736.680694
_symmetry_space_group_name_H-M "C 2/M"
_symmetry_group_IT_number 12
_symmetry_cell_setting 'monoclinic'
loop_
_space_group_symop_operation_xyz
x,y,z
-x,y,-z
-x,-y,-z
x,-y,z
1/2+x,1/2+y,z
1/2-x,1/2+y,-z
1/2-x,1/2-y,-z
1/2+x,1/2-y,z
loop_
_atom_site_type_symbol
_atom_site_label
_atom_site_fract_x
_atom_site_fract_y
_atom_site_fract_z
Si Si1 0.842306 0.907603 0.285208
Si Si2 0.720727 0.589707 0.543590
Si Si3 0.292342 0.675616 0.936958
Si Si4 0.060450 0.865658 0.401865
Si Si5 0.194358 0.264259 0.871922
Si Si6 0.915233 0.591180 0.143426
Si Si7 0.427506 0.189503 0.640849
O O1 0.855916 0.891889 0.347908
O O2 0.657691 0.870119 0.359992
O O3 0.016137 0.867833 0.154525
O O4 0.840759 0.000000 0.271274
O O5 0.798766 0.500000 0.497737
O O6 0.557877 0.597261 0.586058
O O7 0.885019 0.651345 0.437464
O O8 0.321107 0.715208 0.856763
O O9 0.250000 0.750000 0.000000
O O10 0.127961 0.612289 0.039173
O O11 0.275738 0.892720 0.276211
O O12 0.032981 0.771227 0.414875
O O13 0.000000 0.897209 0.500000
O O14 0.153927 0.351824 0.869568
O O15 0.293495 0.204932 0.771434
O O16 0.000000 0.223557 0.000000
O O17 0.903750 0.500000 0.128983
#
# Coordination Sequence:
#
# PCOD8107093 Si02
#       7
#     8   8   8   8   8   8   8
#     4  11  22  38  61  89 119 151 194 244 289 337
#     4  11  24  40  60  88 119 152 194 243 291 341
#     4  11  22  37  59  86 116 151 191 237 289 344
#     4  11  23  39  60  86 119 154 192 238 291 351
#     4   9  20  37  58  83 113 149 192 242 287 338
#     4  10  21  37  58  84 112 146 189 237 289 339
#     4  11  22  39  62  86 115 156 198 237 286 344
#
# _framework density 20.462745000000002
#
# number of rings (size 3 to 8) (size 9 to 14) (size 15 to 20)
#    0.000    1.429    0.000    7.286    0.000    8.857 
#    0.000    0.000    0.000    8.571    0.000    0.000 
#    0.000    0.000    0.000    0.000    0.000    0.000 
#
# Total GULP energy -347151.404113 kJ/mol
# GULP energy per Si atom -12398.264433 kJ/mol
# Density = 2.041617 g / cm^3
# Si number density = 20.462745 Si / 1000 Ang^3
#
#
#
# Elastic Constant Matrix: (Units=GPa)
#
#
# Indices 1 2 3 4 5 6 
#
# 1 73.2456 22.7754 28.2883 0.0011 5.8879 0.0014
# 2 22.7754 120.2251 36.4558 -0.0047 2.0936 0.0016
# 3 28.2883 36.4558 100.8055 -0.0106 6.8672 -0.0029
# 4 0.0011 -0.0047 -0.0106 32.3573 0.0114 -10.2540
# 5 5.8879 2.0936 6.8672 0.0114 33.8396 -0.0016
# 6 0.0014 0.0016 -0.0029 -10.2540 -0.0016 23.6010
#
#
#
# Elastic Compliance Matrix: (Units=1/GPa)
#
#
# Indices 1 2 3 4 5 6 
#
# 1 0.015784 -0.001857 -0.003629 -0.000002 -0.001895 -0.000002
# 2 -0.001857 0.009561 -0.002959 0.000000 0.000332 -0.000001
# 3 -0.003629 -0.002959 0.012121 0.000006 -0.001645 0.000004
# 4 -0.000002 0.000000 0.000006 0.035839 -0.000012 0.015571
# 5 -0.001895 0.000332 -0.001645 -0.000012 0.030194 -0.000003
# 6 -0.000002 -0.000001 0.000004 0.015571 -0.000003 0.049136
#
#
# Mechanical properties :
#
#
# Convention : Reuss Voigt Hill
#
# Bulk Modulus (GPa) = 48.60020 52.14614 50.37317
# Shear Modulus (GPa) = 28.34726 31.74335 30.04531
#
# Velocity S-wave (km/s) = 3.72601 3.94290 3.83599
# Velocity P-wave (km/s) = 6.50485 6.80201 6.65509
#
# Compressibility (1/GPa) = 0.02057605
#
# Stress axis : x y z
#
# Youngs Moduli (GPa) = 63.35603 104.59121 82.50365
#
# Poissons Ratio (x) = 0.19420 0.29938
# Poissons Ratio (y) = 0.11764 0.24415
# Poissons Ratio (z) = 0.22990 0.30951
#
# Static dielectric constant tensor:
#      x y z
#    x 1.829250 0.000060 1.420770 
#    y 0.000060 3.646970 -0.000070 
#    z 1.420770 -0.000070 2.985750 
# 
# 
# High freq. dielectric constant tensor:
#      x y z
#    x 1.788920 0.000000 -0.002340 
#    y 0.000000 1.800200 0.000000 
#    z -0.002340 0.000000 1.814040 
# 
# From -- ./inp_files/145653.got.cif
#   From: 2010.06.25/outbox.cif.g09.slc.cpg/sg12_73_cif.got.tgz:145653.got - 2010.06.28 00:19:55.
