data_PCOD8107858
_publ_section_title
;
Structure prediction by ZEFSAII (Michael W. Deem and Ramdas Pophale) SiO2 
 PCOD8107858
Probable space group: C 2/M
;
_chemical_formula_sum "Si O2"
_cell_formula_units_Z 64
_cell_length_a 17.590567
_cell_length_b 9.096265
_cell_length_c 34.547259
_cell_angle_alpha 90.000000
_cell_angle_beta 143.635801
_cell_angle_gamma 90.000000
_cell_volume 3277.551985
_symmetry_space_group_name_H-M "C 2/M"
_symmetry_group_IT_number 12
_symmetry_cell_setting 'monoclinic'
loop_
_space_group_symop_operation_xyz
x,y,z
-x,y,-z
-x,-y,-z
x,-y,z
1/2+x,1/2+y,z
1/2-x,1/2+y,-z
1/2-x,1/2-y,-z
1/2+x,1/2-y,z
loop_
_atom_site_type_symbol
_atom_site_label
_atom_site_fract_x
_atom_site_fract_y
_atom_site_fract_z
Si Si1 0.115132 0.330056 0.129676
Si Si2 0.219649 0.163463 0.365945
Si Si3 0.392214 0.663849 0.488670
Si Si4 0.530591 0.325466 0.226660
Si Si5 0.435209 0.162429 0.389107
Si Si6 0.147616 0.824305 0.985802
Si Si7 0.730857 0.325815 0.245154
Si Si8 0.241676 0.330145 0.098939
O O1 0.085109 0.500000 0.126947
O O2 0.224292 0.266701 0.202928
O O3 0.164110 0.313878 0.106380
O O4 0.990589 0.230111 0.084877
O O5 0.262685 0.258307 0.420544
O O6 0.332178 0.157018 0.380877
O O7 0.095498 0.233995 0.293237
O O8 0.189718 0.000000 0.369049
O O9 0.500000 0.670231 0.500000
O O10 0.352890 0.500000 0.483172
O O11 0.445621 0.735661 0.550065
O O12 0.537038 0.500000 0.231996
O O13 0.610424 0.273807 0.222017
O O14 0.385565 0.269109 0.163683
O O15 0.364008 0.218064 0.320973
O O16 0.491211 0.000000 0.405245
O O17 0.170915 0.771465 0.039013
O O18 0.155118 0.000000 0.985913
O O19 0.250000 0.750000 0.000000
O O20 0.725729 0.500000 0.235029
O O21 0.242909 0.500000 0.085292
#
# Coordination Sequence:
#
# PCOD8107858 Si02
#       8
#     8   8   8   8   8   8   8   8
#     4  11  23  37  55  81 112 144 176 212 257 308
#     4   8  13  23  40  61  87 121 162 204 248 302
#     4   9  15  21  32  56  91 127 159 197 252 309
#     4   8  15  30  52  74  96 130 173 214 257 305
#     4   8  14  24  39  61  89 124 166 210 255 304
#     4  12  25  41  62  85 109 138 174 215 260 309
#     4   9  17  31  52  75 100 134 178 223 263 308
#     4  10  21  38  58  81 111 143 176 214 256 307
#
# _framework density 19.526769000000002
#
# number of rings (size 3 to 8) (size 9 to 14) (size 15 to 20)
#    0.000    2.625    0.000    4.500    0.000    5.500 
#    0.000    2.500    0.000    0.000    0.000    0.875 
#    0.000    0.000    0.000    0.000    0.000    0.000 
#
# Total GULP energy -396695.336591 kJ/mol
# GULP energy per Si atom -12396.729268 kJ/mol
# Density = 1.948233 g / cm^3
# Si number density = 19.526769 Si / 1000 Ang^3
#
#
#
# Elastic Constant Matrix: (Units=GPa)
#
#
# Indices 1 2 3 4 5 6 
#
# 1 31.2101 22.6118 15.7878 -0.0001 -11.8269 0.0000
# 2 22.6118 114.7128 66.6566 -0.0001 -15.7134 0.0001
# 3 15.7878 66.6566 146.7862 -0.0001 -19.4575 0.0000
# 4 -0.0001 -0.0001 -0.0001 29.5064 0.0000 -3.7762
# 5 -11.8269 -15.7134 -19.4575 0.0000 14.6430 0.0000
# 6 0.0000 0.0001 0.0000 -3.7762 0.0000 15.5928
#
#
#
# Elastic Compliance Matrix: (Units=1/GPa)
#
#
# Indices 1 2 3 4 5 6 
#
# 1 0.048918 -0.006010 0.002246 0.000000 0.036045 0.000000
# 2 -0.006010 0.013157 -0.004977 0.000000 0.002652 0.000000
# 3 0.002246 -0.004977 0.010152 0.000000 0.009963 0.000000
# 4 0.000000 0.000000 0.000000 0.034975 0.000000 0.008470
# 5 0.036045 0.002652 0.009963 0.000000 0.113488 0.000000
# 6 0.000000 0.000000 0.000000 0.008470 0.000000 0.066183
#
#
# Mechanical properties :
#
#
# Convention : Reuss Voigt Hill
#
# Bulk Modulus (GPa) = 18.26660 55.86905 37.06783
# Shear Modulus (GPa) = 15.49887 24.45865 19.97876
#
# Velocity S-wave (km/s) = 2.82037 3.54301 3.20214
# Velocity P-wave (km/s) = 4.47000 6.73876 5.71803
#
# Compressibility (1/GPa) = 0.05474473
#
# Stress axis : x y z
#
# Youngs Moduli (GPa) = 20.44230 76.00373 98.50533
#
# Poissons Ratio (x) = 0.45679 -0.22121
# Poissons Ratio (y) = 0.12286 0.49025
# Poissons Ratio (z) = -0.04591 0.37826
#
# Static dielectric constant tensor:
#      x y z
#    x 3.109130 0.000000 0.049180 
#    y 0.000000 3.516250 0.000000 
#    z 0.049180 0.000000 3.978410 
# 
# 
# High freq. dielectric constant tensor:
#      x y z
#    x 1.712640 0.000000 -0.001820 
#    y 0.000000 1.743620 0.000000 
#    z -0.001820 0.000000 1.784300 
# 
# From -- ./inp_files/378344.got.cif
#   From: 2010.06.25/outbox.cif.g09.slc.cpg/sg12_190_cif.got.tgz:378344.got - 2010.06.28 00:19:55.
