data_PCOD8107027
_publ_section_title
;
Structure prediction by ZEFSAII (Michael W. Deem and Ramdas Pophale) SiO2 
 PCOD8107027
Probable space group: C 2/M
;
_chemical_formula_sum "Si O2"
_cell_formula_units_Z 56
_cell_length_a 9.276236
_cell_length_b 15.793170
_cell_length_c 27.859632
_cell_angle_alpha 90.000000
_cell_angle_beta 41.715543
_cell_angle_gamma 90.000000
_cell_volume 2715.943482
_symmetry_space_group_name_H-M "C 2/M"
_symmetry_group_IT_number 12
_symmetry_cell_setting 'monoclinic'
loop_
_space_group_symop_operation_xyz
x,y,z
-x,y,-z
-x,-y,-z
x,-y,z
1/2+x,1/2+y,z
1/2-x,1/2+y,-z
1/2-x,1/2-y,-z
1/2+x,1/2-y,z
loop_
_atom_site_type_symbol
_atom_site_label
_atom_site_fract_x
_atom_site_fract_y
_atom_site_fract_z
Si Si1 0.381690 0.338113 0.143483
Si Si2 0.290105 0.333789 0.853460
Si Si3 0.530308 0.500000 0.047648
Si Si4 0.552870 0.595689 0.435619
Si Si5 0.332827 0.331510 0.313065
Si Si6 0.477349 0.000000 0.061294
Si Si7 0.000903 0.661048 0.310805
Si Si8 0.235962 0.597014 0.434732
O O1 0.585446 0.321956 0.127373
O O2 0.344606 0.252262 0.122415
O O3 0.431318 0.416615 0.096758
O O4 0.168179 0.362243 0.226928
O O5 0.453781 0.353454 0.769854
O O6 0.138328 0.415169 0.892004
O O7 0.500000 0.500000 0.000000
O O8 0.783936 0.500000 0.980239
O O9 0.500000 0.641313 0.500000
O O10 0.471860 0.500000 0.459507
O O11 0.415211 0.638977 0.426157
O O12 0.811734 0.591995 0.361451
O O13 0.124511 0.329093 0.330418
O O14 0.363391 0.243839 0.332783
O O15 0.306520 0.399811 0.361493
O O16 0.500000 0.000000 0.000000
O O17 0.214623 0.500000 0.454411
O O18 0.000000 0.641497 0.500000
#
# Coordination Sequence:
#
# PCOD8107027 Si02
#       8
#     8   8   4   8   8   4   8   8
#     4  10  23  44  66  94 132 167 214 258 321 373
#     4  10  23  42  68  95 128 173 207 264 315 380
#     4  12  28  46  64 102 129 166 215 260 313 386
#     4  10  21  37  57  86 120 160 205 249 308 358
#     4  10  21  38  60  89 120 156 207 247 309 362
#     4  12  24  46  68  96 133 164 215 254 317 388
#     4  10  21  38  62  87 119 160 201 254 301 370
#     4  10  21  37  57  86 122 158 202 255 303 360
#
# _framework density 20.618986
#
# number of rings (size 3 to 8) (size 9 to 14) (size 15 to 20)
#    0.000    1.714    1.429    1.714    4.000    4.571 
#    0.000    2.857    0.000    0.000    0.000    0.000 
#    0.000    0.000    0.000    0.000    0.000    0.000 
#
# Total GULP energy -347049.402830 kJ/mol
# GULP energy per Si atom -12394.621530 kJ/mol
# Density = 2.057206 g / cm^3
# Si number density = 20.618986 Si / 1000 Ang^3
#
#
#
# Elastic Constant Matrix: (Units=GPa)
#
#
# Indices 1 2 3 4 5 6 
#
# 1 192.1105 60.7713 85.3587 -0.0051 1.6492 0.0000
# 2 60.7713 104.4919 63.7522 -0.0012 -0.2076 -0.0025
# 3 85.3587 63.7522 113.2291 0.0086 -0.5206 -0.0054
# 4 -0.0051 -0.0012 0.0086 17.5958 0.0015 10.8395
# 5 1.6492 -0.2076 -0.5206 0.0015 41.9792 0.0006
# 6 0.0000 -0.0025 -0.0054 10.8395 0.0006 37.9425
#
#
#
# Elastic Compliance Matrix: (Units=1/GPa)
#
#
# Indices 1 2 3 4 5 6 
#
# 1 0.007980 -0.001478 -0.005185 0.000006 -0.000385 -0.000003
# 2 -0.001478 0.014852 -0.007247 0.000005 0.000042 -0.000001
# 3 -0.005185 -0.007247 0.016823 -0.000014 0.000377 0.000006
# 4 0.000006 0.000005 -0.000014 0.068970 -0.000003 -0.019703
# 5 -0.000385 0.000042 0.000377 -0.000003 0.023841 0.000000
# 6 -0.000003 -0.000001 0.000006 -0.019703 0.000000 0.031985
#
#
# Mechanical properties :
#
#
# Convention : Reuss Voigt Hill
#
# Bulk Modulus (GPa) = 84.51162 92.17731 88.34446
# Shear Modulus (GPa) = 25.48196 32.83345 29.15770
#
# Velocity S-wave (km/s) = 3.51928 3.99480 3.76456
# Velocity P-wave (km/s) = 7.58881 8.12896 7.86353
#
# Compressibility (1/GPa) = 0.01183269
#
# Stress axis : x y z
#
# Youngs Moduli (GPa) = 125.30896 67.33208 59.44214
#
# Poissons Ratio (x) = 0.09954 0.30823
# Poissons Ratio (y) = 0.18524 0.43081
# Poissons Ratio (z) = 0.64978 0.48799
#
# Static dielectric constant tensor:
#      x y z
#    x 4.114000 0.000000 -0.005060 
#    y 0.000000 3.559450 0.000000 
#    z -0.005060 0.000000 3.783880 
# 
# 
# High freq. dielectric constant tensor:
#      x y z
#    x 1.827430 0.000000 -0.001420 
#    y 0.000000 1.792770 0.000000 
#    z -0.001420 0.000000 1.813890 
# 
# From -- ./inp_files/356708.got.cif
#   From: 2010.06.25/outbox.cif.g09.slc.cpg/sg12_179_cif.got.tgz:356708.got - 2010.06.28 00:19:55.
