data_PCOD8107531
_publ_section_title
;
Structure prediction by ZEFSAII (Michael W. Deem and Ramdas Pophale) SiO2 
 PCOD8107531
Probable space group: C 2/M
;
_chemical_formula_sum "Si O2"
_cell_formula_units_Z 44
_cell_length_a 9.023331
_cell_length_b 15.164949
_cell_length_c 15.191328
_cell_angle_alpha 90.000000
_cell_angle_beta 88.358781
_cell_angle_gamma 90.000000
_cell_volume 2077.903555
_symmetry_space_group_name_H-M "C 2/M"
_symmetry_group_IT_number 12
_symmetry_cell_setting 'monoclinic'
loop_
_space_group_symop_operation_xyz
x,y,z
-x,y,-z
-x,-y,-z
x,-y,z
1/2+x,1/2+y,z
1/2-x,1/2+y,-z
1/2-x,1/2-y,-z
1/2+x,1/2-y,z
loop_
_atom_site_type_symbol
_atom_site_label
_atom_site_fract_x
_atom_site_fract_y
_atom_site_fract_z
Si Si1 0.000000 0.255252 0.500000
Si Si2 0.803973 0.347943 0.086411
Si Si3 0.143051 0.094859 0.244173
Si Si4 0.853510 0.662576 0.892477
Si Si5 0.306214 0.601471 0.274943
Si Si6 0.741612 0.223025 0.622547
O O1 0.880534 0.198467 0.557093
O O2 0.905441 0.308453 0.428163
O O3 0.714036 0.418162 0.146301
O O4 0.710434 0.259847 0.103080
O O5 0.969738 0.332925 0.118604
O O6 0.805368 0.382805 0.985759
O O7 0.246792 0.165675 0.290597
O O8 0.973220 0.126065 0.243505
O O9 0.151299 0.000000 0.292027
O O10 0.794485 0.608585 0.810160
O O11 0.292604 0.500000 0.310281
O O12 0.260119 0.672337 0.351454
#
# Coordination Sequence:
#
# PCOD8107531 Si02
#       6
#     4   8   8   8   8   8
#     4  10  24  42  74  88 124 160 204 252 332 374
#     4  10  21  37  60  92 129 171 215 259 305 360
#     4  11  24  41  65  95 130 170 209 256 312 373
#     4  10  21  37  60  92 129 171 215 259 305 360
#     4  11  24  41  65  95 130 170 209 256 312 373
#     4  11  22  46  65  98 120 164 201 262 312 387
#
# _framework density 21.175189
#
# number of rings (size 3 to 8) (size 9 to 14) (size 15 to 20)
#    0.000    1.455    3.636    1.091    2.545    3.636 
#    0.000    9.091    0.000    0.000    0.000    0.000 
#    0.000    0.000    0.000    0.000    0.000    0.000 
#
# Total GULP energy -272601.562182 kJ/mol
# GULP energy per Si atom -12390.980099 kJ/mol
# Density = 2.112699 g / cm^3
# Si number density = 21.175189 Si / 1000 Ang^3
#
#
#
# Elastic Constant Matrix: (Units=GPa)
#
#
# Indices 1 2 3 4 5 6 
#
# 1 128.3468 24.4013 51.1314 0.0000 8.4533 0.0000
# 2 24.4013 89.2904 32.8546 0.0000 2.3177 0.0000
# 3 51.1314 32.8546 108.4121 0.0000 10.0209 0.0000
# 4 0.0000 0.0000 0.0000 5.1441 0.0000 0.5040
# 5 8.4533 2.3177 10.0209 0.0000 44.5518 0.0000
# 6 0.0000 0.0000 0.0000 0.5040 0.0000 17.8416
#
#
#
# Elastic Compliance Matrix: (Units=1/GPa)
#
#
# Indices 1 2 3 4 5 6 
#
# 1 0.009718 -0.001099 -0.004172 0.000000 -0.000848 0.000000
# 2 -0.001099 0.012731 -0.003368 0.000000 0.000304 0.000000
# 3 -0.004172 -0.003368 0.012381 0.000000 -0.001818 0.000000
# 4 0.000000 0.000000 0.000000 0.194938 0.000000 -0.005506
# 5 -0.000848 0.000304 -0.001818 0.000000 0.023000 0.000000
# 6 0.000000 0.000000 0.000000 -0.005506 0.000000 0.056204
#
#
# Mechanical properties :
#
#
# Convention : Reuss Voigt Hill
#
# Bulk Modulus (GPa) = 56.97322 60.31377 58.64349
# Shear Modulus (GPa) = 15.05568 28.01831 21.53700
#
# Velocity S-wave (km/s) = 2.66936 3.64148 3.19264
# Velocity P-wave (km/s) = 6.03860 6.79894 6.43002
#
# Compressibility (1/GPa) = 0.01755211
#
# Stress axis : x y z
#
# Youngs Moduli (GPa) = 102.89899 78.54808 80.77180
#
# Poissons Ratio (x) = 0.08630 0.33699
# Poissons Ratio (y) = 0.11305 0.27205
# Poissons Ratio (z) = 0.42931 0.26456
#
# Static dielectric constant tensor:
#      x y z
#    x 4.024570 0.000000 0.053040 
#    y 0.000000 3.477420 0.000000 
#    z 0.053040 0.000000 4.082820 
# 
# 
# High freq. dielectric constant tensor:
#      x y z
#    x 1.848980 0.000000 -0.000480 
#    y 0.000000 1.795480 0.000000 
#    z -0.000480 0.000000 1.837680 
# 
# From -- ./inp_files/195517.got.cif
#   From: 2010.06.25/outbox.cif.g09.slc.cpg/sg12_98_cif.got.tgz:195517.got - 2010.06.28 00:19:55.
