data_PCOD8107974
_publ_section_title
;
Structure prediction by ZEFSAII (Michael W. Deem and Ramdas Pophale) SiO2 
 PCOD8107974
Probable space group: C 2/M
;
_chemical_formula_sum "Si O2"
_cell_formula_units_Z 64
_cell_length_a 19.833287
_cell_length_b 8.862622
_cell_length_c 21.332119
_cell_angle_alpha 90.000000
_cell_angle_beta 62.252068
_cell_angle_gamma 90.000000
_cell_volume 3318.458352
_symmetry_space_group_name_H-M "C 2/M"
_symmetry_group_IT_number 12
_symmetry_cell_setting 'monoclinic'
loop_
_space_group_symop_operation_xyz
x,y,z
-x,y,-z
-x,-y,-z
x,-y,z
1/2+x,1/2+y,z
1/2-x,1/2+y,-z
1/2-x,1/2-y,-z
1/2+x,1/2-y,z
loop_
_atom_site_type_symbol
_atom_site_label
_atom_site_fract_x
_atom_site_fract_y
_atom_site_fract_z
Si Si1 0.192914 0.322097 0.816393
Si Si2 0.229518 0.176445 0.443356
Si Si3 0.943998 0.823411 0.472693
Si Si4 0.672632 0.177401 0.055543
Si Si5 0.843601 0.821037 0.298508
Si Si6 0.484002 0.321221 0.319690
Si Si7 0.583436 0.821898 0.973979
Si Si8 0.145571 0.177294 0.198948
O O1 0.183421 0.500000 0.809547
O O2 0.161476 0.235554 0.769991
O O3 0.143694 0.262036 0.896576
O O4 0.281242 0.280456 0.790653
O O5 0.250000 0.250000 0.500000
O O6 0.141247 0.207648 0.467713
O O7 0.274788 0.251247 0.367412
O O8 0.248000 0.000000 0.438612
O O9 0.959777 0.751185 0.397356
O O10 0.000000 0.749508 0.500000
O O11 0.961082 0.000000 0.460055
O O12 0.646318 0.237219 0.133345
O O13 0.684576 0.000000 0.053365
O O14 0.750000 0.250000 0.000000
O O15 0.608914 0.223819 0.032533
O O16 0.923980 0.765371 0.293118
O O17 0.836228 0.000000 0.303912
O O18 0.480457 0.500000 0.324228
O O19 0.569547 0.267521 0.267258
O O20 0.579470 0.000000 0.968037
O O21 0.500000 0.749444 0.000000
O O22 0.144645 0.000000 0.185031
#
# Coordination Sequence:
#
# PCOD8107974 Si02
#       8
#     8   8   8   8   8   8   8   8
#     4  10  21  38  59  84 112 149 193 232 280 340
#     4  11  21  37  62  87 112 149 192 235 285 337
#     4   9  18  33  58  86 110 143 192 236 274 331
#     4  11  21  37  61  85 112 149 191 235 286 340
#     4  11  23  39  57  83 119 153 189 234 286 339
#     4   9  19  36  56  81 115 151 187 233 282 333
#     4   9  19  36  57  82 114 149 187 235 286 338
#     4  10  21  38  60  84 114 149 192 238 283 338
#
# _framework density 19.286064
#
# number of rings (size 3 to 8) (size 9 to 14) (size 15 to 20)
#    0.000    2.000    2.500    1.125    3.500    0.500 
#    0.000    0.625    0.000    3.375    0.000    0.000 
#    0.000    0.000    0.000    0.000    0.000    0.000 
#
# Total GULP energy -396814.015141 kJ/mol
# GULP energy per Si atom -12400.437973 kJ/mol
# Density = 1.924217 g / cm^3
# Si number density = 19.286064 Si / 1000 Ang^3
#
#
#
# Elastic Constant Matrix: (Units=GPa)
#
#
# Indices 1 2 3 4 5 6 
#
# 1 168.8322 39.0670 67.2504 0.0002 2.4438 -0.0001
# 2 39.0670 47.3506 28.8362 0.0003 1.9554 -0.0006
# 3 67.2504 28.8362 110.9314 0.0000 0.1886 0.0001
# 4 0.0002 0.0003 0.0000 32.2869 0.0001 5.2207
# 5 2.4438 1.9554 0.1886 0.0001 39.2795 0.0000
# 6 -0.0001 -0.0006 0.0001 5.2207 0.0000 22.0444
#
#
#
# Elastic Compliance Matrix: (Units=1/GPa)
#
#
# Indices 1 2 3 4 5 6 
#
# 1 0.008596 -0.004642 -0.004004 0.000000 -0.000285 0.000000
# 2 -0.004642 0.027656 -0.004373 0.000000 -0.001067 0.000001
# 3 -0.004004 -0.004373 0.012578 0.000000 0.000406 0.000000
# 4 0.000000 0.000000 0.000000 0.032206 0.000000 -0.007627
# 5 -0.000285 -0.001067 0.000406 0.000000 0.025527 0.000000
# 6 0.000000 0.000001 0.000000 -0.007627 0.000000 0.047169
#
#
# Mechanical properties :
#
#
# Convention : Reuss Voigt Hill
#
# Bulk Modulus (GPa) = 43.87528 66.38016 55.12772
# Shear Modulus (GPa) = 26.68529 31.51955 29.10242
#
# Velocity S-wave (km/s) = 3.72379 4.04705 3.88878
# Velocity P-wave (km/s) = 6.42557 7.50544 6.98640
#
# Compressibility (1/GPa) = 0.02279188
#
# Stress axis : x y z
#
# Youngs Moduli (GPa) = 116.32901 36.15808 79.50316
#
# Poissons Ratio (x) = 0.16785 0.31834
# Poissons Ratio (y) = 0.54002 0.34767
# Poissons Ratio (z) = 0.46580 0.15812
#
# Static dielectric constant tensor:
#      x y z
#    x 3.787560 0.000000 -0.072170 
#    y 0.000000 3.245480 0.000000 
#    z -0.072170 0.000000 3.666100 
# 
# 
# High freq. dielectric constant tensor:
#      x y z
#    x 1.768030 0.000000 -0.000010 
#    y 0.000000 1.713830 0.000000 
#    z -0.000010 0.000000 1.761810 
# 
# From -- ./inp_files/319981.got.cif
#   From: 2010.06.25/outbox.cif.g09.slc.cpg/sg12_160_cif.got.tgz:319981.got - 2010.06.28 00:19:55.
