data_PCOD8107664
_publ_section_title
;
Structure prediction by ZEFSAII (Michael W. Deem and Ramdas Pophale) SiO2 
 PCOD8107664
Probable space group: C 2/M
;
_chemical_formula_sum "Si O2"
_cell_formula_units_Z 48
_cell_length_a 28.083088
_cell_length_b 14.385928
_cell_length_c 13.081950
_cell_angle_alpha 90.000000
_cell_angle_beta 152.386505
_cell_angle_gamma 90.000000
_cell_volume 2449.680352
_symmetry_space_group_name_H-M "C 2/M"
_symmetry_group_IT_number 12
_symmetry_cell_setting 'monoclinic'
loop_
_space_group_symop_operation_xyz
x,y,z
-x,y,-z
-x,-y,-z
x,-y,z
1/2+x,1/2+y,z
1/2-x,1/2+y,-z
1/2-x,1/2-y,-z
1/2+x,1/2-y,z
loop_
_atom_site_type_symbol
_atom_site_label
_atom_site_fract_x
_atom_site_fract_y
_atom_site_fract_z
Si Si1 0.741598 0.813806 0.627799
Si Si2 0.599214 0.313403 0.248448
Si Si3 0.463832 0.500000 0.757253
Si Si4 0.742102 0.200148 0.150860
Si Si5 0.749190 0.000000 0.949905
Si Si6 0.201818 0.000000 0.179746
Si Si7 0.879496 0.685445 0.274966
Si Si8 0.679695 0.500000 0.699330
O O1 0.632109 0.767724 0.390135
O O2 0.809795 0.828150 0.657969
O O3 0.794256 0.748783 0.813701
O O4 0.727807 0.914299 0.651498
O O5 0.580068 0.409304 0.270839
O O6 0.500000 0.277598 0.000000
O O7 0.426385 0.500000 0.567416
O O8 0.586553 0.500000 0.005644
O O9 0.848591 0.242221 0.306391
O O10 0.754363 0.091617 0.202099
O O11 0.654634 0.223004 0.901125
O O12 0.675806 0.911713 0.811863
O O13 0.815900 0.000000 0.974837
O O14 0.833452 0.000000 0.202155
O O15 0.000000 0.671356 0.500000
#
# Coordination Sequence:
#
# PCOD8107664 Si02
#       8
#     8   8   4   8   4   4   8   4
#     4  11  23  40  64  89 129 163 205 273 321 365
#     4  11  23  41  65  95 121 164 216 265 322 383
#     4  12  22  41  70  95 125 166 219 258 324 380
#     4  10  21  40  58  91 123 164 210 263 316 372
#     4  10  21  40  60  92 132 163 208 253 314 376
#     4  12  23  40  67  97 127 170 209 265 313 377
#     4  10  21  37  63  86 124 169 211 250 310 385
#     4  10  22  40  59  91 131 159 205 269 305 374
#
# _framework density 19.594391999999999
#
# number of rings (size 3 to 8) (size 9 to 14) (size 15 to 20)
#    0.000    1.333    5.000    1.000    0.000    3.000 
#    0.000    0.417    0.000    0.000    0.000    0.000 
#    0.000    0.000    0.000    0.000    0.000    0.000 
#
# Total GULP energy -297520.316104 kJ/mol
# GULP energy per Si atom -12396.679838 kJ/mol
# Density = 1.954979 g / cm^3
# Si number density = 19.594392 Si / 1000 Ang^3
#
#
#
# Elastic Constant Matrix: (Units=GPa)
#
#
# Indices 1 2 3 4 5 6 
#
# 1 83.4902 47.9130 43.0895 0.0000 -16.1849 0.0000
# 2 47.9130 152.0852 55.4435 0.0000 -11.8358 0.0000
# 3 43.0895 55.4435 121.6192 0.0000 -11.6898 0.0000
# 4 0.0000 0.0000 0.0000 -70.0657 0.0000 30.8826
# 5 -16.1849 -11.8358 -11.6898 0.0000 30.0944 0.0000
# 6 0.0000 0.0000 0.0000 30.8826 0.0000 14.9016
#
#
#
# Elastic Compliance Matrix: (Units=1/GPa)
#
#
# Indices 1 2 3 4 5 6 
#
# 1 0.017240 -0.003516 -0.003892 0.000000 0.006377 0.000000
# 2 -0.003516 0.008695 -0.002671 0.000000 0.000491 0.000000
# 3 -0.003892 -0.002671 0.010925 0.000000 0.001100 0.000000
# 4 0.000000 0.000000 0.000000 -0.007459 0.000000 0.015458
# 5 0.006377 0.000491 0.001100 0.000000 0.037279 0.000000
# 6 0.000000 0.000000 0.000000 0.015458 0.000000 0.035071
#
#
# Mechanical properties :
#
#
# Convention : Reuss Voigt Hill
#
# Bulk Modulus (GPa) = 59.87545 72.23183 66.05364
# Shear Modulus (GPa) = 39.22286 9.03595 24.12941
#
# Velocity S-wave (km/s) = 4.47893 2.14977 3.51300
# Velocity P-wave (km/s) = 7.57440 6.56548 7.08792
#
# Compressibility (1/GPa) = 0.01670134
#
# Stress axis : x y z
#
# Youngs Moduli (GPa) = 58.00339 115.01022 91.53552
#
# Poissons Ratio (x) = 0.40439 0.35629
# Poissons Ratio (y) = 0.20395 0.24448
# Poissons Ratio (z) = 0.22577 0.30717
#
# Static dielectric constant tensor:
#      x y z
#    x 3.559610 0.000000 -0.393480 
#    y 0.000000 3.828640 0.000000 
#    z -0.393480 0.000000 3.689480 
# 
# 
# High freq. dielectric constant tensor:
#      x y z
#    x 1.757300 0.000000 -0.031080 
#    y 0.000000 1.778450 0.000000 
#    z -0.031080 0.000000 1.755110 
# 
# From -- ./inp_files/183731.got.cif
#   From: 2010.06.25/outbox.cif.g09.slc.cpg/sg12_92_cif.got.tgz:183731.got - 2010.06.28 00:19:55.
