data_PCOD8107654
_publ_section_title
;
Structure prediction by ZEFSAII (Michael W. Deem and Ramdas Pophale) SiO2 
 PCOD8107654
Probable space group: C 2/M
;
_chemical_formula_sum "Si O2"
_cell_formula_units_Z 56
_cell_length_a 14.034929
_cell_length_b 9.670783
_cell_length_c 20.567018
_cell_angle_alpha 90.000000
_cell_angle_beta 96.515292
_cell_angle_gamma 90.000000
_cell_volume 2773.506866
_symmetry_space_group_name_H-M "C 2/M"
_symmetry_group_IT_number 12
_symmetry_cell_setting 'monoclinic'
loop_
_space_group_symop_operation_xyz
x,y,z
-x,y,-z
-x,-y,-z
x,-y,z
1/2+x,1/2+y,z
1/2-x,1/2+y,-z
1/2-x,1/2-y,-z
1/2+x,1/2-y,z
loop_
_atom_site_type_symbol
_atom_site_label
_atom_site_fract_x
_atom_site_fract_y
_atom_site_fract_z
Si Si1 0.723384 0.160994 0.401277
Si Si2 0.893779 0.658537 0.185049
Si Si3 0.099920 0.754493 0.034105
Si Si4 0.606859 0.658650 0.487445
Si Si5 0.704245 0.353504 0.920867
Si Si6 0.568235 0.346306 0.173833
Si Si7 0.744191 0.344417 0.278269
O O1 0.638079 0.238976 0.432374
O O2 0.824024 0.179811 0.445724
O O3 0.734326 0.229209 0.332125
O O4 0.695790 0.000000 0.391846
O O5 0.909400 0.500000 0.165447
O O6 0.824214 0.725392 0.126049
O O7 0.848230 0.669209 0.253175
O O8 0.994750 0.734717 0.195947
O O9 0.181633 0.642070 0.056099
O O10 0.077015 0.840568 0.097030
O O11 0.144523 0.854252 0.983084
O O12 0.000000 0.687152 0.000000
O O13 0.500000 0.699954 0.500000
O O14 0.611331 0.500000 0.462970
O O15 0.680099 0.500000 0.884299
O O16 0.532683 0.500000 0.189650
O O17 0.668946 0.314085 0.215382
O O18 0.731256 0.500000 0.306075
#
# Coordination Sequence:
#
# PCOD8107654 Si02
#       7
#     8   8   8   8   8   8   8
#     4  10  21  37  62  95 126 159 204 252 291 342
#     4  11  24  42  61  86 119 154 199 254 308 364
#     4  11  23  40  60  91 116 150 193 258 316 373
#     4   9  19  38  64  94 129 166 202 239 291 351
#     4  11  24  40  62  88 114 151 197 248 308 376
#     4  11  23  42  63  85 114 157 205 248 309 379
#     4  10  23  43  62  81 121 169 202 243 301 365
#
# _framework density 20.191044000000002
#
# number of rings (size 3 to 8) (size 9 to 14) (size 15 to 20)
#    0.000    1.571    2.857    1.286    0.000    7.429 
#    0.000    4.286    0.000    0.000    0.000    0.000 
#    0.000    0.000    0.000    0.000    0.000    0.000 
#
# Total GULP energy -347143.284641 kJ/mol
# GULP energy per Si atom -12397.974451 kJ/mol
# Density = 2.014509 g / cm^3
# Si number density = 20.191044 Si / 1000 Ang^3
#
#
#
# Elastic Constant Matrix: (Units=GPa)
#
#
# Indices 1 2 3 4 5 6 
#
# 1 120.6833 50.6083 26.5515 0.0000 -18.0752 0.0000
# 2 50.6083 148.6524 56.7978 0.0000 -18.0092 0.0000
# 3 26.5515 56.7978 94.7524 0.0000 -15.4452 0.0000
# 4 0.0000 0.0000 0.0000 21.7971 0.0000 8.5866
# 5 -18.0752 -18.0092 -15.4452 0.0000 21.9867 0.0000
# 6 0.0000 0.0000 0.0000 8.5866 0.0000 19.5388
#
#
#
# Elastic Compliance Matrix: (Units=1/GPa)
#
#
# Indices 1 2 3 4 5 6 
#
# 1 0.010396 -0.002678 -0.000307 0.000000 0.006137 0.000000
# 2 -0.002678 0.009726 -0.004675 0.000000 0.002480 0.000000
# 3 -0.000307 -0.004675 0.014429 0.000000 0.006054 0.000000
# 4 0.000000 0.000000 0.000000 0.055483 0.000000 -0.024382
# 5 0.006137 0.002480 0.006054 0.000000 0.056812 0.000000
# 6 0.000000 0.000000 0.000000 -0.024382 0.000000 0.061895
#
#
# Mechanical properties :
#
#
# Convention : Reuss Voigt Hill
#
# Bulk Modulus (GPa) = 52.00378 70.22261 61.11319
# Shear Modulus (GPa) = 21.69461 28.00657 24.85059
#
# Velocity S-wave (km/s) = 3.28146 3.72839 3.51204
# Velocity P-wave (km/s) = 6.33791 7.30679 6.83953
#
# Compressibility (1/GPa) = 0.01922937
#
# Stress axis : x y z
#
# Youngs Moduli (GPa) = 96.19006 102.82012 69.30377
#
# Poissons Ratio (x) = 0.27540 0.02130
# Poissons Ratio (y) = 0.25764 0.32400
# Poissons Ratio (z) = 0.02956 0.48069
#
# Static dielectric constant tensor:
#      x y z
#    x 3.831250 0.000000 -0.029400 
#    y 0.000000 3.606720 0.000000 
#    z -0.029400 0.000000 3.478060 
# 
# 
# High freq. dielectric constant tensor:
#      x y z
#    x 1.799930 0.000000 -0.004460 
#    y 0.000000 1.788850 0.000000 
#    z -0.004460 0.000000 1.773720 
# 
# From -- ./inp_files/309052.got.cif
#   From: 2010.06.25/outbox.cif.g09.slc.cpg/sg12_155_cif.got.tgz:309052.got - 2010.06.28 00:19:55.
