data_PCOD8107008
_publ_section_title
;
Structure prediction by ZEFSAII (Michael W. Deem and Ramdas Pophale) SiO2 
 PCOD8107008
Probable space group: C 2/M
;
_chemical_formula_sum "Si O2"
_cell_formula_units_Z 64
_cell_length_a 30.075761
_cell_length_b 8.866924
_cell_length_c 14.258032
_cell_angle_alpha 90.000000
_cell_angle_beta 58.768695
_cell_angle_gamma 90.000000
_cell_volume 3251.295935
_symmetry_space_group_name_H-M "C 2/M"
_symmetry_group_IT_number 12
_symmetry_cell_setting 'monoclinic'
loop_
_space_group_symop_operation_xyz
x,y,z
-x,y,-z
-x,-y,-z
x,-y,z
1/2+x,1/2+y,z
1/2-x,1/2+y,-z
1/2-x,1/2-y,-z
1/2+x,1/2-y,z
loop_
_atom_site_type_symbol
_atom_site_label
_atom_site_fract_x
_atom_site_fract_y
_atom_site_fract_z
Si Si1 0.871027 0.326573 0.989606
Si Si2 0.879404 0.326273 0.425496
Si Si3 0.275441 0.175069 0.218359
Si Si4 0.910742 0.676601 0.745812
Si Si5 0.988239 0.822101 0.301221
Si Si6 0.469650 0.677556 0.944867
Si Si7 0.796982 0.179009 0.390726
Si Si8 0.830249 0.327331 0.679076
O O1 0.885593 0.500000 0.985701
O O2 0.876873 0.278306 0.874544
O O3 0.910910 0.235834 0.011014
O O4 0.813231 0.292206 0.089220
O O5 0.885415 0.500000 0.389252
O O6 0.935239 0.257751 0.389020
O O7 0.852068 0.235393 0.371256
O O8 0.843844 0.309505 0.555644
O O9 0.293583 0.273637 0.286570
O O10 0.218750 0.222759 0.244919
O O11 0.275585 0.000000 0.247303
O O12 0.923704 0.500000 0.729605
O O13 0.878126 0.727186 0.690796
O O14 0.965083 0.766272 0.683042
O O15 0.001016 0.771200 0.181332
O O16 0.981839 0.000000 0.318727
O O17 0.467494 0.500000 0.955018
O O18 0.500000 0.747963 0.000000
O O19 0.750000 0.250000 0.500000
O O20 0.793564 0.000000 0.402418
O O21 0.816218 0.500000 0.718881
#
# Coordination Sequence:
#
# PCOD8107008 Si02
#       8
#     8   8   8   8   8   8   8   8
#     4   9  20  37  57  84 115 149 191 238 288 343
#     4  11  23  39  59  86 118 154 196 239 288 347
#     4  11  23  38  58  88 121 154 192 238 291 348
#     4   9  19  40  63  83 114 154 196 244 293 345
#     4  10  21  37  57  85 117 151 193 240 294 347
#     4   9  19  35  54  79 110 147 190 237 288 344
#     4  12  24  40  61  85 117 156 193 239 290 342
#     4  10  22  39  61  85 112 154 201 242 291 347
#
# _framework density 19.684459
#
# number of rings (size 3 to 8) (size 9 to 14) (size 15 to 20)
#    0.000    1.875    1.250    2.250    1.750    3.750 
#    0.000    2.500    0.000    0.000    0.000    0.000 
#    0.000    0.000    0.000    0.000    0.000    0.000 
#
# Total GULP energy -396935.426955 kJ/mol
# GULP energy per Si atom -12404.232092 kJ/mol
# Density = 1.963966 g / cm^3
# Si number density = 19.684459 Si / 1000 Ang^3
#
#
#
# Elastic Constant Matrix: (Units=GPa)
#
#
# Indices 1 2 3 4 5 6 
#
# 1 115.4599 38.1992 16.4732 0.0000 -5.3064 0.0000
# 2 38.1992 82.6390 27.4866 0.0000 -9.9373 0.0000
# 3 16.4732 27.4866 42.9988 0.0000 -18.5582 0.0000
# 4 0.0000 0.0000 0.0000 26.4604 0.0000 -5.4641
# 5 -5.3064 -9.9373 -18.5582 0.0000 34.3660 0.0000
# 6 0.0000 0.0000 0.0000 -5.4641 0.0000 38.0382
#
#
#
# Elastic Compliance Matrix: (Units=1/GPa)
#
#
# Indices 1 2 3 4 5 6 
#
# 1 0.010273 -0.004357 -0.001316 0.000000 -0.000385 0.000000
# 2 -0.004357 0.017250 -0.009773 0.000000 -0.000962 0.000000
# 3 -0.001316 -0.009773 0.037423 0.000000 0.017180 0.000000
# 4 0.000000 0.000000 0.000000 0.038948 0.000000 0.005595
# 5 -0.000385 -0.000962 0.017180 0.000000 0.038038 0.000000
# 6 0.000000 0.000000 0.000000 0.005595 0.000000 0.027093
#
#
# Mechanical properties :
#
#
# Convention : Reuss Voigt Hill
#
# Bulk Modulus (GPa) = 29.36618 45.04616 37.20617
# Shear Modulus (GPa) = 23.66675 30.36884 27.01779
#
# Velocity S-wave (km/s) = 3.47119 3.93209 3.70881
# Velocity P-wave (km/s) = 5.56924 6.59916 6.10595
#
# Compressibility (1/GPa) = 0.03405278
#
# Stress axis : x y z
#
# Youngs Moduli (GPa) = 97.34655 57.97261 26.72170
#
# Poissons Ratio (x) = 0.25257 0.03518
# Poissons Ratio (y) = 0.42412 0.26115
# Poissons Ratio (z) = 0.12815 0.56656
#
# Static dielectric constant tensor:
#      x y z
#    x 3.690030 0.000000 0.035570 
#    y 0.000000 3.571300 0.000000 
#    z 0.035570 0.000000 3.581090 
# 
# 
# High freq. dielectric constant tensor:
#      x y z
#    x 1.774290 0.000000 -0.003670 
#    y 0.000000 1.767510 0.000000 
#    z -0.003670 0.000000 1.762520 
# 
# From -- ./inp_files/249687.got.cif
#   From: 2010.06.25/outbox.cif.g09.slc.cpg/sg12_125_cif.got.tgz:249687.got - 2010.06.28 00:19:55.
