data_PCOD8107252
_publ_section_title
;
Structure prediction by ZEFSAII (Michael W. Deem and Ramdas Pophale) SiO2 
 PCOD8107252
Probable space group: C 2/M
;
_chemical_formula_sum "Si O2"
_cell_formula_units_Z 40
_cell_length_a 9.534087
_cell_length_b 18.095371
_cell_length_c 23.284557
_cell_angle_alpha 90.000000
_cell_angle_beta 152.916121
_cell_angle_gamma 90.000000
_cell_volume 1828.971360
_symmetry_space_group_name_H-M "C 2/M"
_symmetry_group_IT_number 12
_symmetry_cell_setting 'monoclinic'
loop_
_space_group_symop_operation_xyz
x,y,z
-x,y,-z
-x,-y,-z
x,-y,z
1/2+x,1/2+y,z
1/2-x,1/2+y,-z
1/2-x,1/2-y,-z
1/2+x,1/2-y,z
loop_
_atom_site_type_symbol
_atom_site_label
_atom_site_fract_x
_atom_site_fract_y
_atom_site_fract_z
Si Si1 0.539175 0.911802 0.729175
Si Si2 0.378550 0.323032 0.018010
Si Si3 0.332009 0.915831 0.777899
Si Si4 0.992040 0.704274 0.626988
Si Si5 0.840618 0.825189 0.649265
O O1 0.333969 0.894380 0.710857
O O2 0.373845 0.873008 0.613073
O O3 0.867564 0.869959 0.853807
O O4 0.576342 0.000000 0.732432
O O5 0.500000 0.300628 0.000000
O O6 0.250000 0.250000 0.000000
O O7 0.090802 0.376788 0.908784
O O8 0.001255 0.900527 0.687174
O O9 0.413914 0.000000 0.813322
O O10 0.750000 0.750000 0.500000
O O11 0.061142 0.759407 0.705497
O O12 0.302333 0.685882 0.703883
O O13 0.500000 0.823578 0.500000
#
# Coordination Sequence:
#
# PCOD8107252 Si02
#       5
#     8   8   8   8   8
#     4  10  21  39  63  90 123 163 205 251 307 369
#     4  10  21  37  60  90 123 160 204 249 300 362
#     4  10  21  38  60  89 125 161 199 248 306 365
#     4  10  21  38  60  85 115 155 204 253 300 356
#     4  10  21  37  59  83 115 158 204 253 304 360
#
# _framework density 21.870217
#
# number of rings (size 3 to 8) (size 9 to 14) (size 15 to 20)
#    0.000    2.000    0.000    3.000    0.000   10.000 
#    0.000    3.000    0.000   18.600    0.000    0.000 
#    0.000    0.000    0.000    0.000    0.000    0.000 
#
# Total GULP energy -247773.777411 kJ/mol
# GULP energy per Si atom -12388.688871 kJ/mol
# Density = 2.182044 g / cm^3
# Si number density = 21.870217 Si / 1000 Ang^3
#
#
#
# Elastic Constant Matrix: (Units=GPa)
#
#
# Indices 1 2 3 4 5 6 
#
# 1 160.8782 69.8516 44.5965 -0.0002 10.2333 0.0028
# 2 69.8516 126.2061 47.0317 0.0052 -8.2606 0.0011
# 3 44.5965 47.0317 56.6992 -0.0306 6.0124 -0.0234
# 4 -0.0002 0.0052 -0.0306 36.8925 -0.0140 -3.3127
# 5 10.2333 -8.2606 6.0124 -0.0140 27.0620 -0.0087
# 6 0.0028 0.0011 -0.0234 -3.3127 -0.0087 45.1127
#
#
#
# Elastic Compliance Matrix: (Units=1/GPa)
#
#
# Indices 1 2 3 4 5 6 
#
# 1 0.009182 -0.004060 -0.003436 -0.000004 -0.003948 -0.000003
# 2 -0.004060 0.014210 -0.009438 -0.000007 0.007970 -0.000004
# 3 -0.003436 -0.009438 0.029020 0.000024 -0.008029 0.000016
# 4 -0.000004 -0.000007 0.000024 0.027286 0.000009 0.002004
# 5 -0.003948 0.007970 -0.008029 0.000009 0.042662 0.000005
# 6 -0.000003 -0.000004 0.000016 0.002004 0.000005 0.022314
#
#
# Mechanical properties :
#
#
# Convention : Reuss Voigt Hill
#
# Bulk Modulus (GPa) = 53.92830 74.08254 64.00542
# Shear Modulus (GPa) = 27.06753 33.96705 30.51729
#
# Velocity S-wave (km/s) = 3.52183 3.94524 3.73953
# Velocity P-wave (km/s) = 6.42259 7.39598 6.92640
#
# Compressibility (1/GPa) = 0.01854314
#
# Stress axis : x y z
#
# Youngs Moduli (GPa) = 108.90454 70.37418 34.45918
#
# Poissons Ratio (x) = 0.28574 0.11839
# Poissons Ratio (y) = 0.44218 0.32524
# Poissons Ratio (z) = 0.37416 0.66422
#
# Static dielectric constant tensor:
#      x y z
#    x 5.551620 0.000020 -0.060960 
#    y 0.000020 4.327770 0.000000 
#    z -0.060960 0.000000 3.785580 
# 
# 
# High freq. dielectric constant tensor:
#      x y z
#    x 1.874060 0.000000 0.003570 
#    y 0.000000 1.863340 0.000000 
#    z 0.003570 0.000000 1.838670 
# 
# From -- ./inp_files/119153.got.cif
#   From: 2010.06.25/outbox.cif.g09.slc.cpg/sg12_60_cif.got.tgz:119153.got - 2010.06.28 00:19:55.
