data_PCOD8107116
_publ_section_title
;
Structure prediction by ZEFSAII (Michael W. Deem and Ramdas Pophale) SiO2 
 PCOD8107116
Probable space group: C 2/M
;
_chemical_formula_sum "Si O2"
_cell_formula_units_Z 40
_cell_length_a 10.038422
_cell_length_b 8.964235
_cell_length_c 23.171327
_cell_angle_alpha 90.000000
_cell_angle_beta 71.764842
_cell_angle_gamma 90.000000
_cell_volume 1980.399041
_symmetry_space_group_name_H-M "C 2/M"
_symmetry_group_IT_number 12
_symmetry_cell_setting 'monoclinic'
loop_
_space_group_symop_operation_xyz
x,y,z
-x,y,-z
-x,-y,-z
x,-y,z
1/2+x,1/2+y,z
1/2-x,1/2+y,-z
1/2-x,1/2-y,-z
1/2+x,1/2-y,z
loop_
_atom_site_type_symbol
_atom_site_label
_atom_site_fract_x
_atom_site_fract_y
_atom_site_fract_z
Si Si1 0.486692 0.672543 0.327340
Si Si2 0.106195 0.175218 0.534930
Si Si3 0.835413 0.826467 0.937924
Si Si4 0.269401 0.327575 0.258094
Si Si5 0.118901 0.673324 0.868166
O O1 0.533526 0.500000 0.321876
O O2 0.451259 0.732468 0.395908
O O3 0.348505 0.696252 0.307769
O O4 0.612300 0.768153 0.284300
O O5 0.250000 0.250000 0.500000
O O6 0.000000 0.225044 0.500000
O O7 0.129844 0.000000 0.533876
O O8 0.756710 0.800773 0.888051
O O9 0.988542 0.755204 0.915129
O O10 0.850786 0.000000 0.950123
O O11 0.750000 0.750000 0.000000
O O12 0.264858 0.500000 0.240720
O O13 0.354175 0.238851 0.198369
O O14 0.081630 0.500000 0.867663
#
# Coordination Sequence:
#
# PCOD8107116 Si02
#       5
#     8   8   8   8   8
#     4  10  22  39  57  83 118 150 188 239 287 338
#     4  10  21  37  58  84 114 150 191 235 286 342
#     4  11  24  41  62  89 119 152 192 236 283 338
#     4  11  23  38  59  86 114 150 194 236 284 341
#     4  11  24  41  61  87 119 153 191 237 286 337
#
# _framework density 20.197948
#
# number of rings (size 3 to 8) (size 9 to 14) (size 15 to 20)
#    0.000    1.400    0.000    4.800    0.000   13.200 
#    0.000    0.000    0.000    0.000    0.000    0.000 
#    0.000    0.000    0.000    0.000    0.000    0.000 
#
# Total GULP energy -248146.934518 kJ/mol
# GULP energy per Si atom -12407.346726 kJ/mol
# Density = 2.015198 g / cm^3
# Si number density = 20.197948 Si / 1000 Ang^3
#
#
#
# Elastic Constant Matrix: (Units=GPa)
#
#
# Indices 1 2 3 4 5 6 
#
# 1 87.4829 46.4787 12.2319 0.0000 -15.3402 0.0000
# 2 46.4787 101.5825 39.1168 0.0000 -2.4329 0.0000
# 3 12.2319 39.1168 106.0833 0.0000 -8.1068 0.0000
# 4 0.0000 0.0000 0.0000 36.9706 0.0000 -6.8643
# 5 -15.3402 -2.4329 -8.1068 0.0000 40.0820 0.0000
# 6 0.0000 0.0000 0.0000 -6.8643 0.0000 39.5533
#
#
#
# Elastic Compliance Matrix: (Units=1/GPa)
#
#
# Indices 1 2 3 4 5 6 
#
# 1 0.016554 -0.008010 0.001515 0.000000 0.006156 0.000000
# 2 -0.008010 0.015351 -0.004977 0.000000 -0.003141 0.000000
# 3 0.001515 -0.004977 0.011283 0.000000 0.002560 0.000000
# 4 0.000000 0.000000 0.000000 0.027949 0.000000 0.004850
# 5 0.006156 -0.003141 0.002560 0.000000 0.027632 0.000000
# 6 0.000000 0.000000 0.000000 0.004850 0.000000 0.026124
#
#
# Mechanical properties :
#
#
# Convention : Reuss Voigt Hill
#
# Bulk Modulus (GPa) = 49.39769 54.53374 51.96572
# Shear Modulus (GPa) = 32.34491 36.47593 34.41042
#
# Velocity S-wave (km/s) = 4.00609 4.25422 4.13202
# Velocity P-wave (km/s) = 6.77556 7.15468 6.96770
#
# Compressibility (1/GPa) = 0.02024386
#
# Stress axis : x y z
#
# Youngs Moduli (GPa) = 60.40753 65.14436 88.63266
#
# Poissons Ratio (x) = 0.52183 -0.13431
# Poissons Ratio (y) = 0.48389 0.44109
# Poissons Ratio (z) = -0.09154 0.32420
#
# Static dielectric constant tensor:
#      x y z
#    x 3.544530 0.000000 0.522860 
#    y 0.000000 3.740840 0.000000 
#    z 0.522860 0.000000 2.712360 
# 
# 
# High freq. dielectric constant tensor:
#      x y z
#    x 1.800590 0.000000 0.001770 
#    y 0.000000 1.793950 0.000000 
#    z 0.001770 0.000000 1.804960 
# 
# From -- ./inp_files/303447.got.cif
#   From: 2010.06.25/outbox.cif.g09.slc.cpg/sg12_152_cif.got.tgz:303447.got - 2010.06.28 00:19:55.
