data_PCOD8107898
_publ_section_title
;
Structure prediction by ZEFSAII (Michael W. Deem and Ramdas Pophale) SiO2 
 PCOD8107898
Probable space group: C 2/M
;
_chemical_formula_sum "Si O2"
_cell_formula_units_Z 48
_cell_length_a 15.383178
_cell_length_b 16.661076
_cell_length_c 16.362747
_cell_angle_alpha 90.000000
_cell_angle_beta 36.581798
_cell_angle_gamma 90.000000
_cell_volume 2499.364406
_symmetry_space_group_name_H-M "C 2/M"
_symmetry_group_IT_number 12
_symmetry_cell_setting 'monoclinic'
loop_
_space_group_symop_operation_xyz
x,y,z
-x,y,-z
-x,-y,-z
x,-y,z
1/2+x,1/2+y,z
1/2-x,1/2+y,-z
1/2-x,1/2-y,-z
1/2+x,1/2-y,z
loop_
_atom_site_type_symbol
_atom_site_label
_atom_site_fract_x
_atom_site_fract_y
_atom_site_fract_z
Si Si1 0.822736 0.088305 0.366887
Si Si2 0.499666 0.092835 0.404024
Si Si3 0.223602 0.000000 0.296963
Si Si4 0.530083 0.284170 0.146753
Si Si5 0.628982 0.835236 0.841241
Si Si6 0.547403 0.500000 0.593680
Si Si7 0.201594 0.722808 0.169913
O O1 0.660151 0.122113 0.505871
O O2 0.918163 0.142107 0.234704
O O3 0.806562 0.000000 0.336820
O O4 0.905208 0.079570 0.391793
O O5 0.500000 0.107262 0.500000
O O6 0.622990 0.145485 0.267051
O O7 0.529579 0.000000 0.358381
O O8 0.319151 0.920802 0.228922
O O9 0.121248 0.000000 0.451446
O O10 0.127011 0.000000 0.286992
O O11 0.435062 0.208521 0.189969
O O12 0.596901 0.267819 0.185191
O O13 0.653378 0.306466 0.987119
O O14 0.756760 0.783811 0.788463
O O15 0.500000 0.852728 0.000000
#
# Coordination Sequence:
#
# PCOD8107898 Si02
#       7
#     8   8   4   8   8   4   8
#     4   9  20  38  58  83 119 149 194 239 288 343
#     4  10  21  38  58  86 119 153 194 242 290 352
#     4  11  21  40  60  82 119 157 196 238 300 343
#     4  10  21  39  60  87 120 153 196 247 290 348
#     4  10  22  39  61  87 119 153 199 245 292 353
#     4   9  22  38  57  84 119 150 192 252 275 357
#     4  10  22  39  58  89 120 152 199 244 290 351
#
# _framework density 19.204882000000001
#
# number of rings (size 3 to 8) (size 9 to 14) (size 15 to 20)
#    0.500    1.667    0.000    2.250    2.333    1.333 
#   12.000    0.000    0.000    6.000    0.000    0.000 
#    0.000    0.000    0.000    0.000    0.000    0.000 
#
# Total GULP energy -297530.519894 kJ/mol
# GULP energy per Si atom -12397.104996 kJ/mol
# Density = 1.916117 g / cm^3
# Si number density = 19.204882 Si / 1000 Ang^3
#
#
#
# Elastic Constant Matrix: (Units=GPa)
#
#
# Indices 1 2 3 4 5 6 
#
# 1 84.5428 27.5999 36.7558 -0.0006 -18.2540 0.0004
# 2 27.5999 114.8592 82.3993 -0.0009 -14.6175 0.0007
# 3 36.7558 82.3993 98.7922 0.0007 -13.5147 0.0002
# 4 -0.0006 -0.0009 0.0007 54.3105 0.0000 -11.3685
# 5 -18.2540 -14.6175 -13.5147 0.0000 26.3375 -0.0001
# 6 0.0004 0.0007 0.0002 -11.3685 -0.0001 22.5892
#
#
#
# Elastic Compliance Matrix: (Units=1/GPa)
#
#
# Indices 1 2 3 4 5 6 
#
# 1 0.015821 0.001685 -0.006091 0.000000 0.008775 0.000000
# 2 0.001685 0.022073 -0.018500 0.000001 0.003925 0.000000
# 3 -0.006091 -0.018500 0.027787 -0.000001 -0.000231 0.000000
# 4 0.000000 0.000001 -0.000001 0.020581 0.000000 0.010358
# 5 0.008775 0.003925 -0.000231 0.000000 0.046111 0.000000
# 6 0.000000 0.000000 0.000000 0.010358 0.000000 0.049482
#
#
# Mechanical properties :
#
#
# Convention : Reuss Voigt Hill
#
# Bulk Modulus (GPa) = 50.33142 65.74491 58.03817
# Shear Modulus (GPa) = 21.34107 30.74336 26.04222
#
# Velocity S-wave (km/s) = 3.33713 4.00535 3.68641
# Velocity P-wave (km/s) = 6.41195 7.46312 6.95742
#
# Compressibility (1/GPa) = 0.01986830
#
# Stress axis : x y z
#
# Youngs Moduli (GPa) = 63.20675 45.30441 35.98776
#
# Poissons Ratio (x) = -0.07632 0.21920
# Poissons Ratio (y) = -0.10648 0.66578
# Poissons Ratio (z) = 0.38499 0.83814
#
# Static dielectric constant tensor:
#      x y z
#    x 3.800880 -0.000010 -0.189060 
#    y -0.000010 3.463580 0.000010 
#    z -0.189060 0.000010 3.403190 
# 
# 
# High freq. dielectric constant tensor:
#      x y z
#    x 1.762550 0.000000 -0.013270 
#    y 0.000000 1.735440 0.000000 
#    z -0.013270 0.000000 1.743180 
# 
# From -- ./inp_files/278075.got.cif
#   From: 2010.06.25/outbox.cif.g09.slc.cpg/sg12_140_cif.got.tgz:278075.got - 2010.06.28 00:19:55.
