data_PCOD8107703
_publ_section_title
;
Structure prediction by ZEFSAII (Michael W. Deem and Ramdas Pophale) SiO2 
 PCOD8107703
Probable space group: C 2/M
;
_chemical_formula_sum "Si O2"
_cell_formula_units_Z 64
_cell_length_a 18.366654
_cell_length_b 13.929686
_cell_length_c 16.912045
_cell_angle_alpha 90.000000
_cell_angle_beta 43.557379
_cell_angle_gamma 90.000000
_cell_volume 2981.518833
_symmetry_space_group_name_H-M "C 2/M"
_symmetry_group_IT_number 12
_symmetry_cell_setting 'monoclinic'
loop_
_space_group_symop_operation_xyz
x,y,z
-x,y,-z
-x,-y,-z
x,-y,z
1/2+x,1/2+y,z
1/2-x,1/2+y,-z
1/2-x,1/2-y,-z
1/2+x,1/2-y,z
loop_
_atom_site_type_symbol
_atom_site_label
_atom_site_fract_x
_atom_site_fract_y
_atom_site_fract_z
Si Si1 0.567510 0.720846 0.521295
Si Si2 0.274581 0.298368 0.159220
Si Si3 0.133810 0.890401 0.059109
Si Si4 0.515530 0.109155 0.814378
Si Si5 0.950399 0.611996 0.689835
Si Si6 0.297771 0.891921 0.064190
Si Si7 0.568029 0.613348 0.681617
Si Si8 0.807731 0.762130 0.303680
O O1 0.500000 0.682615 0.500000
O O2 0.529974 0.828394 0.572189
O O3 0.549004 0.647504 0.607571
O O4 0.689888 0.722820 0.403519
O O5 0.169070 0.359604 0.234535
O O6 0.255126 0.183726 0.162505
O O7 0.321057 0.317335 0.209744
O O8 0.359302 0.329690 0.026531
O O9 0.239215 0.874491 0.027060
O O10 0.033133 0.854504 0.187536
O O11 0.120114 0.000000 0.045021
O O12 0.473464 0.139120 0.761769
O O13 0.615390 0.171733 0.758649
O O14 0.555075 0.000000 0.782665
O O15 0.422208 0.122463 0.951483
O O16 0.967150 0.500000 0.658471
O O17 0.273206 0.000000 0.114258
O O18 0.586661 0.500000 0.667106
O O19 0.668530 0.665477 0.642535
#
# Coordination Sequence:
#
# PCOD8107703 Si02
#       8
#     8   8   8   8   8   8   8   8
#     4  12  26  49  71  97 132 175 239 290 336 403
#     4  12  23  39  68 103 138 178 223 281 339 410
#     4  10  21  39  66  99 132 175 227 279 337 406
#     4  10  22  42  69 100 133 177 229 278 336 399
#     4  11  23  43  72 100 128 171 228 286 337 401
#     4  10  21  37  64 100 137 180 228 277 328 395
#     4  11  26  46  69  98 139 183 225 277 346 413
#     4  12  27  44  65  99 142 178 221 283 350 411
#
# _framework density 21.46557
#
# number of rings (size 3 to 8) (size 9 to 14) (size 15 to 20)
#    0.000    1.000    3.750    2.625    0.000    5.000 
#    0.000    2.500    0.000    0.000    0.000    0.000 
#    0.000    0.000    0.000    0.000    0.000    0.000 
#
# Total GULP energy -396959.351578 kJ/mol
# GULP energy per Si atom -12404.979737 kJ/mol
# Density = 2.141671 g / cm^3
# Si number density = 21.465570 Si / 1000 Ang^3
#
#
#
# Elastic Constant Matrix: (Units=GPa)
#
#
# Indices 1 2 3 4 5 6 
#
# 1 133.6986 36.1904 46.8901 0.0000 -0.7033 0.0000
# 2 36.1904 69.1075 30.8892 0.0000 -2.4292 0.0000
# 3 46.8901 30.8892 75.8381 0.0000 -6.3626 0.0000
# 4 0.0000 0.0000 0.0000 31.0212 0.0000 -2.4475
# 5 -0.7033 -2.4292 -6.3626 0.0000 37.4824 0.0000
# 6 0.0000 0.0000 0.0000 -2.4475 0.0000 18.3390
#
#
#
# Elastic Compliance Matrix: (Units=1/GPa)
#
#
# Indices 1 2 3 4 5 6 
#
# 1 0.010074 -0.003044 -0.005062 0.000000 -0.000867 0.000000
# 2 -0.003044 0.018611 -0.005683 0.000000 0.000184 0.000000
# 3 -0.005062 -0.005683 0.018860 0.000000 0.002738 0.000000
# 4 0.000000 0.000000 0.000000 0.032579 0.000000 0.004348
# 5 -0.000867 0.000184 0.002738 0.000000 0.027140 0.000000
# 6 0.000000 0.000000 0.000000 0.004348 0.000000 0.055109
#
#
# Mechanical properties :
#
#
# Convention : Reuss Voigt Hill
#
# Bulk Modulus (GPa) = 50.07977 56.28706 53.18341
# Shear Modulus (GPa) = 25.43171 28.34683 26.88927
#
# Velocity S-wave (km/s) = 3.44578 3.63791 3.54315
# Velocity P-wave (km/s) = 6.26196 6.62758 6.44736
#
# Compressibility (1/GPa) = 0.01996814
#
# Stress axis : x y z
#
# Youngs Moduli (GPa) = 99.26481 53.73264 53.02216
#
# Poissons Ratio (x) = 0.16354 0.26839
# Poissons Ratio (y) = 0.30212 0.30132
# Poissons Ratio (z) = 0.50246 0.30536
#
# Static dielectric constant tensor:
#      x y z
#    x 3.927820 0.000000 0.070440 
#    y 0.000000 3.990940 0.000000 
#    z 0.070440 0.000000 3.845610 
# 
# 
# High freq. dielectric constant tensor:
#      x y z
#    x 1.840750 0.000000 -0.001360 
#    y 0.000000 1.850120 0.000000 
#    z -0.001360 0.000000 1.839890 
# 
# From -- ./inp_files/278138.got.cif
#   From: 2010.06.25/outbox.cif.g09.slc.cpg/sg12_140_cif.got.tgz:278138.got - 2010.06.28 00:19:55.
