data_PCOD8107783
_publ_section_title
;
Structure prediction by ZEFSAII (Michael W. Deem and Ramdas Pophale) SiO2 
 PCOD8107783
Probable space group: C 2/M
;
_chemical_formula_sum "Si O2"
_cell_formula_units_Z 48
_cell_length_a 14.740993
_cell_length_b 8.942572
_cell_length_c 18.887477
_cell_angle_alpha 90.000000
_cell_angle_beta 88.688400
_cell_angle_gamma 90.000000
_cell_volume 2489.140046
_symmetry_space_group_name_H-M "C 2/M"
_symmetry_group_IT_number 12
_symmetry_cell_setting 'monoclinic'
loop_
_space_group_symop_operation_xyz
x,y,z
-x,y,-z
-x,-y,-z
x,-y,z
1/2+x,1/2+y,z
1/2-x,1/2+y,-z
1/2-x,1/2-y,-z
1/2+x,1/2-y,z
loop_
_atom_site_type_symbol
_atom_site_label
_atom_site_fract_x
_atom_site_fract_y
_atom_site_fract_z
Si Si1 0.737133 0.324151 0.736222
Si Si2 0.347198 0.676905 0.492679
Si Si3 0.405539 0.169605 0.350549
Si Si4 0.247452 0.825005 0.896767
Si Si5 0.394795 0.169310 0.629282
Si Si6 0.603866 0.176541 0.993928
O O1 0.720427 0.500000 0.730114
O O2 0.646340 0.238593 0.715284
O O3 0.762947 0.278246 0.815332
O O4 0.817012 0.270237 0.682715
O O5 0.339880 0.500000 0.490547
O O6 0.250000 0.750000 0.500000
O O7 0.393251 0.732490 0.420600
O O8 0.404494 0.727115 0.559995
O O9 0.511610 0.173778 0.328959
O O10 0.372458 0.000000 0.365040
O O11 0.338647 0.776520 0.937240
O O12 0.230501 0.000000 0.905876
O O13 0.156406 0.744708 0.925890
O O14 0.372688 0.000000 0.604940
O O15 0.601406 0.000000 0.983943
O O16 0.500000 0.238098 0.000000
#
# Coordination Sequence:
#
# PCOD8107783 Si02
#       6
#     8   8   8   8   8   8
#     4  10  21  38  57  78 112 153 185 224 280 338
#     4  12  23  37  59  83 110 145 188 237 288 336
#     4  11  23  38  58  84 111 145 191 237 282 335
#     4   9  19  35  55  82 114 147 184 225 275 326
#     4  10  22  39  58  81 111 147 187 232 285 338
#     4   9  18  34  58  85 112 144 185 226 271 329
#
# _framework density 19.283767000000001
#
# number of rings (size 3 to 8) (size 9 to 14) (size 15 to 20)
#    0.000    1.833    1.667    2.500    0.000    5.667 
#    0.000    3.333    0.000    0.000    0.000    0.000 
#    0.000    0.000    0.000    0.000    0.000    0.000 
#
# Total GULP energy -297630.108525 kJ/mol
# GULP energy per Si atom -12401.254522 kJ/mol
# Density = 1.923988 g / cm^3
# Si number density = 19.283767 Si / 1000 Ang^3
#
#
#
# Elastic Constant Matrix: (Units=GPa)
#
#
# Indices 1 2 3 4 5 6 
#
# 1 115.1087 30.7979 35.2810 0.0000 13.9377 0.0000
# 2 30.7979 76.7141 40.8182 0.0000 5.8977 0.0000
# 3 35.2810 40.8182 111.6118 0.0000 13.6829 0.0000
# 4 0.0000 0.0000 0.0000 29.9678 0.0000 1.5206
# 5 13.9377 5.8977 13.6829 0.0000 20.0473 0.0000
# 6 0.0000 0.0000 0.0000 1.5206 0.0000 29.3096
#
#
#
# Elastic Compliance Matrix: (Units=1/GPa)
#
#
# Indices 1 2 3 4 5 6 
#
# 1 0.010637 -0.003003 -0.001600 0.000000 -0.005420 0.000000
# 2 -0.003003 0.017044 -0.005375 0.000000 0.000742 0.000000
# 3 -0.001600 -0.005375 0.012115 0.000000 -0.005575 0.000000
# 4 0.000000 0.000000 0.000000 0.033457 0.000000 -0.001736
# 5 -0.005420 0.000742 -0.005575 0.000000 0.057237 0.000000
# 6 0.000000 0.000000 0.000000 -0.001736 0.000000 0.034209
#
#
# Mechanical properties :
#
#
# Convention : Reuss Voigt Hill
#
# Bulk Modulus (GPa) = 50.40143 57.46987 53.93565
# Shear Modulus (GPa) = 26.14140 28.96742 27.55441
#
# Velocity S-wave (km/s) = 3.68586 3.87998 3.78417
# Velocity P-wave (km/s) = 6.65639 7.06677 6.86465
#
# Compressibility (1/GPa) = 0.01984071
#
# Stress axis : x y z
#
# Youngs Moduli (GPa) = 94.00715 58.67266 82.54527
#
# Poissons Ratio (x) = 0.17617 0.13207
# Poissons Ratio (y) = 0.28226 0.44368
# Poissons Ratio (z) = 0.15041 0.31537
#
# Static dielectric constant tensor:
#      x y z
#    x 3.830620 0.000000 0.116310 
#    y 0.000000 3.533750 0.000000 
#    z 0.116310 0.000000 3.598710 
# 
# 
# High freq. dielectric constant tensor:
#      x y z
#    x 1.759390 0.000000 0.005920 
#    y 0.000000 1.746080 0.000000 
#    z 0.005920 0.000000 1.742600 
# 
# From -- ./inp_files/267658.got.cif
#   From: 2010.06.25/outbox.cif.g09.slc.cpg/sg12_134_cif.got.tgz:267658.got - 2010.06.28 00:19:55.
