data_PCOD8107202
_publ_section_title
;
Structure prediction by ZEFSAII (Michael W. Deem and Ramdas Pophale) SiO2 
 PCOD8107202
Probable space group: C 2/M
;
_chemical_formula_sum "Si O2"
_cell_formula_units_Z 40
_cell_length_a 30.477181
_cell_length_b 8.287386
_cell_length_c 15.335654
_cell_angle_alpha 90.000000
_cell_angle_beta 28.996382
_cell_angle_gamma 90.000000
_cell_volume 1877.657665
_symmetry_space_group_name_H-M "C 2/M"
_symmetry_group_IT_number 12
_symmetry_cell_setting 'monoclinic'
loop_
_space_group_symop_operation_xyz
x,y,z
-x,y,-z
-x,-y,-z
x,-y,z
1/2+x,1/2+y,z
1/2-x,1/2+y,-z
1/2-x,1/2-y,-z
1/2+x,1/2-y,z
loop_
_atom_site_type_symbol
_atom_site_label
_atom_site_fract_x
_atom_site_fract_y
_atom_site_fract_z
Si Si1 0.769916 0.687647 0.370234
Si Si2 0.711116 0.812285 0.305973
Si Si3 0.030989 0.187108 0.541303
Si Si4 0.903226 0.687590 0.908662
Si Si5 0.451968 0.315461 0.998763
O O1 0.797408 0.500000 0.324807
O O2 0.750000 0.750000 0.500000
O O3 0.692999 0.719583 0.430796
O O4 0.846489 0.805487 0.200913
O O5 0.621364 0.786406 0.405684
O O6 0.725465 0.000000 0.297808
O O7 0.799936 0.744698 0.101798
O O8 0.000000 0.243564 0.500000
O O9 0.947593 0.219585 0.751126
O O10 0.056339 0.000000 0.499196
O O11 0.903523 0.500000 0.887400
O O12 0.967779 0.719964 0.881253
O O13 0.484595 0.500000 0.930551
O O14 0.500000 0.235496 0.000000
#
# Coordination Sequence:
#
# PCOD8107202 Si02
#       5
#     8   8   8   8   8
#     4  11  22  37  58  86 123 163 209 255 306 370
#     4  11  23  42  66  93 128 167 211 263 318 378
#     4  11  25  45  69  96 126 165 214 266 322 381
#     4  11  23  41  65  93 129 168 210 262 317 380
#     4  10  21  37  58  86 122 163 207 254 306 368
#
# _framework density 21.303138000000001
#
# number of rings (size 3 to 8) (size 9 to 14) (size 15 to 20)
#    0.000    1.200    0.000    9.000    2.800    4.000 
#    0.000    0.000    0.000    0.000    0.000    0.000 
#    0.000    0.000    0.000    0.000    0.000    0.000 
#
# Total GULP energy -247924.775330 kJ/mol
# GULP energy per Si atom -12396.238766 kJ/mol
# Density = 2.125465 g / cm^3
# Si number density = 21.303138 Si / 1000 Ang^3
#
#
#
# Elastic Constant Matrix: (Units=GPa)
#
#
# Indices 1 2 3 4 5 6 
#
# 1 155.1110 24.3328 56.0504 0.0000 14.9114 0.0000
# 2 24.3328 79.0153 4.4799 0.0000 -3.7293 0.0000
# 3 56.0504 4.4799 85.4103 0.0000 14.2572 0.0000
# 4 0.0000 0.0000 0.0000 31.1587 0.0000 -1.5037
# 5 14.9114 -3.7293 14.2572 0.0000 37.3424 0.0000
# 6 0.0000 0.0000 0.0000 -1.5037 0.0000 31.0338
#
#
#
# Elastic Compliance Matrix: (Units=1/GPa)
#
#
# Indices 1 2 3 4 5 6 
#
# 1 0.008993 -0.002542 -0.005475 0.000000 -0.001754 0.000000
# 2 -0.002542 0.013505 0.000604 0.000000 0.002133 0.000000
# 3 -0.005475 0.000604 0.015909 0.000000 -0.003827 0.000000
# 4 0.000000 0.000000 0.000000 0.032169 0.000000 0.001559
# 5 -0.001754 0.002133 -0.003827 0.000000 0.029154 0.000000
# 6 0.000000 0.000000 0.000000 0.001559 0.000000 0.032298
#
#
# Mechanical properties :
#
#
# Convention : Reuss Voigt Hill
#
# Bulk Modulus (GPa) = 42.41002 54.36253 48.38627
# Shear Modulus (GPa) = 32.31745 35.55187 33.93466
#
# Velocity S-wave (km/s) = 3.89913 4.08960 3.99550
# Velocity P-wave (km/s) = 6.34208 6.91908 6.63686
#
# Compressibility (1/GPa) = 0.02357933
#
# Stress axis : x y z
#
# Youngs Moduli (GPa) = 111.19779 74.04675 62.85882
#
# Poissons Ratio (x) = 0.18821 0.34418
# Poissons Ratio (y) = 0.28264 -0.03794
# Poissons Ratio (z) = 0.60886 -0.04469
#
# Static dielectric constant tensor:
#      x y z
#    x 4.441910 0.000000 -0.029170 
#    y 0.000000 3.804010 0.000000 
#    z -0.029170 0.000000 3.633110 
# 
# 
# High freq. dielectric constant tensor:
#      x y z
#    x 1.846710 0.000000 0.005400 
#    y 0.000000 1.844710 0.000000 
#    z 0.005400 0.000000 1.825600 
# 
# From -- ./inp_files/249514.got.cif
#   From: 2010.06.25/outbox.cif.g09.slc.cpg/sg12_125_cif.got.tgz:249514.got - 2010.06.28 00:19:55.
