data_PCOD8107409
_publ_section_title
;
Structure prediction by ZEFSAII (Michael W. Deem and Ramdas Pophale) SiO2 
 PCOD8107409
Probable space group: C 2/M
;
_chemical_formula_sum "Si O2"
_cell_formula_units_Z 56
_cell_length_a 19.465367
_cell_length_b 11.616301
_cell_length_c 12.586876
_cell_angle_alpha 90.000000
_cell_angle_beta 106.331740
_cell_angle_gamma 90.000000
_cell_volume 2731.247915
_symmetry_space_group_name_H-M "C 2/M"
_symmetry_group_IT_number 12
_symmetry_cell_setting 'monoclinic'
loop_
_space_group_symop_operation_xyz
x,y,z
-x,y,-z
-x,-y,-z
x,-y,z
1/2+x,1/2+y,z
1/2-x,1/2+y,-z
1/2-x,1/2-y,-z
1/2+x,1/2-y,z
loop_
_atom_site_type_symbol
_atom_site_label
_atom_site_fract_x
_atom_site_fract_y
_atom_site_fract_z
Si Si1 0.423915 0.125417 0.415723
Si Si2 0.629794 0.276184 0.252756
Si Si3 0.006014 0.367644 0.877646
Si Si4 0.556070 0.500000 0.870303
Si Si5 0.671598 0.719112 0.498678
Si Si6 0.395841 0.727856 0.207818
Si Si7 0.604133 0.500000 0.119615
Si Si8 0.729104 0.631373 0.729166
O O1 0.500000 0.113031 0.500000
O O2 0.366965 0.165214 0.478628
O O3 0.432289 0.216915 0.326267
O O4 0.398529 0.000000 0.362230
O O5 0.555700 0.208716 0.203145
O O6 0.630983 0.325265 0.374806
O O7 0.640987 0.384548 0.179842
O O8 0.694300 0.187986 0.258595
O O9 0.999469 0.500000 0.837290
O O10 0.084552 0.316157 0.879808
O O11 0.000000 0.356455 0.000000
O O12 0.566310 0.607860 0.798936
O O13 0.477210 0.500000 0.880579
O O14 0.610734 0.500000 0.994275
O O15 0.750000 0.750000 0.500000
O O16 0.678687 0.630316 0.600873
O O17 0.311508 0.704139 0.194840
O O18 0.740181 0.500000 0.771301
#
# Coordination Sequence:
#
# PCOD8107409 Si02
#       8
#     8   8   8   4   8   8   4   8
#     4  10  21  37  59  92 128 158 203 253 310 369
#     4  11  22  41  64  93 122 164 206 256 304 367
#     4  11  23  40  65  93 120 156 210 266 311 359
#     4  11  22  42  66  87 122 164 205 261 314 362
#     4   9  21  37  57  91 123 163 202 240 301 368
#     4  11  21  40  63  87 121 169 202 247 312 369
#     4  11  24  40  65  94 121 157 214 261 306 364
#     4  10  22  41  62  89 127 164 200 246 308 374
#
# _framework density 20.503447999999999
#
# number of rings (size 3 to 8) (size 9 to 14) (size 15 to 20)
#    0.000    1.571    2.143    2.571    1.000    4.000 
#   11.571    3.214    0.000    0.000    0.000    0.000 
#    0.000    0.000    0.000    0.000    0.000    0.000 
#
# Total GULP energy -346995.586550 kJ/mol
# GULP energy per Si atom -12392.699520 kJ/mol
# Density = 2.045678 g / cm^3
# Si number density = 20.503448 Si / 1000 Ang^3
#
#
#
# Elastic Constant Matrix: (Units=GPa)
#
#
# Indices 1 2 3 4 5 6 
#
# 1 95.8801 41.4387 28.5128 0.0000 -18.3678 0.0000
# 2 41.4387 142.2247 53.2629 0.0000 -5.8457 0.0000
# 3 28.5128 53.2629 88.9153 0.0000 -6.2349 0.0000
# 4 0.0000 0.0000 0.0000 39.0333 0.0000 -8.8870
# 5 -18.3678 -5.8457 -6.2349 0.0000 29.1745 0.0000
# 6 0.0000 0.0000 0.0000 -8.8870 0.0000 30.3217
#
#
#
# Elastic Compliance Matrix: (Units=1/GPa)
#
#
# Indices 1 2 3 4 5 6 
#
# 1 0.013784 -0.002897 -0.002149 0.000000 0.007639 0.000000
# 2 -0.002897 0.009686 -0.004939 0.000000 -0.000939 0.000000
# 3 -0.002149 -0.004939 0.014954 0.000000 0.000853 0.000000
# 4 0.000000 0.000000 0.000000 0.027451 0.000000 0.008046
# 5 0.007639 -0.000939 0.000853 0.000000 0.039080 0.000000
# 6 0.000000 0.000000 0.000000 0.008046 0.000000 0.035338
#
#
# Mechanical properties :
#
#
# Convention : Reuss Voigt Hill
#
# Bulk Modulus (GPa) = 54.18911 63.71654 58.95282
# Shear Modulus (GPa) = 30.04515 33.29295 31.66905
#
# Velocity S-wave (km/s) = 3.83217 4.03398 3.93437
# Velocity P-wave (km/s) = 6.78729 7.26917 7.03236
#
# Compressibility (1/GPa) = 0.01845389
#
# Stress axis : x y z
#
# Youngs Moduli (GPa) = 72.54611 103.23692 66.87034
#
# Poissons Ratio (x) = 0.29913 0.14370
# Poissons Ratio (y) = 0.21020 0.33028
# Poissons Ratio (z) = 0.15590 0.50990
#
# Static dielectric constant tensor:
#      x y z
#    x 3.807230 0.000000 -0.241980 
#    y 0.000000 3.963430 0.000000 
#    z -0.241980 0.000000 4.152420 
# 
# 
# High freq. dielectric constant tensor:
#      x y z
#    x 1.802560 0.000000 -0.020550 
#    y 0.000000 1.805580 0.000000 
#    z -0.020550 0.000000 1.795300 
# 
# From -- ./inp_files/165741.got.cif
#   From: 2010.06.25/outbox.cif.g09.slc.cpg/sg12_83_cif.got.tgz:165741.got - 2010.06.28 00:19:55.
