data_PCOD8107931
_publ_section_title
;
Structure prediction by ZEFSAII (Michael W. Deem and Ramdas Pophale) SiO2 
 PCOD8107931
Probable space group: C 2/M
;
_chemical_formula_sum "Si O2"
_cell_formula_units_Z 64
_cell_length_a 17.767274
_cell_length_b 13.225813
_cell_length_c 15.253270
_cell_angle_alpha 90.000000
_cell_angle_beta 118.334006
_cell_angle_gamma 90.000000
_cell_volume 3154.898830
_symmetry_space_group_name_H-M "C 2/M"
_symmetry_group_IT_number 12
_symmetry_cell_setting 'monoclinic'
loop_
_space_group_symop_operation_xyz
x,y,z
-x,y,-z
-x,-y,-z
x,-y,z
1/2+x,1/2+y,z
1/2-x,1/2+y,-z
1/2-x,1/2-y,-z
1/2+x,1/2-y,z
loop_
_atom_site_type_symbol
_atom_site_label
_atom_site_fract_x
_atom_site_fract_y
_atom_site_fract_z
Si Si1 0.047009 0.116985 0.651850
Si Si2 0.184568 0.378507 0.436950
Si Si3 0.815925 0.616515 0.867976
Si Si4 0.597804 0.879985 0.566092
Si Si5 0.870722 0.619372 0.091873
Si Si6 0.368749 0.617159 0.482270
Si Si7 0.667582 0.764595 0.769312
Si Si8 0.939108 0.383886 0.781759
O O1 0.096602 0.160400 0.591357
O O2 0.088024 0.188454 0.748346
O O3 0.945243 0.133184 0.594041
O O4 0.068454 0.000000 0.679655
O O5 0.186070 0.500000 0.439143
O O6 0.150340 0.336667 0.511387
O O7 0.280433 0.335572 0.470598
O O8 0.121255 0.335310 0.326614
O O9 0.782915 0.500000 0.845296
O O10 0.746827 0.692450 0.788598
O O11 0.900373 0.629056 0.856871
O O12 0.837999 0.650494 0.978312
O O13 0.500000 0.843007 0.500000
O O14 0.643171 0.842063 0.679083
O O15 0.601152 0.000000 0.570904
O O16 0.866533 0.500000 0.100419
O O17 0.810759 0.671464 0.131604
O O18 0.966156 0.662464 0.162223
O O19 0.352898 0.500000 0.456255
O O20 0.948271 0.500000 0.760905
#
# Coordination Sequence:
#
# PCOD8107931 Si02
#       8
#     8   8   8   8   8   8   8   8
#     4   9  18  32  50  73 107 147 180 221 270 320
#     4   9  16  30  53  77 103 140 181 218 258 314
#     4  10  21  38  60  84 109 136 177 238 297 337
#     4  10  22  38  53  74 112 157 192 220 256 314
#     4  10  21  38  59  81 107 142 184 233 285 334
#     4   8  15  30  50  71 101 142 184 219 261 311
#     4  12  22  34  54  83 112 145 187 222 272 328
#     4   9  17  34  59  83 106 139 181 230 284 331
#
# _framework density 20.285910999999999
#
# number of rings (size 3 to 8) (size 9 to 14) (size 15 to 20)
#    0.000    2.375    0.000    3.750    1.750    5.500 
#    2.250    1.250    0.000    0.000    0.000    0.000 
#    0.000    6.000    0.000    0.000    0.000    0.000 
#
# Total GULP energy -396637.453077 kJ/mol
# GULP energy per Si atom -12394.920409 kJ/mol
# Density = 2.023974 g / cm^3
# Si number density = 20.285911 Si / 1000 Ang^3
#
#
#
# Elastic Constant Matrix: (Units=GPa)
#
#
# Indices 1 2 3 4 5 6 
#
# 1 94.6568 29.2303 28.9057 0.0000 5.8365 0.0000
# 2 29.2303 28.1127 22.7143 0.0000 -3.1142 0.0000
# 3 28.9057 22.7143 85.8819 0.0000 -8.8486 0.0000
# 4 0.0000 0.0000 0.0000 25.1499 0.0000 4.6676
# 5 5.8365 -3.1142 -8.8486 0.0000 34.8752 0.0000
# 6 0.0000 0.0000 0.0000 4.6676 0.0000 11.9286
#
#
#
# Elastic Compliance Matrix: (Units=1/GPa)
#
#
# Indices 1 2 3 4 5 6 
#
# 1 0.016353 -0.016130 -0.001713 0.000000 -0.004612 0.000000
# 2 -0.016130 0.061184 -0.010178 0.000000 0.005580 0.000000
# 3 -0.001713 -0.010178 0.015247 0.000000 0.003246 0.000000
# 4 0.000000 0.000000 0.000000 0.042875 0.000000 -0.016777
# 5 -0.004612 0.005580 0.003246 0.000000 0.030767 0.000000
# 6 0.000000 0.000000 0.000000 -0.016777 0.000000 0.090397
#
#
# Mechanical properties :
#
#
# Convention : Reuss Voigt Hill
#
# Bulk Modulus (GPa) = 27.21707 41.15022 34.18364
# Shear Modulus (GPa) = 15.37928 22.91080 19.14504
#
# Velocity S-wave (km/s) = 2.75640 3.36429 3.07540
# Velocity P-wave (km/s) = 4.85553 5.95151 5.43123
#
# Compressibility (1/GPa) = 0.03674164
#
# Stress axis : x y z
#
# Youngs Moduli (GPa) = 61.15136 16.34413 65.58699
#
# Poissons Ratio (x) = 0.26363 0.11236
# Poissons Ratio (y) = 0.98635 0.66756
# Poissons Ratio (z) = 0.10476 0.16636
#
# Static dielectric constant tensor:
#      x y z
#    x 3.767550 0.000000 0.088190 
#    y 0.000000 3.577000 0.000000 
#    z 0.088190 0.000000 3.660220 
# 
# 
# High freq. dielectric constant tensor:
#      x y z
#    x 1.786780 0.000000 0.008190 
#    y 0.000000 1.789990 0.000000 
#    z 0.008190 0.000000 1.782130 
# 
# From -- ./inp_files/225338.got.cif
#   From: 2010.06.25/outbox.cif.g09.slc.cpg/sg12_113_cif.got.tgz:225338.got - 2010.06.28 00:19:55.
