data_PCOD8107848
_publ_section_title
;
Structure prediction by ZEFSAII (Michael W. Deem and Ramdas Pophale) SiO2 
 PCOD8107848
Probable space group: C 2/M
;
_chemical_formula_sum "Si O2"
_cell_formula_units_Z 48
_cell_length_a 14.685758
_cell_length_b 17.106326
_cell_length_c 17.584622
_cell_angle_alpha 90.000000
_cell_angle_beta 33.368717
_cell_angle_gamma 90.000000
_cell_volume 2429.788380
_symmetry_space_group_name_H-M "C 2/M"
_symmetry_group_IT_number 12
_symmetry_cell_setting 'monoclinic'
loop_
_space_group_symop_operation_xyz
x,y,z
-x,y,-z
-x,-y,-z
x,-y,z
1/2+x,1/2+y,z
1/2-x,1/2+y,-z
1/2-x,1/2-y,-z
1/2+x,1/2-y,z
loop_
_atom_site_type_symbol
_atom_site_label
_atom_site_fract_x
_atom_site_fract_y
_atom_site_fract_z
Si Si1 0.177729 0.681099 0.346910
Si Si2 0.767627 0.090179 0.427853
Si Si3 0.371549 0.818896 0.153089
Si Si4 0.459638 0.160858 0.715522
Si Si5 0.109322 0.839141 0.215517
Si Si6 0.623331 0.090179 0.072148
O O1 0.246618 0.614400 0.354319
O O2 0.313323 0.749999 0.250004
O O3 0.000000 0.713815 0.500000
O O4 0.155268 0.645885 0.278088
O O5 0.649428 0.141306 0.564100
O O6 0.953619 0.103468 0.326112
O O7 0.719603 0.000000 0.469199
O O8 0.211456 0.854116 0.221900
O O9 0.455258 0.885594 0.145679
O O10 0.500000 0.786176 0.000000
O O11 0.450399 0.249999 0.750004
O O12 0.394159 0.103464 0.826111
O O13 0.222367 0.858696 0.064100
O O14 0.657991 0.000000 0.030804
#
# Coordination Sequence:
#
# PCOD8107848 Si02
#       6
#     8   8   8   8   8   8
#     4   9  20  37  58  80 107 145 186 225 268 325
#     4  11  22  36  57  84 114 144 179 228 278 323
#     4   9  20  37  58  80 107 145 186 225 268 325
#     4  10  21  38  58  80 108 148 188 223 267 326
#     4  10  21  38  58  80 108 148 188 223 267 326
#     4  11  22  36  57  84 114 144 179 228 278 323
#
# _framework density 19.754807
#
# number of rings (size 3 to 8) (size 9 to 14) (size 15 to 20)
#    0.000    2.000    0.000    3.000    0.000   12.667 
#    0.000    0.000    0.000    5.000    0.000    0.000 
#    0.000    0.000    0.000    0.000    0.000    0.000 
#
# Total GULP energy -297679.198044 kJ/mol
# GULP energy per Si atom -12403.299918 kJ/mol
# Density = 1.970984 g / cm^3
# Si number density = 19.754807 Si / 1000 Ang^3
#
#
#
# Elastic Constant Matrix: (Units=GPa)
#
#
# Indices 1 2 3 4 5 6 
#
# 1 94.0309 51.3768 67.6859 -0.0055 1.2223 0.0046
# 2 51.3768 114.5162 56.3872 0.0015 0.1532 0.0008
# 3 67.6859 56.3872 105.4667 0.0127 -0.8678 -0.0032
# 4 -0.0055 0.0015 0.0127 28.3543 -0.0018 0.3707
# 5 1.2223 0.1532 -0.8678 -0.0018 32.7688 -0.0004
# 6 0.0046 0.0008 -0.0032 0.3707 -0.0004 16.5782
#
#
#
# Elastic Compliance Matrix: (Units=1/GPa)
#
#
# Indices 1 2 3 4 5 6 
#
# 1 0.020933 -0.003761 -0.011432 0.000009 -0.001066 -0.000008
# 2 -0.003761 0.012530 -0.004286 0.000001 -0.000032 0.000000
# 3 -0.011432 -0.004286 0.019118 -0.000011 0.000953 0.000007
# 4 0.000009 0.000001 -0.000011 0.035278 0.000001 -0.000789
# 5 -0.001066 -0.000032 0.000953 0.000001 0.030582 0.000001
# 6 -0.000008 0.000000 0.000007 -0.000789 0.000001 0.060338
#
#
# Mechanical properties :
#
#
# Convention : Reuss Voigt Hill
#
# Bulk Modulus (GPa) = 73.40531 73.87929 73.64230
# Shear Modulus (GPa) = 22.49448 24.77785 23.63617
#
# Velocity S-wave (km/s) = 3.37810 3.54541 3.46277
# Velocity P-wave (km/s) = 7.24253 7.36473 7.30389
#
# Compressibility (1/GPa) = 0.01362299
#
# Stress axis : x y z
#
# Youngs Moduli (GPa) = 47.77240 79.80872 52.30743
#
# Poissons Ratio (x) = 0.30014 0.59799
# Poissons Ratio (y) = 0.17966 0.22418
# Poissons Ratio (z) = 0.54614 0.34205
#
# Static dielectric constant tensor:
#      x y z
#    x 3.684220 -0.000010 0.001210 
#    y -0.000010 3.398810 0.000010 
#    z 0.001210 0.000010 3.722830 
# 
# 
# High freq. dielectric constant tensor:
#      x y z
#    x 1.777670 0.000000 -0.000010 
#    y 0.000000 1.751370 0.000000 
#    z -0.000010 0.000000 1.777420 
# 
# From -- ./inp_files/105038.got.cif
#   From: 2010.06.25/outbox.cif.g09.slc.cpg/sg12_53_cif.got.tgz:105038.got - 2010.06.28 00:19:55.
