data_PCOD8107650
_publ_section_title
;
Structure prediction by ZEFSAII (Michael W. Deem and Ramdas Pophale) SiO2 
 PCOD8107650
Probable space group: C 2/M
;
_chemical_formula_sum "Si O2"
_cell_formula_units_Z 48
_cell_length_a 19.592350
_cell_length_b 19.293316
_cell_length_c 16.318652
_cell_angle_alpha 90.000000
_cell_angle_beta 158.951412
_cell_angle_gamma 90.000000
_cell_volume 2215.465884
_symmetry_space_group_name_H-M "C 2/M"
_symmetry_group_IT_number 12
_symmetry_cell_setting 'monoclinic'
loop_
_space_group_symop_operation_xyz
x,y,z
-x,y,-z
-x,-y,-z
x,-y,z
1/2+x,1/2+y,z
1/2-x,1/2+y,-z
1/2-x,1/2-y,-z
1/2+x,1/2-y,z
loop_
_atom_site_type_symbol
_atom_site_label
_atom_site_fract_x
_atom_site_fract_y
_atom_site_fract_z
Si Si1 0.321597 0.701041 0.739326
Si Si2 0.629911 0.922570 0.445483
Si Si3 0.744680 0.145658 0.967243
Si Si4 0.607612 0.234864 0.959941
Si Si5 0.813579 0.828116 0.336326
Si Si6 0.850453 0.081484 0.528567
O O1 0.236669 0.626044 0.629315
O O2 0.394100 0.737957 0.736748
O O3 0.157809 0.752349 0.590039
O O4 0.500000 0.693348 0.000000
O O5 0.402970 0.917517 0.208563
O O6 0.695852 0.904862 0.426547
O O7 0.694193 0.000000 0.538776
O O8 0.625929 0.192630 0.897825
O O9 0.769160 0.193316 0.913333
O O10 0.947356 0.118264 0.226245
O O11 0.655573 0.183770 0.089618
O O12 0.761036 0.885981 0.345251
O O13 0.000000 0.854155 0.500000
O O14 0.885609 0.000000 0.554702
#
# Coordination Sequence:
#
# PCOD8107650 Si02
#       6
#     8   8   8   8   8   8
#     4  10  22  39  64  90 125 160 209 270 317 365
#     4  11  24  41  62  90 126 167 210 256 317 380
#     4  11  21  39  66  92 121 161 211 261 311 364
#     4  10  21  37  62  94 120 158 210 264 309 362
#     4  11  21  38  60  94 125 163 209 256 308 373
#     4  11  24  41  63  92 132 174 206 252 313 381
#
# _framework density 21.665870999999999
#
# number of rings (size 3 to 8) (size 9 to 14) (size 15 to 20)
#    0.000    1.333    3.333    2.500    2.333    2.000 
#    0.000    0.000    0.000   11.000    0.000    0.000 
#    0.000    0.000    0.000    0.000    0.000    0.000 
#
# Total GULP energy -297334.357148 kJ/mol
# GULP energy per Si atom -12388.931548 kJ/mol
# Density = 2.161656 g / cm^3
# Si number density = 21.665871 Si / 1000 Ang^3
#
#
#
# Elastic Constant Matrix: (Units=GPa)
#
#
# Indices 1 2 3 4 5 6 
#
# 1 64.0250 21.2743 5.7255 -0.0004 -0.9191 -0.0001
# 2 21.2743 82.4371 4.7061 0.0000 -11.1064 0.0000
# 3 5.7255 4.7061 52.4849 -0.0011 3.5991 -0.0005
# 4 -0.0004 0.0000 -0.0011 26.6504 -0.0005 0.1943
# 5 -0.9191 -11.1064 3.5991 -0.0005 28.7857 -0.0001
# 6 -0.0001 0.0000 -0.0005 0.1943 -0.0001 37.1973
#
#
#
# Elastic Compliance Matrix: (Units=1/GPa)
#
#
# Indices 1 2 3 4 5 6 
#
# 1 0.017226 -0.004501 -0.001406 0.000000 -0.001011 0.000000
# 2 -0.004501 0.014090 -0.001145 0.000000 0.005436 0.000000
# 3 -0.001406 -0.001145 0.019510 0.000001 -0.002926 0.000000
# 4 0.000000 0.000000 0.000001 0.037524 0.000001 -0.000196
# 5 -0.001011 0.005436 -0.002926 0.000001 0.037170 0.000000
# 6 0.000000 0.000000 0.000000 -0.000196 0.000000 0.026885
#
#
# Mechanical properties :
#
#
# Convention : Reuss Voigt Hill
#
# Bulk Modulus (GPa) = 27.23294 29.15097 28.19195
# Shear Modulus (GPa) = 27.97201 29.67610 28.82406
#
# Velocity S-wave (km/s) = 3.59704 3.70498 3.65141
# Velocity P-wave (km/s) = 5.46336 5.63795 5.55135
#
# Compressibility (1/GPa) = 0.03672024
#
# Stress axis : x y z
#
# Youngs Moduli (GPa) = 58.05227 70.97326 51.25626
#
# Poissons Ratio (x) = 0.31948 0.07208
# Poissons Ratio (y) = 0.26131 0.05869
# Poissons Ratio (z) = 0.08163 0.08127
#
# Static dielectric constant tensor:
#      x y z
#    x 4.326260 0.000000 0.344930 
#    y 0.000000 3.932360 0.000000 
#    z 0.344930 0.000000 3.713030 
# 
# 
# High freq. dielectric constant tensor:
#      x y z
#    x 1.863000 0.000000 0.021230 
#    y 0.000000 1.846540 0.000000 
#    z 0.021230 0.000000 1.832840 
# 
# From -- ./inp_files/285439.got.cif
#   From: 2010.06.25/outbox.cif.g09.slc.cpg/sg12_143_cif.got.tgz:285439.got - 2010.06.28 00:19:55.
