data_PCOD8107462
_publ_section_title
;
Structure prediction by ZEFSAII (Michael W. Deem and Ramdas Pophale) SiO2 
 PCOD8107462
Probable space group: C 2/M
;
_chemical_formula_sum "Si O2"
_cell_formula_units_Z 48
_cell_length_a 29.496948
_cell_length_b 9.000357
_cell_length_c 14.638412
_cell_angle_alpha 90.000000
_cell_angle_beta 38.438779
_cell_angle_gamma 90.000000
_cell_volume 2415.996632
_symmetry_space_group_name_H-M "C 2/M"
_symmetry_group_IT_number 12
_symmetry_cell_setting 'monoclinic'
loop_
_space_group_symop_operation_xyz
x,y,z
-x,y,-z
-x,-y,-z
x,-y,z
1/2+x,1/2+y,z
1/2-x,1/2+y,-z
1/2-x,1/2-y,-z
1/2+x,1/2-y,z
loop_
_atom_site_type_symbol
_atom_site_label
_atom_site_fract_x
_atom_site_fract_y
_atom_site_fract_z
Si Si1 0.086550 0.170171 0.101603
Si Si2 0.521622 0.670985 0.566627
Si Si3 0.068393 0.324691 0.949565
Si Si4 0.835304 0.671852 0.604065
Si Si5 0.771769 0.322390 0.370001
Si Si6 0.261544 0.330975 0.075009
O O1 0.048268 0.189847 0.259291
O O2 0.085190 0.000000 0.070954
O O3 0.051181 0.267266 0.078072
O O4 0.168235 0.232826 0.983616
O O5 0.500000 0.731347 0.500000
O O6 0.547565 0.500000 0.518430
O O7 0.583274 0.766170 0.520068
O O8 0.068523 0.500000 0.951130
O O9 0.146294 0.268898 0.786430
O O10 0.000000 0.263182 0.000000
O O11 0.835186 0.500000 0.572383
O O12 0.785757 0.766407 0.614009
O O13 0.807498 0.689043 0.751262
O O14 0.767178 0.500000 0.384452
O O15 0.750000 0.250000 0.500000
O O16 0.277657 0.500000 0.024152
O O17 0.250000 0.250000 0.000000
#
# Coordination Sequence:
#
# PCOD8107462 Si02
#       6
#     8   8   8   8   8   8
#     4  10  21  39  61  88 120 158 201 247 298 357
#     4  10  22  40  62  89 125 166 206 250 304 364
#     4  10  23  42  63  90 121 156 197 247 306 361
#     4  11  23  40  62  89 124 161 204 255 303 361
#     4  11  24  42  65  92 124 161 201 249 308 369
#     4  10  21  37  60  88 118 155 200 247 298 356
#
# _framework density 19.867577000000001
#
# number of rings (size 3 to 8) (size 9 to 14) (size 15 to 20)
#    0.000    1.667    1.667    2.000    2.333    5.333 
#    0.000    0.000    0.000    0.000    0.000    0.000 
#    0.000    0.000    0.000    0.000    0.000    0.000 
#
# Total GULP energy -297628.187171 kJ/mol
# GULP energy per Si atom -12401.174465 kJ/mol
# Density = 1.982236 g / cm^3
# Si number density = 19.867577 Si / 1000 Ang^3
#
#
#
# Elastic Constant Matrix: (Units=GPa)
#
#
# Indices 1 2 3 4 5 6 
#
# 1 123.8298 34.8881 29.9087 0.0000 3.5629 0.0000
# 2 34.8881 53.1274 24.1603 0.0002 1.2768 0.0000
# 3 29.9087 24.1603 77.6396 0.0001 0.6630 0.0000
# 4 0.0000 0.0002 0.0001 28.3136 0.0001 6.6726
# 5 3.5629 1.2768 0.6630 0.0001 38.5224 0.0000
# 6 0.0000 0.0000 0.0000 6.6726 0.0000 36.9883
#
#
#
# Elastic Compliance Matrix: (Units=1/GPa)
#
#
# Indices 1 2 3 4 5 6 
#
# 1 0.010228 -0.005720 -0.002154 0.000000 -0.000719 0.000000
# 2 -0.005720 0.025138 -0.005618 0.000000 -0.000208 0.000000
# 3 -0.002154 -0.005618 0.015457 0.000000 0.000119 0.000000
# 4 0.000000 0.000000 0.000000 0.036887 0.000000 -0.006654
# 5 -0.000719 -0.000208 0.000119 0.000000 0.026030 0.000000
# 6 0.000000 0.000000 0.000000 -0.006654 0.000000 0.028236
#
#
# Mechanical properties :
#
#
# Convention : Reuss Voigt Hill
#
# Bulk Modulus (GPa) = 41.94518 48.05678 45.00098
# Shear Modulus (GPa) = 28.26357 31.80750 30.03553
#
# Velocity S-wave (km/s) = 3.77583 4.00556 3.89239
# Velocity P-wave (km/s) = 6.33777 6.75527 6.54985
#
# Compressibility (1/GPa) = 0.02384064
#
# Stress axis : x y z
#
# Youngs Moduli (GPa) = 97.77010 39.77980 64.69607
#
# Poissons Ratio (x) = 0.22753 0.13936
# Poissons Ratio (y) = 0.55922 0.36343
# Poissons Ratio (z) = 0.21060 0.22346
#
# Static dielectric constant tensor:
#      x y z
#    x 3.770510 0.000000 -0.286970 
#    y 0.000000 3.648720 0.000000 
#    z -0.286970 0.000000 3.988180 
# 
# 
# High freq. dielectric constant tensor:
#      x y z
#    x 1.786010 0.000000 -0.000530 
#    y 0.000000 1.767900 0.000000 
#    z -0.000530 0.000000 1.784820 
# 
# From -- ./inp_files/244624.got.cif
#   From: 2010.06.25/outbox.cif.g09.slc.cpg/sg12_123_cif.got.tgz:244624.got - 2010.06.28 00:19:55.
