data_PCOD8107324
_publ_section_title
;
Structure prediction by ZEFSAII (Michael W. Deem and Ramdas Pophale) SiO2 
 PCOD8107324
Probable space group: C 2/M
;
_chemical_formula_sum "Si O2"
_cell_formula_units_Z 48
_cell_length_a 26.909100
_cell_length_b 8.474944
_cell_length_c 15.255965
_cell_angle_alpha 90.000000
_cell_angle_beta 138.930114
_cell_angle_gamma 90.000000
_cell_volume 2285.742173
_symmetry_space_group_name_H-M "C 2/M"
_symmetry_group_IT_number 12
_symmetry_cell_setting 'monoclinic'
loop_
_space_group_symop_operation_xyz
x,y,z
-x,y,-z
-x,-y,-z
x,-y,z
1/2+x,1/2+y,z
1/2-x,1/2+y,-z
1/2-x,1/2-y,-z
1/2+x,1/2-y,z
loop_
_atom_site_type_symbol
_atom_site_label
_atom_site_fract_x
_atom_site_fract_y
_atom_site_fract_z
Si Si1 0.406817 0.182753 0.213001
Si Si2 0.324440 0.318016 0.941624
Si Si3 0.332913 0.185964 0.622975
Si Si4 0.837757 0.818093 0.291151
Si Si5 0.080597 0.686132 0.434185
Si Si6 0.413875 0.814478 0.904245
O O1 0.378060 0.209199 0.272963
O O2 0.493429 0.237532 0.321718
O O3 0.398872 0.000000 0.176958
O O4 0.355251 0.284208 0.079510
O O5 0.301341 0.500000 0.904462
O O6 0.251410 0.213426 0.823923
O O7 0.389338 0.277036 0.958448
O O8 0.250000 0.250000 0.500000
O O9 0.387258 0.241245 0.616735
O O10 0.365154 0.249376 0.757684
O O11 0.330318 0.000000 0.621817
O O12 0.872956 0.780175 0.431699
O O13 0.851942 0.000000 0.286761
O O14 0.090381 0.500000 0.463267
O O15 0.403081 0.000000 0.905737
O O16 0.500000 0.771878 0.000000
#
# Coordination Sequence:
#
# PCOD8107324 Si02
#       6
#     8   8   8   8   8   8
#     4  11  23  42  66  90 120 159 202 250 306 365
#     4  12  25  41  62  90 124 161 205 253 301 358
#     4  10  21  37  59  87 118 154 196 242 292 349
#     4  12  25  41  62  90 124 160 201 250 304 362
#     4  10  22  41  64  90 121 159 201 246 300 362
#     4  10  21  40  64  89 119 158 203 249 301 358
#
# _framework density 20.999744
#
# number of rings (size 3 to 8) (size 9 to 14) (size 15 to 20)
#    0.000    1.167    0.000    6.500    0.000   10.333 
#    0.000    1.667    0.000    0.000    0.000    0.000 
#    0.000    0.000    0.000    0.000    0.000    0.000 
#
# Total GULP energy -297796.107898 kJ/mol
# GULP energy per Si atom -12408.171162 kJ/mol
# Density = 2.095195 g / cm^3
# Si number density = 20.999744 Si / 1000 Ang^3
#
#
#
# Elastic Constant Matrix: (Units=GPa)
#
#
# Indices 1 2 3 4 5 6 
#
# 1 86.6824 10.2237 -0.0709 0.0000 5.4594 0.0000
# 2 10.2237 47.0282 19.7347 0.0000 2.2116 0.0000
# 3 -0.0709 19.7347 95.4842 0.0000 8.5474 0.0000
# 4 0.0000 0.0000 0.0000 33.1202 0.0000 -2.4457
# 5 5.4594 2.2116 8.5474 0.0000 41.8880 0.0000
# 6 0.0000 0.0000 0.0000 -2.4457 0.0000 28.2621
#
#
#
# Elastic Compliance Matrix: (Units=1/GPa)
#
#
# Indices 1 2 3 4 5 6 
#
# 1 0.011970 -0.002837 0.000735 0.000000 -0.001560 0.000000
# 2 -0.002837 0.023958 -0.004964 0.000000 0.000118 0.000000
# 3 0.000735 -0.004964 0.011698 0.000000 -0.002221 0.000000
# 4 0.000000 0.000000 0.000000 0.030387 0.000000 0.002630
# 5 -0.001560 0.000118 -0.002221 0.000000 0.024523 0.000000
# 6 0.000000 0.000000 0.000000 0.002630 0.000000 0.035611
#
#
# Mechanical properties :
#
#
# Convention : Reuss Voigt Hill
#
# Bulk Modulus (GPa) = 29.85680 32.10776 30.98228
# Shear Modulus (GPa) = 30.59122 33.94120 32.26621
#
# Velocity S-wave (km/s) = 3.82087 4.02464 3.92408
# Velocity P-wave (km/s) = 5.80637 6.07617 5.94280
#
# Compressibility (1/GPa) = 0.03349320
#
# Stress axis : x y z
#
# Youngs Moduli (GPa) = 83.54305 41.73916 85.48239
#
# Poissons Ratio (x) = 0.11842 -0.06283
# Poissons Ratio (y) = 0.23703 0.42437
# Poissons Ratio (z) = -0.06140 0.20721
#
# Static dielectric constant tensor:
#      x y z
#    x 4.729690 0.000000 -0.052180 
#    y 0.000000 3.629090 0.000000 
#    z -0.052180 0.000000 3.922200 
# 
# 
# High freq. dielectric constant tensor:
#      x y z
#    x 1.839720 0.000000 -0.000330 
#    y 0.000000 1.813210 0.000000 
#    z -0.000330 0.000000 1.838150 
# 
# From -- ./inp_files/244849.got.cif
#   From: 2010.06.25/outbox.cif.g09.slc.cpg/sg12_123_cif.got.tgz:244849.got - 2010.06.28 00:19:55.
