data_PCOD8107339
_publ_section_title
;
Structure prediction by ZEFSAII (Michael W. Deem and Ramdas Pophale) SiO2 
 PCOD8107339
Probable space group: C 2/M
;
_chemical_formula_sum "Si O2"
_cell_formula_units_Z 56
_cell_length_a 25.163009
_cell_length_b 8.669122
_cell_length_c 14.584788
_cell_angle_alpha 90.000000
_cell_angle_beta 120.291771
_cell_angle_gamma 90.000000
_cell_volume 2747.160653
_symmetry_space_group_name_H-M "C 2/M"
_symmetry_group_IT_number 12
_symmetry_cell_setting 'monoclinic'
loop_
_space_group_symop_operation_xyz
x,y,z
-x,y,-z
-x,-y,-z
x,-y,z
1/2+x,1/2+y,z
1/2-x,1/2+y,-z
1/2-x,1/2-y,-z
1/2+x,1/2-y,z
loop_
_atom_site_type_symbol
_atom_site_label
_atom_site_fract_x
_atom_site_fract_y
_atom_site_fract_z
Si Si1 0.258797 0.681303 0.777410
Si Si2 0.294178 0.819232 0.614211
Si Si3 0.008424 0.679364 0.614068
Si Si4 0.857840 0.682590 0.215080
Si Si5 0.474199 0.674785 0.078177
Si Si6 0.847982 0.320885 0.000887
Si Si7 0.924480 0.820430 0.686012
O O1 0.258884 0.500000 0.758903
O O2 0.275155 0.764947 0.698235
O O3 0.192100 0.740804 0.754269
O O4 0.308346 0.716843 0.898756
O O5 0.250000 0.750000 0.500000
O O6 0.363489 0.774878 0.651737
O O7 0.287125 0.000000 0.604401
O O8 0.002958 0.500000 0.635799
O O9 0.074615 0.749246 0.702528
O O10 0.000000 0.706344 0.500000
O O11 0.953746 0.772596 0.614722
O O12 0.862047 0.500000 0.223058
O O13 0.835681 0.733998 0.094654
O O14 0.451551 0.500000 0.078429
O O15 0.419512 0.795401 0.042178
O O16 0.527858 0.723731 0.193476
O O17 0.500000 0.690011 0.000000
O O18 0.831679 0.500000 0.972147
O O19 0.907622 0.000000 0.671088
#
# Coordination Sequence:
#
# PCOD8107339 Si02
#       7
#     8   8   8   8   8   8   8
#     4  11  23  41  64  92 130 172 214 261 316 379
#     4  12  27  47  69  95 126 166 213 263 317 377
#     4  10  21  39  65  94 126 169 214 262 322 383
#     4   9  20  38  61  93 129 167 211 260 318 380
#     4  10  21  37  59  87 123 165 206 253 314 376
#     4  11  21  37  61  92 127 164 213 262 315 380
#     4  11  23  41  65  96 130 165 207 261 320 378
#
# _framework density 20.384684
#
# number of rings (size 3 to 8) (size 9 to 14) (size 15 to 20)
#    0.000    1.429    1.429    3.857    2.000    2.286 
#    0.000    3.571    0.000    0.000    0.000    0.000 
#    0.000    0.000    0.000    0.000    0.000    0.000 
#
# Total GULP energy -347318.503026 kJ/mol
# GULP energy per Si atom -12404.232251 kJ/mol
# Density = 2.033829 g / cm^3
# Si number density = 20.384684 Si / 1000 Ang^3
#
#
#
# Elastic Constant Matrix: (Units=GPa)
#
#
# Indices 1 2 3 4 5 6 
#
# 1 152.1536 39.6937 55.7304 0.0000 -6.0486 0.0000
# 2 39.6937 77.2938 30.3539 0.0000 -3.4061 0.0000
# 3 55.7304 30.3539 103.7234 0.0000 -12.5957 0.0000
# 4 0.0000 0.0000 0.0000 28.8136 0.0000 5.6729
# 5 -6.0486 -3.4061 -12.5957 0.0000 25.8265 0.0000
# 6 0.0000 0.0000 0.0000 5.6729 0.0000 33.4651
#
#
#
# Elastic Compliance Matrix: (Units=1/GPa)
#
#
# Indices 1 2 3 4 5 6 
#
# 1 0.008757 -0.002992 -0.003856 0.000000 -0.000225 0.000000
# 2 -0.002992 0.015641 -0.002981 0.000000 -0.000092 0.000000
# 3 -0.003856 -0.002981 0.013210 0.000000 0.005146 0.000000
# 4 0.000000 0.000000 0.000000 0.035904 0.000000 -0.006086
# 5 -0.000225 -0.000092 0.005146 0.000000 0.041165 0.000000
# 6 0.000000 0.000000 0.000000 -0.006086 0.000000 0.030914
#
#
# Mechanical properties :
#
#
# Convention : Reuss Voigt Hill
#
# Bulk Modulus (GPa) = 55.71345 64.96966 60.34155
# Shear Modulus (GPa) = 29.20012 31.44722 30.32367
#
# Velocity S-wave (km/s) = 3.78888 3.93197 3.86109
# Velocity P-wave (km/s) = 6.82138 7.24947 7.03868
#
# Compressibility (1/GPa) = 0.01794899
#
# Stress axis : x y z
#
# Youngs Moduli (GPa) = 114.20032 63.93545 75.69848
#
# Poissons Ratio (x) = 0.19131 0.29193
# Poissons Ratio (y) = 0.34172 0.22562
# Poissons Ratio (z) = 0.44041 0.19056
#
# Static dielectric constant tensor:
#      x y z
#    x 3.947510 0.000000 -0.029170 
#    y 0.000000 3.655210 0.000000 
#    z -0.029170 0.000000 3.695180 
# 
# 
# High freq. dielectric constant tensor:
#      x y z
#    x 1.811910 0.000000 -0.002990 
#    y 0.000000 1.785770 0.000000 
#    z -0.002990 0.000000 1.809120 
# 
# From -- ./inp_files/238904.got.cif
#   From: 2010.06.25/outbox.cif.g09.slc.cpg/sg12_120_cif.got.tgz:238904.got - 2010.06.28 00:19:55.
