data_PCOD8107620
_publ_section_title
;
Structure prediction by ZEFSAII (Michael W. Deem and Ramdas Pophale) SiO2 
 PCOD8107620
Probable space group: C 2/M
;
_chemical_formula_sum "Si O2"
_cell_formula_units_Z 56
_cell_length_a 10.794170
_cell_length_b 29.352760
_cell_length_c 9.468417
_cell_angle_alpha 90.000000
_cell_angle_beta 107.446033
_cell_angle_gamma 90.000000
_cell_volume 2861.961851
_symmetry_space_group_name_H-M "C 2/M"
_symmetry_group_IT_number 12
_symmetry_cell_setting 'monoclinic'
loop_
_space_group_symop_operation_xyz
x,y,z
-x,y,-z
-x,-y,-z
x,-y,z
1/2+x,1/2+y,z
1/2-x,1/2+y,-z
1/2-x,1/2-y,-z
1/2+x,1/2-y,z
loop_
_atom_site_type_symbol
_atom_site_label
_atom_site_fract_x
_atom_site_fract_y
_atom_site_fract_z
Si Si1 0.685293 0.396564 0.714025
Si Si2 0.293365 0.386063 0.601084
Si Si3 0.508032 0.553145 0.166763
Si Si4 0.098282 0.331977 0.159043
Si Si5 0.203402 0.756449 0.827109
Si Si6 0.007232 0.185955 0.351328
Si Si7 0.912716 0.327875 0.348534
O O1 0.716558 0.408100 0.559961
O O2 0.625418 0.437070 0.790158
O O3 0.812129 0.376510 0.837216
O O4 0.573017 0.360185 0.666704
O O5 0.368901 0.421207 0.725498
O O6 0.350265 0.333766 0.630187
O O7 0.152228 0.375082 0.618285
O O8 0.536612 0.500000 0.186577
O O9 0.500000 0.568727 0.000000
O O10 0.193257 0.288591 0.218670
O O11 0.013576 0.342858 0.264691
O O12 0.000000 0.321622 0.000000
O O13 0.058558 0.779728 0.783969
O O14 0.193134 0.708202 0.745914
O O15 0.250000 0.750000 0.000000
O O16 0.000000 0.211494 0.500000
O O17 0.000000 0.304853 0.500000
#
# Coordination Sequence:
#
# PCOD8107620 Si02
#       7
#     8   8   8   8   8   8   8
#     4   9  19  39  61  85 119 156 195 238 294 359
#     4  10  21  37  62  87 117 157 200 244 296 361
#     4  10  22  39  66 101 125 146 186 243 302 360
#     4  11  23  40  58  84 119 164 210 252 301 355
#     4  11  23  36  53  78 114 157 211 259 296 349
#     4   8  17  35  54  77 106 148 198 244 291 339
#     4  12  25  38  58  86 119 163 207 258 301 351
#
# _framework density 19.566997000000001
#
# number of rings (size 3 to 8) (size 9 to 14) (size 15 to 20)
#    0.000    1.857    2.857    1.714    4.000    2.857 
#    0.000    0.000    0.000    1.714    0.000    0.000 
#    0.000    0.000    0.000    0.000    0.000    0.000 
#
# Total GULP energy -346907.368842 kJ/mol
# GULP energy per Si atom -12389.548887 kJ/mol
# Density = 1.952246 g / cm^3
# Si number density = 19.566997 Si / 1000 Ang^3
#
#
#
# Elastic Constant Matrix: (Units=GPa)
#
#
# Indices 1 2 3 4 5 6 
#
# 1 93.7040 29.1419 33.7075 0.0000 -13.2725 0.0000
# 2 29.1419 67.2741 37.2852 0.0000 -2.8138 0.0000
# 3 33.7075 37.2852 117.3101 0.0000 -2.8095 0.0000
# 4 0.0000 0.0000 0.0000 24.1851 0.0000 -2.9797
# 5 -13.2725 -2.8138 -2.8095 0.0000 37.3130 0.0000
# 6 0.0000 0.0000 0.0000 -2.9797 0.0000 28.6690
#
#
#
# Elastic Compliance Matrix: (Units=1/GPa)
#
#
# Indices 1 2 3 4 5 6 
#
# 1 0.013490 -0.004337 -0.002395 0.000000 0.004291 0.000000
# 2 -0.004337 0.019469 -0.004953 0.000000 -0.000447 0.000000
# 3 -0.002395 -0.004953 0.010777 0.000000 -0.000414 0.000000
# 4 0.000000 0.000000 0.000000 0.041884 0.000000 0.004353
# 5 0.004291 -0.000447 -0.000414 0.000000 0.028262 0.000000
# 6 0.000000 0.000000 0.000000 0.004353 0.000000 0.035333
#
#
# Mechanical properties :
#
#
# Convention : Reuss Voigt Hill
#
# Bulk Modulus (GPa) = 49.09829 53.17302 51.13565
# Shear Modulus (GPa) = 27.87486 29.91034 28.89260
#
# Velocity S-wave (km/s) = 3.77846 3.91399 3.84682
# Velocity P-wave (km/s) = 6.64700 6.90359 6.77651
#
# Compressibility (1/GPa) = 0.02036731
#
# Stress axis : x y z
#
# Youngs Moduli (GPa) = 74.12910 51.36288 92.79198
#
# Poissons Ratio (x) = 0.22275 0.22224
# Poissons Ratio (y) = 0.32148 0.45956
# Poissons Ratio (z) = 0.17754 0.25438
#
# Static dielectric constant tensor:
#      x y z
#    x 3.838160 0.000000 -0.054180 
#    y 0.000000 3.248690 0.000000 
#    z -0.054180 0.000000 3.686650 
# 
# 
# High freq. dielectric constant tensor:
#      x y z
#    x 1.766430 0.000000 0.004340 
#    y 0.000000 1.720460 0.000000 
#    z 0.004340 0.000000 1.772670 
# 
# From -- ./inp_files/54316.got.cif
#   From: 2010.06.25/outbox.cif.g09.slc.cpg/sg12_28_cif.got.tgz:54316.got - 2010.06.28 00:19:55.
