data_PCOD8107929
_publ_section_title
;
Structure prediction by ZEFSAII (Michael W. Deem and Ramdas Pophale) SiO2 
 PCOD8107929
Probable space group: C 2/M
;
_chemical_formula_sum "Si O2"
_cell_formula_units_Z 56
_cell_length_a 24.882394
_cell_length_b 8.887071
_cell_length_c 16.282227
_cell_angle_alpha 90.000000
_cell_angle_beta 123.966065
_cell_angle_gamma 90.000000
_cell_volume 2986.154126
_symmetry_space_group_name_H-M "C 2/M"
_symmetry_group_IT_number 12
_symmetry_cell_setting 'monoclinic'
loop_
_space_group_symop_operation_xyz
x,y,z
-x,y,-z
-x,-y,-z
x,-y,z
1/2+x,1/2+y,z
1/2-x,1/2+y,-z
1/2-x,1/2-y,-z
1/2+x,1/2-y,z
loop_
_atom_site_type_symbol
_atom_site_label
_atom_site_fract_x
_atom_site_fract_y
_atom_site_fract_z
Si Si1 0.969574 0.678571 0.055641
Si Si2 0.752433 0.676136 0.372862
Si Si3 0.519068 0.175844 0.272284
Si Si4 0.274819 0.322016 0.220575
Si Si5 0.666077 0.178639 0.004989
Si Si6 0.348792 0.675849 0.576277
Si Si7 0.623444 0.823501 0.793293
O O1 0.967366 0.500000 0.046508
O O2 0.011677 0.723130 0.170932
O O3 0.896994 0.742334 0.001813
O O4 0.000000 0.752088 0.000000
O O5 0.760736 0.500000 0.365970
O O6 0.747049 0.756463 0.280941
O O7 0.687593 0.714466 0.369282
O O8 0.815371 0.736025 0.473607
O O9 0.576877 0.273656 0.358433
O O10 0.452761 0.214356 0.264185
O O11 0.535673 0.000000 0.294900
O O12 0.275655 0.500000 0.229088
O O13 0.228862 0.263707 0.107087
O O14 0.346779 0.262042 0.260203
O O15 0.662798 0.000000 0.001481
O O16 0.662419 0.234596 0.907573
O O17 0.344529 0.500000 0.553183
O O18 0.633251 0.000000 0.789044
#
# Coordination Sequence:
#
# PCOD8107929 Si02
#       7
#     8   8   8   8   8   8   8
#     4   8  14  25  44  74 107 138 176 216 251 301
#     4  10  22  39  57  79 107 139 174 215 267 324
#     4   9  18  32  55  80 104 142 181 215 262 315
#     4  11  21  32  53  82 109 139 181 228 270 306
#     4   8  16  29  46  74 108 143 181 218 258 306
#     4  10  21  38  59  81 107 136 171 218 271 322
#     4   9  18  35  53  75 110 148 185 218 256 314
#
# _framework density 18.753218
#
# number of rings (size 3 to 8) (size 9 to 14) (size 15 to 20)
#    0.000    2.714    0.000    3.429    2.000    2.286 
#    0.000    1.429    0.000    6.429    0.000    0.000 
#    0.000    0.000    0.000    0.000    0.000    0.000 
#
# Total GULP energy -347120.540315 kJ/mol
# GULP energy per Si atom -12397.162154 kJ/mol
# Density = 1.871053 g / cm^3
# Si number density = 18.753218 Si / 1000 Ang^3
#
#
#
# Elastic Constant Matrix: (Units=GPa)
#
#
# Indices 1 2 3 4 5 6 
#
# 1 90.2676 34.6031 40.4956 0.0000 2.4559 0.0000
# 2 34.6031 58.3120 32.0412 0.0000 3.9211 0.0000
# 3 40.4956 32.0412 71.1080 0.0000 12.8549 0.0000
# 4 0.0000 0.0000 0.0000 24.4570 0.0000 -0.1380
# 5 2.4559 3.9211 12.8549 0.0000 25.1753 0.0000
# 6 0.0000 0.0000 0.0000 -0.1380 0.0000 27.7041
#
#
#
# Elastic Compliance Matrix: (Units=1/GPa)
#
#
# Indices 1 2 3 4 5 6 
#
# 1 0.016571 -0.006048 -0.007260 0.000000 0.003033 0.000000
# 2 -0.006048 0.025080 -0.007995 0.000000 0.000766 0.000000
# 3 -0.007260 -0.007995 0.023628 0.000000 -0.010111 0.000000
# 4 0.000000 0.000000 0.000000 0.040889 0.000000 0.000204
# 5 0.003033 0.000766 -0.010111 0.000000 0.044469 0.000000
# 6 0.000000 0.000000 0.000000 0.000204 0.000000 0.036097
#
#
# Mechanical properties :
#
#
# Convention : Reuss Voigt Hill
#
# Bulk Modulus (GPa) = 44.10628 48.21861 46.16245
# Shear Modulus (GPa) = 21.10607 22.97045 22.03826
#
# Velocity S-wave (km/s) = 3.35843 3.50363 3.43180
# Velocity P-wave (km/s) = 6.21363 6.49116 6.35391
#
# Compressibility (1/GPa) = 0.02267251
#
# Stress axis : x y z
#
# Youngs Moduli (GPa) = 60.34569 39.87279 42.32240
#
# Poissons Ratio (x) = 0.24116 0.30727
# Poissons Ratio (y) = 0.36498 0.33837
# Poissons Ratio (z) = 0.43812 0.31878
#
# Static dielectric constant tensor:
#      x y z
#    x 3.637610 0.000000 -0.017070 
#    y 0.000000 3.097890 0.000000 
#    z -0.017070 0.000000 3.392460 
# 
# 
# High freq. dielectric constant tensor:
#      x y z
#    x 1.737530 0.000000 0.002420 
#    y 0.000000 1.702580 0.000000 
#    z 0.002420 0.000000 1.716910 
# 
# From -- ./inp_files/291968.got.cif
#   From: 2010.06.25/outbox.cif.g09.slc.cpg/sg12_146_cif.got.tgz:291968.got - 2010.06.28 00:19:55.
