data_PCOD8107165
_publ_section_title
;
Structure prediction by ZEFSAII (Michael W. Deem and Ramdas Pophale) SiO2 
 PCOD8107165
Probable space group: C 2/M
;
_chemical_formula_sum "Si O2"
_cell_formula_units_Z 48
_cell_length_a 10.088003
_cell_length_b 8.940751
_cell_length_c 26.471236
_cell_angle_alpha 90.000000
_cell_angle_beta 90.359193
_cell_angle_gamma 90.000000
_cell_volume 2387.508290
_symmetry_space_group_name_H-M "C 2/M"
_symmetry_group_IT_number 12
_symmetry_cell_setting 'monoclinic'
loop_
_space_group_symop_operation_xyz
x,y,z
-x,y,-z
-x,-y,-z
x,-y,z
1/2+x,1/2+y,z
1/2-x,1/2+y,-z
1/2-x,1/2-y,-z
1/2+x,1/2-y,z
loop_
_atom_site_type_symbol
_atom_site_label
_atom_site_fract_x
_atom_site_fract_y
_atom_site_fract_z
Si Si1 0.365233 0.827847 0.969467
Si Si2 0.406248 0.825701 0.194981
Si Si3 0.100558 0.173167 0.701032
Si Si4 0.630397 0.824079 0.471274
Si Si5 0.133663 0.673346 0.356497
Si Si6 0.138189 0.174411 0.137327
O O1 0.385139 0.753579 0.915607
O O2 0.327346 0.000000 0.961641
O O3 0.500000 0.808888 0.000000
O O4 0.250000 0.750000 0.000000
O O5 0.361648 0.764273 0.248941
O O6 0.288124 0.796394 0.155327
O O7 0.537856 0.740946 0.177942
O O8 0.439535 0.000000 0.199553
O O9 0.216149 0.199571 0.660769
O O10 0.962807 0.229818 0.678202
O O11 0.085452 0.000000 0.715310
O O12 0.500000 0.771817 0.500000
O O13 0.750000 0.750000 0.500000
O O14 0.622801 0.767834 0.413677
O O15 0.651014 0.000000 0.472912
O O16 0.092225 0.500000 0.351905
O O17 0.108865 0.000000 0.131070
#
# Coordination Sequence:
#
# PCOD8107165 Si02
#       6
#     8   8   8   8   8   8
#     4  11  24  41  62  90 123 159 200 245 294 348
#     4  11  24  41  61  87 119 153 192 240 292 347
#     4  11  23  38  59  86 114 150 195 238 287 347
#     4  10  21  37  58  85 116 152 194 239 290 347
#     4  10  22  39  58  84 118 153 192 240 292 346
#     4  11  24  41  63  91 120 155 199 242 291 350
#
# _framework density 20.104641999999998
#
# number of rings (size 3 to 8) (size 9 to 14) (size 15 to 20)
#    0.000    1.333    0.000    5.000    0.000   13.000 
#    0.000    0.000    0.000    0.000    0.000    0.000 
#    0.000    0.000    0.000    0.000    0.000    0.000 
#
# Total GULP energy -297779.223682 kJ/mol
# GULP energy per Si atom -12407.467653 kJ/mol
# Density = 2.005888 g / cm^3
# Si number density = 20.104642 Si / 1000 Ang^3
#
#
#
# Elastic Constant Matrix: (Units=GPa)
#
#
# Indices 1 2 3 4 5 6 
#
# 1 93.7779 58.2440 24.8647 0.0000 -4.4876 0.0000
# 2 58.2440 106.4552 47.3584 0.0000 7.1587 0.0000
# 3 24.8647 47.3584 121.1261 0.0000 -2.4464 0.0000
# 4 0.0000 0.0000 0.0000 38.4401 0.0000 1.9876
# 5 -4.4876 7.1587 -2.4464 0.0000 38.7426 0.0000
# 6 0.0000 0.0000 0.0000 1.9876 0.0000 33.3353
#
#
#
# Elastic Compliance Matrix: (Units=1/GPa)
#
#
# Indices 1 2 3 4 5 6 
#
# 1 0.016663 -0.009537 0.000383 0.000000 0.003717 0.000000
# 2 -0.009537 0.017055 -0.004802 0.000000 -0.004559 0.000000
# 3 0.000383 -0.004802 0.010087 0.000000 0.001569 0.000000
# 4 0.000000 0.000000 0.000000 0.026095 0.000000 -0.001556
# 5 0.003717 -0.004559 0.001569 0.000000 0.027183 0.000000
# 6 0.000000 0.000000 0.000000 -0.001556 0.000000 0.030091
#
#
# Mechanical properties :
#
#
# Convention : Reuss Voigt Hill
#
# Bulk Modulus (GPa) = 62.92557 64.69926 63.81242
# Shear Modulus (GPa) = 31.17529 34.82974 33.00251
#
# Velocity S-wave (km/s) = 3.94210 4.16675 4.05598
# Velocity P-wave (km/s) = 7.21715 7.44313 7.33101
#
# Compressibility (1/GPa) = 0.01589179
#
# Stress axis : x y z
#
# Youngs Moduli (GPa) = 60.01272 58.63494 99.14236
#
# Poissons Ratio (x) = 0.55922 -0.03801
# Poissons Ratio (y) = 0.57236 0.47612
# Poissons Ratio (z) = -0.02301 0.28159
#
# Static dielectric constant tensor:
#      x y z
#    x 3.636390 0.000000 -0.038410 
#    y 0.000000 3.753010 0.000000 
#    z -0.038410 0.000000 3.794380 
# 
# 
# High freq. dielectric constant tensor:
#      x y z
#    x 1.797660 0.000000 -0.002840 
#    y 0.000000 1.792710 0.000000 
#    z -0.002840 0.000000 1.802580 
# 
# From -- ./inp_files/334630.got.cif
#   From: 2010.06.25/outbox.cif.g09.slc.cpg/sg12_168_cif.got.tgz:334630.got - 2010.06.28 00:19:55.
