data_PCOD8107194
_publ_section_title
;
Structure prediction by ZEFSAII (Michael W. Deem and Ramdas Pophale) SiO2 
 PCOD8107194
Probable space group: C 2/M
;
_chemical_formula_sum "Si O2"
_cell_formula_units_Z 64
_cell_length_a 28.663898
_cell_length_b 9.015098
_cell_length_c 15.281559
_cell_angle_alpha 90.000000
_cell_angle_beta 53.580632
_cell_angle_gamma 90.000000
_cell_volume 3177.632520
_symmetry_space_group_name_H-M "C 2/M"
_symmetry_group_IT_number 12
_symmetry_cell_setting 'monoclinic'
loop_
_space_group_symop_operation_xyz
x,y,z
-x,y,-z
-x,-y,-z
x,-y,z
1/2+x,1/2+y,z
1/2-x,1/2+y,-z
1/2-x,1/2-y,-z
1/2+x,1/2-y,z
loop_
_atom_site_type_symbol
_atom_site_label
_atom_site_fract_x
_atom_site_fract_y
_atom_site_fract_z
Si Si1 0.138740 0.830114 0.998313
Si Si2 0.663179 0.330066 0.302175
Si Si3 0.991230 0.829516 0.913358
Si Si4 0.309530 0.175132 0.905716
Si Si5 0.306670 0.827179 0.400580
Si Si6 0.568172 0.172177 0.683387
Si Si7 0.945308 0.671724 0.500441
Si Si8 0.711664 0.168277 0.775963
O O1 0.185976 0.780414 0.874979
O O2 0.152101 0.000000 0.008283
O O3 0.075779 0.808258 0.030361
O O4 0.141655 0.728166 0.080896
O O5 0.654736 0.500000 0.281130
O O6 0.670657 0.224511 0.211245
O O7 0.607508 0.277263 0.416872
O O8 0.718764 0.314406 0.303190
O O9 0.028752 0.750335 0.798464
O O10 0.010665 0.000000 0.891290
O O11 0.000000 0.759679 0.000000
O O12 0.302352 0.000000 0.916852
O O13 0.250000 0.250000 0.000000
O O14 0.250000 0.750000 0.500000
O O15 0.365139 0.770553 0.383913
O O16 0.313460 0.789865 0.290511
O O17 0.297166 0.000000 0.426836
O O18 0.541616 0.202202 0.616560
O O19 0.567439 0.000000 0.707514
O O20 0.928191 0.500000 0.534138
O O21 0.000000 0.714575 0.500000
O O22 0.694575 0.000000 0.821168
#
# Coordination Sequence:
#
# PCOD8107194 Si02
#       8
#     8   8   8   8   8   8   8   8
#     4  11  23  38  60  90 121 159 205 248 302 369
#     4  11  23  39  61  89 121 158 203 253 307 367
#     4  10  23  42  63  91 127 164 206 256 309 367
#     4  12  24  40  62  90 125 163 202 253 309 366
#     4  10  21  37  59  88 118 152 199 249 305 368
#     4  10  22  40  62  89 122 161 209 258 306 366
#     4  10  23  42  61  86 120 162 210 259 310 365
#     4  10  21  37  58  86 120 155 193 247 306 368
#
# _framework density 20.140779999999999
#
# number of rings (size 3 to 8) (size 9 to 14) (size 15 to 20)
#    0.000    1.500    1.250    3.375    1.750    3.500 
#    0.000    0.000    0.000    0.000    0.000    0.000 
#    0.000    0.000    0.000    0.000    0.000    0.000 
#
# Total GULP energy -396903.912239 kJ/mol
# GULP energy per Si atom -12403.247257 kJ/mol
# Density = 2.009494 g / cm^3
# Si number density = 20.140780 Si / 1000 Ang^3
#
#
#
# Elastic Constant Matrix: (Units=GPa)
#
#
# Indices 1 2 3 4 5 6 
#
# 1 125.4538 48.2341 49.0879 0.0000 12.8890 0.0000
# 2 48.2341 100.5272 48.6573 0.0000 -0.1379 0.0001
# 3 49.0879 48.6573 109.2086 0.0000 1.0193 0.0000
# 4 0.0000 0.0000 0.0000 40.8353 0.0000 -1.3422
# 5 12.8890 -0.1379 1.0193 0.0000 35.0788 0.0000
# 6 0.0000 0.0001 0.0000 -1.3422 0.0000 26.6363
#
#
#
# Elastic Compliance Matrix: (Units=1/GPa)
#
#
# Indices 1 2 3 4 5 6 
#
# 1 0.011108 -0.003744 -0.003287 0.000000 -0.004001 0.000000
# 2 -0.003744 0.013946 -0.004545 0.000000 0.001563 0.000000
# 3 -0.003287 -0.004545 0.012652 0.000000 0.000822 0.000000
# 4 0.000000 0.000000 0.000000 0.024529 0.000000 0.001236
# 5 -0.004001 0.001563 0.000822 0.000000 0.029959 0.000000
# 6 0.000000 0.000000 0.000000 0.001236 0.000000 0.037605
#
#
# Mechanical properties :
#
#
# Convention : Reuss Voigt Hill
#
# Bulk Modulus (GPa) = 68.71687 69.68314 69.20000
# Shear Modulus (GPa) = 31.68489 33.12409 32.40449
#
# Velocity S-wave (km/s) = 3.97063 4.05980 4.01546
# Velocity P-wave (km/s) = 7.43058 7.52656 7.47872
#
# Compressibility (1/GPa) = 0.01455247
#
# Stress axis : x y z
#
# Youngs Moduli (GPa) = 90.02643 71.70433 79.03951
#
# Poissons Ratio (x) = 0.26846 0.25983
# Poissons Ratio (y) = 0.33706 0.35926
# Poissons Ratio (z) = 0.29595 0.32592
#
# Static dielectric constant tensor:
#      x y z
#    x 4.391150 0.000000 0.073660 
#    y 0.000000 3.724000 0.000000 
#    z 0.073660 0.000000 3.107910 
# 
# 
# High freq. dielectric constant tensor:
#      x y z
#    x 1.804180 0.000000 0.006580 
#    y 0.000000 1.784120 0.000000 
#    z 0.006580 0.000000 1.786480 
# 
# From -- ./inp_files/249783.got.cif
#   From: 2010.06.25/outbox.cif.g09.slc.cpg/sg12_125_cif.got.tgz:249783.got - 2010.06.28 00:19:55.
