data_PCOD8107804
_publ_section_title
;
Structure prediction by ZEFSAII (Michael W. Deem and Ramdas Pophale) SiO2 
 PCOD8107804
Probable space group: C 2/M
;
_chemical_formula_sum "Si O2"
_cell_formula_units_Z 48
_cell_length_a 28.809733
_cell_length_b 9.151402
_cell_length_c 18.707532
_cell_angle_alpha 90.000000
_cell_angle_beta 30.872691
_cell_angle_gamma 90.000000
_cell_volume 2530.886344
_symmetry_space_group_name_H-M "C 2/M"
_symmetry_group_IT_number 12
_symmetry_cell_setting 'monoclinic'
loop_
_space_group_symop_operation_xyz
x,y,z
-x,y,-z
-x,-y,-z
x,-y,z
1/2+x,1/2+y,z
1/2-x,1/2+y,-z
1/2-x,1/2-y,-z
1/2+x,1/2-y,z
loop_
_atom_site_type_symbol
_atom_site_label
_atom_site_fract_x
_atom_site_fract_y
_atom_site_fract_z
Si Si1 0.337957 0.167163 0.358176
Si Si2 0.509557 0.330356 0.759355
Si Si3 0.012279 0.827485 0.595428
Si Si4 0.673692 0.668737 0.918058
Si Si5 0.645257 0.672880 0.297914
Si Si6 0.101004 0.666706 0.879705
O O1 0.250000 0.250000 0.500000
O O2 0.427489 0.238954 0.271640
O O3 0.340785 0.177416 0.269057
O O4 0.333178 0.000000 0.389975
O O5 0.538492 0.500000 0.724901
O O6 0.519617 0.265574 0.665976
O O7 0.406848 0.308067 0.919498
O O8 0.921607 0.770404 0.676171
O O9 0.101152 0.783722 0.432775
O O10 0.003830 0.000000 0.609816
O O11 0.695605 0.500000 0.877091
O O12 0.760416 0.746331 0.837250
O O13 0.650509 0.735541 0.872161
O O14 0.661230 0.500000 0.272604
O O15 0.095910 0.500000 0.914476
O O16 0.000000 0.727128 0.000000
#
# Coordination Sequence:
#
# PCOD8107804 Si02
#       6
#     8   8   8   8   8   8
#     4  11  24  40  59  84 113 146 186 230 277 330
#     4  10  21  38  57  81 115 150 186 229 279 331
#     4   8  17  36  60  82 106 144 190 231 272 329
#     4  11  23  35  54  85 118 147 181 232 287 329
#     4   9  18  36  61  83 106 143 192 233 270 332
#     4  10  21  40  61  79 107 149 193 228 264 328
#
# _framework density 18.965689000000001
#
# number of rings (size 3 to 8) (size 9 to 14) (size 15 to 20)
#    0.000    2.167    1.667    2.000    2.333    3.000 
#    0.000    2.500    0.000    0.000    0.000    0.000 
#    0.000    0.000    0.000    0.000    0.000    0.000 
#
# Total GULP energy -297647.699685 kJ/mol
# GULP energy per Si atom -12401.987487 kJ/mol
# Density = 1.892252 g / cm^3
# Si number density = 18.965689 Si / 1000 Ang^3
#
#
#
# Elastic Constant Matrix: (Units=GPa)
#
#
# Indices 1 2 3 4 5 6 
#
# 1 59.3752 27.4333 13.2058 -0.0028 5.0468 0.0011
# 2 27.4333 78.1574 36.0781 -0.0016 -5.7717 0.0015
# 3 13.2058 36.0781 76.0821 -0.0011 -4.5306 0.0013
# 4 -0.0028 -0.0016 -0.0011 32.0003 0.0013 -6.5296
# 5 5.0468 -5.7717 -4.5306 0.0013 37.9485 -0.0007
# 6 0.0011 0.0015 0.0013 -6.5296 -0.0007 22.7277
#
#
#
# Elastic Compliance Matrix: (Units=1/GPa)
#
#
# Indices 1 2 3 4 5 6 
#
# 1 0.020661 -0.007397 -0.000311 0.000002 -0.003910 0.000000
# 2 -0.007397 0.019123 -0.007606 0.000000 0.002984 0.000000
# 3 -0.000311 -0.007606 0.016858 0.000000 0.000897 0.000000
# 4 0.000002 0.000000 0.000000 0.033196 -0.000001 0.009537
# 5 -0.003910 0.002984 0.000897 -0.000001 0.027432 0.000000
# 6 0.000000 0.000000 0.000000 0.009537 0.000000 0.046739
#
#
# Mechanical properties :
#
#
# Convention : Reuss Voigt Hill
#
# Bulk Modulus (GPa) = 38.44319 40.78323 39.61321
# Shear Modulus (GPa) = 24.59302 27.66180 26.12741
#
# Velocity S-wave (km/s) = 3.60489 3.82320 3.71565
# Velocity P-wave (km/s) = 6.13522 6.40621 6.27218
#
# Compressibility (1/GPa) = 0.02601241
#
# Stress axis : x y z
#
# Youngs Moduli (GPa) = 48.39949 52.29424 59.31883
#
# Poissons Ratio (x) = 0.38683 0.01847
# Poissons Ratio (y) = 0.35802 0.45119
# Poissons Ratio (z) = 0.01507 0.39776
#
# Static dielectric constant tensor:
#      x y z
#    x 3.692000 0.000000 0.101200 
#    y 0.000000 3.375270 0.000010 
#    z 0.101200 0.000010 3.593030 
# 
# 
# High freq. dielectric constant tensor:
#      x y z
#    x 1.741050 0.000000 -0.000640 
#    y 0.000000 1.718720 0.000000 
#    z -0.000640 0.000000 1.746700 
# 
# From -- ./inp_files/229939.got.cif
#   From: 2010.06.25/outbox.cif.g09.slc.cpg/sg12_115_cif.got.tgz:229939.got - 2010.06.28 00:19:55.
