data_PCOD8107384
_publ_section_title
;
Structure prediction by ZEFSAII (Michael W. Deem and Ramdas Pophale) SiO2 
 PCOD8107384
Probable space group: C 2/M
;
_chemical_formula_sum "Si O2"
_cell_formula_units_Z 56
_cell_length_a 27.779545
_cell_length_b 17.173951
_cell_length_c 18.761299
_cell_angle_alpha 90.000000
_cell_angle_beta 17.913948
_cell_angle_gamma 90.000000
_cell_volume 2753.138202
_symmetry_space_group_name_H-M "C 2/M"
_symmetry_group_IT_number 12
_symmetry_cell_setting 'monoclinic'
loop_
_space_group_symop_operation_xyz
x,y,z
-x,y,-z
-x,-y,-z
x,-y,z
1/2+x,1/2+y,z
1/2-x,1/2+y,-z
1/2-x,1/2-y,-z
1/2+x,1/2-y,z
loop_
_atom_site_type_symbol
_atom_site_label
_atom_site_fract_x
_atom_site_fract_y
_atom_site_fract_z
Si Si1 0.003728 0.659063 0.666459
Si Si2 0.889907 0.310136 0.089110
Si Si3 0.073610 0.163471 0.602370
Si Si4 0.240873 0.091322 0.940193
Si Si5 0.697340 0.645831 0.841273
Si Si6 0.544152 0.911562 0.754183
Si Si7 0.884800 0.087746 0.310239
O O1 0.018716 0.749549 0.662795
O O2 0.163683 0.623754 0.408359
O O3 0.960336 0.615725 0.800536
O O4 0.864690 0.643268 0.807878
O O5 0.733045 0.355274 0.335539
O O6 0.838932 0.237268 0.113137
O O7 0.000000 0.283992 0.000000
O O8 0.988332 0.367833 0.902586
O O9 0.108926 0.152274 0.636356
O O10 0.931117 0.105444 0.782850
O O11 0.282712 0.000000 0.884434
O O12 0.247346 0.122929 0.850634
O O13 0.538878 0.598891 0.043898
O O14 0.730251 0.897727 0.481487
O O15 0.500597 0.000000 0.829288
O O16 0.884556 0.000000 0.342883
#
# Coordination Sequence:
#
# PCOD8107384 Si02
#       7
#     8   8   8   8   8   8   8
#     4  11  24  40  62  91 123 163 203 253 300 359
#     4  11  23  40  63  91 124 162 202 252 306 361
#     4  10  21  39  64  90 118 158 211 252 297 355
#     4  11  23  43  67  89 123 162 204 253 306 361
#     4  10  23  38  64  92 118 160 205 247 302 366
#     4  11  24  38  58  90 127 164 203 248 304 365
#     4  10  21  37  59  89 125 161 199 250 305 362
#
# _framework density 20.340426000000001
#
# number of rings (size 3 to 8) (size 9 to 14) (size 15 to 20)
#    0.000    1.429    1.429    4.714    4.000    5.429 
#    0.000    3.571    0.000    1.714    0.000    0.000 
#    0.000    0.000    0.000    0.000    0.000    0.000 
#
# Total GULP energy -347161.484645 kJ/mol
# GULP energy per Si atom -12398.624452 kJ/mol
# Density = 2.029413 g / cm^3
# Si number density = 20.340426 Si / 1000 Ang^3
#
#
#
# Elastic Constant Matrix: (Units=GPa)
#
#
# Indices 1 2 3 4 5 6 
#
# 1 74.2732 37.9697 24.1632 -0.0038 2.6823 0.0023
# 2 37.9697 82.4771 24.1839 -0.0039 2.1635 -0.0058
# 3 24.1632 24.1839 96.0362 -0.0045 2.6472 -0.0045
# 4 -0.0038 -0.0039 -0.0045 28.7545 -0.0003 -6.1227
# 5 2.6823 2.1635 2.6472 -0.0003 20.1920 -0.0002
# 6 0.0023 -0.0058 -0.0045 -6.1227 -0.0002 17.3130
#
#
#
# Elastic Compliance Matrix: (Units=1/GPa)
#
#
# Indices 1 2 3 4 5 6 
#
# 1 0.018252 -0.007594 -0.002645 0.000000 -0.001264 -0.000006
# 2 -0.007594 0.016270 -0.002174 0.000002 -0.000449 0.000007
# 3 -0.002645 -0.002174 0.011652 0.000002 -0.000943 0.000003
# 4 0.000000 0.000002 0.000002 0.037609 0.000000 0.013300
# 5 -0.001264 -0.000449 -0.000943 0.000000 0.049864 0.000000
# 6 -0.000006 0.000007 0.000003 0.013300 0.000000 0.062464
#
#
# Mechanical properties :
#
#
# Convention : Reuss Voigt Hill
#
# Bulk Modulus (GPa) = 46.84393 47.26892 47.05642
# Shear Modulus (GPa) = 21.92473 24.34988 23.13730
#
# Velocity S-wave (km/s) = 3.28668 3.46369 3.37635
# Velocity P-wave (km/s) = 6.12234 6.26782 6.19551
#
# Compressibility (1/GPa) = 0.02134749
#
# Stress axis : x y z
#
# Youngs Moduli (GPa) = 54.78811 61.46352 85.82403
#
# Poissons Ratio (x) = 0.46675 0.22702
# Poissons Ratio (y) = 0.41606 0.18658
# Poissons Ratio (z) = 0.14492 0.13362
#
# Static dielectric constant tensor:
#      x y z
#    x 3.539360 -0.000010 -0.093810 
#    y -0.000010 3.633310 0.000020 
#    z -0.093810 0.000020 4.080680 
# 
# 
# High freq. dielectric constant tensor:
#      x y z
#    x 1.785890 0.000000 -0.007930 
#    y 0.000000 1.795080 0.000000 
#    z -0.007930 0.000000 1.807530 
# 
# From -- ./inp_files/293831.got.cif
#   From: 2010.06.25/outbox.cif.g09.slc.cpg/sg12_147_cif.got.tgz:293831.got - 2010.06.28 00:19:55.
