data_PCOD8107774
_publ_section_title
;
Structure prediction by ZEFSAII (Michael W. Deem and Ramdas Pophale) SiO2 
 PCOD8107774
Probable space group: C 2/M
;
_chemical_formula_sum "Si O2"
_cell_formula_units_Z 56
_cell_length_a 18.280000
_cell_length_b 13.898170
_cell_length_c 13.919547
_cell_angle_alpha 90.000000
_cell_angle_beta 58.596997
_cell_angle_gamma 90.000000
_cell_volume 3018.383305
_symmetry_space_group_name_H-M "C 2/M"
_symmetry_group_IT_number 12
_symmetry_cell_setting 'monoclinic'
loop_
_space_group_symop_operation_xyz
x,y,z
-x,y,-z
-x,-y,-z
x,-y,z
1/2+x,1/2+y,z
1/2-x,1/2+y,-z
1/2-x,1/2-y,-z
1/2+x,1/2-y,z
loop_
_atom_site_type_symbol
_atom_site_label
_atom_site_fract_x
_atom_site_fract_y
_atom_site_fract_z
Si Si1 0.184096 0.607638 0.426480
Si Si2 0.595844 0.718778 0.415958
Si Si3 0.329520 0.607830 0.168411
Si Si4 0.963231 0.114856 0.224719
Si Si5 0.632996 0.714844 0.166623
Si Si6 0.238758 0.385740 0.043513
Si Si7 0.823235 0.113161 0.475357
O O1 0.149248 0.500000 0.467488
O O2 0.103174 0.673685 0.454826
O O3 0.249353 0.610380 0.293929
O O4 0.234172 0.648044 0.486580
O O5 0.500000 0.680484 0.500000
O O6 0.619903 0.712529 0.288995
O O7 0.665517 0.655054 0.425746
O O8 0.355590 0.500000 0.125917
O O9 0.413134 0.652461 0.163284
O O10 0.301532 0.653541 0.086298
O O11 0.905761 0.142259 0.355882
O O12 0.050164 0.174362 0.169157
O O13 0.980895 0.000000 0.209797
O O14 0.651274 0.823968 0.116665
O O15 0.713194 0.644283 0.087293
O O16 0.218170 0.500000 0.061433
O O17 0.817220 0.000000 0.486213
#
# Coordination Sequence:
#
# PCOD8107774 Si02
#       7
#     8   8   8   8   8   8   8
#     4   9  18  35  55  75 103 143 184 217 255 308
#     4  12  22  33  52  82 114 142 172 214 267 322
#     4   8  15  31  56  77  98 132 174 224 271 299
#     4   9  17  32  53  80 108 132 170 222 269 314
#     4  11  22  34  52  83 111 139 177 213 270 325
#     4  10  21  38  57  77 105 142 181 222 262 310
#     4   9  19  34  53  75 106 145 178 215 262 310
#
# _framework density 18.552979000000001
#
# number of rings (size 3 to 8) (size 9 to 14) (size 15 to 20)
#    0.000    2.286    2.857    2.571    0.000    2.286 
#    0.000    2.143    0.000    0.000    0.000    9.000 
#    0.000    0.000    0.000    0.000    0.000    0.000 
#
# Total GULP energy -346967.054052 kJ/mol
# GULP energy per Si atom -12391.680502 kJ/mol
# Density = 1.851075 g / cm^3
# Si number density = 18.552979 Si / 1000 Ang^3
#
#
#
# Elastic Constant Matrix: (Units=GPa)
#
#
# Indices 1 2 3 4 5 6 
#
# 1 78.5120 25.7048 14.7847 0.0000 5.1330 0.0000
# 2 25.7048 45.1572 13.3071 0.0000 2.8960 0.0000
# 3 14.7847 13.3071 56.3749 0.0000 3.3340 0.0000
# 4 0.0000 0.0000 0.0000 20.8719 0.0000 -3.1600
# 5 5.1330 2.8960 3.3340 0.0000 15.3410 0.0000
# 6 0.0000 0.0000 0.0000 -3.1600 0.0000 33.1837
#
#
#
# Elastic Compliance Matrix: (Units=1/GPa)
#
#
# Indices 1 2 3 4 5 6 
#
# 1 0.016069 -0.008327 -0.002050 0.000000 -0.003359 0.000000
# 2 -0.008327 0.028283 -0.004398 0.000000 -0.001597 0.000000
# 3 -0.002050 -0.004398 0.019475 0.000000 -0.002716 0.000000
# 4 0.000000 0.000000 0.000000 0.048612 0.000000 0.004629
# 5 -0.003359 -0.001597 -0.002716 0.000000 0.067200 0.000000
# 6 0.000000 0.000000 0.000000 0.004629 0.000000 0.030576
#
#
# Mechanical properties :
#
#
# Convention : Reuss Voigt Hill
#
# Bulk Modulus (GPa) = 29.17423 31.95971 30.56697
# Shear Modulus (GPa) = 19.90513 22.29582 21.10048
#
# Velocity S-wave (km/s) = 3.27904 3.47037 3.37606
# Velocity P-wave (km/s) = 5.48590 5.77248 5.63101
#
# Compressibility (1/GPa) = 0.03427682
#
# Stress axis : x y z
#
# Youngs Moduli (GPa) = 62.23200 35.35639 51.34863
#
# Poissons Ratio (x) = 0.29443 0.10526
# Poissons Ratio (y) = 0.51823 0.22582
# Poissons Ratio (z) = 0.12757 0.15549
#
# Static dielectric constant tensor:
#      x y z
#    x 3.601110 0.000000 0.233200 
#    y 0.000000 3.378170 0.000000 
#    z 0.233200 0.000000 3.374550 
# 
# 
# High freq. dielectric constant tensor:
#      x y z
#    x 1.718130 0.000000 0.014200 
#    y 0.000000 1.703700 0.000000 
#    z 0.014200 0.000000 1.708370 
# 
# From -- ./inp_files/224662.got.cif
#   From: 2010.06.25/outbox.cif.g09.slc.cpg/sg12_113_cif.got.tgz:224662.got - 2010.06.28 00:19:55.
