data_PCOD8107920
_publ_section_title
;
Structure prediction by ZEFSAII (Michael W. Deem and Ramdas Pophale) SiO2 
 PCOD8107920
Probable space group: C 2/M
;
_chemical_formula_sum "Si O2"
_cell_formula_units_Z 40
_cell_length_a 26.964526
_cell_length_b 9.253185
_cell_length_c 9.062634
_cell_angle_alpha 90.000000
_cell_angle_beta 108.147993
_cell_angle_gamma 90.000000
_cell_volume 2148.714503
_symmetry_space_group_name_H-M "C 2/M"
_symmetry_group_IT_number 12
_symmetry_cell_setting 'monoclinic'
loop_
_space_group_symop_operation_xyz
x,y,z
-x,y,-z
-x,-y,-z
x,-y,z
1/2+x,1/2+y,z
1/2-x,1/2+y,-z
1/2-x,1/2-y,-z
1/2+x,1/2-y,z
loop_
_atom_site_type_symbol
_atom_site_label
_atom_site_fract_x
_atom_site_fract_y
_atom_site_fract_z
Si Si1 0.548816 0.332438 0.442991
Si Si2 0.050258 0.329706 0.140290
Si Si3 0.746374 0.833885 0.845161
Si Si4 0.850255 0.167885 0.277151
Si Si5 0.862010 0.835770 0.946607
O O1 0.500000 0.296278 0.500000
O O2 0.549433 0.500000 0.397578
O O3 0.543968 0.236387 0.294938
O O4 0.600960 0.289004 0.577915
O O5 0.055565 0.500000 0.160159
O O6 0.101798 0.271348 0.109698
O O7 0.000000 0.283716 0.000000
O O8 0.699772 0.758666 0.709147
O O9 0.803542 0.822226 0.823290
O O10 0.731719 0.000000 0.860748
O O11 0.750000 0.750000 0.000000
O O12 0.836061 0.000000 0.276778
O O13 0.863098 0.208206 0.119788
O O14 0.882355 0.000000 0.947385
#
# Coordination Sequence:
#
# PCOD8107920 Si02
#       5
#     8   8   8   8   8
#     4  10  21  38  59  80 104 138 178 218 263 317
#     4  11  24  38  53  78 109 139 174 218 267 315
#     4   9  17  30  51  79 109 141 177 216 259 308
#     4   9  18  33  55  83 109 136 176 221 263 310
#     4   9  18  34  56  80 106 139 179 217 255 308
#
# _framework density 18.615780999999998
#
# number of rings (size 3 to 8) (size 9 to 14) (size 15 to 20)
#    0.000    2.400    0.000    3.600    0.000    8.400 
#    0.000    1.000    0.000    0.000    0.000    0.000 
#    0.000    0.000    0.000    0.000    0.000    0.000 
#
# Total GULP energy -247970.234682 kJ/mol
# GULP energy per Si atom -12398.511734 kJ/mol
# Density = 1.857341 g / cm^3
# Si number density = 18.615781 Si / 1000 Ang^3
#
#
#
# Elastic Constant Matrix: (Units=GPa)
#
#
# Indices 1 2 3 4 5 6 
#
# 1 138.4729 75.4465 66.7553 0.0000 20.1800 0.0000
# 2 75.4465 95.4776 56.3724 0.0000 10.9420 0.0000
# 3 66.7553 56.3724 102.2628 0.0000 15.2119 0.0000
# 4 0.0000 0.0000 0.0000 28.0543 0.0000 1.0835
# 5 20.1800 10.9420 15.2119 0.0000 28.0109 0.0000
# 6 0.0000 0.0000 0.0000 1.0835 0.0000 31.3728
#
#
#
# Elastic Compliance Matrix: (Units=1/GPa)
#
#
# Indices 1 2 3 4 5 6 
#
# 1 0.014547 -0.008533 -0.004057 0.000000 -0.004944 0.000000
# 2 -0.008533 0.020595 -0.005983 0.000000 0.001352 0.000000
# 3 -0.004057 -0.005983 0.016256 0.000000 -0.003568 0.000000
# 4 0.000000 0.000000 0.000000 0.035693 0.000000 -0.001233
# 5 -0.004944 0.001352 -0.003568 0.000000 0.040672 0.000000
# 6 0.000000 0.000000 0.000000 -0.001233 0.000000 0.031917
#
#
# Mechanical properties :
#
#
# Convention : Reuss Voigt Hill
#
# Bulk Modulus (GPa) = 70.17221 81.48464 75.82843
# Shear Modulus (GPa) = 24.80444 26.66354 25.73399
#
# Velocity S-wave (km/s) = 3.65422 3.78869 3.72206
# Velocity P-wave (km/s) = 7.45529 7.93762 7.70023
#
# Compressibility (1/GPa) = 0.01425065
#
# Stress axis : x y z
#
# Youngs Moduli (GPa) = 68.74196 48.55639 61.51575
#
# Poissons Ratio (x) = 0.41435 0.24955
# Poissons Ratio (y) = 0.58661 0.36808
# Poissons Ratio (z) = 0.27886 0.29053
#
# Static dielectric constant tensor:
#      x y z
#    x 3.905920 0.000000 0.378030 
#    y 0.000000 3.525020 0.000000 
#    z 0.378030 0.000000 3.362850 
# 
# 
# High freq. dielectric constant tensor:
#      x y z
#    x 1.736380 0.000000 0.018190 
#    y 0.000000 1.725380 0.000000 
#    z 0.018190 0.000000 1.700190 
# 
# From -- ./inp_files/92795.got.cif
#   From: 2010.06.25/outbox.cif.g09.slc.cpg/sg12_47_cif.got.tgz:92795.got - 2010.06.28 00:19:55.
