data_PCOD8107519
_publ_section_title
;
Structure prediction by ZEFSAII (Michael W. Deem and Ramdas Pophale) SiO2 
 PCOD8107519
Probable space group: C 2/M
;
_chemical_formula_sum "Si O2"
_cell_formula_units_Z 56
_cell_length_a 16.431543
_cell_length_b 8.638938
_cell_length_c 23.264439
_cell_angle_alpha 90.000000
_cell_angle_beta 57.469284
_cell_angle_gamma 90.000000
_cell_volume 2784.274620
_symmetry_space_group_name_H-M "C 2/M"
_symmetry_group_IT_number 12
_symmetry_cell_setting 'monoclinic'
loop_
_space_group_symop_operation_xyz
x,y,z
-x,y,-z
-x,-y,-z
x,-y,z
1/2+x,1/2+y,z
1/2-x,1/2+y,-z
1/2-x,1/2-y,-z
1/2+x,1/2-y,z
loop_
_atom_site_type_symbol
_atom_site_label
_atom_site_fract_x
_atom_site_fract_y
_atom_site_fract_z
Si Si1 0.243584 0.822667 0.440518
Si Si2 0.460068 0.821645 0.846402
Si Si3 0.724312 0.181969 0.154757
Si Si4 0.411743 0.177658 0.571353
Si Si5 0.114651 0.823762 0.297622
Si Si6 0.052824 0.672012 0.695182
Si Si7 0.936957 0.682168 0.078785
O O1 0.250000 0.750000 0.500000
O O2 0.178523 0.696404 0.434900
O O3 0.339619 0.819610 0.366951
O O4 0.204261 0.000000 0.458090
O O5 0.356389 0.754101 0.861408
O O6 0.543445 0.796636 0.766899
O O7 0.505119 0.746232 0.887648
O O8 0.440650 0.000000 0.867111
O O9 0.688473 0.220670 0.232689
O O10 0.830260 0.252595 0.107080
O O11 0.733118 0.000000 0.144528
O O12 0.500000 0.242932 0.500000
O O13 0.388074 0.280237 0.635128
O O14 0.429767 0.000000 0.582489
O O15 0.006360 0.801070 0.316249
O O16 0.147727 0.000000 0.278755
O O17 0.009521 0.500000 0.698914
O O18 0.925117 0.500000 0.091788
O O19 0.000000 0.726703 0.000000
#
# Coordination Sequence:
#
# PCOD8107519 Si02
#       7
#     8   8   8   8   8   8   8
#     4  11  23  37  56  82 112 152 195 243 298 352
#     4   8  17  36  59  82 117 159 196 239 301 364
#     4  10  21  39  61  86 118 161 203 246 303 367
#     4  11  24  40  57  80 114 154 195 242 293 352
#     4  11  22  37  60  87 114 147 191 245 299 355
#     4   9  19  37  58  80 110 150 191 235 295 355
#     4  10  21  37  60  91 124 159 202 253 305 362
#
# _framework density 20.112959
#
# number of rings (size 3 to 8) (size 9 to 14) (size 15 to 20)
#    0.000    2.000    0.000    4.286    2.000    6.571 
#    0.000    3.571    0.000    0.000    0.000    0.000 
#    0.000    0.000    0.000    0.000    0.000    0.000 
#
# Total GULP energy -346956.278618 kJ/mol
# GULP energy per Si atom -12391.295665 kJ/mol
# Density = 2.006718 g / cm^3
# Si number density = 20.112959 Si / 1000 Ang^3
#
#
#
# Elastic Constant Matrix: (Units=GPa)
#
#
# Indices 1 2 3 4 5 6 
#
# 1 129.8808 30.2692 83.3313 0.0000 6.4243 0.0001
# 2 30.2692 43.4561 29.6583 0.0000 -1.5043 0.0005
# 3 83.3313 29.6583 133.2179 0.0000 3.0901 0.0000
# 4 0.0000 0.0000 0.0000 25.1367 0.0000 -4.8224
# 5 6.4243 -1.5043 3.0901 0.0000 37.1213 0.0000
# 6 0.0001 0.0005 0.0000 -4.8224 0.0000 33.9138
#
#
#
# Elastic Compliance Matrix: (Units=1/GPa)
#
#
# Indices 1 2 3 4 5 6 
#
# 1 0.013643 -0.004452 -0.007498 0.000000 -0.001917 0.000000
# 2 -0.004452 0.028683 -0.003653 0.000000 0.002237 0.000000
# 3 -0.007498 -0.003653 0.013009 0.000000 0.000067 0.000000
# 4 0.000000 0.000000 0.000000 0.040898 0.000000 0.005816
# 5 -0.001917 0.002237 0.000067 0.000000 0.027356 0.000000
# 6 0.000000 0.000000 0.000000 0.005816 0.000000 0.030313
#
#
# Mechanical properties :
#
#
# Convention : Reuss Voigt Hill
#
# Bulk Modulus (GPa) = 41.44479 65.89695 53.67087
# Shear Modulus (GPa) = 25.88665 30.12075 28.00370
#
# Velocity S-wave (km/s) = 3.59146 3.87406 3.73543
# Velocity P-wave (km/s) = 6.15214 7.26950 6.73404
#
# Compressibility (1/GPa) = 0.02412849
#
# Stress axis : x y z
#
# Youngs Moduli (GPa) = 73.30035 34.86382 76.87245
#
# Poissons Ratio (x) = 0.15520 0.57641
# Poissons Ratio (y) = 0.32630 0.28082
# Poissons Ratio (z) = 0.54962 0.12736
#
# Static dielectric constant tensor:
#      x y z
#    x 3.504200 0.000000 -0.182400 
#    y 0.000000 3.594790 0.000000 
#    z -0.182400 0.000000 3.540420 
# 
# 
# High freq. dielectric constant tensor:
#      x y z
#    x 1.789360 0.000000 0.002860 
#    y 0.000000 1.766960 0.000000 
#    z 0.002860 0.000000 1.792950 
# 
# From -- ./inp_files/338574.got.cif
#   From: 2010.06.25/outbox.cif.g09.slc.cpg/sg12_170_cif.got.tgz:338574.got - 2010.06.28 00:19:55.
