data_PCOD8107777
_publ_section_title
;
Structure prediction by ZEFSAII (Michael W. Deem and Ramdas Pophale) SiO2 
 PCOD8107777
Probable space group: C 2/M
;
_chemical_formula_sum "Si O2"
_cell_formula_units_Z 56
_cell_length_a 15.435389
_cell_length_b 8.861205
_cell_length_c 22.604164
_cell_angle_alpha 90.000000
_cell_angle_beta 109.414715
_cell_angle_gamma 90.000000
_cell_volume 2915.907497
_symmetry_space_group_name_H-M "C 2/M"
_symmetry_group_IT_number 12
_symmetry_cell_setting 'monoclinic'
loop_
_space_group_symop_operation_xyz
x,y,z
-x,y,-z
-x,-y,-z
x,-y,z
1/2+x,1/2+y,z
1/2-x,1/2+y,-z
1/2-x,1/2-y,-z
1/2+x,1/2-y,z
loop_
_atom_site_type_symbol
_atom_site_label
_atom_site_fract_x
_atom_site_fract_y
_atom_site_fract_z
Si Si1 0.659257 0.825892 0.127797
Si Si2 0.845146 0.678181 0.207690
Si Si3 0.873198 0.321838 0.572044
Si Si4 0.842716 0.821798 0.997392
Si Si5 0.304775 0.178091 0.428927
Si Si6 0.427230 0.820518 0.349663
Si Si7 0.539183 0.826800 0.879953
O O1 0.747110 0.757502 0.180159
O O2 0.570882 0.808159 0.150722
O O3 0.678631 0.000000 0.117069
O O4 0.636179 0.738245 0.062760
O O5 0.828791 0.500000 0.205204
O O6 0.891620 0.737149 0.278365
O O7 0.912679 0.725364 0.169763
O O8 0.868075 0.500000 0.577882
O O9 0.795929 0.250140 0.596226
O O10 0.858110 0.273153 0.500557
O O11 0.970745 0.257232 0.615805
O O12 0.926068 0.777653 0.058995
O O13 0.831397 0.000000 0.992375
O O14 0.750000 0.750000 0.000000
O O15 0.360907 0.242169 0.385908
O O16 0.293883 0.000000 0.423054
O O17 0.429481 0.000000 0.352702
O O18 0.565148 0.000000 0.900230
#
# Coordination Sequence:
#
# PCOD8107777 Si02
#       7
#     8   8   8   8   8   8   8
#     4  11  23  39  59  84 113 145 182 227 277 327
#     4  10  21  38  57  77 106 147 188 227 269 326
#     4   9  17  31  53  79 107 140 180 224 273 328
#     4  12  23  37  61  88 114 143 179 226 278 328
#     4   9  17  31  52  79 109 139 177 228 275 320
#     4   9  18  33  54  77 104 144 189 222 266 325
#     4  10  22  39  58  81 111 145 182 226 277 327
#
# _framework density 19.204999000000001
#
# number of rings (size 3 to 8) (size 9 to 14) (size 15 to 20)
#    0.000    2.000    1.429    2.571    0.000    5.714 
#    0.000    3.571    0.000    3.429    0.000    0.000 
#    0.000    0.000    0.000    0.000    0.000    0.000 
#
# Total GULP energy -347270.592346 kJ/mol
# GULP energy per Si atom -12402.521155 kJ/mol
# Density = 1.916129 g / cm^3
# Si number density = 19.204999 Si / 1000 Ang^3
#
#
#
# Elastic Constant Matrix: (Units=GPa)
#
#
# Indices 1 2 3 4 5 6 
#
# 1 156.6476 35.9213 86.2526 0.0000 20.0000 0.0000
# 2 35.9213 58.4671 37.1116 0.0000 6.7637 0.0000
# 3 86.2526 37.1116 144.9478 0.0000 10.2663 0.0000
# 4 0.0000 0.0000 0.0000 22.2857 0.0000 5.3613
# 5 20.0000 6.7637 10.2663 0.0000 19.2104 0.0000
# 6 0.0000 0.0000 0.0000 5.3613 0.0000 30.1966
#
#
#
# Elastic Compliance Matrix: (Units=1/GPa)
#
#
# Indices 1 2 3 4 5 6 
#
# 1 0.010812 -0.002415 -0.005278 0.000000 -0.007586 0.000000
# 2 -0.002415 0.021355 -0.003821 0.000000 -0.002963 0.000000
# 3 -0.005278 -0.003821 0.010948 0.000000 0.000990 0.000000
# 4 0.000000 0.000000 0.000000 0.046874 0.000000 -0.008322
# 5 -0.007586 -0.002963 0.000990 0.000000 0.060467 0.000000
# 6 0.000000 0.000000 0.000000 -0.008322 0.000000 0.034594
#
#
# Mechanical properties :
#
#
# Convention : Reuss Voigt Hill
#
# Bulk Modulus (GPa) = 49.78222 75.40373 62.59297
# Shear Modulus (GPa) = 23.28020 27.72368 25.50194
#
# Velocity S-wave (km/s) = 3.48544 3.80355 3.64796
# Velocity P-wave (km/s) = 6.49426 7.65749 7.09974
#
# Compressibility (1/GPa) = 0.02008749
#
# Stress axis : x y z
#
# Youngs Moduli (GPa) = 92.48598 46.82675 91.33944
#
# Poissons Ratio (x) = 0.11309 0.48213
# Poissons Ratio (y) = 0.22335 0.34899
# Poissons Ratio (z) = 0.48818 0.17891
#
# Static dielectric constant tensor:
#      x y z
#    x 3.727640 0.000000 0.013970 
#    y 0.000000 3.346670 0.000000 
#    z 0.013970 0.000000 3.610420 
# 
# 
# High freq. dielectric constant tensor:
#      x y z
#    x 1.763030 0.000000 0.003160 
#    y 0.000000 1.727280 0.000000 
#    z 0.003160 0.000000 1.741800 
# 
# From -- ./inp_files/337875.got.cif
#   From: 2010.06.25/outbox.cif.g09.slc.cpg/sg12_169_cif.got.tgz:337875.got - 2010.06.28 00:19:55.
