data_PCOD8107001
_publ_section_title
;
Structure prediction by ZEFSAII (Michael W. Deem and Ramdas Pophale) SiO2 
 PCOD8107001
Probable space group: C 2/M
;
_chemical_formula_sum "Si O2"
_cell_formula_units_Z 56
_cell_length_a 20.328299
_cell_length_b 12.797123
_cell_length_c 19.658159
_cell_angle_alpha 90.000000
_cell_angle_beta 151.416342
_cell_angle_gamma 90.000000
_cell_volume 2446.724085
_symmetry_space_group_name_H-M "C 2/M"
_symmetry_group_IT_number 12
_symmetry_cell_setting 'monoclinic'
loop_
_space_group_symop_operation_xyz
x,y,z
-x,y,-z
-x,-y,-z
x,-y,z
1/2+x,1/2+y,z
1/2-x,1/2+y,-z
1/2-x,1/2-y,-z
1/2+x,1/2-y,z
loop_
_atom_site_type_symbol
_atom_site_label
_atom_site_fract_x
_atom_site_fract_y
_atom_site_fract_z
Si Si1 0.137150 0.876864 0.582731
Si Si2 0.665011 0.624708 0.451599
Si Si3 0.845678 0.727524 0.867577
Si Si4 0.904381 0.875636 0.138582
Si Si5 0.281488 0.121188 0.152877
Si Si6 0.154569 0.620723 0.996611
Si Si7 0.467013 0.877527 0.710663
O O1 0.127172 0.843226 0.494753
O O2 0.274869 0.821390 0.736848
O O3 0.000000 0.843123 0.500000
O O4 0.160134 0.000000 0.610925
O O5 0.659123 0.500000 0.440770
O O6 0.551784 0.672753 0.295915
O O7 0.813574 0.669337 0.561642
O O8 0.743864 0.819458 0.799715
O O9 0.862652 0.637551 0.939458
O O10 0.000000 0.772883 0.000000
O O11 0.805769 0.842333 0.111237
O O12 0.915518 0.000000 0.141537
O O13 0.837264 0.834247 0.006774
O O14 0.435606 0.142364 0.265958
O O15 0.259030 0.000000 0.145710
O O16 0.141221 0.500000 0.967022
O O17 0.039559 0.674854 0.843270
O O18 0.446800 0.000000 0.705011
#
# Coordination Sequence:
#
# PCOD8107001 Si02
#       7
#     8   8   8   8   8   8   8
#     4  10  21  37  57  84 122 158 177 204 264 340
#     4   9  15  27  52  84 111 136 173 220 273 336
#     4  12  24  35  54  81 110 148 194 230 264 322
#     4   8  15  30  55  82 106 137 176 220 276 333
#     4   9  20  39  57  76 106 144 189 239 285 320
#     4   9  17  31  50  75 108 139 167 210 272 336
#     4   8  15  29  51  77 104 135 175 228 284 328
#
# _framework density 22.887747000000001
#
# number of rings (size 3 to 8) (size 9 to 14) (size 15 to 20)
#    0.000    2.714    0.000    3.857    0.000    7.143 
#    0.000    1.429    0.000    3.857    0.000    0.000 
#    0.000    2.286    0.000    0.000    0.000    0.000 
#
# Total GULP energy -347088.713627 kJ/mol
# GULP energy per Si atom -12396.025487 kJ/mol
# Density = 2.283565 g / cm^3
# Si number density = 22.887747 Si / 1000 Ang^3
#
#
#
# Elastic Constant Matrix: (Units=GPa)
#
#
# Indices 1 2 3 4 5 6 
#
# 1 63.5257 10.8659 36.4565 -0.0006 10.8554 -0.0003
# 2 10.8659 36.0714 38.9260 -0.0006 3.4087 -0.0003
# 3 36.4565 38.9260 159.5119 -0.0011 17.5939 -0.0006
# 4 -0.0006 -0.0006 -0.0011 32.7693 -0.0005 -0.6105
# 5 10.8554 3.4087 17.5939 -0.0005 35.9085 -0.0002
# 6 -0.0003 -0.0003 -0.0006 -0.6105 -0.0002 20.8955
#
#
#
# Elastic Compliance Matrix: (Units=1/GPa)
#
#
# Indices 1 2 3 4 5 6 
#
# 1 0.018641 -0.001508 -0.003474 0.000000 -0.003790 0.000000
# 2 -0.001508 0.037788 -0.009019 0.000000 0.001288 0.000000
# 3 -0.003474 -0.009019 0.009571 0.000000 -0.002783 0.000000
# 4 0.000000 0.000000 0.000000 0.030533 0.000000 0.000892
# 5 -0.003790 0.001288 -0.002783 0.000000 0.030236 0.000000
# 6 0.000000 0.000000 0.000000 0.000892 0.000000 0.047883
#
#
# Mechanical properties :
#
#
# Convention : Reuss Voigt Hill
#
# Bulk Modulus (GPa) = 26.31728 47.95622 37.13675
# Shear Modulus (GPa) = 23.22123 29.43869 26.32996
#
# Velocity S-wave (km/s) = 3.18869 3.59028 3.39543
# Velocity P-wave (km/s) = 5.00803 6.17941 5.62430
#
# Compressibility (1/GPa) = 0.03799785
#
# Stress axis : x y z
#
# Youngs Moduli (GPa) = 53.64480 26.46351 104.48149
#
# Poissons Ratio (x) = 0.03990 0.36302
# Poissons Ratio (y) = 0.08088 0.94231
# Poissons Ratio (z) = 0.18639 0.23867
#
# Static dielectric constant tensor:
#      x y z
#    x 3.818030 0.000000 0.189980 
#    y 0.000000 4.103010 0.000000 
#    z 0.189980 0.000000 4.501000 
# 
# 
# High freq. dielectric constant tensor:
#      x y z
#    x 1.870970 0.000000 0.010820 
#    y 0.000000 1.928890 0.000000 
#    z 0.010820 0.000000 1.915200 
# 
# From -- ./inp_files/96269.got.cif
#   From: 2010.06.25/outbox.cif.g09.slc.cpg/sg12_49_cif.got.tgz:96269.got - 2010.06.28 00:19:55.
