data_PCOD8107593
_publ_section_title
;
Structure prediction by ZEFSAII (Michael W. Deem and Ramdas Pophale) SiO2 
 PCOD8107593
Probable space group: C 2/M
;
_chemical_formula_sum "Si O2"
_cell_formula_units_Z 40
_cell_length_a 21.492218
_cell_length_b 8.814112
_cell_length_c 10.718804
_cell_angle_alpha 90.000000
_cell_angle_beta 71.752222
_cell_angle_gamma 90.000000
_cell_volume 1928.402666
_symmetry_space_group_name_H-M "C 2/M"
_symmetry_group_IT_number 12
_symmetry_cell_setting 'monoclinic'
loop_
_space_group_symop_operation_xyz
x,y,z
-x,y,-z
-x,-y,-z
x,-y,z
1/2+x,1/2+y,z
1/2-x,1/2+y,-z
1/2-x,1/2-y,-z
1/2+x,1/2-y,z
loop_
_atom_site_type_symbol
_atom_site_label
_atom_site_fract_x
_atom_site_fract_y
_atom_site_fract_z
Si Si1 0.160544 0.670428 0.534159
Si Si2 0.311007 0.175917 0.032307
Si Si3 0.952693 0.822866 0.915565
Si Si4 0.228885 0.169683 0.704940
Si Si5 0.469445 0.331090 0.383172
O O1 0.172251 0.500000 0.578751
O O2 0.190740 0.801208 0.600956
O O3 0.193665 0.684192 0.375571
O O4 0.084230 0.700995 0.574064
O O5 0.295434 0.202073 0.186478
O O6 0.312697 0.000000 0.997810
O O7 0.250000 0.250000 0.000000
O O8 0.382083 0.243549 0.958430
O O9 0.982857 0.786237 0.760937
O O10 0.940172 0.000000 0.942880
O O11 0.000000 0.764455 0.000000
O O12 0.212385 0.000000 0.764913
O O13 0.500000 0.331923 0.500000
O O14 0.441327 0.500000 0.372829
#
# Coordination Sequence:
#
# PCOD8107593 Si02
#       5
#     8   8   8   8   8
#     4  10  21  37  61  92 123 160 204 253 307 366
#     4  12  26  42  64  93 128 167 212 265 320 376
#     4  10  22  42  66  92 126 170 215 261 317 385
#     4  10  21  39  62  90 124 162 204 251 308 372
#     4  10  22  38  59  89 124 164 206 255 315 375
#
# _framework density 20.742556
#
# number of rings (size 3 to 8) (size 9 to 14) (size 15 to 20)
#    0.000    1.600    0.000    4.200    2.800    5.600 
#    0.000    0.000    0.000    0.000    0.000    0.000 
#    0.000    0.000    0.000    0.000    0.000    0.000 
#
# Total GULP energy -247866.997353 kJ/mol
# GULP energy per Si atom -12393.349868 kJ/mol
# Density = 2.069534 g / cm^3
# Si number density = 20.742556 Si / 1000 Ang^3
#
#
#
# Elastic Constant Matrix: (Units=GPa)
#
#
# Indices 1 2 3 4 5 6 
#
# 1 129.8215 58.1163 56.7167 0.0000 -25.6869 0.0000
# 2 58.1163 97.2646 42.5002 0.0000 -20.6698 0.0000
# 3 56.7167 42.5002 138.9854 0.0000 -15.2504 0.0000
# 4 0.0000 0.0000 0.0000 3.6129 0.0000 -23.4674
# 5 -25.6869 -20.6698 -15.2504 0.0000 32.4560 0.0000
# 6 0.0000 0.0000 0.0000 -23.4674 0.0000 21.3156
#
#
#
# Elastic Compliance Matrix: (Units=1/GPa)
#
#
# Indices 1 2 3 4 5 6 
#
# 1 0.012195 -0.004922 -0.002906 0.000000 0.005152 0.000000
# 2 -0.004922 0.015154 -0.002102 0.000000 0.004768 0.000000
# 3 -0.002906 -0.002102 0.009093 0.000000 0.000634 0.000000
# 4 0.000000 0.000000 0.000000 -0.044998 0.000000 -0.049540
# 5 0.005152 0.004768 0.000634 0.000000 0.038222 0.000000
# 6 0.000000 0.000000 0.000000 -0.049540 0.000000 -0.007627
#
#
# Mechanical properties :
#
#
# Convention : Reuss Voigt Hill
#
# Bulk Modulus (GPa) = 60.30807 75.63754 67.97281
# Shear Modulus (GPa) = 105.42195 25.39279 65.40737
#
# Velocity S-wave (km/s) = 7.13683 3.50264 5.62151
# Velocity P-wave (km/s) = 9.85140 7.27338 8.65887
#
# Compressibility (1/GPa) = 0.01658153
#
# Stress axis : x y z
#
# Youngs Moduli (GPa) = 81.99863 65.98933 109.97057
#
# Poissons Ratio (x) = 0.32481 0.31960
# Poissons Ratio (y) = 0.40361 0.23118
# Poissons Ratio (z) = 0.23831 0.13872
#
# Static dielectric constant tensor:
#      x y z
#    x 3.252330 0.000000 -0.349580 
#    y 0.000000 3.825360 0.000000 
#    z -0.349580 0.000000 3.950780 
# 
# 
# High freq. dielectric constant tensor:
#      x y z
#    x 1.806630 0.000000 -0.011540 
#    y 0.000000 1.811800 0.000000 
#    z -0.011540 0.000000 1.823410 
# 
# From -- ./inp_files/162370.got.cif
#   From: 2010.06.25/outbox.cif.g09.slc.cpg/sg12_82_cif.got.tgz:162370.got - 2010.06.28 00:19:55.
