data_PCOD8107834
_publ_section_title
;
Structure prediction by ZEFSAII (Michael W. Deem and Ramdas Pophale) SiO2 
 PCOD8107834
Probable space group: C 2/M
;
_chemical_formula_sum "Si O2"
_cell_formula_units_Z 56
_cell_length_a 28.566230
_cell_length_b 9.027500
_cell_length_c 13.244510
_cell_angle_alpha 90.000000
_cell_angle_beta 122.349266
_cell_angle_gamma 90.000000
_cell_volume 2885.434919
_symmetry_space_group_name_H-M "C 2/M"
_symmetry_group_IT_number 12
_symmetry_cell_setting 'monoclinic'
loop_
_space_group_symop_operation_xyz
x,y,z
-x,y,-z
-x,-y,-z
x,-y,z
1/2+x,1/2+y,z
1/2-x,1/2+y,-z
1/2-x,1/2-y,-z
1/2+x,1/2-y,z
loop_
_atom_site_type_symbol
_atom_site_label
_atom_site_fract_x
_atom_site_fract_y
_atom_site_fract_z
Si Si1 0.806312 0.670913 0.287083
Si Si2 0.530221 0.670110 0.822149
Si Si3 0.810547 0.831845 0.934998
Si Si4 0.095957 0.325516 0.067698
Si Si5 0.373841 0.670474 0.208461
Si Si6 0.797390 0.175086 0.488696
Si Si7 0.090773 0.829995 0.270881
O O1 0.815256 0.500000 0.326329
O O2 0.754548 0.695023 0.152545
O O3 0.860334 0.730510 0.290598
O O4 0.794594 0.764080 0.373034
O O5 0.544966 0.500000 0.863931
O O6 0.565483 0.717347 0.763851
O O7 0.464905 0.692001 0.726224
O O8 0.548241 0.763385 0.940083
O O9 0.843220 0.726286 0.896070
O O10 0.826487 0.000000 0.924881
O O11 0.827985 0.797515 0.069640
O O12 0.093061 0.500000 0.060974
O O13 0.085048 0.272998 0.167889
O O14 0.372823 0.500000 0.241616
O O15 0.750000 0.250000 0.500000
O O16 0.857095 0.218676 0.602345
O O17 0.787685 0.000000 0.476814
O O18 0.096755 0.000000 0.242458
#
# Coordination Sequence:
#
# PCOD8107834 Si02
#       7
#     8   8   8   8   8   8   8
#     4  11  22  36  56  81 110 145 182 221 270 323
#     4   9  19  37  58  79 107 144 183 221 263 318
#     4   9  19  35  54  78 110 148 185 218 260 322
#     4  11  21  31  51  85 117 142 173 220 276 325
#     4   9  18  34  56  81 108 138 177 225 270 314
#     4  11  24  41  60  82 108 140 181 226 269 316
#     4  10  21  38  58  77 103 145 189 223 262 318
#
# _framework density 19.407819
#
# number of rings (size 3 to 8) (size 9 to 14) (size 15 to 20)
#    0.000    2.000    0.000    4.714    0.000   10.286 
#    0.000    0.714    0.000    4.286    0.000    0.000 
#    0.000    0.000    0.000    0.000    0.000    0.000 
#
# Total GULP energy -347247.439808 kJ/mol
# GULP energy per Si atom -12401.694279 kJ/mol
# Density = 1.936365 g / cm^3
# Si number density = 19.407819 Si / 1000 Ang^3
#
#
#
# Elastic Constant Matrix: (Units=GPa)
#
#
# Indices 1 2 3 4 5 6 
#
# 1 129.5293 60.9775 61.7707 0.0000 -1.5629 0.0000
# 2 60.9775 97.6493 40.4586 0.0000 -4.2335 0.0000
# 3 61.7707 40.4586 65.1923 0.0000 -4.3895 0.0000
# 4 0.0000 0.0000 0.0000 23.5728 0.0000 -7.0125
# 5 -1.5629 -4.2335 -4.3895 0.0000 32.5024 0.0000
# 6 0.0000 0.0000 0.0000 -7.0125 0.0000 30.4470
#
#
#
# Elastic Compliance Matrix: (Units=1/GPa)
#
#
# Indices 1 2 3 4 5 6 
#
# 1 0.015713 -0.004936 -0.011926 0.000000 -0.001498 0.000000
# 2 -0.004936 0.015349 -0.004774 0.000000 0.001117 0.000000
# 3 -0.011926 -0.004774 0.029793 0.000000 0.002828 0.000000
# 4 0.000000 0.000000 0.000000 0.045542 0.000000 0.010489
# 5 -0.001498 0.001117 0.002828 0.000000 0.031222 0.000000
# 6 0.000000 0.000000 0.000000 0.010489 0.000000 0.035260
#
#
# Mechanical properties :
#
#
# Convention : Reuss Voigt Hill
#
# Bulk Modulus (GPa) = 56.87186 68.75382 62.81284
# Shear Modulus (GPa) = 22.52128 25.91537 24.21833
#
# Velocity S-wave (km/s) = 3.41019 3.65815 3.53634
# Velocity P-wave (km/s) = 6.69874 7.30380 7.00780
#
# Compressibility (1/GPa) = 0.01758339
#
# Stress axis : x y z
#
# Youngs Moduli (GPa) = 63.64074 65.14970 33.56538
#
# Poissons Ratio (x) = 0.32156 0.40031
# Poissons Ratio (y) = 0.31412 0.16024
# Poissons Ratio (z) = 0.75899 0.31102
#
# Static dielectric constant tensor:
#      x y z
#    x 3.740910 0.000000 0.122660 
#    y 0.000000 3.515480 0.000000 
#    z 0.122660 0.000000 3.357050 
# 
# 
# High freq. dielectric constant tensor:
#      x y z
#    x 1.768890 0.000000 0.000340 
#    y 0.000000 1.753490 0.000000 
#    z 0.000340 0.000000 1.732280 
# 
# From -- ./inp_files/180665.got.cif
#   From: 2010.06.25/outbox.cif.g09.slc.cpg/sg12_91_cif.got.tgz:180665.got - 2010.06.28 00:19:55.
