data_PCOD8107930
_publ_section_title
;
Structure prediction by ZEFSAII (Michael W. Deem and Ramdas Pophale) SiO2 
 PCOD8107930
Probable space group: C 2/M
;
_chemical_formula_sum "Si O2"
_cell_formula_units_Z 32
_cell_length_a 28.331013
_cell_length_b 8.907976
_cell_length_c 6.902731
_cell_angle_alpha 90.000000
_cell_angle_beta 89.365114
_cell_angle_gamma 90.000000
_cell_volume 1741.948968
_symmetry_space_group_name_H-M "C 2/M"
_symmetry_group_IT_number 12
_symmetry_cell_setting 'monoclinic'
loop_
_space_group_symop_operation_xyz
x,y,z
-x,y,-z
-x,-y,-z
x,-y,z
1/2+x,1/2+y,z
1/2-x,1/2+y,-z
1/2-x,1/2-y,-z
1/2+x,1/2-y,z
loop_
_atom_site_type_symbol
_atom_site_label
_atom_site_fract_x
_atom_site_fract_y
_atom_site_fract_z
Si Si1 0.374896 0.670645 0.688529
Si Si2 0.053747 0.825762 0.981721
Si Si3 0.300138 0.325778 0.018232
Si Si4 0.873173 0.675943 0.287588
O O1 0.375468 0.500000 0.610207
O O2 0.421330 0.702727 0.813904
O O3 0.328615 0.700052 0.819054
O O4 0.374720 0.786589 0.513717
O O5 0.057549 0.000000 0.922462
O O6 0.078468 0.731069 0.812266
O O7 0.000000 0.771739 0.000000
O O8 0.293612 0.500000 0.064524
O O9 0.250000 0.250000 0.000000
O O10 0.327762 0.254627 0.196777
O O11 0.868036 0.500000 0.258332
#
# Coordination Sequence:
#
# PCOD8107930 Si02
#       4
#     8   8   8   8
#     4   9  19  36  56  78 106 141 180 220 264 318
#     4   9  19  37  59  80 105 141 183 225 268 316
#     4  10  21  38  59  81 107 140 179 223 268 316
#     4  11  22  35  54  80 111 144 177 219 268 318
#
# _framework density 18.370228000000001
#
# number of rings (size 3 to 8) (size 9 to 14) (size 15 to 20)
#    0.000    2.250    0.000    4.500    0.000    7.500 
#    0.000    5.000    0.000    0.000    0.000    0.000 
#    0.000    0.000    0.000    0.000    0.000    0.000 
#
# Total GULP energy -198467.347010 kJ/mol
# GULP energy per Si atom -12404.209188 kJ/mol
# Density = 1.832842 g / cm^3
# Si number density = 18.370228 Si / 1000 Ang^3
#
#
#
# Elastic Constant Matrix: (Units=GPa)
#
#
# Indices 1 2 3 4 5 6 
#
# 1 173.5155 68.6604 56.8260 0.0000 6.0630 0.0000
# 2 68.6604 125.3009 59.7424 0.0000 -0.4688 0.0000
# 3 56.8260 59.7424 105.3720 0.0000 2.5780 0.0000
# 4 0.0000 0.0000 0.0000 27.8285 0.0000 -0.7713
# 5 6.0630 -0.4688 2.5780 0.0000 11.3686 0.0000
# 6 0.0000 0.0000 0.0000 -0.7713 0.0000 32.5937
#
#
#
# Elastic Compliance Matrix: (Units=1/GPa)
#
#
# Indices 1 2 3 4 5 6 
#
# 1 0.007954 -0.003252 -0.002352 0.000000 -0.003843 0.000000
# 2 -0.003252 0.012306 -0.005308 0.000000 0.003445 0.000000
# 3 -0.002352 -0.005308 0.013819 0.000000 -0.002098 0.000000
# 4 0.000000 0.000000 0.000000 0.035958 0.000000 0.000851
# 5 -0.003843 0.003445 -0.002098 0.000000 0.090629 0.000000
# 6 0.000000 0.000000 0.000000 0.000851 0.000000 0.030701
#
#
# Mechanical properties :
#
#
# Convention : Reuss Voigt Hill
#
# Bulk Modulus (GPa) = 81.58837 86.07177 83.83007
# Shear Modulus (GPa) = 23.01211 28.95546 25.98378
#
# Velocity S-wave (km/s) = 3.54317 3.97447 3.76500
# Velocity P-wave (km/s) = 7.82614 8.24727 8.03947
#
# Compressibility (1/GPa) = 0.01225665
#
# Stress axis : x y z
#
# Youngs Moduli (GPa) = 125.71543 81.25951 72.36176
#
# Poissons Ratio (x) = 0.26423 0.17021
# Poissons Ratio (y) = 0.40878 0.38409
# Poissons Ratio (z) = 0.29570 0.43132
#
# Static dielectric constant tensor:
#      x y z
#    x 3.527540 0.000000 0.032860 
#    y 0.000000 3.356200 0.000000 
#    z 0.032860 0.000000 3.254780 
# 
# 
# High freq. dielectric constant tensor:
#      x y z
#    x 1.718650 0.000000 0.002420 
#    y 0.000000 1.713950 0.000000 
#    z 0.002420 0.000000 1.710180 
# 
# From -- ./inp_files/30056.got.cif
#   From: 2010.06.25/outbox.cif.g09.slc.cpg/sg12_16_cif.got.tgz:30056.got - 2010.06.28 00:19:55.
