data_PCOD8107083
_publ_section_title
;
Structure prediction by ZEFSAII (Michael W. Deem and Ramdas Pophale) SiO2 
 PCOD8107083
Probable space group: C 2/M
;
_chemical_formula_sum "Si O2"
_cell_formula_units_Z 40
_cell_length_a 14.723169
_cell_length_b 11.586405
_cell_length_c 25.972920
_cell_angle_alpha 90.000000
_cell_angle_beta 152.195377
_cell_angle_gamma 90.000000
_cell_volume 2066.728068
_symmetry_space_group_name_H-M "C 2/M"
_symmetry_group_IT_number 12
_symmetry_cell_setting 'monoclinic'
loop_
_space_group_symop_operation_xyz
x,y,z
-x,y,-z
-x,-y,-z
x,-y,z
1/2+x,1/2+y,z
1/2-x,1/2+y,-z
1/2-x,1/2-y,-z
1/2+x,1/2-y,z
loop_
_atom_site_type_symbol
_atom_site_label
_atom_site_fract_x
_atom_site_fract_y
_atom_site_fract_z
Si Si1 0.220168 0.364237 0.114415
Si Si2 0.218536 0.000000 0.049918
Si Si3 0.035049 0.288125 0.836735
Si Si4 0.131703 0.865401 0.613143
Si Si5 0.235274 0.000000 0.179844
Si Si6 0.719243 0.759547 0.753113
O O1 0.223514 0.500000 0.109509
O O2 0.356533 0.313432 0.138600
O O3 0.303202 0.328630 0.211210
O O4 0.000000 0.314825 0.000000
O O5 0.312876 0.112676 0.071602
O O6 0.268167 0.000000 0.135483
O O7 0.993160 0.000000 0.923938
O O8 0.859622 0.342941 0.713987
O O9 0.942256 0.240249 0.843380
O O10 0.077165 0.788347 0.636468
O O11 0.000000 0.822031 0.500000
O O12 0.094581 0.000000 0.606296
O O13 0.335808 0.888205 0.256018
#
# Coordination Sequence:
#
# PCOD8107083 Si02
#       6
#     8   4   8   8   4   8
#     4  11  23  37  55  84 123 156 186 232 289 347
#     4  11  20  36  55  85 113 163 190 230 276 351
#     4  10  21  37  58  83 115 148 199 236 278 343
#     4   9  19  39  64  85 110 151 199 245 289 338
#     4  11  22  34  57  81 125 151 190 234 288 333
#     4  10  22  38  57  84 114 152 193 239 281 344
#
# _framework density 19.354261999999999
#
# number of rings (size 3 to 8) (size 9 to 14) (size 15 to 20)
#    1.200    0.600    3.000    1.800    2.800    3.200 
#    0.000    1.500    0.000    0.000    0.000    0.000 
#    0.000    0.000    0.000    0.000    0.000    0.000 
#
# Total GULP energy -247887.150243 kJ/mol
# GULP energy per Si atom -12394.357512 kJ/mol
# Density = 1.931021 g / cm^3
# Si number density = 19.354262 Si / 1000 Ang^3
#
#
#
# Elastic Constant Matrix: (Units=GPa)
#
#
# Indices 1 2 3 4 5 6 
#
# 1 46.0162 10.6772 -26.5980 -0.0004 -2.9063 0.0000
# 2 10.6772 85.2711 15.4353 0.0004 -14.1216 -0.0003
# 3 -26.5980 15.4353 54.9804 -0.0014 -11.9196 0.0001
# 4 -0.0004 0.0004 -0.0014 19.1271 -0.0001 6.6833
# 5 -2.9063 -14.1216 -11.9196 -0.0001 26.9239 -0.0001
# 6 0.0000 -0.0003 0.0001 6.6833 -0.0001 12.9337
#
#
#
# Elastic Compliance Matrix: (Units=1/GPa)
#
#
# Indices 1 2 3 4 5 6 
#
# 1 0.036534 -0.006861 0.021764 0.000003 0.009980 -0.000002
# 2 -0.006861 0.014418 -0.006513 -0.000001 0.003938 0.000001
# 3 0.021764 -0.006513 0.033533 0.000004 0.013779 -0.000002
# 4 0.000003 -0.000001 0.000004 0.063801 0.000002 -0.032969
# 5 0.009980 0.003938 0.013779 0.000002 0.046384 -0.000001
# 6 -0.000002 0.000001 -0.000002 -0.032969 -0.000001 0.094353
#
#
# Mechanical properties :
#
#
# Convention : Reuss Voigt Hill
#
# Bulk Modulus (GPa) = 9.87529 20.58852 15.23191
# Shear Modulus (GPa) = 16.33992 24.24715 20.29353
#
# Velocity S-wave (km/s) = 2.90876 3.54334 3.24162
# Velocity P-wave (km/s) = 4.04903 5.23461 4.67952
#
# Compressibility (1/GPa) = 0.10126288
#
# Stress axis : x y z
#
# Youngs Moduli (GPa) = 27.37191 69.35967 29.82152
#
# Poissons Ratio (x) = 0.47591 -0.64904
# Poissons Ratio (y) = 0.18781 0.19424
# Poissons Ratio (z) = -0.59572 0.45176
#
# Static dielectric constant tensor:
#      x y z
#    x 3.424390 0.000000 -0.057200 
#    y 0.000000 3.461250 0.000000 
#    z -0.057200 0.000000 3.290530 
# 
# 
# High freq. dielectric constant tensor:
#      x y z
#    x 1.749810 0.000000 -0.012280 
#    y 0.000000 1.760370 0.000000 
#    z -0.012280 0.000000 1.723240 
# 
# From -- ./inp_files/339706.got.cif
#   From: 2010.06.25/outbox.cif.g09.slc.cpg/sg12_170_cif.got.tgz:339706.got - 2010.06.28 00:19:55.
