data_PCOD8107508
_publ_section_title
;
Structure prediction by ZEFSAII (Michael W. Deem and Ramdas Pophale) SiO2 
 PCOD8107508
Probable space group: C 2/M
;
_chemical_formula_sum "Si O2"
_cell_formula_units_Z 64
_cell_length_a 21.220021
_cell_length_b 19.618978
_cell_length_c 9.357741
_cell_angle_alpha 90.000000
_cell_angle_beta 55.021493
_cell_angle_gamma 90.000000
_cell_volume 3192.065232
_symmetry_space_group_name_H-M "C 2/M"
_symmetry_group_IT_number 12
_symmetry_cell_setting 'monoclinic'
loop_
_space_group_symop_operation_xyz
x,y,z
-x,y,-z
-x,-y,-z
x,-y,z
1/2+x,1/2+y,z
1/2-x,1/2+y,-z
1/2-x,1/2-y,-z
1/2+x,1/2-y,z
loop_
_atom_site_type_symbol
_atom_site_label
_atom_site_fract_x
_atom_site_fract_y
_atom_site_fract_z
Si Si1 0.684154 0.804655 0.790139
Si Si2 0.786457 0.076002 0.656397
Si Si3 0.083462 0.721751 0.656337
Si Si4 0.410082 0.226430 0.848495
Si Si5 0.810914 0.696080 0.720794
Si Si6 0.417933 0.624406 0.298500
Si Si7 0.771210 0.923820 0.005550
Si Si8 0.910629 0.124863 0.979609
O O1 0.730006 0.867871 0.659797
O O2 0.613688 0.785874 0.777859
O O3 0.741170 0.742144 0.754154
O O4 0.642800 0.826415 0.992035
O O5 0.868102 0.076535 0.467933
O O6 0.752277 0.000000 0.684585
O O7 0.790251 0.097261 0.817950
O O8 0.138930 0.677258 0.482972
O O9 0.086231 0.802135 0.619581
O O10 0.996468 0.696786 0.739299
O O11 0.371557 0.236089 0.743616
O O12 0.404166 0.297649 0.937692
O O13 0.783046 0.629106 0.840160
O O14 0.504951 0.597229 0.170685
O O15 0.386776 0.624516 0.177241
O O16 0.735194 0.000000 0.060606
O O17 0.853239 0.925557 0.975559
#
# Coordination Sequence:
#
# PCOD8107508 Si02
#       8
#     8   8   8   8   8   8   8   8
#     4  12  21  38  65  91 122 158 204 254 302 354
#     4  11  25  41  59  86 121 162 202 247 302 358
#     4  11  23  36  61  96 127 154 196 256 310 353
#     4  11  21  38  62  91 127 157 197 250 308 361
#     4  12  22  38  63  94 121 159 208 250 301 355
#     4  10  21  38  58  90 127 156 194 245 300 366
#     4  11  24  41  59  84 120 162 202 250 303 358
#     4  10  21  37  60  90 123 160 196 239 303 363
#
# _framework density 20.049714999999999
#
# number of rings (size 3 to 8) (size 9 to 14) (size 15 to 20)
#    0.000    1.000    5.000    2.250    1.750    1.500 
#    0.000    2.500    0.000    4.500    0.000    0.000 
#    0.000    0.000    0.000    0.000    0.000    0.000 
#
# Total GULP energy -396573.295864 kJ/mol
# GULP energy per Si atom -12392.915496 kJ/mol
# Density = 2.000408 g / cm^3
# Si number density = 20.049715 Si / 1000 Ang^3
#
#
#
# Elastic Constant Matrix: (Units=GPa)
#
#
# Indices 1 2 3 4 5 6 
#
# 1 105.0095 12.1655 18.7351 0.0000 -2.6904 0.0000
# 2 12.1655 73.6914 31.1531 0.0000 -7.9828 0.0000
# 3 18.7351 31.1531 113.1517 0.0000 -10.3626 0.0000
# 4 0.0000 0.0000 0.0000 26.1195 0.0000 -1.9685
# 5 -2.6904 -7.9828 -10.3626 0.0000 32.3813 0.0000
# 6 0.0000 0.0000 0.0000 -1.9685 0.0000 16.3651
#
#
#
# Elastic Compliance Matrix: (Units=1/GPa)
#
#
# Indices 1 2 3 4 5 6 
#
# 1 0.009887 -0.001053 -0.001335 0.000000 0.000135 0.000000
# 2 -0.001053 0.015670 -0.003909 0.000000 0.002525 0.000000
# 3 -0.001335 -0.003909 0.010339 0.000000 0.002234 0.000000
# 4 0.000000 0.000000 0.000000 0.038636 0.000000 0.004647
# 5 0.000135 0.002525 0.002234 0.000000 0.032231 0.000000
# 6 0.000000 0.000000 0.000000 0.004647 0.000000 0.061665
#
#
# Mechanical properties :
#
#
# Convention : Reuss Voigt Hill
#
# Bulk Modulus (GPa) = 42.91357 46.21777 44.56567
# Shear Modulus (GPa) = 26.48476 30.29310 28.38893
#
# Velocity S-wave (km/s) = 3.63844 3.89125 3.76696
# Velocity P-wave (km/s) = 6.25308 6.57957 6.41840
#
# Compressibility (1/GPa) = 0.02330265
#
# Stress axis : x y z
#
# Youngs Moduli (GPa) = 101.14760 63.81671 96.71714
#
# Poissons Ratio (x) = 0.06722 0.12908
# Poissons Ratio (y) = 0.10654 0.37803
# Poissons Ratio (z) = 0.13499 0.24944
#
# Static dielectric constant tensor:
#      x y z
#    x 3.893930 0.000000 -0.130590 
#    y 0.000000 3.303580 0.000000 
#    z -0.130590 0.000000 3.844350 
# 
# 
# High freq. dielectric constant tensor:
#      x y z
#    x 1.787400 0.000000 0.003390 
#    y 0.000000 1.744420 0.000000 
#    z 0.003390 0.000000 1.798500 
# 
# From -- ./inp_files/89589.got.cif
#   From: 2010.06.25/outbox.cif.g09.slc.cpg/sg12_45_cif.got.tgz:89589.got - 2010.06.28 00:19:55.
