data_PCOD8107694
_publ_section_title
;
Structure prediction by ZEFSAII (Michael W. Deem and Ramdas Pophale) SiO2 
 PCOD8107694
Probable space group: C 2/M
;
_chemical_formula_sum "Si O2"
_cell_formula_units_Z 56
_cell_length_a 22.099633
_cell_length_b 14.836653
_cell_length_c 13.780467
_cell_angle_alpha 90.000000
_cell_angle_beta 32.496302
_cell_angle_gamma 90.000000
_cell_volume 2427.490051
_symmetry_space_group_name_H-M "C 2/M"
_symmetry_group_IT_number 12
_symmetry_cell_setting 'monoclinic'
loop_
_space_group_symop_operation_xyz
x,y,z
-x,y,-z
-x,-y,-z
x,-y,z
1/2+x,1/2+y,z
1/2-x,1/2+y,-z
1/2-x,1/2-y,-z
1/2+x,1/2-y,z
loop_
_atom_site_type_symbol
_atom_site_label
_atom_site_fract_x
_atom_site_fract_y
_atom_site_fract_z
Si Si1 0.431825 0.100912 0.284777
Si Si2 0.401923 0.265989 0.203216
Si Si3 0.820131 0.657840 0.007059
Si Si4 0.393190 0.606732 0.585682
Si Si5 0.533593 0.402209 0.720114
Si Si6 0.787947 0.136488 0.040570
Si Si7 0.233408 0.398440 0.327171
O O1 0.363619 0.173477 0.309675
O O2 0.564816 0.118924 0.105494
O O3 0.386369 0.107971 0.456559
O O4 0.409938 0.000000 0.272987
O O5 0.451862 0.334941 0.212214
O O6 0.307958 0.317598 0.269423
O O7 0.500000 0.233960 0.000000
O O8 0.789266 0.609159 0.946994
O O9 0.723068 0.645826 0.217960
O O10 0.834000 0.762601 0.968308
O O11 0.500000 0.646387 0.500000
O O12 0.391980 0.500000 0.595869
O O13 0.406525 0.638168 0.456403
O O14 0.587260 0.500000 0.672890
O O15 0.401263 0.421669 0.882371
O O16 0.717248 0.118258 0.234331
O O17 0.284618 0.500000 0.273756
#
# Coordination Sequence:
#
# PCOD8107694 Si02
#       7
#     8   8   8   8   8   8   8
#     4  11  26  46  67  96 139 184 226 271 334 414
#     4  12  24  45  72  98 130 174 225 288 342 392
#     4  11  23  42  66  99 142 185 221 268 333 407
#     4  10  21  37  63  95 129 174 224 277 330 384
#     4  11  22  39  66 101 132 167 221 281 341 393
#     4  11  23  39  67 103 138 177 222 274 338 398
#     4  11  25  45  70 101 134 177 229 283 341 400
#
# _framework density 23.069095000000001
#
# number of rings (size 3 to 8) (size 9 to 14) (size 15 to 20)
#    0.000    1.000    4.286    1.714    2.000    3.143 
#    2.571    1.429    0.000    0.000    0.000    0.000 
#    0.000    0.000    0.000    0.000    0.000    0.000 
#
# Total GULP energy -347157.394808 kJ/mol
# GULP energy per Si atom -12398.478386 kJ/mol
# Density = 2.301659 g / cm^3
# Si number density = 23.069095 Si / 1000 Ang^3
#
#
#
# Elastic Constant Matrix: (Units=GPa)
#
#
# Indices 1 2 3 4 5 6 
#
# 1 80.4708 27.9023 24.5143 0.0000 22.7877 0.0000
# 2 27.9023 103.6123 14.4022 0.0000 14.4334 0.0000
# 3 24.5143 14.4022 126.7506 0.0000 22.2437 0.0000
# 4 0.0000 0.0000 0.0000 25.2544 0.0000 15.8742
# 5 22.7877 14.4334 22.2437 0.0000 42.2430 0.0000
# 6 0.0000 0.0000 0.0000 15.8742 0.0000 -37.9318
#
#
#
# Elastic Compliance Matrix: (Units=1/GPa)
#
#
# Indices 1 2 3 4 5 6 
#
# 1 0.015874 -0.003130 -0.001542 0.000000 -0.006682 0.000000
# 2 -0.003130 0.010792 -0.000298 0.000000 -0.001842 0.000000
# 3 -0.001542 -0.000298 0.008878 0.000000 -0.003741 0.000000
# 4 0.000000 0.000000 0.000000 0.031350 0.000000 0.013120
# 5 -0.006682 -0.001842 -0.003741 0.000000 0.029877 0.000000
# 6 0.000000 0.000000 0.000000 0.013120 0.000000 -0.020873
#
#
# Mechanical properties :
#
#
# Convention : Reuss Voigt Hill
#
# Bulk Modulus (GPa) = 39.05351 49.38568 44.21959
# Shear Modulus (GPa) = 52.98164 22.18079 37.58122
#
# Velocity S-wave (km/s) = 4.79754 3.10416 4.04056
# Velocity P-wave (km/s) = 6.90320 5.85679 6.40141
#
# Compressibility (1/GPa) = 0.02560589
#
# Stress axis : x y z
#
# Youngs Moduli (GPa) = 62.99642 92.65960 112.63623
#
# Poissons Ratio (x) = 0.28999 0.17367
# Poissons Ratio (y) = 0.19716 0.03353
# Poissons Ratio (z) = 0.09713 0.02758
#
# Static dielectric constant tensor:
#      x y z
#    x 4.225170 0.000000 0.293010 
#    y 0.000000 4.351320 0.000000 
#    z 0.293010 0.000000 4.232690 
# 
# 
# High freq. dielectric constant tensor:
#      x y z
#    x 1.896980 0.000000 0.020150 
#    y 0.000000 1.922550 0.000000 
#    z 0.020150 0.000000 1.916220 
# 
# From -- ./inp_files/240910.got.cif
#   From: 2010.06.25/outbox.cif.g09.slc.cpg/sg12_121_cif.got.tgz:240910.got - 2010.06.28 00:19:55.
