data_PCOD8107919
_publ_section_title
;
Structure prediction by ZEFSAII (Michael W. Deem and Ramdas Pophale) SiO2 
 PCOD8107919
Probable space group: C 2/M
;
_chemical_formula_sum "Si O2"
_cell_formula_units_Z 40
_cell_length_a 21.172944
_cell_length_b 12.020462
_cell_length_c 8.203315
_cell_angle_alpha 90.000000
_cell_angle_beta 57.451019
_cell_angle_gamma 90.000000
_cell_volume 1759.884803
_symmetry_space_group_name_H-M "C 2/M"
_symmetry_group_IT_number 12
_symmetry_cell_setting 'monoclinic'
loop_
_space_group_symop_operation_xyz
x,y,z
-x,y,-z
-x,-y,-z
x,-y,z
1/2+x,1/2+y,z
1/2-x,1/2+y,-z
1/2-x,1/2-y,-z
1/2+x,1/2-y,z
loop_
_atom_site_type_symbol
_atom_site_label
_atom_site_fract_x
_atom_site_fract_y
_atom_site_fract_z
Si Si1 0.828691 0.131213 0.807304
Si Si2 0.240282 0.625468 0.244347
Si Si3 0.078689 0.305098 0.444659
Si Si4 0.263071 0.869797 0.381473
Si Si5 0.429063 0.872148 0.200964
O O1 0.910175 0.187713 0.668501
O O2 0.781915 0.182390 0.713668
O O3 0.834729 0.000000 0.788226
O O4 0.791993 0.173254 0.026364
O O5 0.265440 0.500000 0.237025
O O6 0.153125 0.621657 0.306613
O O7 0.254660 0.681342 0.407617
O O8 0.073084 0.287632 0.645585
O O9 0.000000 0.361265 0.500000
O O10 0.350950 0.859872 0.213251
O O11 0.241074 0.000000 0.418436
O O12 0.438654 0.000000 0.248249
O O13 0.500000 0.833508 0.000000
#
# Coordination Sequence:
#
# PCOD8107919 Si02
#       5
#     8   8   8   8   8
#     4  10  21  38  59  79 108 152 193 231 271 319
#     4   9  19  36  58  84 110 138 180 234 285 332
#     4  11  23  36  52  84 116 145 186 228 276 333
#     4   8  16  33  56  81 104 138 186 226 272 326
#     4   9  19  35  55  83 116 145 174 221 286 342
#
# _framework density 22.728762
#
# number of rings (size 3 to 8) (size 9 to 14) (size 15 to 20)
#    0.000    2.600    0.000    2.400    2.800    5.200 
#    3.600    0.000    0.000    0.600    0.000    0.000 
#    0.000    0.000    0.000    0.000    0.000    0.000 
#
# Total GULP energy -247809.691332 kJ/mol
# GULP energy per Si atom -12390.484567 kJ/mol
# Density = 2.267703 g / cm^3
# Si number density = 22.728762 Si / 1000 Ang^3
#
#
#
# Elastic Constant Matrix: (Units=GPa)
#
#
# Indices 1 2 3 4 5 6 
#
# 1 80.2085 17.1588 35.5787 0.0000 2.6859 0.0000
# 2 17.1588 61.1665 55.0788 0.0000 19.5883 0.0000
# 3 35.5787 55.0788 178.3160 0.0000 1.2285 0.0000
# 4 0.0000 0.0000 0.0000 37.9063 0.0000 8.4719
# 5 2.6859 19.5883 1.2285 0.0000 34.9121 0.0000
# 6 0.0000 0.0000 0.0000 8.4719 0.0000 23.6017
#
#
#
# Elastic Compliance Matrix: (Units=1/GPa)
#
#
# Indices 1 2 3 4 5 6 
#
# 1 0.013842 -0.001989 -0.002148 0.000000 0.000127 0.000000
# 2 -0.001989 0.030064 -0.008776 0.000000 -0.016406 0.000000
# 3 -0.002148 -0.008776 0.008715 0.000000 0.004783 0.000000
# 4 0.000000 0.000000 0.000000 0.028682 0.000000 -0.010295
# 5 0.000127 -0.016406 0.004783 0.000000 0.037670 0.000000
# 6 0.000000 0.000000 0.000000 -0.010295 0.000000 0.046066
#
#
# Mechanical properties :
#
#
# Convention : Reuss Voigt Hill
#
# Bulk Modulus (GPa) = 37.32370 59.48039 48.40205
# Shear Modulus (GPa) = 25.02561 33.40900 29.21730
#
# Velocity S-wave (km/s) = 3.32181 3.83809 3.58924
# Velocity P-wave (km/s) = 5.58297 6.77257 6.20634
#
# Compressibility (1/GPa) = 0.02679263
#
# Stress axis : x y z
#
# Youngs Moduli (GPa) = 72.24548 33.26290 114.75085
#
# Poissons Ratio (x) = 0.06616 0.24651
# Poissons Ratio (y) = 0.14370 1.00708
# Poissons Ratio (z) = 0.15520 0.29192
#
# Static dielectric constant tensor:
#      x y z
#    x 4.179720 0.000000 0.212760 
#    y 0.000000 4.289170 0.000000 
#    z 0.212760 0.000000 4.432750 
# 
# 
# High freq. dielectric constant tensor:
#      x y z
#    x 1.875470 0.000000 0.017440 
#    y 0.000000 1.919620 0.000000 
#    z 0.017440 0.000000 1.905930 
# 
# From -- ./inp_files/72409.got.cif
#   From: 2010.06.25/outbox.cif.g09.slc.cpg/sg12_37_cif.got.tgz:72409.got - 2010.06.28 00:19:55.
