data_PCOD8107747
_publ_section_title
;
Structure prediction by ZEFSAII (Michael W. Deem and Ramdas Pophale) SiO2 
 PCOD8107747
Probable space group: C 2/M
;
_chemical_formula_sum "Si O2"
_cell_formula_units_Z 48
_cell_length_a 8.576575
_cell_length_b 18.452407
_cell_length_c 19.632680
_cell_angle_alpha 90.000000
_cell_angle_beta 124.048463
_cell_angle_gamma 90.000000
_cell_volume 2574.380364
_symmetry_space_group_name_H-M "C 2/M"
_symmetry_group_IT_number 12
_symmetry_cell_setting 'monoclinic'
loop_
_space_group_symop_operation_xyz
x,y,z
-x,y,-z
-x,-y,-z
x,-y,z
1/2+x,1/2+y,z
1/2-x,1/2+y,-z
1/2-x,1/2-y,-z
1/2+x,1/2-y,z
loop_
_atom_site_type_symbol
_atom_site_label
_atom_site_fract_x
_atom_site_fract_y
_atom_site_fract_z
Si Si1 0.586744 0.584995 0.724311
Si Si2 0.809414 0.199462 0.691615
Si Si3 0.330942 0.421199 0.407923
Si Si4 0.888201 0.288754 0.587707
Si Si5 0.392827 0.194409 0.834024
Si Si6 0.802428 0.215445 0.941798
O O1 0.586342 0.500000 0.740584
O O2 0.404918 0.619762 0.718032
O O3 0.580574 0.602688 0.642311
O O4 0.779660 0.620165 0.798053
O O5 0.928211 0.239638 0.662829
O O6 0.596451 0.196220 0.609541
O O7 0.830060 0.240903 0.767942
O O8 0.500000 0.427748 0.500000
O O9 0.230504 0.500000 0.376099
O O10 0.185905 0.364728 0.402853
O O11 0.750000 0.250000 0.500000
O O12 0.612913 0.172539 0.873698
O O13 0.350473 0.221779 0.899494
O O14 0.750000 0.250000 0.000000
O O15 0.000000 0.169544 0.000000
#
# Coordination Sequence:
#
# PCOD8107747 Si02
#       6
#     8   8   8   8   8   8
#     4  11  23  38  58  87 122 161 195 240 304 350
#     4  12  21  35  57  84 113 151 198 247 286 337
#     4  10  21  38  55  76 115 161 201 245 299 350
#     4  12  22  34  55  83 114 152 206 252 294 341
#     4  11  18  36  59  87 117 146 187 243 278 344
#     4   9  19  33  60  94 113 142 188 236 286 347
#
# _framework density 18.645264000000001
#
# number of rings (size 3 to 8) (size 9 to 14) (size 15 to 20)
#    0.000    1.167    5.000    2.500    0.000    0.667 
#    0.000    0.000    0.000   10.000    0.000    0.000 
#    0.000    0.000    0.000    0.000    0.000    0.000 
#
# Total GULP energy -297344.444126 kJ/mol
# GULP energy per Si atom -12389.351839 kJ/mol
# Density = 1.860283 g / cm^3
# Si number density = 18.645264 Si / 1000 Ang^3
#
#
#
# Elastic Constant Matrix: (Units=GPa)
#
#
# Indices 1 2 3 4 5 6 
#
# 1 127.8741 56.6100 48.2709 0.0000 30.4833 0.0000
# 2 56.6100 107.0634 35.4909 0.0000 9.7058 0.0000
# 3 48.2709 35.4909 94.2498 0.0000 7.5490 0.0000
# 4 0.0000 0.0000 0.0000 26.1027 0.0000 -1.9161
# 5 30.4833 9.7058 7.5490 0.0000 46.9829 0.0000
# 6 0.0000 0.0000 0.0000 -1.9161 0.0000 32.5598
#
#
#
# Elastic Compliance Matrix: (Units=1/GPa)
#
#
# Indices 1 2 3 4 5 6 
#
# 1 0.013327 -0.004960 -0.004404 0.000000 -0.006914 0.000000
# 2 -0.004960 0.012635 -0.002296 0.000000 0.000977 0.000000
# 3 -0.004404 -0.002296 0.013639 0.000000 0.001140 0.000000
# 4 0.000000 0.000000 0.000000 0.038476 0.000000 0.002264
# 5 -0.006914 0.000977 0.001140 0.000000 0.025386 0.000000
# 6 0.000000 0.000000 0.000000 0.002264 0.000000 0.030846
#
#
# Mechanical properties :
#
#
# Convention : Reuss Voigt Hill
#
# Bulk Modulus (GPa) = 61.41963 67.77012 64.59487
# Shear Modulus (GPa) = 30.66447 33.71677 32.19062
#
# Velocity S-wave (km/s) = 4.05980 4.25706 4.15960
# Velocity P-wave (km/s) = 7.41543 7.78392 7.60191
#
# Compressibility (1/GPa) = 0.01628144
#
# Stress axis : x y z
#
# Youngs Moduli (GPa) = 75.03809 79.14312 73.32002
#
# Poissons Ratio (x) = 0.39253 0.32289
# Poissons Ratio (y) = 0.37217 0.16834
# Poissons Ratio (z) = 0.33046 0.18171
#
# Static dielectric constant tensor:
#      x y z
#    x 3.791080 0.000000 0.215470 
#    y 0.000000 3.872650 0.000000 
#    z 0.215470 0.000000 3.740100 
# 
# 
# High freq. dielectric constant tensor:
#      x y z
#    x 1.739480 0.000000 0.002930 
#    y 0.000000 1.688420 0.000000 
#    z 0.002930 0.000000 1.735380 
# 
# From -- ./inp_files/256132.got.cif
#   From: 2010.06.25/outbox.cif.g09.slc.cpg/sg12_129_cif.got.tgz:256132.got - 2010.06.28 00:19:55.
