data_PCOD8107319
_publ_section_title
;
Structure prediction by ZEFSAII (Michael W. Deem and Ramdas Pophale) SiO2 
 PCOD8107319
Probable space group: C 2/M
;
_chemical_formula_sum "Si O2"
_cell_formula_units_Z 56
_cell_length_a 8.903061
_cell_length_b 18.006142
_cell_length_c 25.087165
_cell_angle_alpha 90.000000
_cell_angle_beta 135.215749
_cell_angle_gamma 90.000000
_cell_volume 2833.055520
_symmetry_space_group_name_H-M "C 2/M"
_symmetry_group_IT_number 12
_symmetry_cell_setting 'monoclinic'
loop_
_space_group_symop_operation_xyz
x,y,z
-x,y,-z
-x,-y,-z
x,-y,z
1/2+x,1/2+y,z
1/2-x,1/2+y,-z
1/2-x,1/2-y,-z
1/2+x,1/2-y,z
loop_
_atom_site_type_symbol
_atom_site_label
_atom_site_fract_x
_atom_site_fract_y
_atom_site_fract_z
Si Si1 0.322752 0.670307 0.500001
Si Si2 0.610748 0.671092 0.217019
Si Si3 0.026729 0.586675 0.350117
Si Si4 0.998472 0.915020 0.912504
Si Si5 0.742680 0.328910 0.782983
Si Si6 0.873730 0.913326 0.350115
Si Si7 0.848454 0.584980 0.087494
O O1 0.500000 0.678671 0.500000
O O2 0.250000 0.750000 0.500000
O O3 0.416809 0.626527 0.574124
O O4 0.120324 0.626523 0.425882
O O5 0.787387 0.612788 0.280109
O O6 0.495085 0.640728 0.135175
O O7 0.437731 0.681006 0.218866
O O8 0.718831 0.750002 0.234417
O O9 0.026560 0.500000 0.362169
O O10 0.166426 0.605568 0.333214
O O11 0.782199 0.902188 0.891100
O O12 0.007974 0.000000 0.894781
O O13 0.201934 0.896741 0.999999
O O14 0.666966 0.387218 0.719896
O O15 0.954390 0.359272 0.864828
O O16 0.922118 0.000000 0.362173
O O17 0.928843 0.500000 0.105215
#
# Coordination Sequence:
#
# PCOD8107319 Si02
#       7
#     8   8   8   8   8   8   8
#     4  10  21  37  59  87 117 152 191 232 282 336
#     4  12  25  39  57  83 116 153 193 237 286 339
#     4  10  21  39  62  86 115 151 191 235 284 340
#     4   9  19  38  63  88 115 149 188 231 283 342
#     4  12  25  39  57  83 116 153 193 237 286 339
#     4  10  21  39  62  86 115 151 191 235 284 340
#     4   9  19  38  63  88 115 149 188 231 283 342
#
# _framework density 19.766643999999999
#
# number of rings (size 3 to 8) (size 9 to 14) (size 15 to 20)
#    0.000    1.714    0.000    5.571    0.000   10.857 
#    0.000    1.429    0.000    2.571    0.000    0.000 
#    0.000    0.000    0.000    0.000    0.000    0.000 
#
# Total GULP energy -347360.675553 kJ/mol
# GULP energy per Si atom -12405.738413 kJ/mol
# Density = 1.972165 g / cm^3
# Si number density = 19.766644 Si / 1000 Ang^3
#
#
#
# Elastic Constant Matrix: (Units=GPa)
#
#
# Indices 1 2 3 4 5 6 
#
# 1 97.2379 44.5478 46.4584 -0.0001 -2.5532 0.0000
# 2 44.5478 107.2395 48.3322 -0.0001 0.2755 0.0000
# 3 46.4584 48.3322 111.7661 0.0000 3.5990 0.0000
# 4 -0.0001 -0.0001 0.0000 35.6252 -0.0002 -0.0106
# 5 -2.5532 0.2755 3.5990 -0.0002 7.9090 -0.0001
# 6 0.0000 0.0000 0.0000 -0.0106 -0.0001 35.7926
#
#
#
# Elastic Compliance Matrix: (Units=1/GPa)
#
#
# Indices 1 2 3 4 5 6 
#
# 1 0.014440 -0.003989 -0.004498 0.000000 0.006847 0.000000
# 2 -0.003989 0.012713 -0.003840 0.000000 0.000017 0.000000
# 3 -0.004498 -0.003840 0.012706 0.000000 -0.007100 0.000000
# 4 0.000000 0.000000 0.000000 0.028070 0.000001 0.000008
# 5 0.006847 0.000017 -0.007100 0.000001 0.131879 0.000000
# 6 0.000000 0.000000 0.000000 0.000008 0.000000 0.027939
#
#
# Mechanical properties :
#
#
# Convention : Reuss Voigt Hill
#
# Bulk Modulus (GPa) = 65.76622 66.10225 65.93423
# Shear Modulus (GPa) = 19.41983 27.65904 23.53944
#
# Velocity S-wave (km/s) = 3.13781 3.74475 3.45464
# Velocity P-wave (km/s) = 6.81699 7.22575 7.02434
#
# Compressibility (1/GPa) = 0.01520538
#
# Stress axis : x y z
#
# Youngs Moduli (GPa) = 69.25014 78.66271 78.70240
#
# Poissons Ratio (x) = 0.31378 0.35400
# Poissons Ratio (y) = 0.27624 0.30220
# Poissons Ratio (z) = 0.31149 0.30205
#
# Static dielectric constant tensor:
#      x y z
#    x 3.499190 0.000000 0.016460 
#    y 0.000000 3.608940 0.000000 
#    z 0.016460 0.000000 3.729740 
# 
# 
# High freq. dielectric constant tensor:
#      x y z
#    x 1.758170 0.000000 0.002010 
#    y 0.000000 1.780700 0.000000 
#    z 0.002010 0.000000 1.786300 
# 
# From -- ./inp_files/333370.got.cif
#   From: 2010.06.25/outbox.cif.g09.slc.cpg/sg12_167_cif.got.tgz:333370.got - 2010.06.28 00:19:55.
