data_PCOD8107331
_publ_section_title
;
Structure prediction by ZEFSAII (Michael W. Deem and Ramdas Pophale) SiO2 
 PCOD8107331
Probable space group: C 2/M
;
_chemical_formula_sum "Si O2"
_cell_formula_units_Z 48
_cell_length_a 9.933552
_cell_length_b 9.892395
_cell_length_c 25.683080
_cell_angle_alpha 90.000000
_cell_angle_beta 85.259823
_cell_angle_gamma 90.000000
_cell_volume 2515.157311
_symmetry_space_group_name_H-M "C 2/M"
_symmetry_group_IT_number 12
_symmetry_cell_setting 'monoclinic'
loop_
_space_group_symop_operation_xyz
x,y,z
-x,y,-z
-x,-y,-z
x,-y,z
1/2+x,1/2+y,z
1/2-x,1/2+y,-z
1/2-x,1/2-y,-z
1/2+x,1/2-y,z
loop_
_atom_site_type_symbol
_atom_site_label
_atom_site_fract_x
_atom_site_fract_y
_atom_site_fract_z
Si Si1 0.290763 0.766134 0.377389
Si Si2 0.853692 0.654643 0.025288
Si Si3 0.310756 0.500000 0.550655
Si Si4 0.430406 0.157303 0.804060
Si Si5 0.201580 0.654753 0.853713
Si Si6 0.376562 0.500000 0.432870
Si Si7 0.560486 0.155109 0.316135
O O1 0.338140 0.627791 0.400415
O O2 0.405084 0.824481 0.336072
O O3 0.155394 0.749353 0.348051
O O4 0.263192 0.868175 0.425263
O O5 0.817777 0.500000 0.012708
O O6 0.852004 0.680040 0.086746
O O7 0.750000 0.750000 0.000000
O O8 0.000000 0.694348 0.000000
O O9 0.292341 0.500000 0.489136
O O10 0.465824 0.500000 0.561344
O O11 0.326304 0.246955 0.839640
O O12 0.581060 0.190712 0.818190
O O13 0.420458 0.197517 0.744116
O O14 0.396157 0.000000 0.814778
O O15 0.249355 0.500000 0.844453
O O16 0.602085 0.000000 0.323477
#
# Coordination Sequence:
#
# PCOD8107331 Si02
#       7
#     8   8   4   8   8   4   8
#     4  12  22  42  62  89 118 157 191 247 291 351
#     4  10  21  37  59  87 119 158 196 242 292 347
#     4  11  24  41  63  89 121 159 193 239 297 349
#     4  10  22  40  60  85 115 159 193 245 293 351
#     4  10  21  39  59  87 121 151 200 244 292 346
#     4  11  24  41  61  93 123 151 197 241 293 354
#     4  11  23  39  62  88 120 149 200 240 297 349
#
# _framework density 19.084294
#
# number of rings (size 3 to 8) (size 9 to 14) (size 15 to 20)
#    0.000    1.333    3.333    2.500    0.000    3.000 
#    3.000    0.833    0.000    0.000    0.000    0.000 
#    0.000    0.000    0.000    0.000    0.000    0.000 
#
# Total GULP energy -297742.864546 kJ/mol
# GULP energy per Si atom -12405.952689 kJ/mol
# Density = 1.904086 g / cm^3
# Si number density = 19.084294 Si / 1000 Ang^3
#
#
#
# Elastic Constant Matrix: (Units=GPa)
#
#
# Indices 1 2 3 4 5 6 
#
# 1 75.2131 25.3033 19.3796 0.0000 -7.1591 0.0000
# 2 25.3033 73.0508 29.6772 0.0000 -4.6567 0.0000
# 3 19.3796 29.6772 85.1633 0.0000 -9.4627 0.0000
# 4 0.0000 0.0000 0.0000 54.5686 0.0000 11.6299
# 5 -7.1591 -4.6567 -9.4627 0.0000 38.4625 0.0000
# 6 0.0000 0.0000 0.0000 11.6299 0.0000 49.7990
#
#
#
# Elastic Compliance Matrix: (Units=1/GPa)
#
#
# Indices 1 2 3 4 5 6 
#
# 1 0.015444 -0.004527 -0.001725 0.000000 0.001902 0.000000
# 2 -0.004527 0.017286 -0.004991 0.000000 0.000022 0.000000
# 3 -0.001725 -0.004991 0.014158 0.000000 0.002558 0.000000
# 4 0.000000 0.000000 0.000000 0.019285 0.000000 -0.004504
# 5 0.001902 0.000022 0.002558 0.000000 0.026985 0.000000
# 6 0.000000 0.000000 0.000000 -0.004504 0.000000 0.021133
#
#
# Mechanical properties :
#
#
# Convention : Reuss Voigt Hill
#
# Bulk Modulus (GPa) = 40.98191 42.46082 41.72136
# Shear Modulus (GPa) = 34.50326 39.17050 36.83688
#
# Velocity S-wave (km/s) = 4.25660 4.53537 4.39819
# Velocity P-wave (km/s) = 6.75862 7.05149 6.90661
#
# Compressibility (1/GPa) = 0.02440101
#
# Stress axis : x y z
#
# Youngs Moduli (GPa) = 64.74891 57.84905 70.63006
#
# Poissons Ratio (x) = 0.26190 0.12187
# Poissons Ratio (y) = 0.29314 0.35252
# Poissons Ratio (z) = 0.11172 0.28873
#
# Static dielectric constant tensor:
#      x y z
#    x 3.470710 0.000000 0.005210 
#    y 0.000000 3.537750 0.000000 
#    z 0.005210 0.000000 3.616770 
# 
# 
# High freq. dielectric constant tensor:
#      x y z
#    x 1.746160 0.000000 -0.000570 
#    y 0.000000 1.747720 0.000000 
#    z -0.000570 0.000000 1.757510 
# 
# From -- ./inp_files/332244.got.cif
#   From: 2010.06.25/outbox.cif.g09.slc.cpg/sg12_167_cif.got.tgz:332244.got - 2010.06.28 00:19:55.
