data_PCOD8107204
_publ_section_title
;
Structure prediction by ZEFSAII (Michael W. Deem and Ramdas Pophale) SiO2 
 PCOD8107204
Probable space group: C 2/M
;
_chemical_formula_sum "Si O2"
_cell_formula_units_Z 56
_cell_length_a 17.937369
_cell_length_b 14.421606
_cell_length_c 22.084541
_cell_angle_alpha 90.000000
_cell_angle_beta 149.020857
_cell_angle_gamma 90.000000
_cell_volume 2940.606157
_symmetry_space_group_name_H-M "C 2/M"
_symmetry_group_IT_number 12
_symmetry_cell_setting 'monoclinic'
loop_
_space_group_symop_operation_xyz
x,y,z
-x,y,-z
-x,-y,-z
x,-y,z
1/2+x,1/2+y,z
1/2-x,1/2+y,-z
1/2-x,1/2-y,-z
1/2+x,1/2-y,z
loop_
_atom_site_type_symbol
_atom_site_label
_atom_site_fract_x
_atom_site_fract_y
_atom_site_fract_z
Si Si1 0.664854 0.390674 0.188741
Si Si2 0.365486 0.735701 0.361429
Si Si3 0.629802 0.800097 0.877616
Si Si4 0.650367 0.604649 0.043945
Si Si5 0.349847 0.105614 0.724322
Si Si6 0.276144 0.105911 0.534762
Si Si7 0.986585 0.233489 0.662159
O O1 0.695954 0.500000 0.220866
O O2 0.777567 0.332263 0.307595
O O3 0.687653 0.353531 0.135709
O O4 0.499873 0.359237 0.091104
O O5 0.500000 0.741035 0.500000
O O6 0.260456 0.650915 0.305332
O O7 0.415084 0.716064 0.327639
O O8 0.712234 0.886247 0.903762
O O9 0.501776 0.839156 0.830105
O O10 0.577166 0.731696 0.787538
O O11 0.750000 0.750000 0.000000
O O12 0.614911 0.500000 0.034647
O O13 0.278462 0.110509 0.608724
O O14 0.377823 0.000000 0.763935
O O15 0.125774 0.149292 0.407990
O O16 0.407633 0.166604 0.599185
O O17 0.290983 0.000000 0.521784
#
# Coordination Sequence:
#
# PCOD8107204 Si02
#       7
#     8   8   8   8   8   8   8
#     4   9  19  34  54  84 115 149 191 236 292 350
#     4  12  22  36  58  86 123 154 189 239 295 353
#     4  11  21  37  61  86 112 153 198 246 297 338
#     4   9  17  34  58  79 106 147 194 237 284 347
#     4  10  22  38  60  88 118 157 203 240 279 350
#     4   9  19  39  62  83 112 153 198 244 290 341
#     4  10  21  37  58  87 115 149 197 242 291 349
#
# _framework density 19.043692
#
# number of rings (size 3 to 8) (size 9 to 14) (size 15 to 20)
#    0.000    2.000    2.857    2.143    0.000    2.286 
#    0.000    1.429    0.000    0.857    0.000    0.000 
#    0.000    0.000    0.000    0.000    0.000    0.000 
#
# Total GULP energy -347090.448864 kJ/mol
# GULP energy per Si atom -12396.087459 kJ/mol
# Density = 1.900035 g / cm^3
# Si number density = 19.043692 Si / 1000 Ang^3
#
#
#
# Elastic Constant Matrix: (Units=GPa)
#
#
# Indices 1 2 3 4 5 6 
#
# 1 106.7318 40.7611 43.8608 0.0014 17.7951 -0.0006
# 2 40.7611 104.2229 56.0979 0.0119 3.1240 0.0042
# 3 43.8608 56.0979 134.7780 0.0166 11.7006 0.0054
# 4 0.0014 0.0119 0.0166 27.9404 0.0090 3.1537
# 5 17.7951 3.1240 11.7006 0.0090 21.1985 0.0022
# 6 -0.0006 0.0042 0.0054 3.1537 0.0022 28.0492
#
#
#
# Elastic Compliance Matrix: (Units=1/GPa)
#
#
# Indices 1 2 3 4 5 6 
#
# 1 0.013193 -0.003876 -0.001857 0.000005 -0.009479 0.000001
# 2 -0.003876 0.013527 -0.004704 -0.000004 0.003856 -0.000001
# 3 -0.001857 -0.004704 0.010279 -0.000003 -0.003421 -0.000001
# 4 0.000005 -0.000004 -0.000003 0.036251 -0.000017 -0.004076
# 5 -0.009479 0.003856 -0.003421 -0.000017 0.056450 -0.000003
# 6 0.000001 -0.000001 -0.000001 -0.004076 -0.000003 0.036110
#
#
# Mechanical properties :
#
#
# Convention : Reuss Voigt Hill
#
# Bulk Modulus (GPa) = 62.01568 69.68579 65.85074
# Shear Modulus (GPa) = 26.03385 29.10517 27.56951
#
# Velocity S-wave (km/s) = 3.70139 3.91364 3.80899
# Velocity P-wave (km/s) = 7.13461 7.55606 7.34836
#
# Compressibility (1/GPa) = 0.01612495
#
# Stress axis : x y z
#
# Youngs Moduli (GPa) = 75.79724 73.92712 97.28769
#
# Poissons Ratio (x) = 0.28654 0.18069
# Poissons Ratio (y) = 0.29379 0.45761
# Poissons Ratio (z) = 0.14078 0.34773
#
# Static dielectric constant tensor:
#      x y z
#    x 3.490180 -0.000010 0.179520 
#    y -0.000010 3.408280 -0.000010 
#    z 0.179520 -0.000010 3.582110 
# 
# 
# High freq. dielectric constant tensor:
#      x y z
#    x 1.737330 0.000000 0.019900 
#    y 0.000000 1.725530 0.000000 
#    z 0.019900 0.000000 1.743190 
# 
# From -- ./inp_files/316799.got.cif
#   From: 2010.06.25/outbox.cif.g09.slc.cpg/sg12_159_cif.got.tgz:316799.got - 2010.06.28 00:19:55.
