data_PCOD8107419
_publ_section_title
;
Structure prediction by ZEFSAII (Michael W. Deem and Ramdas Pophale) SiO2 
 PCOD8107419
Probable space group: C 2/M
;
_chemical_formula_sum "Si O2"
_cell_formula_units_Z 56
_cell_length_a 19.530832
_cell_length_b 19.128832
_cell_length_c 16.001619
_cell_angle_alpha 90.000000
_cell_angle_beta 149.769680
_cell_angle_gamma 90.000000
_cell_volume 3009.906207
_symmetry_space_group_name_H-M "C 2/M"
_symmetry_group_IT_number 12
_symmetry_cell_setting 'monoclinic'
loop_
_space_group_symop_operation_xyz
x,y,z
-x,y,-z
-x,-y,-z
x,-y,z
1/2+x,1/2+y,z
1/2-x,1/2+y,-z
1/2-x,1/2-y,-z
1/2+x,1/2-y,z
loop_
_atom_site_type_symbol
_atom_site_label
_atom_site_fract_x
_atom_site_fract_y
_atom_site_fract_z
Si Si1 0.412102 0.181005 0.207135
Si Si2 0.343217 0.688272 0.840216
Si Si3 0.745233 0.792939 0.121132
Si Si4 0.076071 0.920325 0.666146
Si Si5 0.715812 0.417618 0.086986
Si Si6 0.445170 0.419524 0.701546
Si Si7 0.272040 0.185014 0.463165
O O1 0.372931 0.245103 0.227171
O O2 0.335177 0.110014 0.152681
O O3 0.570685 0.164879 0.376529
O O4 0.371256 0.204274 0.071297
O O5 0.323121 0.759810 0.869645
O O6 0.273720 0.621790 0.813134
O O7 0.278079 0.701819 0.682167
O O8 0.500000 0.669458 0.000000
O O9 0.793326 0.870834 0.192953
O O10 0.000000 0.905999 0.500000
O O11 0.975144 0.903352 0.636207
O O12 0.128802 0.000000 0.728301
O O13 0.732317 0.500000 0.118139
O O14 0.574207 0.396636 0.893337
O O15 0.413286 0.500000 0.683109
O O16 0.310745 0.379496 0.586798
O O17 0.250000 0.250000 0.500000
#
# Coordination Sequence:
#
# PCOD8107419 Si02
#       7
#     8   8   8   8   8   8   8
#     4  10  22  38  59  89 122 160 201 242 296 360
#     4  11  23  39  58  89 123 159 203 243 303 361
#     4  10  21  37  60  83 122 159 199 245 295 355
#     4  10  21  37  63  90 112 153 208 250 290 351
#     4  10  21  40  66  88 119 162 204 246 299 367
#     4  10  21  40  63  89 121 159 199 245 305 366
#     4  12  25  38  60  90 124 160 201 250 301 359
#
# _framework density 18.605229999999999
#
# number of rings (size 3 to 8) (size 9 to 14) (size 15 to 20)
#    0.000    1.571    2.857    1.714    6.000    3.143 
#    0.000    0.714    0.000    0.429    0.000    0.000 
#    0.000    0.000    0.000    0.000    0.000    0.000 
#
# Total GULP energy -347295.504719 kJ/mol
# GULP energy per Si atom -12403.410883 kJ/mol
# Density = 1.856288 g / cm^3
# Si number density = 18.605230 Si / 1000 Ang^3
#
#
#
# Elastic Constant Matrix: (Units=GPa)
#
#
# Indices 1 2 3 4 5 6 
#
# 1 113.9094 48.5223 56.8314 0.0000 -13.2312 0.0000
# 2 48.5223 98.3583 45.6859 0.0000 1.1192 0.0000
# 3 56.8314 45.6859 103.5551 0.0000 5.1960 0.0000
# 4 0.0000 0.0000 0.0000 27.3049 0.0000 2.3132
# 5 -13.2312 1.1192 5.1960 0.0000 42.3859 0.0000
# 6 0.0000 0.0000 0.0000 2.3132 0.0000 29.4495
#
#
#
# Elastic Compliance Matrix: (Units=1/GPa)
#
#
# Indices 1 2 3 4 5 6 
#
# 1 0.014324 -0.004215 -0.006270 0.000000 0.005351 0.000000
# 2 -0.004215 0.014033 -0.003817 0.000000 -0.001218 0.000000
# 3 -0.006270 -0.003817 0.014967 0.000000 -0.003691 0.000000
# 4 0.000000 0.000000 0.000000 0.036869 0.000000 -0.002896
# 5 0.005351 -0.001218 -0.003691 0.000000 0.025748 0.000000
# 6 0.000000 0.000000 0.000000 -0.002896 0.000000 0.034184
#
#
# Mechanical properties :
#
#
# Convention : Reuss Voigt Hill
#
# Bulk Modulus (GPa) = 67.93298 68.65580 68.29439
# Shear Modulus (GPa) = 28.79604 30.81359 29.80482
#
# Velocity S-wave (km/s) = 3.93840 4.07403 4.00679
# Velocity P-wave (km/s) = 7.56792 7.68842 7.62841
#
# Compressibility (1/GPa) = 0.01472039
#
# Stress axis : x y z
#
# Youngs Moduli (GPa) = 69.81161 71.26125 66.81456
#
# Poissons Ratio (x) = 0.30036 0.41894
# Poissons Ratio (y) = 0.29425 0.25501
# Poissons Ratio (z) = 0.43773 0.27198
#
# Static dielectric constant tensor:
#      x y z
#    x 3.618100 0.000000 -0.150710 
#    y 0.000000 3.481580 0.000000 
#    z -0.150710 0.000000 3.455930 
# 
# 
# High freq. dielectric constant tensor:
#      x y z
#    x 1.731370 0.000000 -0.011160 
#    y 0.000000 1.727490 0.000000 
#    z -0.011160 0.000000 1.713190 
# 
# From -- ./inp_files/77365.got.cif
#   From: 2010.06.25/outbox.cif.g09.slc.cpg/sg12_39_cif.got.tgz:77365.got - 2010.06.28 00:19:55.
