data_PCOD8107998
_publ_section_title
;
Structure prediction by ZEFSAII (Michael W. Deem and Ramdas Pophale) SiO2 
 PCOD8107998
Probable space group: C 2/M
;
_chemical_formula_sum "Si O2"
_cell_formula_units_Z 48
_cell_length_a 17.813968
_cell_length_b 8.471749
_cell_length_c 15.395560
_cell_angle_alpha 90.000000
_cell_angle_beta 90.461243
_cell_angle_gamma 90.000000
_cell_volume 2323.352820
_symmetry_space_group_name_H-M "C 2/M"
_symmetry_group_IT_number 12
_symmetry_cell_setting 'monoclinic'
loop_
_space_group_symop_operation_xyz
x,y,z
-x,y,-z
-x,-y,-z
x,-y,z
1/2+x,1/2+y,z
1/2-x,1/2+y,-z
1/2-x,1/2-y,-z
1/2+x,1/2-y,z
loop_
_atom_site_type_symbol
_atom_site_label
_atom_site_fract_x
_atom_site_fract_y
_atom_site_fract_z
Si Si1 0.415267 0.811717 0.493996
Si Si2 0.414478 0.318730 0.820895
Si Si3 0.666264 0.185536 0.677396
Si Si4 0.829958 0.316889 0.663091
Si Si5 0.576229 0.185091 0.843271
Si Si6 0.667006 0.684525 0.001301
O O1 0.500000 0.745126 0.500000
O O2 0.375488 0.742585 0.407353
O O3 0.368230 0.750082 0.576042
O O4 0.417071 0.000000 0.493502
O O5 0.405888 0.500000 0.792757
O O6 0.387153 0.208952 0.742425
O O7 0.499966 0.282237 0.843618
O O8 0.364628 0.281482 0.903973
O O9 0.753275 0.226755 0.680055
O O10 0.626767 0.249229 0.764091
O O11 0.658126 0.000000 0.674203
O O12 0.811602 0.500000 0.653271
O O13 0.618366 0.217310 0.932995
O O14 0.559016 0.000000 0.834204
O O15 0.664668 0.500000 0.977634
O O16 0.750000 0.750000 0.000000
#
# Coordination Sequence:
#
# PCOD8107998 Si02
#       6
#     8   8   8   8   8   8
#     4   9  18  35  58  83 114 152 192 235 284 339
#     4  11  24  41  60  84 117 154 190 234 290 344
#     4  10  21  38  59  84 118 155 189 232 288 344
#     4  11  22  36  59  88 115 150 196 239 282 336
#     4  11  23  39  62  89 115 150 194 237 286 342
#     4  11  24  41  61  86 117 154 193 235 287 342
#
# _framework density 20.659797999999999
#
# number of rings (size 3 to 8) (size 9 to 14) (size 15 to 20)
#    0.000    1.500    0.000    5.000    0.000   12.667 
#    0.000    0.833    0.000    3.500    0.000    0.000 
#    0.000    0.000    0.000    0.000    0.000    0.000 
#
# Total GULP energy -297737.375884 kJ/mol
# GULP energy per Si atom -12405.723995 kJ/mol
# Density = 2.061278 g / cm^3
# Si number density = 20.659798 Si / 1000 Ang^3
#
#
#
# Elastic Constant Matrix: (Units=GPa)
#
#
# Indices 1 2 3 4 5 6 
#
# 1 108.0589 14.4214 7.2501 0.0000 -2.3452 0.0000
# 2 14.4214 26.6713 35.5290 0.0000 -13.8327 0.0000
# 3 7.2501 35.5290 82.2841 0.0000 2.3221 0.0000
# 4 0.0000 0.0000 0.0000 17.8095 0.0000 -6.8409
# 5 -2.3452 -13.8327 2.3221 0.0000 46.8974 0.0000
# 6 0.0000 0.0000 0.0000 -6.8409 0.0000 25.5599
#
#
#
# Elastic Compliance Matrix: (Units=1/GPa)
#
#
# Indices 1 2 3 4 5 6 
#
# 1 0.011024 -0.017429 0.006693 0.000000 -0.004921 0.000000
# 2 -0.017429 0.178365 -0.077047 0.000000 0.055553 0.000000
# 3 0.006693 -0.077047 0.045526 0.000000 -0.024645 0.000000
# 4 0.000000 0.000000 0.000000 0.062584 0.000000 0.016750
# 5 -0.004921 0.055553 -0.024645 0.000000 0.038683 0.000000
# 6 0.000000 0.000000 0.000000 0.016750 0.000000 0.043607
#
#
# Mechanical properties :
#
#
# Convention : Reuss Voigt Hill
#
# Bulk Modulus (GPa) = 16.84940 36.82392 26.83666
# Shear Modulus (GPa) = 8.69356 28.70763 18.70059
#
# Velocity S-wave (km/s) = 2.05356 3.73170 3.01187
# Velocity P-wave (km/s) = 3.71432 6.03573 5.01130
#
# Compressibility (1/GPa) = 0.05934928
#
# Stress axis : x y z
#
# Youngs Moduli (GPa) = 90.70763 5.60649 21.96523
#
# Poissons Ratio (x) = 0.09772 -0.14702
# Poissons Ratio (y) = 1.58097 1.69236
# Poissons Ratio (z) = -0.60712 0.43196
#
# Static dielectric constant tensor:
#      x y z
#    x 3.799870 0.000000 -0.084730 
#    y 0.000000 3.523990 0.000000 
#    z -0.084730 0.000000 4.097550 
# 
# 
# High freq. dielectric constant tensor:
#      x y z
#    x 1.825870 0.000000 -0.001820 
#    y 0.000000 1.790720 0.000000 
#    z -0.001820 0.000000 1.827040 
# 
# From -- ./inp_files/221581.got.cif
#   From: 2010.06.25/outbox.cif.g09.slc.cpg/sg12_111_cif.got.tgz:221581.got - 2010.06.28 00:19:55.
