data_PCOD8107436
_publ_section_title
;
Structure prediction by ZEFSAII (Michael W. Deem and Ramdas Pophale) SiO2 
 PCOD8107436
Probable space group: C 2/M
;
_chemical_formula_sum "Si O2"
_cell_formula_units_Z 40
_cell_length_a 24.914176
_cell_length_b 9.018232
_cell_length_c 15.555692
_cell_angle_alpha 90.000000
_cell_angle_beta 36.008574
_cell_angle_gamma 90.000000
_cell_volume 2054.780281
_symmetry_space_group_name_H-M "C 2/M"
_symmetry_group_IT_number 12
_symmetry_cell_setting 'monoclinic'
loop_
_space_group_symop_operation_xyz
x,y,z
-x,y,-z
-x,-y,-z
x,-y,z
1/2+x,1/2+y,z
1/2-x,1/2+y,-z
1/2-x,1/2-y,-z
1/2+x,1/2-y,z
loop_
_atom_site_type_symbol
_atom_site_label
_atom_site_fract_x
_atom_site_fract_y
_atom_site_fract_z
Si Si1 0.266661 0.327003 0.846163
Si Si2 0.408442 0.171201 0.170892
Si Si3 0.267203 0.172811 0.671652
Si Si4 0.613718 0.672880 0.145236
Si Si5 0.066657 0.327880 0.665286
O O1 0.249878 0.500000 0.854412
O O2 0.301027 0.255614 0.713364
O O3 0.343655 0.293193 0.816949
O O4 0.170214 0.256414 0.998245
O O5 0.331231 0.271210 0.229193
O O6 0.423841 0.221748 0.248599
O O7 0.378003 0.000000 0.205558
O O8 0.500000 0.200367 0.000000
O O9 0.338448 0.208099 0.504046
O O10 0.261441 0.000000 0.699579
O O11 0.615618 0.500000 0.121297
O O12 0.511078 0.731879 0.279816
O O13 0.039978 0.500000 0.692236
#
# Coordination Sequence:
#
# PCOD8107436 Si02
#       5
#     8   8   8   8   8
#     4  10  21  38  59  83 114 150 188 233 283 334
#     4  10  21  38  60  83 109 147 191 234 285 339
#     4  11  23  37  56  84 116 151 191 233 278 331
#     4  10  21  37  60  87 112 145 190 235 280 334
#     4  10  22  38  56  83 119 153 185 229 286 338
#
# _framework density 19.466802000000001
#
# number of rings (size 3 to 8) (size 9 to 14) (size 15 to 20)
#    0.000    1.800    0.000    3.600    0.000    7.600 
#    0.000    4.000    0.000    0.000    0.000    0.000 
#    0.000    0.000    0.000    0.000    0.000    0.000 
#
# Total GULP energy -248145.902023 kJ/mol
# GULP energy per Si atom -12407.295101 kJ/mol
# Density = 1.942249 g / cm^3
# Si number density = 19.466802 Si / 1000 Ang^3
#
#
#
# Elastic Constant Matrix: (Units=GPa)
#
#
# Indices 1 2 3 4 5 6 
#
# 1 103.3966 53.6339 57.2888 -0.0001 10.0899 0.0001
# 2 53.6339 92.6702 49.9526 0.0008 6.7640 -0.0004
# 3 57.2888 49.9526 107.7266 0.0004 18.3255 -0.0002
# 4 -0.0001 0.0008 0.0004 33.3542 0.0003 -1.4300
# 5 10.0899 6.7640 18.3255 0.0003 32.3259 -0.0001
# 6 0.0001 -0.0004 -0.0002 -1.4300 -0.0001 36.9293
#
#
#
# Elastic Compliance Matrix: (Units=1/GPa)
#
#
# Indices 1 2 3 4 5 6 
#
# 1 0.016038 -0.006260 -0.005531 0.000000 -0.000561 0.000000
# 2 -0.006260 0.016852 -0.004668 0.000000 0.001074 0.000000
# 3 -0.005531 -0.004668 0.015415 0.000000 -0.006036 0.000000
# 4 0.000000 0.000000 0.000000 0.030031 0.000000 0.001163
# 5 -0.000561 0.001074 -0.006036 0.000000 0.034307 0.000000
# 6 0.000000 0.000000 0.000000 0.001163 0.000000 0.027124
#
#
# Mechanical properties :
#
#
# Convention : Reuss Voigt Hill
#
# Bulk Modulus (GPa) = 64.98664 69.50492 67.24578
# Shear Modulus (GPa) = 28.11951 30.04976 29.08463
#
# Velocity S-wave (km/s) = 3.80476 3.93318 3.86950
# Velocity P-wave (km/s) = 7.26343 7.51055 7.38802
#
# Compressibility (1/GPa) = 0.01538778
#
# Stress axis : x y z
#
# Youngs Moduli (GPa) = 62.35290 59.34154 64.87083
#
# Poissons Ratio (x) = 0.37147 0.35879
# Poissons Ratio (y) = 0.39032 0.30280
# Poissons Ratio (z) = 0.34486 0.27699
#
# Static dielectric constant tensor:
#      x y z
#    x 3.601220 0.000000 0.145170 
#    y 0.000000 3.578180 0.000000 
#    z 0.145170 0.000000 3.562760 
# 
# 
# High freq. dielectric constant tensor:
#      x y z
#    x 1.766840 0.000000 0.005470 
#    y 0.000000 1.763670 0.000000 
#    z 0.005470 0.000000 1.762480 
# 
# From -- ./inp_files/211245.got.cif
#   From: 2010.06.25/outbox.cif.g09.slc.cpg/sg12_106_cif.got.tgz:211245.got - 2010.06.28 00:19:55.
