data_PCOD8107092
_publ_section_title
;
Structure prediction by ZEFSAII (Michael W. Deem and Ramdas Pophale) SiO2 
 PCOD8107092
Probable space group: C 2/M
;
_chemical_formula_sum "Si O2"
_cell_formula_units_Z 48
_cell_length_a 27.158686
_cell_length_b 8.936458
_cell_length_c 15.457888
_cell_angle_alpha 90.000000
_cell_angle_beta 40.904871
_cell_angle_gamma 90.000000
_cell_volume 2456.610831
_symmetry_space_group_name_H-M "C 2/M"
_symmetry_group_IT_number 12
_symmetry_cell_setting 'monoclinic'
loop_
_space_group_symop_operation_xyz
x,y,z
-x,y,-z
-x,-y,-z
x,-y,z
1/2+x,1/2+y,z
1/2-x,1/2+y,-z
1/2-x,1/2-y,-z
1/2+x,1/2-y,z
loop_
_atom_site_type_symbol
_atom_site_label
_atom_site_fract_x
_atom_site_fract_y
_atom_site_fract_z
Si Si1 0.207248 0.675920 0.477936
Si Si2 0.042647 0.823510 0.358897
Si Si3 0.715023 0.323245 0.130421
Si Si4 0.208290 0.824560 0.808873
Si Si5 0.536692 0.824768 0.696756
Si Si6 0.948129 0.671929 0.986934
O O1 0.209412 0.500000 0.490353
O O2 0.250000 0.750000 0.500000
O O3 0.246790 0.722426 0.336361
O O4 0.121859 0.735548 0.588700
O O5 0.128755 0.773065 0.252113
O O6 0.000000 0.761726 0.500000
O O7 0.006824 0.754400 0.321912
O O8 0.034534 0.000000 0.362421
O O9 0.723815 0.500000 0.111482
O O10 0.758569 0.267549 0.156147
O O11 0.750000 0.250000 0.000000
O O12 0.121839 0.781934 0.911461
O O13 0.215437 0.000000 0.818756
O O14 0.536282 0.000000 0.678624
O O15 0.495418 0.783538 0.840105
O O16 0.920520 0.500000 0.019117
O O17 0.000000 0.699632 0.000000
#
# Coordination Sequence:
#
# PCOD8107092 Si02
#       6
#     8   8   8   8   8   8
#     4  10  22  39  59  85 115 149 190 234 281 334
#     4  10  22  39  58  82 111 145 186 230 279 333
#     4  11  23  39  60  85 115 151 190 234 283 338
#     4  11  23  38  58  86 118 150 188 235 285 339
#     4  10  21  37  58  84 112 145 187 231 276 329
#     4  10  21  38  60  84 113 151 191 231 279 337
#
# _framework density 19.539114999999999
#
# number of rings (size 3 to 8) (size 9 to 14) (size 15 to 20)
#    0.000    1.667    0.000    4.000    0.000    8.667 
#    0.000    0.000    0.000    0.000    0.000    0.000 
#    0.000    0.000    0.000    0.000    0.000    0.000 
#
# Total GULP energy -297738.582858 kJ/mol
# GULP energy per Si atom -12405.774286 kJ/mol
# Density = 1.949464 g / cm^3
# Si number density = 19.539115 Si / 1000 Ang^3
#
#
#
# Elastic Constant Matrix: (Units=GPa)
#
#
# Indices 1 2 3 4 5 6 
#
# 1 190.1710 41.0165 104.8405 0.0161 0.2979 -0.0160
# 2 41.0165 37.4869 45.6435 0.0196 -1.5066 -0.0117
# 3 104.8405 45.6435 189.7554 0.0172 -5.4828 -0.0161
# 4 0.0161 0.0196 0.0172 31.8704 -0.0053 1.2007
# 5 0.2979 -1.5066 -5.4828 -0.0053 43.1285 0.0038
# 6 -0.0160 -0.0117 -0.0161 1.2007 0.0038 43.0870
#
#
#
# Elastic Compliance Matrix: (Units=1/GPa)
#
#
# Indices 1 2 3 4 5 6 
#
# 1 0.008160 -0.004868 -0.003356 0.000001 -0.000653 0.000000
# 2 -0.004868 0.040630 -0.007068 -0.000019 0.000554 0.000007
# 3 -0.003356 -0.007068 0.008850 0.000001 0.000901 0.000000
# 4 0.000001 -0.000019 0.000001 0.031410 0.000003 -0.000875
# 5 -0.000653 0.000554 0.000901 0.000003 0.023325 -0.000002
# 6 0.000000 0.000007 0.000000 -0.000875 -0.000002 0.023233
#
#
# Mechanical properties :
#
#
# Convention : Reuss Voigt Hill
#
# Bulk Modulus (GPa) = 36.95943 88.93492 62.94718
# Shear Modulus (GPa) = 28.53724 38.67804 33.60764
#
# Velocity S-wave (km/s) = 3.82582 4.45400 4.15181
# Velocity P-wave (km/s) = 6.20262 8.48917 7.43433
#
# Compressibility (1/GPa) = 0.02705669
#
# Stress axis : x y z
#
# Youngs Moduli (GPa) = 122.55544 24.61256 112.99010
#
# Poissons Ratio (x) = 0.11980 0.37922
# Poissons Ratio (y) = 0.59655 0.79857
# Poissons Ratio (z) = 0.41132 0.17395
#
# Static dielectric constant tensor:
#      x y z
#    x 3.183000 -0.000010 -0.261410 
#    y -0.000010 3.500730 0.000000 
#    z -0.261410 0.000000 3.686710 
# 
# 
# High freq. dielectric constant tensor:
#      x y z
#    x 1.778920 0.000000 0.000590 
#    y 0.000000 1.755810 0.000000 
#    z 0.000590 0.000000 1.783350 
# 
# From -- ./inp_files/244597.got.cif
#   From: 2010.06.25/outbox.cif.g09.slc.cpg/sg12_123_cif.got.tgz:244597.got - 2010.06.28 00:19:55.
