data_PCOD8107851
_publ_section_title
;
Structure prediction by ZEFSAII (Michael W. Deem and Ramdas Pophale) SiO2 
 PCOD8107851
Probable space group: C 2/M
;
_chemical_formula_sum "Si O2"
_cell_formula_units_Z 56
_cell_length_a 16.187994
_cell_length_b 8.894678
_cell_length_c 19.489667
_cell_angle_alpha 90.000000
_cell_angle_beta 108.916807
_cell_angle_gamma 90.000000
_cell_volume 2654.693387
_symmetry_space_group_name_H-M "C 2/M"
_symmetry_group_IT_number 12
_symmetry_cell_setting 'monoclinic'
loop_
_space_group_symop_operation_xyz
x,y,z
-x,y,-z
-x,-y,-z
x,-y,z
1/2+x,1/2+y,z
1/2-x,1/2+y,-z
1/2-x,1/2-y,-z
1/2+x,1/2-y,z
loop_
_atom_site_type_symbol
_atom_site_label
_atom_site_fract_x
_atom_site_fract_y
_atom_site_fract_z
Si Si1 0.281639 0.674941 0.306311
Si Si2 0.340159 0.678596 0.831933
Si Si3 0.032374 0.826837 0.705785
Si Si4 0.985399 0.322421 0.158506
Si Si5 0.529905 0.162728 0.439051
Si Si6 0.291015 0.840377 0.451461
Si Si7 0.786710 0.322083 0.078012
O O1 0.259122 0.500000 0.309201
O O2 0.199467 0.757100 0.249422
O O3 0.365492 0.699731 0.280654
O O4 0.303233 0.744575 0.385779
O O5 0.346296 0.500000 0.829628
O O6 0.438780 0.744764 0.867668
O O7 0.276223 0.730844 0.876589
O O8 0.999557 0.724653 0.759083
O O9 0.975769 0.776159 0.625588
O O10 0.012257 0.000000 0.716941
O O11 0.994829 0.500000 0.152603
O O12 0.887409 0.267308 0.112585
O O13 0.500000 0.249535 0.500000
O O14 0.624551 0.113894 0.484570
O O15 0.479919 0.000000 0.411317
O O16 0.250000 0.750000 0.500000
O O17 0.243685 0.000000 0.420249
O O18 0.784037 0.500000 0.071233
O O19 0.750000 0.250000 0.000000
#
# Coordination Sequence:
#
# PCOD8107851 Si02
#       7
#     8   8   8   8   8   8   8
#     4  11  23  40  63  91 124 168 218 272 331 390
#     4  11  24  44  68  99 134 174 222 270 324 387
#     4  11  23  38  62  92 122 162 213 268 324 385
#     4  11  24  44  68  98 134 174 218 264 321 387
#     4  10  21  38  58  80 110 155 207 258 319 380
#     4  11  24  40  58  82 119 165 214 272 331 387
#     4  10  24  45  72 102 137 176 214 262 321 386
#
# _framework density 21.094715000000001
#
# number of rings (size 3 to 8) (size 9 to 14) (size 15 to 20)
#    0.000    1.286    2.857    2.143    2.000    5.429 
#    0.000    2.857    0.000    0.000    0.000    0.000 
#    0.000    0.000    0.000    0.000    0.000    0.000 
#
# Total GULP energy -346900.127844 kJ/mol
# GULP energy per Si atom -12389.290280 kJ/mol
# Density = 2.104670 g / cm^3
# Si number density = 21.094715 Si / 1000 Ang^3
#
#
#
# Elastic Constant Matrix: (Units=GPa)
#
#
# Indices 1 2 3 4 5 6 
#
# 1 130.8608 51.3065 48.0334 0.0000 0.8610 0.0000
# 2 51.3065 101.8423 37.0246 0.0000 -1.6742 0.0000
# 3 48.0334 37.0246 101.3456 0.0000 12.2186 0.0000
# 4 0.0000 0.0000 0.0000 45.7025 0.0000 -3.9978
# 5 0.8610 -1.6742 12.2186 0.0000 23.3392 0.0000
# 6 0.0000 0.0000 0.0000 -3.9978 0.0000 34.3875
#
#
#
# Elastic Compliance Matrix: (Units=1/GPa)
#
#
# Indices 1 2 3 4 5 6 
#
# 1 0.010540 -0.003940 -0.003709 0.000000 0.001270 0.000000
# 2 -0.003940 0.013021 -0.003223 0.000000 0.002767 0.000000
# 3 -0.003709 -0.003223 0.013677 0.000000 -0.007255 0.000000
# 4 0.000000 0.000000 0.000000 0.022105 0.000000 0.002570
# 5 0.001270 0.002767 -0.007255 0.000000 0.046796 0.000000
# 6 0.000000 0.000000 0.000000 0.002570 0.000000 0.029379
#
#
# Mechanical properties :
#
#
# Convention : Reuss Voigt Hill
#
# Bulk Modulus (GPa) = 64.54351 67.41974 65.98162
# Shear Modulus (GPa) = 30.78279 33.86478 32.32378
#
# Velocity S-wave (km/s) = 3.82418 4.01105 3.91873
# Velocity P-wave (km/s) = 7.08255 7.31309 7.19874
#
# Compressibility (1/GPa) = 0.01549343
#
# Stress axis : x y z
#
# Youngs Moduli (GPa) = 94.87955 76.79618 73.11407
#
# Poissons Ratio (x) = 0.30261 0.27117
# Poissons Ratio (y) = 0.37387 0.23565
# Poissons Ratio (z) = 0.35190 0.24752
#
# Static dielectric constant tensor:
#      x y z
#    x 4.018400 0.000000 0.003210 
#    y 0.000000 3.698220 0.000000 
#    z 0.003210 0.000000 3.674200 
# 
# 
# High freq. dielectric constant tensor:
#      x y z
#    x 1.835890 0.000000 -0.002100 
#    y 0.000000 1.836030 0.000000 
#    z -0.002100 0.000000 1.816390 
# 
# From -- ./inp_files/275659.got.cif
#   From: 2010.06.25/outbox.cif.g09.slc.cpg/sg12_138_cif.got.tgz:275659.got - 2010.06.28 00:19:55.
