data_PCOD8107435
_publ_section_title
;
Structure prediction by ZEFSAII (Michael W. Deem and Ramdas Pophale) SiO2 
 PCOD8107435
Probable space group: C 2/M
;
_chemical_formula_sum "Si O2"
_cell_formula_units_Z 64
_cell_length_a 12.215105
_cell_length_b 19.261679
_cell_length_c 21.982698
_cell_angle_alpha 90.000000
_cell_angle_beta 141.795276
_cell_angle_gamma 90.000000
_cell_volume 3198.845133
_symmetry_space_group_name_H-M "C 2/M"
_symmetry_group_IT_number 12
_symmetry_cell_setting 'monoclinic'
loop_
_space_group_symop_operation_xyz
x,y,z
-x,y,-z
-x,-y,-z
x,-y,z
1/2+x,1/2+y,z
1/2-x,1/2+y,-z
1/2-x,1/2-y,-z
1/2+x,1/2-y,z
loop_
_atom_site_type_symbol
_atom_site_label
_atom_site_fract_x
_atom_site_fract_y
_atom_site_fract_z
Si Si1 0.289921 0.687403 0.834330
Si Si2 0.331587 0.421377 0.388423
Si Si3 0.130423 0.579059 0.607989
Si Si4 0.837379 0.277834 0.099510
Si Si5 0.516851 0.075796 0.691174
Si Si6 0.809486 0.666944 0.780069
Si Si7 0.512780 0.359065 0.187713
Si Si8 0.688031 0.920236 0.103249
O O1 0.317913 0.703328 0.919033
O O2 0.257480 0.754863 0.777586
O O3 0.443207 0.643262 0.866384
O O4 0.118291 0.639683 0.765024
O O5 0.500000 0.398633 0.500000
O O6 0.348686 0.500000 0.368191
O O7 0.180529 0.420098 0.372480
O O8 0.303111 0.362293 0.325229
O O9 0.180384 0.500000 0.612353
O O10 0.316033 0.619961 0.697661
O O11 0.000000 0.611856 0.500000
O O12 0.015018 0.583403 0.618071
O O13 0.979323 0.337645 0.143806
O O14 0.950094 0.216981 0.181722
O O15 0.750000 0.250000 0.000000
O O16 0.600792 0.000000 0.745212
O O17 0.755990 0.616860 0.811021
O O18 0.346191 0.410841 0.123165
O O19 0.659775 0.000000 0.105532
O O20 0.500000 0.887694 0.000000
#
# Coordination Sequence:
#
# PCOD8107435 Si02
#       8
#     8   8   8   8   8   8   8   8
#     4  10  21  39  63  92 121 159 210 258 317 376
#     4  10  21  38  60  87 121 165 215 258 312 381
#     4   9  18  34  60  91 119 156 207 255 309 375
#     4  11  22  39  63  88 121 160 212 259 312 387
#     4   9  18  37  61  85 120 159 200 257 312 364
#     4  11  22  37  62  88 124 161 210 259 318 372
#     4  10  21  37  60  86 124 162 203 258 312 370
#     4  11  23  39  60  91 132 168 208 260 319 384
#
# _framework density 20.007221000000001
#
# number of rings (size 3 to 8) (size 9 to 14) (size 15 to 20)
#    0.000    1.875    2.500    1.500    0.000    3.000 
#    0.000    8.750    0.000    0.750    0.000    8.750 
#    0.000    0.000    0.000    0.000    0.000    0.000 
#
# Total GULP energy -396465.633617 kJ/mol
# GULP energy per Si atom -12389.551051 kJ/mol
# Density = 1.996168 g / cm^3
# Si number density = 20.007221 Si / 1000 Ang^3
#
#
#
# Elastic Constant Matrix: (Units=GPa)
#
#
# Indices 1 2 3 4 5 6 
#
# 1 128.3468 41.0473 63.1941 0.0001 -1.1125 0.0000
# 2 41.0473 77.2116 40.3588 -0.0002 -2.3563 -0.0001
# 3 63.1941 40.3588 115.0710 -0.0013 -3.0331 -0.0005
# 4 0.0001 -0.0002 -0.0013 26.9947 -0.0003 1.8665
# 5 -1.1125 -2.3563 -3.0331 -0.0003 28.1689 -0.0001
# 6 0.0000 -0.0001 -0.0005 1.8665 -0.0001 29.0869
#
#
#
# Elastic Compliance Matrix: (Units=1/GPa)
#
#
# Indices 1 2 3 4 5 6 
#
# 1 0.011369 -0.003413 -0.005057 0.000000 -0.000381 0.000000
# 2 -0.003413 0.016898 -0.004030 0.000000 0.000845 0.000000
# 3 -0.005057 -0.004030 0.012903 0.000001 0.000853 0.000000
# 4 0.000000 0.000000 0.000001 0.037209 0.000000 -0.002388
# 5 -0.000381 0.000845 0.000853 0.000000 0.035648 0.000000
# 6 0.000000 0.000000 0.000000 -0.002388 0.000000 0.034533
#
#
# Mechanical properties :
#
#
# Convention : Reuss Voigt Hill
#
# Bulk Modulus (GPa) = 61.83790 67.75886 64.79838
# Shear Modulus (GPa) = 27.94066 28.58538 28.26302
#
# Velocity S-wave (km/s) = 3.74107 3.78399 3.76259
# Velocity P-wave (km/s) = 7.04526 7.28232 7.16477
#
# Compressibility (1/GPa) = 0.01617131
#
# Stress axis : x y z
#
# Youngs Moduli (GPa) = 87.95572 59.17850 77.49874
#
# Poissons Ratio (x) = 0.20195 0.39191
# Poissons Ratio (y) = 0.30015 0.31234
# Poissons Ratio (z) = 0.44479 0.23851
#
# Static dielectric constant tensor:
#      x y z
#    x 3.965090 0.000000 0.068300 
#    y 0.000000 3.835060 0.000000 
#    z 0.068300 0.000000 3.422400 
# 
# 
# High freq. dielectric constant tensor:
#      x y z
#    x 1.801180 0.000000 0.002220 
#    y 0.000000 1.775510 0.000000 
#    z 0.002220 0.000000 1.755060 
# 
# From -- ./inp_files/306802.got.cif
#   From: 2010.06.25/outbox.cif.g09.slc.cpg/sg12_154_cif.got.tgz:306802.got - 2010.06.28 00:19:55.
