data_PCOD8107646
_publ_section_title
;
Structure prediction by ZEFSAII (Michael W. Deem and Ramdas Pophale) SiO2 
 PCOD8107646
Probable space group: C 2/M
;
_chemical_formula_sum "Si O2"
_cell_formula_units_Z 64
_cell_length_a 12.086081
_cell_length_b 25.931104
_cell_length_c 14.829503
_cell_angle_alpha 90.000000
_cell_angle_beta 38.546372
_cell_angle_gamma 90.000000
_cell_volume 2896.170944
_symmetry_space_group_name_H-M "C 2/M"
_symmetry_group_IT_number 12
_symmetry_cell_setting 'monoclinic'
loop_
_space_group_symop_operation_xyz
x,y,z
-x,y,-z
-x,-y,-z
x,-y,z
1/2+x,1/2+y,z
1/2-x,1/2+y,-z
1/2-x,1/2-y,-z
1/2+x,1/2-y,z
loop_
_atom_site_type_symbol
_atom_site_label
_atom_site_fract_x
_atom_site_fract_y
_atom_site_fract_z
Si Si1 0.850538 0.394362 0.165558
Si Si2 0.949882 0.940262 0.754451
Si Si3 0.386192 0.443069 0.995035
Si Si4 0.479061 0.943249 0.265669
Si Si5 0.487541 0.864879 0.405920
Si Si6 0.881346 0.836189 0.345174
Si Si7 0.373119 0.294905 0.665637
Si Si8 0.156602 0.192918 0.827538
O O1 0.723083 0.435909 0.198464
O O2 0.737887 0.347068 0.276195
O O3 0.943658 0.421445 0.189758
O O4 0.000000 0.375079 0.000000
O O5 0.898536 0.920621 0.887277
O O6 0.091913 0.896000 0.637772
O O7 0.018418 0.000000 0.704630
O O8 0.471771 0.500000 0.934316
O O9 0.500000 0.411867 0.000000
O O10 0.186315 0.445905 0.153672
O O11 0.407361 0.908354 0.391786
O O12 0.392416 0.000000 0.327997
O O13 0.500000 0.887007 0.500000
O O14 0.328321 0.822216 0.508089
O O15 0.673027 0.841819 0.251439
O O16 0.929619 0.828098 0.209549
O O17 0.004785 0.797838 0.323137
O O18 0.500000 0.285213 0.500000
O O19 0.228922 0.250374 0.767933
O O20 0.000000 0.192190 0.000000
#
# Coordination Sequence:
#
# PCOD8107646 Si02
#       8
#     8   8   8   8   8   8   8   8
#     4  11  22  39  64  98 133 169 223 274 327 389
#     4  10  21  37  62  92 132 177 217 269 321 376
#     4   9  19  32  52  86 121 166 217 259 317 371
#     4  11  23  37  62  94 132 177 220 269 322 380
#     4  10  24  43  63  93 132 173 216 265 326 392
#     4  10  24  43  64  97 130 170 217 260 325 392
#     4  11  24  44  70  94 127 171 213 266 329 393
#     4  11  26  45  70  98 126 161 212 275 335 393
#
# _framework density 22.098143
#
# number of rings (size 3 to 8) (size 9 to 14) (size 15 to 20)
#    0.000    1.625    1.250    2.625    5.250    4.750 
#    0.000    0.000    0.000    4.125    0.000    0.000 
#    0.000    0.000    0.000    0.000    0.000    0.000 
#
# Total GULP energy -396574.495004 kJ/mol
# GULP energy per Si atom -12392.952969 kJ/mol
# Density = 2.204785 g / cm^3
# Si number density = 22.098143 Si / 1000 Ang^3
#
#
#
# Elastic Constant Matrix: (Units=GPa)
#
#
# Indices 1 2 3 4 5 6 
#
# 1 144.7170 43.0574 39.7336 -0.0001 1.4818 0.0001
# 2 43.0574 103.9722 35.6349 0.0000 8.1525 0.0000
# 3 39.7336 35.6349 135.0877 -0.0001 -4.4778 -0.0001
# 4 -0.0001 0.0000 -0.0001 21.1926 0.0000 3.0695
# 5 1.4818 8.1525 -4.4778 0.0000 25.9096 -0.0002
# 6 0.0001 0.0000 -0.0001 3.0695 -0.0002 22.0071
#
#
#
# Elastic Compliance Matrix: (Units=1/GPa)
#
#
# Indices 1 2 3 4 5 6 
#
# 1 0.008210 -0.002842 -0.001661 0.000000 0.000138 0.000000
# 2 -0.002842 0.011950 -0.002450 0.000000 -0.004021 0.000000
# 3 -0.001661 -0.002450 0.008615 0.000000 0.002355 0.000000
# 4 0.000000 0.000000 0.000000 0.048159 0.000000 -0.006717
# 5 0.000138 -0.004021 0.002355 0.000000 0.040260 0.000000
# 6 0.000000 0.000000 0.000000 -0.006717 0.000000 0.046377
#
#
# Mechanical properties :
#
#
# Convention : Reuss Voigt Hill
#
# Bulk Modulus (GPa) = 67.24477 68.95875 68.10176
# Shear Modulus (GPa) = 27.40751 31.51192 29.45971
#
# Velocity S-wave (km/s) = 3.52556 3.78034 3.65517
# Velocity P-wave (km/s) = 6.86067 7.09422 6.97843
#
# Compressibility (1/GPa) = 0.01487105
#
# Stress axis : x y z
#
# Youngs Moduli (GPa) = 121.80202 83.68494 116.07237
#
# Poissons Ratio (x) = 0.23780 0.19276
# Poissons Ratio (y) = 0.34611 0.28434
# Poissons Ratio (z) = 0.20228 0.20500
#
# Static dielectric constant tensor:
#      x y z
#    x 4.150870 0.000000 -0.014180 
#    y 0.000000 4.000120 0.000000 
#    z -0.014180 0.000000 3.824170 
# 
# 
# High freq. dielectric constant tensor:
#      x y z
#    x 1.884510 0.000000 -0.002200 
#    y 0.000000 1.861630 0.000000 
#    z -0.002200 0.000000 1.865530 
# 
# From -- ./inp_files/209371.got.cif
#   From: 2010.06.25/outbox.cif.g09.slc.cpg/sg12_105_cif.got.tgz:209371.got - 2010.06.28 00:19:55.
