data_PCOD8107872
_publ_section_title
;
Structure prediction by ZEFSAII (Michael W. Deem and Ramdas Pophale) SiO2 
 PCOD8107872
Probable space group: C 2/M
;
_chemical_formula_sum "Si O2"
_cell_formula_units_Z 56
_cell_length_a 25.239956
_cell_length_b 7.881788
_cell_length_c 16.202181
_cell_angle_alpha 90.000000
_cell_angle_beta 121.827828
_cell_angle_gamma 90.000000
_cell_volume 2738.546143
_symmetry_space_group_name_H-M "C 2/M"
_symmetry_group_IT_number 12
_symmetry_cell_setting 'monoclinic'
loop_
_space_group_symop_operation_xyz
x,y,z
-x,y,-z
-x,-y,-z
x,-y,z
1/2+x,1/2+y,z
1/2-x,1/2+y,-z
1/2-x,1/2-y,-z
1/2+x,1/2-y,z
loop_
_atom_site_type_symbol
_atom_site_label
_atom_site_fract_x
_atom_site_fract_y
_atom_site_fract_z
Si Si1 0.613402 0.694982 0.805947
Si Si2 0.161928 0.198307 0.019765
Si Si3 0.840757 0.197210 0.566654
Si Si4 0.528341 0.000000 0.150508
Si Si5 0.476042 0.303753 0.729581
Si Si6 0.902634 0.500000 0.948280
Si Si7 0.280570 0.806569 0.215233
Si Si8 0.754235 0.806711 0.638291
O O1 0.622330 0.500000 0.827846
O O2 0.540270 0.741602 0.733861
O O3 0.650697 0.745490 0.754627
O O4 0.643292 0.773454 0.914441
O O5 0.131012 0.322797 0.060222
O O6 0.235604 0.219242 0.099125
O O7 0.141674 0.000000 0.016382
O O8 0.915271 0.225648 0.622899
O O9 0.810236 0.270955 0.627328
O O10 0.811046 0.293072 0.464611
O O11 0.823234 0.000000 0.544920
O O12 0.529551 0.175486 0.200332
O O13 0.589031 0.000000 0.143098
O O14 0.467197 0.000000 0.047244
O O15 0.477883 0.500000 0.762714
O O16 0.254992 0.716622 0.278870
O O17 0.288432 0.000000 0.245768
O O18 0.772421 0.000000 0.669463
#
# Coordination Sequence:
#
# PCOD8107872 Si02
#       8
#     8   8   8   4   8   4   8   8
#     4  10  21  38  58  83 113 154 200 240 290 344
#     4  10  22  40  58  84 120 158 196 243 296 344
#     4   9  19  37  61  83 114 152 186 237 297 353
#     4  11  24  38  58  92 118 159 199 238 293 351
#     4  10  22  40  61  86 117 158 198 239 292 354
#     4  11  24  38  58  90 123 152 201 243 289 354
#     4  10  22  36  58  84 116 156 192 246 300 342
#     4   9  19  37  57  87 116 144 190 237 298 356
#
# _framework density 20.448806000000001
#
# number of rings (size 3 to 8) (size 9 to 14) (size 15 to 20)
#    0.000    2.143    1.429    0.429    6.000    1.143 
#    0.000    2.143    0.000    4.286    0.000    0.000 
#    0.000    0.000    0.000    0.000    0.000    0.000 
#
# Total GULP energy -346889.849626 kJ/mol
# GULP energy per Si atom -12388.923201 kJ/mol
# Density = 2.040226 g / cm^3
# Si number density = 20.448806 Si / 1000 Ang^3
#
#
#
# Elastic Constant Matrix: (Units=GPa)
#
#
# Indices 1 2 3 4 5 6 
#
# 1 128.3919 15.6815 52.7116 0.0000 5.6213 0.0000
# 2 15.6815 36.7804 5.5117 0.0000 3.4179 0.0000
# 3 52.7116 5.5117 77.5869 0.0000 6.9838 0.0000
# 4 0.0000 0.0000 0.0000 24.4107 0.0000 0.2461
# 5 5.6213 3.4179 6.9838 0.0000 30.6126 0.0000
# 6 0.0000 0.0000 0.0000 0.2461 0.0000 28.8684
#
#
#
# Elastic Compliance Matrix: (Units=1/GPa)
#
#
# Indices 1 2 3 4 5 6 
#
# 1 0.011278 -0.003702 -0.007402 0.000000 0.000031 0.000000
# 2 -0.003702 0.028913 0.000705 0.000000 -0.002709 0.000000
# 3 -0.007402 0.000705 0.018125 0.000000 -0.002854 0.000000
# 4 0.000000 0.000000 0.000000 0.040969 0.000000 -0.000349
# 5 0.000031 -0.002709 -0.002854 0.000000 0.033614 0.000000
# 6 0.000000 0.000000 0.000000 -0.000349 0.000000 0.034643
#
#
# Mechanical properties :
#
#
# Convention : Reuss Voigt Hill
#
# Bulk Modulus (GPa) = 26.65430 43.39654 35.02542
# Shear Modulus (GPa) = 24.89458 28.03529 26.46493
#
# Velocity S-wave (km/s) = 3.49293 3.70672 3.60141
# Velocity P-wave (km/s) = 5.41575 6.29188 5.87018
#
# Compressibility (1/GPa) = 0.03751740
#
# Stress axis : x y z
#
# Youngs Moduli (GPa) = 88.66431 34.58652 55.17362
#
# Poissons Ratio (x) = 0.12805 0.40841
# Poissons Ratio (y) = 0.32826 -0.03891
# Poissons Ratio (z) = 0.65632 -0.02439
#
# Static dielectric constant tensor:
#      x y z
#    x 4.730220 0.000000 -0.408040 
#    y 0.000000 4.638090 0.000000 
#    z -0.408040 0.000000 3.948080 
# 
# 
# High freq. dielectric constant tensor:
#      x y z
#    x 1.798920 0.000000 0.010030 
#    y 0.000000 1.793360 0.000000 
#    z 0.010030 0.000000 1.782890 
# 
# From -- ./inp_files/239056.got.cif
#   From: 2010.06.25/outbox.cif.g09.slc.cpg/sg12_120_cif.got.tgz:239056.got - 2010.06.28 00:19:55.
