data_PCOD8107517
_publ_section_title
;
Structure prediction by ZEFSAII (Michael W. Deem and Ramdas Pophale) SiO2 
 PCOD8107517
Probable space group: C 2/M
;
_chemical_formula_sum "Si O2"
_cell_formula_units_Z 64
_cell_length_a 19.523541
_cell_length_b 8.816398
_cell_length_c 23.901475
_cell_angle_alpha 90.000000
_cell_angle_beta 128.343828
_cell_angle_gamma 90.000000
_cell_volume 3226.694335
_symmetry_space_group_name_H-M "C 2/M"
_symmetry_group_IT_number 12
_symmetry_cell_setting 'monoclinic'
loop_
_space_group_symop_operation_xyz
x,y,z
-x,y,-z
-x,-y,-z
x,-y,z
1/2+x,1/2+y,z
1/2-x,1/2+y,-z
1/2-x,1/2-y,-z
1/2+x,1/2-y,z
loop_
_atom_site_type_symbol
_atom_site_label
_atom_site_fract_x
_atom_site_fract_y
_atom_site_fract_z
Si Si1 0.100547 0.179157 0.153546
Si Si2 0.228332 0.676670 0.572673
Si Si3 0.423934 0.179021 0.088483
Si Si4 0.388849 0.324877 0.577051
Si Si5 0.931132 0.679015 0.303918
Si Si6 0.849510 0.823902 0.157446
Si Si7 0.726190 0.179744 0.698569
Si Si8 0.350985 0.824449 0.932593
O O1 0.188248 0.243936 0.226860
O O2 0.096917 0.229308 0.087134
O O3 0.019273 0.249755 0.145225
O O4 0.095078 0.000000 0.155013
O O5 0.202123 0.500000 0.554899
O O6 0.325396 0.702767 0.597722
O O7 0.158883 0.776051 0.503875
O O8 0.225578 0.738127 0.634578
O O9 0.361351 0.238184 0.105256
O O10 0.430767 0.000000 0.095577
O O11 0.381784 0.232573 0.008746
O O12 0.416422 0.500000 0.586565
O O13 0.473610 0.221712 0.626307
O O14 0.923934 0.500000 0.291557
O O15 0.915413 0.759494 0.236871
O O16 0.860241 0.737413 0.313270
O O17 0.751266 0.793930 0.127535
O O18 0.869161 0.000000 0.158152
O O19 0.729932 0.000000 0.700765
O O20 0.374686 0.000000 0.936141
#
# Coordination Sequence:
#
# PCOD8107517 Si02
#       8
#     8   8   8   8   8   8   8   8
#     4  11  22  38  61  89 120 156 203 250 296 354
#     4   9  19  39  63  85 116 157 196 237 288 347
#     4  11  24  40  59  87 119 156 200 248 302 360
#     4  10  21  37  60  91 122 153 192 243 293 345
#     4  11  22  39  61  86 118 157 198 242 294 356
#     4  11  23  40  61  87 117 155 200 249 302 355
#     4   9  20  38  60  85 114 155 200 242 288 343
#     4  10  22  41  62  84 119 158 196 247 306 360
#
# _framework density 19.834538999999999
#
# number of rings (size 3 to 8) (size 9 to 14) (size 15 to 20)
#    0.000    1.750    1.250    2.625    1.750    4.000 
#    0.000    5.000    0.000    0.000    0.000    0.000 
#    0.000    0.000    0.000    0.000    0.000    0.000 
#
# Total GULP energy -396984.532893 kJ/mol
# GULP energy per Si atom -12405.766653 kJ/mol
# Density = 1.978939 g / cm^3
# Si number density = 19.834539 Si / 1000 Ang^3
#
#
#
# Elastic Constant Matrix: (Units=GPa)
#
#
# Indices 1 2 3 4 5 6 
#
# 1 66.0029 30.8388 34.3294 0.0000 -5.8697 0.0000
# 2 30.8388 54.0649 24.2881 0.0000 -1.7345 0.0000
# 3 34.3294 24.2881 95.6122 0.0000 -7.4029 0.0000
# 4 0.0000 0.0000 0.0000 33.3796 0.0000 0.1512
# 5 -5.8697 -1.7345 -7.4029 0.0000 40.8147 0.0000
# 6 0.0000 0.0000 0.0000 0.1512 0.0000 32.7214
#
#
#
# Elastic Compliance Matrix: (Units=1/GPa)
#
#
# Indices 1 2 3 4 5 6 
#
# 1 0.023151 -0.010697 -0.005449 0.000000 0.001886 0.000000
# 2 -0.010697 0.025822 -0.002792 0.000000 -0.000947 0.000000
# 3 -0.005449 -0.002792 0.013241 0.000000 0.001499 0.000000
# 4 0.000000 0.000000 0.000000 0.029959 0.000000 -0.000138
# 5 0.001886 -0.000947 0.001499 0.000000 0.025004 0.000000
# 6 0.000000 0.000000 0.000000 -0.000138 0.000000 0.030562
#
#
# Mechanical properties :
#
#
# Convention : Reuss Voigt Hill
#
# Bulk Modulus (GPa) = 41.08893 43.84363 42.46628
# Shear Modulus (GPa) = 25.80970 29.79805 27.80387
#
# Velocity S-wave (km/s) = 3.61120 3.88020 3.74811
# Velocity P-wave (km/s) = 6.17645 6.49825 6.33939
#
# Compressibility (1/GPa) = 0.02433746
#
# Stress axis : x y z
#
# Youngs Moduli (GPa) = 43.19546 38.72710 75.52488
#
# Poissons Ratio (x) = 0.41426 0.41152
# Poissons Ratio (y) = 0.46205 0.21087
# Poissons Ratio (z) = 0.23537 0.10813
#
# Static dielectric constant tensor:
#      x y z
#    x 3.689720 0.000000 -0.020890 
#    y 0.000000 3.462800 0.000000 
#    z -0.020890 0.000000 3.655670 
# 
# 
# High freq. dielectric constant tensor:
#      x y z
#    x 1.781820 0.000000 0.000400 
#    y 0.000000 1.765630 0.000000 
#    z 0.000400 0.000000 1.780330 
# 
# From -- ./inp_files/346171.got.cif
#   From: 2010.06.25/outbox.cif.g09.slc.cpg/sg12_174_cif.got.tgz:346171.got - 2010.06.28 00:19:55.
