data_PCOD8107312
_publ_section_title
;
Structure prediction by ZEFSAII (Michael W. Deem and Ramdas Pophale) SiO2 
 PCOD8107312
Probable space group: C 2/M
;
_chemical_formula_sum "Si O2"
_cell_formula_units_Z 40
_cell_length_a 15.457235
_cell_length_b 13.790019
_cell_length_c 19.545204
_cell_angle_alpha 90.000000
_cell_angle_beta 154.226007
_cell_angle_gamma 90.000000
_cell_volume 1811.543569
_symmetry_space_group_name_H-M "C 2/M"
_symmetry_group_IT_number 12
_symmetry_cell_setting 'monoclinic'
loop_
_space_group_symop_operation_xyz
x,y,z
-x,y,-z
-x,-y,-z
x,-y,z
1/2+x,1/2+y,z
1/2-x,1/2+y,-z
1/2-x,1/2-y,-z
1/2+x,1/2-y,z
loop_
_atom_site_type_symbol
_atom_site_label
_atom_site_fract_x
_atom_site_fract_y
_atom_site_fract_z
Si Si1 0.720331 0.388044 0.681256
Si Si2 0.955921 0.243627 0.108154
Si Si3 0.478489 0.109059 0.406370
Si Si4 0.713272 0.720063 0.810170
Si Si5 0.077205 0.108705 0.299137
O O1 0.500000 0.357148 0.500000
O O2 0.760395 0.500000 0.694503
O O3 0.747099 0.367071 0.780951
O O4 0.887076 0.327661 0.758218
O O5 0.049495 0.141205 0.199400
O O6 0.750000 0.250000 0.000000
O O7 0.911861 0.254489 0.995700
O O8 0.500000 0.143003 0.500000
O O9 0.333561 0.182645 0.264952
O O10 0.690000 0.110881 0.518134
O O11 0.389746 0.000000 0.339943
O O12 0.534369 0.685106 0.731741
O O13 0.990887 0.000000 0.246698
#
# Coordination Sequence:
#
# PCOD8107312 Si02
#       5
#     8   8   8   8   8
#     4  11  24  42  66  95 128 167 211 262 318 378
#     4  10  23  39  59  90 126 165 204 255 318 376
#     4  10  21  37  59  86 122 168 212 256 308 374
#     4  11  21  37  62  91 122 158 206 264 320 372
#     4  10  21  38  58  84 121 165 210 258 316 376
#
# _framework density 22.080615999999999
#
# number of rings (size 3 to 8) (size 9 to 14) (size 15 to 20)
#    0.000    1.600    0.000    4.800    0.000    7.200 
#    0.000    7.000    0.000    6.000    0.000    0.000 
#    0.000    0.000    0.000    0.000    0.000    0.000 
#
# Total GULP energy -247913.154070 kJ/mol
# GULP energy per Si atom -12395.657703 kJ/mol
# Density = 2.203036 g / cm^3
# Si number density = 22.080616 Si / 1000 Ang^3
#
#
#
# Elastic Constant Matrix: (Units=GPa)
#
#
# Indices 1 2 3 4 5 6 
#
# 1 66.8248 28.3364 17.8733 0.0187 -2.7536 0.0034
# 2 28.3364 133.4697 56.6654 0.0260 -3.7128 0.0041
# 3 17.8733 56.6654 108.7643 0.0531 -2.8688 0.0073
# 4 0.0187 0.0260 0.0531 22.6777 0.0068 -4.8871
# 5 -2.7536 -3.7128 -2.8688 0.0068 37.7157 0.0006
# 6 0.0034 0.0041 0.0073 -4.8871 0.0006 37.8541
#
#
#
# Elastic Compliance Matrix: (Units=1/GPa)
#
#
# Indices 1 2 3 4 5 6 
#
# 1 0.016580 -0.003017 -0.001131 -0.000008 0.000827 -0.000002
# 2 -0.003017 0.010181 -0.004798 0.000002 0.000417 0.000000
# 3 -0.001131 -0.004798 0.011889 -0.000022 0.000349 -0.000005
# 4 -0.000008 0.000002 -0.000022 0.045358 -0.000010 0.005856
# 5 0.000827 0.000417 0.000349 -0.000010 0.026642 -0.000002
# 6 -0.000002 0.000000 -0.000005 0.005856 -0.000002 0.027173
#
#
# Mechanical properties :
#
#
# Convention : Reuss Voigt Hill
#
# Bulk Modulus (GPa) = 48.17098 57.20101 52.68599
# Shear Modulus (GPa) = 30.74367 33.39510 32.06938
#
# Velocity S-wave (km/s) = 3.73545 3.89320 3.81514
# Velocity P-wave (km/s) = 6.36146 6.79493 6.58176
#
# Compressibility (1/GPa) = 0.02075939
#
# Stress axis : x y z
#
# Youngs Moduli (GPa) = 60.31210 98.21930 84.11273
#
# Poissons Ratio (x) = 0.29632 0.09514
# Poissons Ratio (y) = 0.18196 0.40354
# Poissons Ratio (z) = 0.06822 0.47122
#
# Static dielectric constant tensor:
#      x y z
#    x 4.096760 0.000000 -0.112730 
#    y 0.000000 4.011990 -0.000040 
#    z -0.112730 -0.000040 4.414500 
# 
# 
# High freq. dielectric constant tensor:
#      x y z
#    x 1.874170 0.000000 0.012220 
#    y 0.000000 1.867320 0.000000 
#    z 0.012220 0.000000 1.872970 
# 
# From -- ./inp_files/96639.got.cif
#   From: 2010.06.25/outbox.cif.g09.slc.cpg/sg12_49_cif.got.tgz:96639.got - 2010.06.28 00:19:55.
