data_PCOD8107725
_publ_section_title
;
Structure prediction by ZEFSAII (Michael W. Deem and Ramdas Pophale) SiO2 
 PCOD8107725
Probable space group: C 2/M
;
_chemical_formula_sum "Si O2"
_cell_formula_units_Z 48
_cell_length_a 26.677230
_cell_length_b 13.324880
_cell_length_c 9.710347
_cell_angle_alpha 90.000000
_cell_angle_beta 41.123659
_cell_angle_gamma 90.000000
_cell_volume 2270.166038
_symmetry_space_group_name_H-M "C 2/M"
_symmetry_group_IT_number 12
_symmetry_cell_setting 'monoclinic'
loop_
_space_group_symop_operation_xyz
x,y,z
-x,y,-z
-x,-y,-z
x,-y,z
1/2+x,1/2+y,z
1/2-x,1/2+y,-z
1/2-x,1/2-y,-z
1/2+x,1/2-y,z
loop_
_atom_site_type_symbol
_atom_site_label
_atom_site_fract_x
_atom_site_fract_y
_atom_site_fract_z
Si Si1 0.256444 0.114034 0.629352
Si Si2 0.519890 0.616391 0.803678
Si Si3 0.180928 0.818879 0.531141
Si Si4 0.698954 0.615547 0.054693
Si Si5 0.308109 0.882953 0.067163
Si Si6 0.437510 0.260766 0.737584
O O1 0.183804 0.134747 0.679640
O O2 0.321913 0.196643 0.459902
O O3 0.287603 0.000000 0.548078
O O4 0.228472 0.134335 0.840433
O O5 0.500964 0.500000 0.818652
O O6 0.609852 0.636728 0.595332
O O7 0.473076 0.679885 0.791541
O O8 0.500000 0.650831 0.000000
O O9 0.260509 0.855331 0.300725
O O10 0.685710 0.500000 0.116842
O O11 0.617460 0.668128 0.239020
O O12 0.761176 0.658979 0.032486
O O13 0.390937 0.832031 0.897387
O O14 0.323475 0.000000 0.026400
O O15 0.500000 0.220634 0.500000
#
# Coordination Sequence:
#
# PCOD8107725 Si02
#       6
#     8   8   8   8   8   8
#     4  10  21  37  65  98 123 155 207 259 305 358
#     4  11  25  43  64  94 131 165 200 251 320 378
#     4  11  22  40  68  93 125 164 206 259 304 363
#     4  10  21  40  65  90 122 160 207 260 307 363
#     4  11  24  42  64  91 121 165 217 258 304 364
#     4  12  25  39  61  91 130 165 202 260 315 371
#
# _framework density 21.143827999999999
#
# number of rings (size 3 to 8) (size 9 to 14) (size 15 to 20)
#    0.000    1.167    1.667    4.500    4.667    5.667 
#    0.000    0.833    0.000    1.000    0.000    0.000 
#    0.000    0.000    0.000    0.000    0.000    0.000 
#
# Total GULP energy -297657.539375 kJ/mol
# GULP energy per Si atom -12402.397474 kJ/mol
# Density = 2.109570 g / cm^3
# Si number density = 21.143828 Si / 1000 Ang^3
#
#
#
# Elastic Constant Matrix: (Units=GPa)
#
#
# Indices 1 2 3 4 5 6 
#
# 1 123.6252 46.2432 38.4243 0.0000 1.1121 0.0000
# 2 46.2432 86.7772 38.4423 0.0000 0.1747 0.0000
# 3 38.4243 38.4423 96.3178 0.0000 -6.2180 0.0000
# 4 0.0000 0.0000 0.0000 23.8935 0.0000 -0.3256
# 5 1.1121 0.1747 -6.2180 0.0000 31.5644 0.0000
# 6 0.0000 0.0000 0.0000 -0.3256 0.0000 34.3370
#
#
#
# Elastic Compliance Matrix: (Units=1/GPa)
#
#
# Indices 1 2 3 4 5 6 
#
# 1 0.010556 -0.004536 -0.002454 0.000000 -0.000830 0.000000
# 2 -0.004536 0.015993 -0.004628 0.000000 -0.000840 0.000000
# 3 -0.002454 -0.004628 0.013386 0.000000 0.002749 0.000000
# 4 0.000000 0.000000 0.000000 0.041858 0.000000 0.000397
# 5 -0.000830 -0.000840 0.002749 0.000000 0.032257 0.000000
# 6 0.000000 0.000000 0.000000 0.000397 0.000000 0.029127
#
#
# Mechanical properties :
#
#
# Convention : Reuss Voigt Hill
#
# Bulk Modulus (GPa) = 59.88609 61.43775 60.66192
# Shear Modulus (GPa) = 29.07333 30.19966 29.63649
#
# Velocity S-wave (km/s) = 3.71216 3.78338 3.74794
# Velocity P-wave (km/s) = 6.83800 6.94301 6.89070
#
# Compressibility (1/GPa) = 0.01669837
#
# Stress axis : x y z
#
# Youngs Moduli (GPa) = 94.73173 62.52767 74.70610
#
# Poissons Ratio (x) = 0.28365 0.18334
# Poissons Ratio (y) = 0.42974 0.34571
# Poissons Ratio (z) = 0.23249 0.28935
#
# Static dielectric constant tensor:
#      x y z
#    x 3.914880 0.000000 0.108290 
#    y 0.000000 3.950750 0.000000 
#    z 0.108290 0.000000 3.735390 
# 
# 
# High freq. dielectric constant tensor:
#      x y z
#    x 1.832720 0.000000 0.020570 
#    y 0.000000 1.838500 0.000000 
#    z 0.020570 0.000000 1.820080 
# 
# From -- ./inp_files/104942.got.cif
#   From: 2010.06.25/outbox.cif.g09.slc.cpg/sg12_53_cif.got.tgz:104942.got - 2010.06.28 00:19:55.
