data_PCOD8107503
_publ_section_title
;
Structure prediction by ZEFSAII (Michael W. Deem and Ramdas Pophale) SiO2 
 PCOD8107503
Probable space group: C 2/M
;
_chemical_formula_sum "Si O2"
_cell_formula_units_Z 48
_cell_length_a 16.317842
_cell_length_b 13.966345
_cell_length_c 11.385448
_cell_angle_alpha 90.000000
_cell_angle_beta 112.393495
_cell_angle_gamma 90.000000
_cell_volume 2399.078579
_symmetry_space_group_name_H-M "C 2/M"
_symmetry_group_IT_number 12
_symmetry_cell_setting 'monoclinic'
loop_
_space_group_symop_operation_xyz
x,y,z
-x,y,-z
-x,-y,-z
x,-y,z
1/2+x,1/2+y,z
1/2-x,1/2+y,-z
1/2-x,1/2-y,-z
1/2+x,1/2-y,z
loop_
_atom_site_type_symbol
_atom_site_label
_atom_site_fract_x
_atom_site_fract_y
_atom_site_fract_z
Si Si1 0.735788 0.109333 0.207944
Si Si2 0.401077 0.250949 0.944951
Si Si3 0.409710 0.609180 0.166060
Si Si4 0.756271 0.108350 0.485154
Si Si5 0.083842 0.793964 0.304064
Si Si6 0.063279 0.391847 0.425349
O O1 0.670568 0.166726 0.085591
O O2 0.836265 0.127117 0.224566
O O3 0.726288 0.142222 0.338312
O O4 0.707291 0.000000 0.179054
O O5 0.385900 0.305153 0.813686
O O6 0.500000 0.206850 0.000000
O O7 0.388273 0.325685 0.042288
O O8 0.410348 0.500000 0.122456
O O9 0.502466 0.633576 0.279461
O O10 0.832788 0.179211 0.569447
O O11 0.667932 0.113378 0.518310
O O12 0.793961 0.000000 0.502013
O O13 0.047306 0.687246 0.315363
O O14 0.042222 0.500000 0.367180
O O15 0.000000 0.367056 0.500000
#
# Coordination Sequence:
#
# PCOD8107503 Si02
#       6
#     8   8   8   8   8   8
#     4  10  21  39  61  85 119 152 191 248 294 346
#     4  10  22  38  59  85 113 158 203 241 290 342
#     4  10  23  40  59  88 120 155 198 244 292 343
#     4  10  21  37  60  90 119 152 193 241 299 353
#     4  11  22  36  63  88 118 158 193 240 295 353
#     4  10  22  38  56  84 122 157 192 236 286 346
#
# _framework density 20.007681999999999
#
# number of rings (size 3 to 8) (size 9 to 14) (size 15 to 20)
#    0.000    1.833    1.667    1.500    2.333    4.000 
#    0.000    5.000    0.000    9.000    0.000    0.000 
#    0.000    0.000    0.000    0.000    0.000    0.000 
#
# Total GULP energy -297560.692538 kJ/mol
# GULP energy per Si atom -12398.362189 kJ/mol
# Density = 1.996214 g / cm^3
# Si number density = 20.007682 Si / 1000 Ang^3
#
#
#
# Elastic Constant Matrix: (Units=GPa)
#
#
# Indices 1 2 3 4 5 6 
#
# 1 126.1383 53.2648 47.2499 0.0000 3.0552 0.0000
# 2 53.2648 91.6649 46.2104 0.0000 3.6533 0.0000
# 3 47.2499 46.2104 87.1221 0.0000 9.4387 0.0000
# 4 0.0000 0.0000 0.0000 32.7107 0.0000 6.1338
# 5 3.0552 3.6533 9.4387 0.0000 31.4601 0.0000
# 6 0.0000 0.0000 0.0000 6.1338 0.0000 29.1022
#
#
#
# Elastic Compliance Matrix: (Units=1/GPa)
#
#
# Indices 1 2 3 4 5 6 
#
# 1 0.011287 -0.004729 -0.003673 0.000000 0.000555 0.000000
# 2 -0.004729 0.016886 -0.006438 0.000000 0.000430 0.000000
# 3 -0.003673 -0.006438 0.017329 0.000000 -0.004095 0.000000
# 4 0.000000 0.000000 0.000000 0.031829 0.000000 -0.006708
# 5 0.000555 0.000430 -0.004095 0.000000 0.032911 0.000000
# 6 0.000000 0.000000 0.000000 -0.006708 0.000000 0.035776
#
#
# Mechanical properties :
#
#
# Convention : Reuss Voigt Hill
#
# Bulk Modulus (GPa) = 63.20856 66.48618 64.84737
# Shear Modulus (GPa) = 27.62852 29.20128 28.41490
#
# Velocity S-wave (km/s) = 3.72007 3.82449 3.77264
# Velocity P-wave (km/s) = 7.07903 7.26669 7.17347
#
# Compressibility (1/GPa) = 0.01582064
#
# Stress axis : x y z
#
# Youngs Moduli (GPa) = 88.59473 59.22126 57.70737
#
# Poissons Ratio (x) = 0.28007 0.21198
# Poissons Ratio (y) = 0.41898 0.37153
# Poissons Ratio (z) = 0.32544 0.38128
#
# Static dielectric constant tensor:
#      x y z
#    x 3.831890 0.000000 0.026420 
#    y 0.000000 3.719150 0.000000 
#    z 0.026420 0.000000 3.432250 
# 
# 
# High freq. dielectric constant tensor:
#      x y z
#    x 1.796170 0.000000 0.003370 
#    y 0.000000 1.789580 0.000000 
#    z 0.003370 0.000000 1.755740 
# 
# From -- ./inp_files/143550.got.cif
#   From: 2010.06.25/outbox.cif.g09.slc.cpg/sg12_72_cif.got.tgz:143550.got - 2010.06.28 00:19:55.
