data_PCOD8107109
_publ_section_title
;
Structure prediction by ZEFSAII (Michael W. Deem and Ramdas Pophale) SiO2 
 PCOD8107109
Probable space group: C 2/M
;
_chemical_formula_sum "Si O2"
_cell_formula_units_Z 64
_cell_length_a 25.064037
_cell_length_b 9.052182
_cell_length_c 15.612990
_cell_angle_alpha 90.000000
_cell_angle_beta 70.129077
_cell_angle_gamma 90.000000
_cell_volume 3331.432777
_symmetry_space_group_name_H-M "C 2/M"
_symmetry_group_IT_number 12
_symmetry_cell_setting 'monoclinic'
loop_
_space_group_symop_operation_xyz
x,y,z
-x,y,-z
-x,-y,-z
x,-y,z
1/2+x,1/2+y,z
1/2-x,1/2+y,-z
1/2-x,1/2-y,-z
1/2+x,1/2-y,z
loop_
_atom_site_type_symbol
_atom_site_label
_atom_site_fract_x
_atom_site_fract_y
_atom_site_fract_z
Si Si1 0.008161 0.326196 0.196879
Si Si2 0.475441 0.325241 0.644185
Si Si3 0.787479 0.672789 0.244287
Si Si4 0.282052 0.166653 0.056431
Si Si5 0.286680 0.672897 0.552728
Si Si6 0.904009 0.824910 0.181442
Si Si7 0.911934 0.668107 0.002654
Si Si8 0.412244 0.674346 0.511648
O O1 0.998559 0.500000 0.210139
O O2 0.948338 0.242322 0.224390
O O3 0.040780 0.264628 0.262133
O O4 0.045652 0.283780 0.094671
O O5 0.470929 0.500000 0.662583
O O6 0.539641 0.280046 0.582425
O O7 0.431281 0.271817 0.595600
O O8 0.804371 0.500000 0.230479
O O9 0.767450 0.725711 0.160401
O O10 0.738629 0.704752 0.339400
O O11 0.842668 0.764165 0.241674
O O12 0.261244 0.000000 0.060917
O O13 0.250000 0.250000 0.000000
O O14 0.348594 0.183590 0.001795
O O15 0.286306 0.500000 0.532410
O O16 0.250000 0.750000 0.500000
O O17 0.350736 0.739033 0.518304
O O18 0.904031 0.000000 0.188548
O O19 0.922205 0.775532 0.076574
O O20 0.923705 0.500000 0.026743
O O21 0.407110 0.500000 0.518729
#
# Coordination Sequence:
#
# PCOD8107109 Si02
#       8
#     8   8   8   8   8   8   8   8
#     4  11  22  35  54  80 110 144 179 219 272 331
#     4   9  18  35  58  82 107 144 186 227 276 329
#     4   9  20  38  55  76 111 151 186 222 278 341
#     4   9  18  34  55  78 106 143 182 222 270 324
#     4  10  21  37  58  84 113 149 191 233 279 333
#     4  11  22  35  55  80 108 140 181 230 272 321
#     4   9  20  38  54  73 108 148 179 215 272 332
#     4   8  17  36  58  79 111 146 180 228 283 328
#
# _framework density 19.210953
#
# number of rings (size 3 to 8) (size 9 to 14) (size 15 to 20)
#    0.000    2.500    0.000    3.375    1.750    6.000 
#    0.000    3.125    0.000    0.000    0.000    0.000 
#    0.000    0.000    0.000    0.000    0.000    0.000 
#
# Total GULP energy -396770.593652 kJ/mol
# GULP energy per Si atom -12399.081052 kJ/mol
# Density = 1.916723 g / cm^3
# Si number density = 19.210953 Si / 1000 Ang^3
#
#
#
# Elastic Constant Matrix: (Units=GPa)
#
#
# Indices 1 2 3 4 5 6 
#
# 1 115.2658 29.7815 38.8511 0.0000 6.1937 0.0000
# 2 29.7815 63.4977 26.5809 0.0000 2.7400 0.0000
# 3 38.8511 26.5809 64.8450 0.0000 1.6467 0.0000
# 4 0.0000 0.0000 0.0000 28.4358 0.0000 6.2826
# 5 6.1937 2.7400 1.6467 0.0000 26.9076 0.0000
# 6 0.0000 0.0000 0.0000 6.2826 0.0000 25.6338
#
#
#
# Elastic Compliance Matrix: (Units=1/GPa)
#
#
# Indices 1 2 3 4 5 6 
#
# 1 0.011425 -0.002931 -0.005593 0.000000 -0.001989 0.000000
# 2 -0.002931 0.019820 -0.006344 0.000000 -0.000955 0.000000
# 3 -0.005593 -0.006344 0.021357 0.000000 0.000626 0.000000
# 4 0.000000 0.000000 0.000000 0.037180 0.000000 -0.009113
# 5 -0.001989 -0.000955 0.000626 0.000000 0.037681 0.000000
# 6 0.000000 0.000000 0.000000 -0.009113 0.000000 0.041244
#
#
# Mechanical properties :
#
#
# Convention : Reuss Voigt Hill
#
# Bulk Modulus (GPa) = 43.73421 48.22618 45.98019
# Shear Modulus (GPa) = 24.26394 26.08844 25.17619
#
# Velocity S-wave (km/s) = 3.55776 3.68910 3.62403
# Velocity P-wave (km/s) = 6.30013 6.58057 6.44188
#
# Compressibility (1/GPa) = 0.02286539
#
# Stress axis : x y z
#
# Youngs Moduli (GPa) = 87.52696 50.45307 46.82303
#
# Poissons Ratio (x) = 0.14790 0.26188
# Poissons Ratio (y) = 0.25658 0.29705
# Poissons Ratio (z) = 0.48954 0.32008
#
# Static dielectric constant tensor:
#      x y z
#    x 3.727960 0.000000 -0.064710 
#    y 0.000000 3.279740 0.000000 
#    z -0.064710 0.000000 3.615720 
# 
# 
# High freq. dielectric constant tensor:
#      x y z
#    x 1.750320 0.000000 0.003980 
#    y 0.000000 1.724920 0.000000 
#    z 0.003980 0.000000 1.752630 
# 
# From -- ./inp_files/243761.got.cif
#   From: 2010.06.25/outbox.cif.g09.slc.cpg/sg12_122_cif.got.tgz:243761.got - 2010.06.28 00:19:55.
