data_PCOD8107064
_publ_section_title
;
Structure prediction by ZEFSAII (Michael W. Deem and Ramdas Pophale) SiO2 
 PCOD8107064
Probable space group: C 2/M
;
_chemical_formula_sum "Si O2"
_cell_formula_units_Z 56
_cell_length_a 19.495756
_cell_length_b 8.875822
_cell_length_c 16.835729
_cell_angle_alpha 90.000000
_cell_angle_beta 106.976435
_cell_angle_gamma 90.000000
_cell_volume 2786.323105
_symmetry_space_group_name_H-M "C 2/M"
_symmetry_group_IT_number 12
_symmetry_cell_setting 'monoclinic'
loop_
_space_group_symop_operation_xyz
x,y,z
-x,y,-z
-x,-y,-z
x,-y,z
1/2+x,1/2+y,z
1/2-x,1/2+y,-z
1/2-x,1/2-y,-z
1/2+x,1/2-y,z
loop_
_atom_site_type_symbol
_atom_site_label
_atom_site_fract_x
_atom_site_fract_y
_atom_site_fract_z
Si Si1 0.343841 0.327504 0.888245
Si Si2 0.822825 0.178118 0.492184
Si Si3 0.815214 0.321125 0.178958
Si Si4 0.094166 0.322447 0.937673
Si Si5 0.466252 0.327906 0.813931
Si Si6 0.108514 0.320890 0.636043
Si Si7 0.965860 0.176857 0.632872
O O1 0.337992 0.500000 0.914187
O O2 0.265461 0.256907 0.847094
O O3 0.385423 0.313540 0.819014
O O4 0.385285 0.239476 0.970204
O O5 0.750000 0.250000 0.500000
O O6 0.841438 0.248271 0.413584
O O7 0.887704 0.218668 0.573485
O O8 0.812360 0.000000 0.480472
O O9 0.814453 0.500000 0.181060
O O10 0.851914 0.259706 0.111326
O O11 0.859365 0.262536 0.269570
O O12 0.096353 0.500000 0.942459
O O13 0.014683 0.271965 0.887884
O O14 0.492969 0.500000 0.826800
O O15 0.468300 0.267411 0.724773
O O16 0.109946 0.500000 0.627556
O O17 0.026542 0.263254 0.602710
O O18 0.980712 0.000000 0.630047
#
# Coordination Sequence:
#
# PCOD8107064 Si02
#       7
#     8   8   8   8   8   8   8
#     4  10  21  37  58  82 113 156 203 245 292 353
#     4  11  25  43  65  95 127 159 197 247 301 358
#     4   9  20  37  59  85 116 155 198 245 295 350
#     4  11  21  37  57  84 119 153 193 247 303 351
#     4  10  21  37  60  85 112 154 202 243 290 353
#     4  11  22  40  66  92 123 162 202 246 300 360
#     4  10  22  41  64  89 121 160 204 250 296 355
#
# _framework density 20.098172999999999
#
# number of rings (size 3 to 8) (size 9 to 14) (size 15 to 20)
#    0.000    1.714    1.429    2.571    2.000    5.143 
#    0.000    2.143    0.000    0.000    0.000    0.000 
#    0.000    0.000    0.000    0.000    0.000    0.000 
#
# Total GULP energy -347299.240572 kJ/mol
# GULP energy per Si atom -12403.544306 kJ/mol
# Density = 2.005243 g / cm^3
# Si number density = 20.098173 Si / 1000 Ang^3
#
#
#
# Elastic Constant Matrix: (Units=GPa)
#
#
# Indices 1 2 3 4 5 6 
#
# 1 141.6697 37.6100 38.8269 0.0000 -6.9248 0.0000
# 2 37.6100 61.8626 29.2730 0.0000 -4.1250 0.0000
# 3 38.8269 29.2730 90.0606 0.0000 -5.8844 0.0000
# 4 0.0000 0.0000 0.0000 25.6660 0.0000 -4.4022
# 5 -6.9248 -4.1250 -5.8844 0.0000 35.1011 0.0000
# 6 0.0000 0.0000 0.0000 -4.4022 0.0000 31.8605
#
#
#
# Elastic Compliance Matrix: (Units=1/GPa)
#
#
# Indices 1 2 3 4 5 6 
#
# 1 0.008875 -0.004201 -0.002405 0.000000 0.000854 0.000000
# 2 -0.004201 0.021143 -0.005008 0.000000 0.000816 0.000000
# 3 -0.002405 -0.005008 0.013850 0.000000 0.001259 0.000000
# 4 0.000000 0.000000 0.000000 0.039908 0.000000 0.005514
# 5 0.000854 0.000816 0.001259 0.000000 0.028965 0.000000
# 6 0.000000 0.000000 0.000000 0.005514 0.000000 0.032149
#
#
# Mechanical properties :
#
#
# Convention : Reuss Voigt Hill
#
# Bulk Modulus (GPa) = 48.44682 56.11254 52.27968
# Shear Modulus (GPa) = 28.57207 31.05105 29.81156
#
# Velocity S-wave (km/s) = 3.77454 3.93487 3.85554
# Velocity P-wave (km/s) = 6.56914 6.97310 6.77413
#
# Compressibility (1/GPa) = 0.02064119
#
# Stress axis : x y z
#
# Youngs Moduli (GPa) = 112.68038 47.29752 72.19974
#
# Poissons Ratio (x) = 0.19867 0.17364
# Poissons Ratio (y) = 0.47331 0.36157
# Poissons Ratio (z) = 0.27099 0.23686
#
# Static dielectric constant tensor:
#      x y z
#    x 3.821660 0.000000 -0.023960 
#    y 0.000000 3.464040 0.000000 
#    z -0.023960 0.000000 3.768870 
# 
# 
# High freq. dielectric constant tensor:
#      x y z
#    x 1.800100 0.000000 -0.003650 
#    y 0.000000 1.768350 0.000000 
#    z -0.003650 0.000000 1.791830 
# 
# From -- ./inp_files/275587.got.cif
#   From: 2010.06.25/outbox.cif.g09.slc.cpg/sg12_138_cif.got.tgz:275587.got - 2010.06.28 00:19:55.
