data_PCOD8107349
_publ_section_title
;
Structure prediction by ZEFSAII (Michael W. Deem and Ramdas Pophale) SiO2 
 PCOD8107349
Probable space group: C 2/M
;
_chemical_formula_sum "Si O2"
_cell_formula_units_Z 48
_cell_length_a 14.785786
_cell_length_b 8.679705
_cell_length_c 18.681991
_cell_angle_alpha 90.000000
_cell_angle_beta 88.496219
_cell_angle_gamma 90.000000
_cell_volume 2396.751130
_symmetry_space_group_name_H-M "C 2/M"
_symmetry_group_IT_number 12
_symmetry_cell_setting 'monoclinic'
loop_
_space_group_symop_operation_xyz
x,y,z
-x,y,-z
-x,-y,-z
x,-y,z
1/2+x,1/2+y,z
1/2-x,1/2+y,-z
1/2-x,1/2-y,-z
1/2+x,1/2-y,z
loop_
_atom_site_type_symbol
_atom_site_label
_atom_site_fract_x
_atom_site_fract_y
_atom_site_fract_z
Si Si1 0.748767 0.821911 0.755730
Si Si2 0.749295 0.180074 0.395643
Si Si3 0.107236 0.174757 0.860129
Si Si4 0.651276 0.180467 0.002336
Si Si5 0.093731 0.173784 0.145657
Si Si6 0.103089 0.182166 0.494269
O O1 0.732272 0.718411 0.686904
O O2 0.673074 0.786410 0.815991
O O3 0.845265 0.778298 0.788111
O O4 0.743598 0.000000 0.733744
O O5 0.837252 0.237414 0.438688
O O6 0.655871 0.259625 0.422708
O O7 0.736669 0.000000 0.406468
O O8 0.009213 0.181257 0.825142
O O9 0.145285 0.000000 0.859441
O O10 0.095120 0.234732 0.941396
O O11 0.606619 0.209876 0.079920
O O12 0.653116 0.000000 0.986583
O O13 0.750000 0.250000 0.000000
O O14 0.119270 0.000000 0.120067
O O15 0.000000 0.249369 0.500000
O O16 0.097258 0.000000 0.490260
#
# Coordination Sequence:
#
# PCOD8107349 Si02
#       6
#     8   8   8   8   8   8
#     4  11  23  40  60  83 118 159 195 235 285 350
#     4  10  21  37  59  88 120 151 189 239 285 335
#     4  11  23  40  61  85 114 151 195 246 297 349
#     4  12  23  37  60  86 114 150 194 246 298 349
#     4  10  23  41  60  83 114 153 196 242 296 351
#     4   9  19  38  63  88 116 153 193 231 280 343
#
# _framework density 20.027111999999999
#
# number of rings (size 3 to 8) (size 9 to 14) (size 15 to 20)
#    0.000    1.500    1.667    3.500    0.000    6.333 
#    0.000    6.667    0.000    0.000    0.000    0.000 
#    0.000    0.000    0.000    0.000    0.000    0.000 
#
# Total GULP energy -297671.889938 kJ/mol
# GULP energy per Si atom -12402.995414 kJ/mol
# Density = 1.998153 g / cm^3
# Si number density = 20.027112 Si / 1000 Ang^3
#
#
#
# Elastic Constant Matrix: (Units=GPa)
#
#
# Indices 1 2 3 4 5 6 
#
# 1 121.8431 35.1316 22.9686 0.0000 16.3552 0.0000
# 2 35.1316 46.6242 23.2034 0.0000 0.6724 0.0000
# 3 22.9686 23.2034 83.3861 0.0000 17.2817 0.0000
# 4 0.0000 0.0000 0.0000 36.2281 0.0000 -4.0887
# 5 16.3552 0.6724 17.2817 0.0000 17.0372 0.0000
# 6 0.0000 0.0000 0.0000 -4.0887 0.0000 26.1664
#
#
#
# Elastic Compliance Matrix: (Units=1/GPa)
#
#
# Indices 1 2 3 4 5 6 
#
# 1 0.012707 -0.010554 0.002378 0.000000 -0.014195 0.000000
# 2 -0.010554 0.034475 -0.010767 0.000000 0.019693 0.000000
# 3 0.002378 -0.010767 0.018636 0.000000 -0.020762 0.000000
# 4 0.000000 0.000000 0.000000 0.028098 0.000000 0.004391
# 5 -0.014195 0.019693 -0.020762 0.000000 0.092604 0.000000
# 6 0.000000 0.000000 0.000000 0.004391 0.000000 0.038903
#
#
# Mechanical properties :
#
#
# Convention : Reuss Voigt Hill
#
# Bulk Modulus (GPa) = 35.80013 46.05117 40.92565
# Shear Modulus (GPa) = 18.34044 27.25633 22.79838
#
# Velocity S-wave (km/s) = 3.02947 3.69314 3.37764
# Velocity P-wave (km/s) = 5.49104 6.42106 5.97418
#
# Compressibility (1/GPa) = 0.02793286
#
# Stress axis : x y z
#
# Youngs Moduli (GPa) = 78.69434 29.00638 53.65853
#
# Poissons Ratio (x) = 0.30613 -0.12762
# Poissons Ratio (y) = 0.83054 0.57776
# Poissons Ratio (z) = -0.18717 0.31232
#
# Static dielectric constant tensor:
#      x y z
#    x 3.820690 0.000000 0.186120 
#    y 0.000000 3.635320 0.000000 
#    z 0.186120 0.000000 3.584030 
# 
# 
# High freq. dielectric constant tensor:
#      x y z
#    x 1.791120 0.000000 0.007460 
#    y 0.000000 1.783320 0.000000 
#    z 0.007460 0.000000 1.770690 
# 
# From -- ./inp_files/267681.got.cif
#   From: 2010.06.25/outbox.cif.g09.slc.cpg/sg12_134_cif.got.tgz:267681.got - 2010.06.28 00:19:55.
