data_PCOD8107278
_publ_section_title
;
Structure prediction by ZEFSAII (Michael W. Deem and Ramdas Pophale) SiO2 
 PCOD8107278
Probable space group: C 2/M
;
_chemical_formula_sum "Si O2"
_cell_formula_units_Z 56
_cell_length_a 16.339943
_cell_length_b 23.173250
_cell_length_c 9.279662
_cell_angle_alpha 90.000000
_cell_angle_beta 57.418828
_cell_angle_gamma 90.000000
_cell_volume 2960.780751
_symmetry_space_group_name_H-M "C 2/M"
_symmetry_group_IT_number 12
_symmetry_cell_setting 'monoclinic'
loop_
_space_group_symop_operation_xyz
x,y,z
-x,y,-z
-x,-y,-z
x,-y,z
1/2+x,1/2+y,z
1/2-x,1/2+y,-z
1/2-x,1/2-y,-z
1/2+x,1/2-y,z
loop_
_atom_site_type_symbol
_atom_site_label
_atom_site_fract_x
_atom_site_fract_y
_atom_site_fract_z
Si Si1 0.887526 0.846607 0.930360
Si Si2 0.397101 0.642607 0.367884
Si Si3 0.779773 0.833604 0.745023
Si Si4 0.697569 0.433587 0.762419
Si Si5 0.137558 0.242823 0.807447
Si Si6 0.084741 0.634148 0.820851
Si Si7 0.586581 0.066567 0.524068
O O1 0.806681 0.836542 0.886384
O O2 0.988068 0.862309 0.758892
O O3 0.853093 0.899245 0.060982
O O4 0.904821 0.789695 0.011004
O O5 0.371409 0.648026 0.560512
O O6 0.346668 0.585974 0.348824
O O7 0.351066 0.698267 0.333289
O O8 0.744858 0.768051 0.743576
O O9 0.689675 0.877277 0.796444
O O10 0.672550 0.500000 0.810018
O O11 0.812821 0.422172 0.654581
O O12 0.068622 0.296207 0.824417
O O13 0.079773 0.606493 0.669434
O O14 0.000000 0.607033 0.000000
O O15 0.500000 0.084256 0.500000
O O16 0.578318 0.000000 0.580510
#
# Coordination Sequence:
#
# PCOD8107278 Si02
#       7
#     8   8   8   8   8   8   8
#     4  11  22  36  59  87 119 153 193 238 287 340
#     4  11  20  39  59  83 117 156 195 236 287 341
#     4  10  22  36  56  87 115 154 186 236 292 342
#     4  10  21  40  61  84 112 151 198 239 287 344
#     4   9  20  37  55  82 117 150 192 233 283 338
#     4  10  21  37  59  85 116 150 189 238 288 345
#     4  10  22  40  62  87 116 150 194 245 290 343
#
# _framework density 18.913930000000001
#
# number of rings (size 3 to 8) (size 9 to 14) (size 15 to 20)
#    0.857    1.000    1.429    3.857    2.000    1.429 
#    0.000    4.286    0.000    1.714    0.000    0.000 
#    0.000    0.000    0.000    0.000    0.000    0.000 
#
# Total GULP energy -347122.126880 kJ/mol
# GULP energy per Si atom -12397.218817 kJ/mol
# Density = 1.887088 g / cm^3
# Si number density = 18.913930 Si / 1000 Ang^3
#
#
#
# Elastic Constant Matrix: (Units=GPa)
#
#
# Indices 1 2 3 4 5 6 
#
# 1 94.2114 37.9271 25.8510 0.0000 0.9679 0.0000
# 2 37.9271 91.6624 42.8204 0.0000 2.3899 0.0000
# 3 25.8510 42.8204 100.6666 0.0000 -7.0762 0.0000
# 4 0.0000 0.0000 0.0000 14.5062 0.0000 -2.2199
# 5 0.9679 2.3899 -7.0762 0.0000 40.6347 0.0000
# 6 0.0000 0.0000 0.0000 -2.2199 0.0000 24.6282
#
#
#
# Elastic Compliance Matrix: (Units=1/GPa)
#
#
# Indices 1 2 3 4 5 6 
#
# 1 0.012873 -0.004701 -0.001324 0.000000 -0.000261 0.000000
# 2 -0.004701 0.015468 -0.005496 0.000000 -0.001755 0.000000
# 3 -0.001324 -0.005496 0.012793 0.000000 0.002583 0.000000
# 4 0.000000 0.000000 0.000000 0.069900 0.000000 0.006300
# 5 -0.000261 -0.001755 0.002583 0.000000 0.025169 0.000000
# 6 0.000000 0.000000 0.000000 0.006300 0.000000 0.041172
#
#
# Mechanical properties :
#
#
# Convention : Reuss Voigt Hill
#
# Bulk Modulus (GPa) = 55.27371 55.52637 55.40004
# Shear Modulus (GPa) = 24.21927 27.94995 26.08461
#
# Velocity S-wave (km/s) = 3.58229 3.84831 3.71768
# Velocity P-wave (km/s) = 6.81158 7.01193 6.91248
#
# Compressibility (1/GPa) = 0.01809178
#
# Stress axis : x y z
#
# Youngs Moduli (GPa) = 77.68191 64.65061 78.16702
#
# Poissons Ratio (x) = 0.30392 0.10353
# Poissons Ratio (y) = 0.36518 0.42958
# Poissons Ratio (z) = 0.10289 0.35530
#
# Static dielectric constant tensor:
#      x y z
#    x 3.425680 0.000000 -0.092070 
#    y 0.000000 3.342830 0.000000 
#    z -0.092070 0.000000 3.329590 
# 
# 
# High freq. dielectric constant tensor:
#      x y z
#    x 1.735010 0.000000 -0.010050 
#    y 0.000000 1.718840 0.000000 
#    z -0.010050 0.000000 1.738780 
# 
# From -- ./inp_files/78703.got.cif
#   From: 2010.06.25/outbox.cif.g09.slc.cpg/sg12_40_cif.got.tgz:78703.got - 2010.06.28 00:19:55.
