data_PCOD8107011
_publ_section_title
;
Structure prediction by ZEFSAII (Michael W. Deem and Ramdas Pophale) SiO2 
 PCOD8107011
Probable space group: C 2/M
;
_chemical_formula_sum "Si O2"
_cell_formula_units_Z 56
_cell_length_a 20.520542
_cell_length_b 8.965064
_cell_length_c 17.493192
_cell_angle_alpha 90.000000
_cell_angle_beta 123.220515
_cell_angle_gamma 90.000000
_cell_volume 2692.232966
_symmetry_space_group_name_H-M "C 2/M"
_symmetry_group_IT_number 12
_symmetry_cell_setting 'monoclinic'
loop_
_space_group_symop_operation_xyz
x,y,z
-x,y,-z
-x,-y,-z
x,-y,z
1/2+x,1/2+y,z
1/2-x,1/2+y,-z
1/2-x,1/2-y,-z
1/2+x,1/2-y,z
loop_
_atom_site_type_symbol
_atom_site_label
_atom_site_fract_x
_atom_site_fract_y
_atom_site_fract_z
Si Si1 0.422570 0.324626 0.407334
Si Si2 0.646521 0.669112 0.368110
Si Si3 0.080382 0.324829 0.179546
Si Si4 0.134348 0.824539 0.789724
Si Si5 0.170112 0.668525 0.532495
Si Si6 0.311083 0.175790 0.891290
Si Si7 0.079668 0.177486 0.918382
O O1 0.500000 0.268732 0.500000
O O2 0.410301 0.500000 0.409525
O O3 0.421506 0.278933 0.317204
O O4 0.350181 0.242410 0.399888
O O5 0.614461 0.500000 0.345588
O O6 0.603274 0.764017 0.276784
O O7 0.737893 0.675294 0.414250
O O8 0.627326 0.738642 0.438204
O O9 0.066796 0.500000 0.176113
O O10 0.147559 0.284341 0.162210
O O11 0.000156 0.248386 0.101735
O O12 0.222080 0.766887 0.830756
O O13 0.097289 0.761512 0.843948
O O14 0.139217 0.000000 0.800453
O O15 0.139512 0.500000 0.508419
O O16 0.317771 0.000000 0.912924
O O17 0.350228 0.268101 0.984045
O O18 0.073038 0.000000 0.917355
#
# Coordination Sequence:
#
# PCOD8107011 Si02
#       7
#     8   8   8   8   8   8   8
#     4  10  21  37  60  86 116 158 204 243 292 357
#     4  10  21  37  59  85 116 156 198 243 294 356
#     4  11  23  38  60  89 121 156 196 245 303 359
#     4   9  20  39  61  87 117 156 202 248 299 355
#     4  10  21  37  57  85 119 153 196 247 299 349
#     4  10  21  40  63  84 116 158 202 249 298 357
#     4  11  23  38  60  89 123 156 197 249 301 359
#
# _framework density 20.800576
#
# number of rings (size 3 to 8) (size 9 to 14) (size 15 to 20)
#    0.000    1.857    0.000    3.429    2.000    6.000 
#    0.000    2.857    0.000    0.000    0.000    0.000 
#    0.000    0.000    0.000    0.000    0.000    0.000 
#
# Total GULP energy -347278.233305 kJ/mol
# GULP energy per Si atom -12402.794047 kJ/mol
# Density = 2.075323 g / cm^3
# Si number density = 20.800576 Si / 1000 Ang^3
#
#
#
# Elastic Constant Matrix: (Units=GPa)
#
#
# Indices 1 2 3 4 5 6 
#
# 1 68.5821 27.6743 16.2504 0.0000 1.8247 0.0000
# 2 27.6743 70.3947 32.1757 0.0000 1.8642 0.0000
# 3 16.2504 32.1757 109.3620 0.0000 7.8665 0.0000
# 4 0.0000 0.0000 0.0000 37.2945 0.0000 0.0506
# 5 1.8247 1.8642 7.8665 0.0000 22.4359 0.0000
# 6 0.0000 0.0000 0.0000 0.0506 0.0000 27.0712
#
#
#
# Elastic Compliance Matrix: (Units=1/GPa)
#
#
# Indices 1 2 3 4 5 6 
#
# 1 0.017381 -0.006536 -0.000613 0.000000 -0.000656 0.000000
# 2 -0.006536 0.018873 -0.004624 0.000000 0.000585 0.000000
# 3 -0.000613 -0.004624 0.010837 0.000000 -0.003366 0.000000
# 4 0.000000 0.000000 0.000000 0.026814 0.000000 -0.000050
# 5 -0.000656 0.000585 -0.003366 0.000000 0.045756 0.000000
# 6 0.000000 0.000000 0.000000 -0.000050 0.000000 0.036940
#
#
# Mechanical properties :
#
#
# Convention : Reuss Voigt Hill
#
# Bulk Modulus (GPa) = 42.46723 44.50440 43.48581
# Shear Modulus (GPa) = 26.59667 28.84288 27.71978
#
# Velocity S-wave (km/s) = 3.57970 3.72780 3.65450
# Velocity P-wave (km/s) = 6.12751 6.32225 6.22564
#
# Compressibility (1/GPa) = 0.02354757
#
# Stress axis : x y z
#
# Youngs Moduli (GPa) = 57.53440 52.98643 92.27313
#
# Poissons Ratio (x) = 0.34630 0.05653
# Poissons Ratio (y) = 0.37602 0.42663
# Poissons Ratio (z) = 0.03525 0.24498
#
# Static dielectric constant tensor:
#      x y z
#    x 3.901150 0.000000 -0.075100 
#    y 0.000000 3.654570 0.000000 
#    z -0.075100 0.000000 3.921330 
# 
# 
# High freq. dielectric constant tensor:
#      x y z
#    x 1.820340 0.000000 -0.004010 
#    y 0.000000 1.800060 0.000000 
#    z -0.004010 0.000000 1.824890 
# 
# From -- ./inp_files/281740.got.cif
#   From: 2010.06.25/outbox.cif.g09.slc.cpg/sg12_141_cif.got.tgz:281740.got - 2010.06.28 00:19:55.
