data_PCOD8107578
_publ_section_title
;
Structure prediction by ZEFSAII (Michael W. Deem and Ramdas Pophale) SiO2 
 PCOD8107578
Probable space group: C 2/M
;
_chemical_formula_sum "Si O2"
_cell_formula_units_Z 64
_cell_length_a 22.011370
_cell_length_b 20.110999
_cell_length_c 8.937031
_cell_angle_alpha 90.000000
_cell_angle_beta 57.519523
_cell_angle_gamma 90.000000
_cell_volume 3337.316642
_symmetry_space_group_name_H-M "C 2/M"
_symmetry_group_IT_number 12
_symmetry_cell_setting 'monoclinic'
loop_
_space_group_symop_operation_xyz
x,y,z
-x,y,-z
-x,-y,-z
x,-y,z
1/2+x,1/2+y,z
1/2-x,1/2+y,-z
1/2-x,1/2-y,-z
1/2+x,1/2-y,z
loop_
_atom_site_type_symbol
_atom_site_label
_atom_site_fract_x
_atom_site_fract_y
_atom_site_fract_z
Si Si1 0.702834 0.214473 0.769988
Si Si2 0.851619 0.926123 0.237708
Si Si3 0.664694 0.197672 0.493017
Si Si4 0.280227 0.377334 0.896507
Si Si5 0.386700 0.426011 0.526768
Si Si6 0.894376 0.183395 0.963192
Si Si7 0.965732 0.205820 0.399952
Si Si8 0.298285 0.073682 0.714415
O O1 0.683219 0.178669 0.639694
O O2 0.765421 0.268904 0.671981
O O3 0.725797 0.162993 0.865183
O O4 0.630901 0.250852 0.918808
O O5 0.855629 0.906655 0.405661
O O6 0.768157 0.921002 0.310203
O O7 0.881685 0.000000 0.167598
O O8 0.898929 0.877907 0.072374
O O9 0.598966 0.249234 0.575213
O O10 0.647229 0.131140 0.417538
O O11 0.323312 0.428230 0.733533
O O12 0.339065 0.330597 0.900305
O O13 0.230133 0.416099 0.079662
O O14 0.422485 0.500000 0.478427
O O15 0.442074 0.367359 0.490014
O O16 0.975410 0.197098 0.806056
O O17 0.000000 0.241624 0.500000
O O18 0.334094 0.000000 0.658068
#
# Coordination Sequence:
#
# PCOD8107578 Si02
#       8
#     8   8   8   8   8   8   8   8
#     4  11  21  36  61  90 115 151 195 246 295 337
#     4   9  19  35  56  81 116 159 198 237 282 339
#     4  11  22  38  63  86 117 153 199 246 290 350
#     4  11  20  35  59  87 118 153 194 243 290 342
#     4  11  22  36  54  81 121 164 202 237 280 338
#     4  11  22  37  56  83 118 156 195 241 285 351
#     4  12  25  39  56  87 119 158 198 243 293 347
#     4  10  21  37  61  91 117 151 194 243 300 352
#
# _framework density 19.177083
#
# number of rings (size 3 to 8) (size 9 to 14) (size 15 to 20)
#    0.000    1.250    5.000    2.250    1.750    3.250 
#    0.000    1.875    0.000    0.375    0.000    0.875 
#    0.000    0.000    0.000    0.000    0.000    0.000 
#
# Total GULP energy -396745.528949 kJ/mol
# GULP energy per Si atom -12398.297780 kJ/mol
# Density = 1.913344 g / cm^3
# Si number density = 19.177083 Si / 1000 Ang^3
#
#
#
# Elastic Constant Matrix: (Units=GPa)
#
#
# Indices 1 2 3 4 5 6 
#
# 1 56.5952 35.7560 35.0022 0.0000 13.3384 0.0000
# 2 35.7560 104.2538 47.2539 0.0000 -10.2951 0.0000
# 3 35.0022 47.2539 103.2532 0.0000 3.4489 0.0000
# 4 0.0000 0.0000 0.0000 246.4633 0.0000 254.4803
# 5 13.3384 -10.2951 3.4489 0.0000 32.4940 0.0000
# 6 0.0000 0.0000 0.0000 254.4803 0.0000 301.8851
#
#
#
# Elastic Compliance Matrix: (Units=1/GPa)
#
#
# Indices 1 2 3 4 5 6 
#
# 1 0.030605 -0.009462 -0.005544 0.000000 -0.014972 0.000000
# 2 -0.009462 0.015701 -0.004289 0.000000 0.009314 0.000000
# 3 -0.005544 -0.004289 0.013545 0.000000 -0.000521 0.000000
# 4 0.000000 0.000000 0.000000 0.031305 0.000000 -0.026389
# 5 -0.014972 0.009314 -0.000521 0.000000 0.039927 0.000000
# 6 0.000000 0.000000 0.000000 -0.026389 0.000000 0.025558
#
#
# Mechanical properties :
#
#
# Convention : Reuss Voigt Hill
#
# Bulk Modulus (GPa) = 47.03771 55.56961 51.30366
# Shear Modulus (GPa) = 24.71350 125.90782 75.31066
#
# Velocity S-wave (km/s) = 3.59374 8.11159 6.27347
# Velocity P-wave (km/s) = 6.46539 10.80604 8.90426
#
# Compressibility (1/GPa) = 0.02125954
#
# Stress axis : x y z
#
# Youngs Moduli (GPa) = 32.67428 63.69012 73.82924
#
# Poissons Ratio (x) = 0.60264 0.40934
# Poissons Ratio (y) = 0.30917 0.31666
# Poissons Ratio (z) = 0.18116 0.27317
#
# Static dielectric constant tensor:
#      x y z
#    x 3.294830 0.000000 0.244110 
#    y 0.000000 3.673410 0.000000 
#    z 0.244110 0.000000 3.589560 
# 
# 
# High freq. dielectric constant tensor:
#      x y z
#    x 1.722750 0.000000 0.028680 
#    y 0.000000 1.736700 0.000000 
#    z 0.028680 0.000000 1.754060 
# 
# From -- ./inp_files/89591.got.cif
#   From: 2010.06.25/outbox.cif.g09.slc.cpg/sg12_45_cif.got.tgz:89591.got - 2010.06.28 00:19:55.
