data_PCOD8107046
_publ_section_title
;
Structure prediction by ZEFSAII (Michael W. Deem and Ramdas Pophale) SiO2 
 PCOD8107046
Probable space group: C 2/M
;
_chemical_formula_sum "Si O2"
_cell_formula_units_Z 64
_cell_length_a 15.175403
_cell_length_b 9.083051
_cell_length_c 32.867704
_cell_angle_alpha 90.000000
_cell_angle_beta 46.857782
_cell_angle_gamma 90.000000
_cell_volume 3305.681948
_symmetry_space_group_name_H-M "C 2/M"
_symmetry_group_IT_number 12
_symmetry_cell_setting 'monoclinic'
loop_
_space_group_symop_operation_xyz
x,y,z
-x,y,-z
-x,-y,-z
x,-y,z
1/2+x,1/2+y,z
1/2-x,1/2+y,-z
1/2-x,1/2-y,-z
1/2+x,1/2-y,z
loop_
_atom_site_type_symbol
_atom_site_label
_atom_site_fract_x
_atom_site_fract_y
_atom_site_fract_z
Si Si1 0.968838 0.325357 0.685774
Si Si2 0.765109 0.330679 0.379015
Si Si3 0.341731 0.830106 0.000189
Si Si4 0.485199 0.168628 0.123364
Si Si5 0.786918 0.673297 0.894214
Si Si6 0.759645 0.325812 0.810245
Si Si7 0.154174 0.830000 0.502203
Si Si8 0.571500 0.174659 0.392958
O O1 0.966931 0.500000 0.686410
O O2 0.099040 0.269864 0.659599
O O3 0.866018 0.262651 0.748149
O O4 0.946826 0.268782 0.647144
O O5 0.763791 0.500000 0.364710
O O6 0.694553 0.314602 0.443300
O O7 0.703688 0.227067 0.364865
O O8 0.329203 0.753034 0.048203
O O9 0.306194 0.000000 0.015865
O O10 0.250000 0.750000 0.000000
O O11 0.471959 0.813335 0.937358
O O12 0.588580 0.221158 0.122647
O O13 0.366205 0.264523 0.166953
O O14 0.452714 0.000000 0.142853
O O15 0.767030 0.500000 0.905045
O O16 0.789784 0.724859 0.846608
O O17 0.752048 0.500000 0.809987
O O18 0.250000 0.750000 0.500000
O O19 0.025258 0.752737 0.547400
O O20 0.145034 0.000000 0.518149
O O21 0.557904 0.000000 0.401180
#
# Coordination Sequence:
#
# PCOD8107046 Si02
#       8
#     8   8   8   8   8   8   8   8
#     4   9  20  40  58  76 110 149 186 229 280 326
#     4  10  21  39  60  83 112 149 186 226 277 334
#     4   9  17  31  53  79 109 144 176 216 273 331
#     4   9  19  35  53  78 111 140 173 224 279 325
#     4   9  19  35  54  79 109 142 180 223 272 327
#     4  10  21  37  58  79 103 145 192 228 268 326
#     4  11  21  36  60  88 118 151 184 224 279 335
#     4  11  22  38  59  86 116 149 186 231 279 329
#
# _framework density 19.360603999999999
#
# number of rings (size 3 to 8) (size 9 to 14) (size 15 to 20)
#    0.000    2.250    1.250    2.250    0.000    7.000 
#    0.000    5.625    0.000    0.000    0.000    0.000 
#    0.000    0.000    0.000    0.000    0.000    0.000 
#
# Total GULP energy -396766.458592 kJ/mol
# GULP energy per Si atom -12398.951831 kJ/mol
# Density = 1.931654 g / cm^3
# Si number density = 19.360604 Si / 1000 Ang^3
#
#
#
# Elastic Constant Matrix: (Units=GPa)
#
#
# Indices 1 2 3 4 5 6 
#
# 1 95.8537 24.4700 24.5465 -0.0004 -14.3169 -0.0003
# 2 24.4700 58.1900 25.5821 -0.0005 -4.5242 -0.0003
# 3 24.5465 25.5821 91.7429 -0.0004 -17.0643 -0.0005
# 4 -0.0004 -0.0005 -0.0004 24.5533 -0.0002 -5.4631
# 5 -14.3169 -4.5242 -17.0643 -0.0002 21.5111 -0.0002
# 6 -0.0003 -0.0003 -0.0005 -5.4631 -0.0002 33.2953
#
#
#
# Elastic Compliance Matrix: (Units=1/GPa)
#
#
# Indices 1 2 3 4 5 6 
#
# 1 0.012832 -0.004461 -0.000909 0.000000 0.006881 0.000000
# 2 -0.004461 0.021138 -0.005192 0.000000 -0.002642 0.000000
# 3 -0.000909 -0.005192 0.014400 0.000000 0.009726 0.000000
# 4 0.000000 0.000000 0.000000 0.042271 0.000001 0.006936
# 5 0.006881 -0.002642 0.009726 0.000001 0.058227 0.000001
# 6 0.000000 0.000000 0.000000 0.006936 0.000001 0.031172
#
#
# Mechanical properties :
#
#
# Convention : Reuss Voigt Hill
#
# Bulk Modulus (GPa) = 36.70430 43.88708 40.29569
# Shear Modulus (GPa) = 23.78140 27.28447 25.53293
#
# Velocity S-wave (km/s) = 3.50857 3.75811 3.63548
# Velocity P-wave (km/s) = 5.95087 6.44582 6.20328
#
# Compressibility (1/GPa) = 0.02724477
#
# Stress axis : x y z
#
# Youngs Moduli (GPa) = 77.92960 47.30736 69.44333
#
# Poissons Ratio (x) = 0.21105 0.06316
# Poissons Ratio (y) = 0.34767 0.36056
# Poissons Ratio (z) = 0.07088 0.24563
#
# Static dielectric constant tensor:
#      x y z
#    x 3.595140 0.000000 0.008080 
#    y 0.000000 3.518800 0.000000 
#    z 0.008080 0.000000 3.877690 
# 
# 
# High freq. dielectric constant tensor:
#      x y z
#    x 1.754080 0.000000 -0.000390 
#    y 0.000000 1.739680 0.000000 
#    z -0.000390 0.000000 1.754440 
# 
# From -- ./inp_files/375491.got.cif
#   From: 2010.06.25/outbox.cif.g09.slc.cpg/sg12_188_cif.got.tgz:375491.got - 2010.06.28 00:19:55.
