data_PCOD8107632
_publ_section_title
;
Structure prediction by ZEFSAII (Michael W. Deem and Ramdas Pophale) SiO2 
 PCOD8107632
Probable space group: C 2/M
;
_chemical_formula_sum "Si O2"
_cell_formula_units_Z 52
_cell_length_a 19.455200
_cell_length_b 20.155948
_cell_length_c 8.769167
_cell_angle_alpha 90.000000
_cell_angle_beta 44.312998
_cell_angle_gamma 90.000000
_cell_volume 2402.215379
_symmetry_space_group_name_H-M "C 2/M"
_symmetry_group_IT_number 12
_symmetry_cell_setting 'monoclinic'
loop_
_space_group_symop_operation_xyz
x,y,z
-x,y,-z
-x,-y,-z
x,-y,z
1/2+x,1/2+y,z
1/2-x,1/2+y,-z
1/2-x,1/2-y,-z
1/2+x,1/2-y,z
loop_
_atom_site_type_symbol
_atom_site_label
_atom_site_fract_x
_atom_site_fract_y
_atom_site_fract_z
Si Si1 0.323189 0.425377 0.156916
Si Si2 0.960681 0.136582 0.720148
Si Si3 0.858062 0.725703 0.874466
Si Si4 0.105605 0.575031 0.605188
Si Si5 0.128616 0.824011 0.672650
Si Si6 0.648837 0.815140 0.771084
Si Si7 0.500000 0.131953 0.500000
O O1 0.349420 0.500000 0.168345
O O2 0.206460 0.414347 0.349992
O O3 0.375985 0.369659 0.172126
O O4 0.370717 0.411357 0.915592
O O5 0.926305 0.211185 0.758243
O O6 0.000000 0.106648 0.500000
O O7 0.054317 0.139389 0.680423
O O8 0.901226 0.675462 0.680424
O O9 0.750000 0.750000 0.000000
O O10 0.868301 0.689024 0.021236
O O11 0.096694 0.500000 0.680304
O O12 0.098365 0.621996 0.766589
O O13 0.018740 0.588545 0.621959
O O14 0.234805 0.821291 0.428303
O O15 0.101121 0.749169 0.765111
#
# Coordination Sequence:
#
# PCOD8107632 Si02
#       7
#     8   8   8   8   8   8   4
#     4  10  22  41  64  89 128 175 216 266 330 400
#     4  12  23  36  57  91 130 167 211 269 323 391
#     4  12  25  40  63  98 136 168 218 280 341 391
#     4  10  23  45  68  96 131 176 226 277 338 407
#     4  10  21  37  62  90 121 163 219 266 328 395
#     4  10  22  40  64  91 126 169 215 278 336 388
#     4  12  25  40  68  98 133 182 224 276 343 396
#
# _framework density 21.646685999999999
#
# number of rings (size 3 to 8) (size 9 to 14) (size 15 to 20)
#    0.000    1.231    2.308    3.462    4.308    3.385 
#    0.000    2.308    0.000    6.462    0.000    0.000 
#    0.000    0.000    0.000    0.000    0.000    0.000 
#
# Total GULP energy -322316.175348 kJ/mol
# GULP energy per Si atom -12396.775975 kJ/mol
# Density = 2.159742 g / cm^3
# Si number density = 21.646686 Si / 1000 Ang^3
#
#
#
# Elastic Constant Matrix: (Units=GPa)
#
#
# Indices 1 2 3 4 5 6 
#
# 1 84.7329 24.4453 8.8510 0.0000 -3.1447 0.0000
# 2 24.4453 129.4800 17.2407 0.0000 4.1855 0.0000
# 3 8.8510 17.2407 85.4420 0.0000 5.3212 0.0000
# 4 0.0000 0.0000 0.0000 21.1275 0.0000 6.0086
# 5 -3.1447 4.1855 5.3212 0.0000 23.4485 0.0000
# 6 0.0000 0.0000 0.0000 6.0086 0.0000 18.6443
#
#
#
# Elastic Compliance Matrix: (Units=1/GPa)
#
#
# Indices 1 2 3 4 5 6 
#
# 1 0.012665 -0.002335 -0.000986 0.000000 0.002339 0.000000
# 2 -0.002335 0.008394 -0.001358 0.000000 -0.001503 0.000000
# 3 -0.000986 -0.001358 0.012246 0.000000 -0.002669 0.000000
# 4 0.000000 0.000000 0.000000 0.052108 0.000000 -0.016793
# 5 0.002339 -0.001503 -0.002669 0.000000 0.043834 0.000000
# 6 0.000000 0.000000 0.000000 -0.016793 0.000000 0.059048
#
#
# Mechanical properties :
#
#
# Convention : Reuss Voigt Hill
#
# Bulk Modulus (GPa) = 41.76197 44.52541 43.14369
# Shear Modulus (GPa) = 24.31472 29.25191 26.78332
#
# Velocity S-wave (km/s) = 3.35513 3.68004 3.52134
# Velocity P-wave (km/s) = 5.86035 6.21858 6.04212
#
# Compressibility (1/GPa) = 0.02394523
#
# Stress axis : x y z
#
# Youngs Moduli (GPa) = 78.95509 119.13903 81.65731
#
# Poissons Ratio (x) = 0.27824 0.08055
# Poissons Ratio (y) = 0.18440 0.11090
# Poissons Ratio (z) = 0.07789 0.16181
#
# Static dielectric constant tensor:
#      x y z
#    x 3.074760 0.000000 -0.254500 
#    y 0.000000 3.917380 0.000000 
#    z -0.254500 0.000000 4.060300 
# 
# 
# High freq. dielectric constant tensor:
#      x y z
#    x 1.845180 0.000000 -0.007550 
#    y 0.000000 1.842500 0.000000 
#    z -0.007550 0.000000 1.863630 
# 
# From -- ./inp_files/77948.got.cif
#   From: 2010.06.25/outbox.cif.g09.slc.cpg/sg12_39_cif.got.tgz:77948.got - 2010.06.28 00:19:55.
