data_PCOD8107105
_publ_section_title
;
Structure prediction by ZEFSAII (Michael W. Deem and Ramdas Pophale) SiO2 
 PCOD8107105
Probable space group: C 2/M
;
_chemical_formula_sum "Si O2"
_cell_formula_units_Z 48
_cell_length_a 27.190539
_cell_length_b 8.930820
_cell_length_c 15.422518
_cell_angle_alpha 90.000000
_cell_angle_beta 40.860798
_cell_angle_gamma 90.000000
_cell_volume 2450.138195
_symmetry_space_group_name_H-M "C 2/M"
_symmetry_group_IT_number 12
_symmetry_cell_setting 'monoclinic'
loop_
_space_group_symop_operation_xyz
x,y,z
-x,y,-z
-x,-y,-z
x,-y,z
1/2+x,1/2+y,z
1/2-x,1/2+y,-z
1/2-x,1/2-y,-z
1/2+x,1/2-y,z
loop_
_atom_site_type_symbol
_atom_site_label
_atom_site_fract_x
_atom_site_fract_y
_atom_site_fract_z
Si Si1 0.545833 0.174593 0.852198
Si Si2 0.552938 0.324603 0.506674
Si Si3 0.706616 0.677630 0.636951
Si Si4 0.786691 0.323373 0.704720
Si Si5 0.796515 0.824623 0.013383
Si Si6 0.031613 0.175127 0.204516
O O1 0.621373 0.269451 0.753010
O O2 0.496263 0.225083 0.837322
O O3 0.565427 0.000000 0.817318
O O4 0.500000 0.209831 0.000000
O O5 0.500000 0.265014 0.500000
O O6 0.566100 0.500000 0.478989
O O7 0.632006 0.245601 0.392665
O O8 0.516809 0.283970 0.646861
O O9 0.707985 0.500000 0.625358
O O10 0.750000 0.750000 0.500000
O O11 0.747944 0.733390 0.668521
O O12 0.795486 0.500000 0.691912
O O13 0.734251 0.268462 0.853183
O O14 0.786041 0.000000 0.017389
O O15 0.750000 0.750000 0.000000
O O16 0.883121 0.778426 0.889344
O O17 0.025219 0.000000 0.188819
#
# Coordination Sequence:
#
# PCOD8107105 Si02
#       6
#     8   8   8   8   8   8
#     4  11  24  40  59  86 118 152 194 242 290 342
#     4  10  21  37  58  84 113 147 187 230 277 332
#     4  11  23  40  62  87 117 153 193 238 289 345
#     4  10  22  38  57  83 114 148 185 228 280 337
#     4  10  21  38  59  84 113 147 189 233 281 337
#     4  10  21  38  60  84 112 150 193 235 283 340
#
# _framework density 19.590731000000002
#
# number of rings (size 3 to 8) (size 9 to 14) (size 15 to 20)
#    0.000    1.667    0.000    4.000    0.000   10.333 
#    0.000    0.000    0.000    0.000    0.000    0.000 
#    0.000    0.000    0.000    0.000    0.000    0.000 
#
# Total GULP energy -297728.191386 kJ/mol
# GULP energy per Si atom -12405.341308 kJ/mol
# Density = 1.954614 g / cm^3
# Si number density = 19.590731 Si / 1000 Ang^3
#
#
#
# Elastic Constant Matrix: (Units=GPa)
#
#
# Indices 1 2 3 4 5 6 
#
# 1 95.5660 33.6406 -5.8789 -0.0010 3.9808 0.0051
# 2 33.6406 32.6820 34.8798 0.0291 8.8042 -0.0203
# 3 -5.8789 34.8798 60.7897 -0.0009 -3.4815 0.0052
# 4 -0.0010 0.0291 -0.0009 32.1491 -0.0106 -2.9699
# 5 3.9808 8.8042 -3.4815 -0.0106 41.7128 0.0089
# 6 0.0051 -0.0203 0.0052 -2.9699 0.0089 32.9806
#
#
#
# Elastic Compliance Matrix: (Units=1/GPa)
#
#
# Indices 1 2 3 4 5 6 
#
# 1 -0.026833 0.098169 -0.060250 -0.000092 -0.023188 0.000072
# 2 0.098169 -0.257708 0.160707 0.000242 0.058438 -0.000193
# 3 -0.060250 0.160707 -0.083600 -0.000150 -0.035147 0.000117
# 4 -0.000092 0.000242 -0.000150 0.031366 -0.000048 0.002825
# 5 -0.023188 0.058438 -0.035147 -0.000048 0.010919 0.000038
# 6 0.000072 -0.000193 0.000117 0.002825 0.000038 0.030575
#
#
# Mechanical properties :
#
#
# Convention : Reuss Voigt Hill
#
# Bulk Modulus (GPa) = 34.35065 34.92451 34.63758
# Shear Modulus (GPa) = -7.32247 29.79492 11.23623
#
# Velocity S-wave (km/s) = -1.93542 3.90406 2.39748
# Velocity P-wave (km/s) = 3.54651 6.17965 5.03814
#
# Compressibility (1/GPa) = 0.02911153
#
# Stress axis : x y z
#
# Youngs Moduli (GPa) = -37.26709 -3.88037 -11.96176
#
# Poissons Ratio (x) = 0.38093 -0.72070
# Poissons Ratio (y) = 3.65846 1.92234
# Poissons Ratio (z) = -2.24534 0.62360
#
# Static dielectric constant tensor:
#      x y z
#    x 3.939350 0.000000 0.141900 
#    y 0.000000 3.488420 0.000000 
#    z 0.141900 0.000000 3.811550 
# 
# 
# High freq. dielectric constant tensor:
#      x y z
#    x 1.781940 0.000000 0.001280 
#    y 0.000000 1.757330 0.000000 
#    z 0.001280 0.000000 1.784240 
# 
# From -- ./inp_files/244598.got.cif
#   From: 2010.06.25/outbox.cif.g09.slc.cpg/sg12_123_cif.got.tgz:244598.got - 2010.06.28 00:19:55.
