data_PCOD8107901
_publ_section_title
;
Structure prediction by ZEFSAII (Michael W. Deem and Ramdas Pophale) SiO2 
 PCOD8107901
Probable space group: C 2/M
;
_chemical_formula_sum "Si O2"
_cell_formula_units_Z 48
_cell_length_a 31.544763
_cell_length_b 7.672431
_cell_length_c 12.314728
_cell_angle_alpha 90.000000
_cell_angle_beta 121.487522
_cell_angle_gamma 90.000000
_cell_volume 2541.609448
_symmetry_space_group_name_H-M "C 2/M"
_symmetry_group_IT_number 12
_symmetry_cell_setting 'monoclinic'
loop_
_space_group_symop_operation_xyz
x,y,z
-x,y,-z
-x,-y,-z
x,-y,z
1/2+x,1/2+y,z
1/2-x,1/2+y,-z
1/2-x,1/2-y,-z
1/2+x,1/2-y,z
loop_
_atom_site_type_symbol
_atom_site_label
_atom_site_fract_x
_atom_site_fract_y
_atom_site_fract_z
Si Si1 0.941068 0.000000 0.795943
Si Si2 0.697019 0.795398 0.261877
Si Si3 0.056760 0.000000 0.945452
Si Si4 0.301650 0.199565 0.123704
Si Si5 0.126655 0.296165 0.975780
Si Si6 0.305093 0.303325 0.366690
Si Si7 0.627669 0.196816 0.363520
O O1 0.918443 0.826219 0.711692
O O2 0.998639 0.000000 0.844060
O O3 0.931345 0.000000 0.911011
O O4 0.752263 0.713822 0.328218
O O5 0.671691 0.743141 0.341155
O O6 0.702776 0.000000 0.254004
O O7 0.663742 0.726407 0.118373
O O8 0.077998 0.824365 0.918359
O O9 0.347163 0.236535 0.104044
O O10 0.311781 0.307165 0.246115
O O11 0.299454 0.000000 0.154670
O O12 0.250000 0.250000 0.000000
O O13 0.112111 0.500000 0.972168
O O14 0.307654 0.500000 0.413683
O O15 0.349882 0.200505 0.485054
O O16 0.609623 0.000000 0.312583
#
# Coordination Sequence:
#
# PCOD8107901 Si02
#       7
#     4   8   4   8   8   8   8
#     4  11  24  42  61  95 117 149 210 257 296 366
#     4   9  18  33  54  84 122 162 193 233 292 358
#     4  11  24  40  67  89 117 159 200 251 318 343
#     4  11  22  35  54  85 123 163 204 241 289 352
#     4  10  21  38  58  86 124 156 195 244 294 357
#     4  11  21  35  56  86 124 163 204 238 288 361
#     4  11  22  40  59  83 123 161 195 250 301 353
#
# _framework density 18.885670000000001
#
# number of rings (size 3 to 8) (size 9 to 14) (size 15 to 20)
#    0.000    1.500    4.167    1.500    2.333    0.667 
#    4.500    1.667    0.000    2.000    0.000    3.500 
#    0.000    0.000    0.000    0.000    0.000    0.000 
#
# Total GULP energy -297640.150345 kJ/mol
# GULP energy per Si atom -12401.672931 kJ/mol
# Density = 1.884269 g / cm^3
# Si number density = 18.885670 Si / 1000 Ang^3
#
#
#
# Elastic Constant Matrix: (Units=GPa)
#
#
# Indices 1 2 3 4 5 6 
#
# 1 103.0399 51.0312 50.5217 0.0000 12.8969 0.0000
# 2 51.0312 97.8264 32.4313 0.0000 15.2185 0.0000
# 3 50.5217 32.4313 111.4003 0.0000 2.2602 0.0000
# 4 0.0000 0.0000 0.0000 24.8774 0.0000 0.0639
# 5 12.8969 15.2185 2.2602 0.0000 29.0427 0.0000
# 6 0.0000 0.0000 0.0000 0.0639 0.0000 28.3876
#
#
#
# Elastic Compliance Matrix: (Units=1/GPa)
#
#
# Indices 1 2 3 4 5 6 
#
# 1 0.015650 -0.005861 -0.005321 0.000000 -0.003464 0.000000
# 2 -0.005861 0.014529 -0.001472 0.000000 -0.004896 0.000000
# 3 -0.005321 -0.001472 0.011774 0.000000 0.002218 0.000000
# 4 0.000000 0.000000 0.000000 0.040197 0.000000 -0.000090
# 5 -0.003464 -0.004896 0.002218 0.000000 0.038364 0.000000
# 6 0.000000 0.000000 0.000000 -0.000090 0.000000 0.035227
#
#
# Mechanical properties :
#
#
# Convention : Reuss Voigt Hill
#
# Bulk Modulus (GPa) = 60.08129 64.47057 62.27593
# Shear Modulus (GPa) = 26.79554 28.34702 27.57128
#
# Velocity S-wave (km/s) = 3.77082 3.87845 3.82502
# Velocity P-wave (km/s) = 7.13029 7.36668 7.24945
#
# Compressibility (1/GPa) = 0.01664412
#
# Stress axis : x y z
#
# Youngs Moduli (GPa) = 63.89653 68.82586 84.93648
#
# Poissons Ratio (x) = 0.40339 0.45195
# Poissons Ratio (y) = 0.37450 0.12507
# Poissons Ratio (z) = 0.34000 0.10134
#
# Static dielectric constant tensor:
#      x y z
#    x 3.316020 0.000000 -0.079660 
#    y 0.000000 3.465540 0.000000 
#    z -0.079660 0.000000 3.327210 
# 
# 
# High freq. dielectric constant tensor:
#      x y z
#    x 1.712430 0.000000 -0.013630 
#    y 0.000000 1.740660 0.000000 
#    z -0.013630 0.000000 1.723920 
# 
# From -- ./inp_files/172455.got.cif
#   From: 2010.06.25/outbox.cif.g09.slc.cpg/sg12_87_cif.got.tgz:172455.got - 2010.06.28 00:19:55.
