data_PCOD8107644
_publ_section_title
;
Structure prediction by ZEFSAII (Michael W. Deem and Ramdas Pophale) SiO2 
 PCOD8107644
Probable space group: C 2/M
;
_chemical_formula_sum "Si O2"
_cell_formula_units_Z 40
_cell_length_a 18.564327
_cell_length_b 13.706016
_cell_length_c 20.838381
_cell_angle_alpha 90.000000
_cell_angle_beta 159.647463
_cell_angle_gamma 90.000000
_cell_volume 1844.074120
_symmetry_space_group_name_H-M "C 2/M"
_symmetry_group_IT_number 12
_symmetry_cell_setting 'monoclinic'
loop_
_space_group_symop_operation_xyz
x,y,z
-x,y,-z
-x,-y,-z
x,-y,z
1/2+x,1/2+y,z
1/2-x,1/2+y,-z
1/2-x,1/2-y,-z
1/2+x,1/2-y,z
loop_
_atom_site_type_symbol
_atom_site_label
_atom_site_fract_x
_atom_site_fract_y
_atom_site_fract_z
Si Si1 0.033632 0.720098 0.895952
Si Si2 0.911959 0.112031 0.268979
Si Si3 0.748810 0.888632 0.867162
Si Si4 0.624394 0.889776 0.356042
Si Si5 0.320118 0.749251 0.303783
O O1 0.943360 0.691411 0.751983
O O2 0.866898 0.701595 0.812463
O O3 0.239418 0.656859 0.078845
O O4 0.099837 0.834471 0.955234
O O5 0.914223 0.162685 0.340091
O O6 0.137476 0.128176 0.425151
O O7 0.860248 0.000000 0.236678
O O8 0.512305 0.878674 0.694149
O O9 0.763192 0.837991 0.809607
O O10 0.821699 0.000000 0.922350
O O11 0.597822 0.000000 0.305394
O O12 0.500000 0.790625 0.500000
#
# Coordination Sequence:
#
# PCOD8107644 Si02
#       5
#     8   8   8   8   8
#     4  11  22  39  64  90 124 158 204 249 302 364
#     4  10  21  37  62  92 126 160 195 245 304 367
#     4  10  23  42  63  88 123 162 205 256 300 353
#     4  10  21  40  64  94 126 157 197 248 307 365
#     4  11  23  40  60  90 123 164 208 248 301 359
#
# _framework density 21.691102000000001
#
# number of rings (size 3 to 8) (size 9 to 14) (size 15 to 20)
#    0.000    1.600    2.000    3.600    0.000    8.000 
#    3.600    0.000    0.000    0.000    0.000    0.000 
#    0.000    0.000    0.000    0.000    0.000    0.000 
#
# Total GULP energy -248021.611078 kJ/mol
# GULP energy per Si atom -12401.080554 kJ/mol
# Density = 2.164173 g / cm^3
# Si number density = 21.691102 Si / 1000 Ang^3
#
#
#
# Elastic Constant Matrix: (Units=GPa)
#
#
# Indices 1 2 3 4 5 6 
#
# 1 49.6089 -2.4808 9.8758 0.0123 -0.0909 -0.0001
# 2 -2.4808 105.7495 27.3973 0.0226 -24.0451 0.0133
# 3 9.8758 27.3973 101.7023 0.0062 -0.5512 0.0213
# 4 0.0123 0.0226 0.0062 25.8251 0.0172 6.1767
# 5 -0.0909 -24.0451 -0.5512 0.0172 30.9836 0.0086
# 6 -0.0001 0.0133 0.0213 6.1767 0.0086 23.8557
#
#
#
# Elastic Compliance Matrix: (Units=1/GPa)
#
#
# Indices 1 2 3 4 5 6 
#
# 1 0.020697 0.001339 -0.002365 -0.000012 0.001058 0.000004
# 2 0.001339 0.012597 -0.003471 -0.000017 0.009718 -0.000003
# 3 -0.002365 -0.003471 0.010984 0.000005 -0.002505 -0.000008
# 4 -0.000012 -0.000017 0.000005 0.041278 -0.000033 -0.010688
# 5 0.001058 0.009718 -0.002505 -0.000033 0.039775 -0.000009
# 6 0.000004 -0.000003 -0.000008 -0.010688 -0.000009 0.044686
#
#
# Mechanical properties :
#
#
# Convention : Reuss Voigt Hill
#
# Bulk Modulus (GPa) = 28.34143 36.29392 32.31767
# Shear Modulus (GPa) = 26.20933 30.95077 28.58005
#
# Velocity S-wave (km/s) = 3.47983 3.78151 3.63380
# Velocity P-wave (km/s) = 5.40739 5.98623 5.70416
#
# Compressibility (1/GPa) = 0.03528404
#
# Stress axis : x y z
#
# Youngs Moduli (GPa) = 48.31544 79.38698 91.04463
#
# Poissons Ratio (x) = -0.10627 0.21529
# Poissons Ratio (y) = -0.06468 0.31599
# Poissons Ratio (z) = 0.11425 0.27553
#
# Static dielectric constant tensor:
#      x y z
#    x 3.758920 -0.000020 0.294210 
#    y -0.000020 4.047230 -0.000120 
#    z 0.294210 -0.000120 4.008050 
# 
# 
# High freq. dielectric constant tensor:
#      x y z
#    x 1.845870 0.000000 0.022100 
#    y 0.000000 1.851660 -0.000010 
#    z 0.022100 -0.000010 1.859460 
# 
# From -- ./inp_files/84941.got.cif
#   From: 2010.06.25/outbox.cif.g09.slc.cpg/sg12_43_cif.got.tgz:84941.got - 2010.06.28 00:19:55.
