data_PCOD8107497
_publ_section_title
;
Structure prediction by ZEFSAII (Michael W. Deem and Ramdas Pophale) SiO2 
 PCOD8107497
Probable space group: C 2/M
;
_chemical_formula_sum "Si O2"
_cell_formula_units_Z 48
_cell_length_a 14.727481
_cell_length_b 32.043410
_cell_length_c 13.957491
_cell_angle_alpha 90.000000
_cell_angle_beta 160.128142
_cell_angle_gamma 90.000000
_cell_volume 2238.970090
_symmetry_space_group_name_H-M "C 2/M"
_symmetry_group_IT_number 12
_symmetry_cell_setting 'monoclinic'
loop_
_space_group_symop_operation_xyz
x,y,z
-x,y,-z
-x,-y,-z
x,-y,z
1/2+x,1/2+y,z
1/2-x,1/2+y,-z
1/2-x,1/2-y,-z
1/2+x,1/2-y,z
loop_
_atom_site_type_symbol
_atom_site_label
_atom_site_fract_x
_atom_site_fract_y
_atom_site_fract_z
Si Si1 0.082809 0.368100 0.786077
Si Si2 0.752132 0.256491 0.689037
Si Si3 0.394115 0.568398 0.495148
Si Si4 0.888086 0.546335 0.104641
Si Si5 0.904868 0.169621 0.796465
Si Si6 0.162692 0.345852 0.260208
O O1 0.868547 0.354859 0.493697
O O2 0.029637 0.351766 0.840068
O O3 0.073215 0.418691 0.774974
O O4 0.370749 0.349065 0.048949
O O5 0.500000 0.240335 0.500000
O O6 0.843016 0.218493 0.710058
O O7 0.688398 0.300970 0.575995
O O8 0.000000 0.268583 0.000000
O O9 0.500000 0.550075 0.500000
O O10 0.588569 0.551901 0.769812
O O11 0.392885 0.618939 0.491094
O O12 0.096239 0.552285 0.223357
O O13 0.918915 0.500000 0.179780
O O14 0.000000 0.165343 0.000000
O O15 0.000000 0.350797 0.000000
#
# Coordination Sequence:
#
# PCOD8107497 Si02
#       6
#     8   8   8   8   8   8
#     4  11  23  40  65  90 117 162 205 246 312 365
#     4  10  21  37  60  89 124 164 202 247 297 344
#     4  11  21  36  58  85 123 168 207 240 284 347
#     4  11  24  40  59  86 119 154 199 255 308 363
#     4  11  23  42  64  89 120 155 206 262 307 356
#     4  10  22  39  61  91 133 170 203 241 284 353
#
# _framework density 21.438427999999998
#
# number of rings (size 3 to 8) (size 9 to 14) (size 15 to 20)
#    0.000    1.333    0.000    8.000    0.000    8.667 
#    0.000    0.000    0.000    3.000    0.000    0.000 
#    0.000    0.000    0.000    0.000    0.000    0.000 
#
# Total GULP energy -297509.187430 kJ/mol
# GULP energy per Si atom -12396.216143 kJ/mol
# Density = 2.138963 g / cm^3
# Si number density = 21.438428 Si / 1000 Ang^3
#
#
#
# Elastic Constant Matrix: (Units=GPa)
#
#
# Indices 1 2 3 4 5 6 
#
# 1 59.0009 37.1197 3.7726 -0.0503 9.6066 0.0540
# 2 37.1197 208.9656 37.6884 -0.0171 3.4219 0.0183
# 3 3.7726 37.6884 78.7131 -0.2315 9.9798 0.2605
# 4 -0.0503 -0.0171 -0.2315 114.5120 0.0100 -100.9188
# 5 9.6066 3.4219 9.9798 0.0100 42.2449 -0.0081
# 6 0.0540 0.0183 0.2605 -100.9188 -0.0081 128.7550
#
#
#
# Elastic Compliance Matrix: (Units=1/GPa)
#
#
# Indices 1 2 3 4 5 6 
#
# 1 0.019944 -0.003721 0.001405 0.000006 -0.004566 -0.000006
# 2 -0.003721 0.005933 -0.002793 -0.000003 0.001025 0.000004
# 3 0.001405 -0.002793 0.014418 0.000012 -0.003499 -0.000021
# 4 0.000006 -0.000003 0.000012 0.028240 -0.000006 0.022134
# 5 -0.004566 0.001025 -0.003499 -0.000006 0.025453 0.000006
# 6 -0.000006 0.000004 -0.000021 0.022134 0.000006 0.025116
#
#
# Mechanical properties :
#
#
# Convention : Reuss Voigt Hill
#
# Bulk Modulus (GPa) = 33.24821 55.98233 44.61527
# Shear Modulus (GPa) = 35.88157 74.97564 55.42860
#
# Velocity S-wave (km/s) = 4.09553 5.92017 5.09028
# Velocity P-wave (km/s) = 6.15685 8.53821 7.44338
#
# Compressibility (1/GPa) = 0.03007681
#
# Stress axis : x y z
#
# Youngs Moduli (GPa) = 50.14118 168.53781 69.35809
#
# Poissons Ratio (x) = 0.62718 -0.09744
# Poissons Ratio (y) = 0.18659 0.19369
# Poissons Ratio (z) = -0.07044 0.47066
#
# Static dielectric constant tensor:
#      x y z
#    x 3.584500 0.000000 0.142850 
#    y 0.000000 4.340370 -0.000010 
#    z 0.142850 -0.000010 3.835620 
# 
# 
# High freq. dielectric constant tensor:
#      x y z
#    x 1.804400 0.000000 0.018370 
#    y 0.000000 1.855220 0.000000 
#    z 0.018370 0.000000 1.850790 
# 
# From -- ./inp_files/219598.got.cif
#   From: 2010.06.25/outbox.cif.g09.slc.cpg/sg12_110_cif.got.tgz:219598.got - 2010.06.28 00:19:55.
