data_PCOD8107907
_publ_section_title
;
Structure prediction by ZEFSAII (Michael W. Deem and Ramdas Pophale) SiO2 
 PCOD8107907
Probable space group: C 2/M
;
_chemical_formula_sum "Si O2"
_cell_formula_units_Z 44
_cell_length_a 9.546360
_cell_length_b 15.777109
_cell_length_c 15.300608
_cell_angle_alpha 90.000000
_cell_angle_beta 75.894010
_cell_angle_gamma 90.000000
_cell_volume 2234.996997
_symmetry_space_group_name_H-M "C 2/M"
_symmetry_group_IT_number 12
_symmetry_cell_setting 'monoclinic'
loop_
_space_group_symop_operation_xyz
x,y,z
-x,y,-z
-x,-y,-z
x,-y,z
1/2+x,1/2+y,z
1/2-x,1/2+y,-z
1/2-x,1/2-y,-z
1/2+x,1/2-y,z
loop_
_atom_site_type_symbol
_atom_site_label
_atom_site_fract_x
_atom_site_fract_y
_atom_site_fract_z
Si Si1 0.500000 0.832388 0.500000
Si Si2 0.899623 0.683880 0.100460
Si Si3 0.884143 0.500000 0.090819
Si Si4 0.048106 0.818292 0.374300
Si Si5 0.436568 0.500000 0.912717
Si Si6 0.203648 0.903926 0.501556
Si Si7 0.925459 0.177354 0.832811
O O1 0.439413 0.776502 0.589641
O O2 0.373620 0.892101 0.484937
O O3 0.902901 0.587938 0.142090
O O4 0.731218 0.701539 0.102213
O O5 0.957113 0.751354 0.161322
O O6 0.000000 0.691057 0.000000
O O7 0.735548 0.500000 0.059557
O O8 0.000000 0.500000 0.000000
O O9 0.156592 0.878981 0.410796
O O10 0.093731 0.823425 0.267710
O O11 0.882690 0.847840 0.414221
O O12 0.486562 0.586166 0.855948
O O13 0.500000 0.500000 0.000000
O O14 0.161592 0.000000 0.525557
#
# Coordination Sequence:
#
# PCOD8107907 Si02
#       7
#     4   8   4   8   4   8   8
#     4  10  21  38  63  86 122 154 190 244 301 357
#     4  10  21  40  60  88 118 162 202 250 304 357
#     4   8  18  38  64  78 111 152 202 238 299 360
#     4  10  21  38  58  87 120 160 199 231 302 355
#     4  10  22  40  58  87 119 161 202 253 295 347
#     4  10  21  38  65  86 121 155 193 243 295 362
#     4  11  24  36  64  89 124 156 207 252 296 362
#
# _framework density 19.686826
#
# number of rings (size 3 to 8) (size 9 to 14) (size 15 to 20)
#    0.000    2.182    0.000    4.636    7.636    2.909 
#    0.000    0.000    2.000    0.000    0.000    0.000 
#    0.000    0.000    0.000    0.000    0.000    0.000 
#
# Total GULP energy -272682.373423 kJ/mol
# GULP energy per Si atom -12394.653337 kJ/mol
# Density = 1.964202 g / cm^3
# Si number density = 19.686826 Si / 1000 Ang^3
#
#
#
# Elastic Constant Matrix: (Units=GPa)
#
#
# Indices 1 2 3 4 5 6 
#
# 1 99.9788 46.0658 18.4647 0.0000 9.7641 0.0000
# 2 46.0658 127.4489 27.7536 0.0000 13.5650 0.0000
# 3 18.4647 27.7536 101.3917 0.0000 3.1405 0.0000
# 4 0.0000 0.0000 0.0000 13.6545 0.0000 6.3350
# 5 9.7641 13.5650 3.1405 0.0000 15.0331 0.0000
# 6 0.0000 0.0000 0.0000 6.3350 0.0000 32.0853
#
#
#
# Elastic Compliance Matrix: (Units=1/GPa)
#
#
# Indices 1 2 3 4 5 6 
#
# 1 0.012368 -0.003765 -0.001085 0.000000 -0.004409 0.000000
# 2 -0.003765 0.010317 -0.001938 0.000000 -0.006459 0.000000
# 3 -0.001085 -0.001938 0.010583 0.000000 0.000243 0.000000
# 4 0.000000 0.000000 0.000000 0.080621 0.000000 -0.015918
# 5 -0.004409 -0.006459 0.000243 0.000000 0.075161 0.000000
# 6 0.000000 0.000000 0.000000 -0.015918 0.000000 0.034310
#
#
# Mechanical properties :
#
#
# Convention : Reuss Voigt Hill
#
# Bulk Modulus (GPa) = 50.78371 57.04306 53.91338
# Shear Modulus (GPa) = 20.53386 27.92359 24.22872
#
# Velocity S-wave (km/s) = 3.23309 3.77024 3.51195
# Velocity P-wave (km/s) = 6.30785 6.92756 6.62495
#
# Compressibility (1/GPa) = 0.01969136
#
# Stress axis : x y z
#
# Youngs Moduli (GPa) = 80.85546 96.93177 94.48750
#
# Poissons Ratio (x) = 0.36491 0.10254
# Poissons Ratio (y) = 0.30439 0.18314
# Poissons Ratio (z) = 0.08775 0.18788
#
# Static dielectric constant tensor:
#      x y z
#    x 3.633980 0.000000 -0.025290 
#    y 0.000000 4.167070 0.000000 
#    z -0.025290 0.000000 3.150810 
# 
# 
# High freq. dielectric constant tensor:
#      x y z
#    x 1.773630 0.000000 -0.003310 
#    y 0.000000 1.782320 0.000000 
#    z -0.003310 0.000000 1.734710 
# 
# From -- ./inp_files/195544.got.cif
#   From: 2010.06.25/outbox.cif.g09.slc.cpg/sg12_98_cif.got.tgz:195544.got - 2010.06.28 00:19:55.
