data_PCOD8107279
_publ_section_title
;
Structure prediction by ZEFSAII (Michael W. Deem and Ramdas Pophale) SiO2 
 PCOD8107279
Probable space group: C 2/M
;
_chemical_formula_sum "Si O2"
_cell_formula_units_Z 64
_cell_length_a 20.864614
_cell_length_b 8.552366
_cell_length_c 23.181464
_cell_angle_alpha 90.000000
_cell_angle_beta 51.798931
_cell_angle_gamma 90.000000
_cell_volume 3250.682725
_symmetry_space_group_name_H-M "C 2/M"
_symmetry_group_IT_number 12
_symmetry_cell_setting 'monoclinic'
loop_
_space_group_symop_operation_xyz
x,y,z
-x,y,-z
-x,-y,-z
x,-y,z
1/2+x,1/2+y,z
1/2-x,1/2+y,-z
1/2-x,1/2-y,-z
1/2+x,1/2-y,z
loop_
_atom_site_type_symbol
_atom_site_label
_atom_site_fract_x
_atom_site_fract_y
_atom_site_fract_z
Si Si1 0.766620 0.182177 0.169329
Si Si2 0.516803 0.817968 0.654567
Si Si3 0.173123 0.817828 0.512223
Si Si4 0.278745 0.820230 0.631405
Si Si5 0.378422 0.682623 0.209895
Si Si6 0.475311 0.816109 0.805378
Si Si7 0.708469 0.182232 0.079047
Si Si8 0.133864 0.821740 0.316667
O O1 0.847613 0.227799 0.161704
O O2 0.770066 0.215919 0.098787
O O3 0.691399 0.288412 0.230356
O O4 0.746339 0.000000 0.192467
O O5 0.603221 0.788349 0.578070
O O6 0.513930 0.762855 0.722845
O O7 0.457939 0.709523 0.650217
O O8 0.492648 0.000000 0.663223
O O9 0.250000 0.750000 0.500000
O O10 0.188138 0.792993 0.436374
O O11 0.157844 0.000000 0.533780
O O12 0.190275 0.765900 0.705056
O O13 0.343731 0.800378 0.645979
O O14 0.276346 0.000000 0.612028
O O15 0.392755 0.500000 0.205833
O O16 0.464985 0.761371 0.176110
O O17 0.383236 0.746396 0.862368
O O18 0.470479 0.000000 0.811444
O O19 0.698358 0.000000 0.075861
O O20 0.750000 0.250000 0.000000
O O21 0.143703 0.000000 0.332175
#
# Coordination Sequence:
#
# PCOD8107279 Si02
#       8
#     8   8   8   8   8   8   8   8
#     4   9  18  38  60  81 117 159 195 232 284 352
#     4  11  22  39  60  81 111 155 196 239 295 350
#     4  12  25  40  56  81 114 151 196 246 299 353
#     4  10  21  39  59  81 114 157 198 240 293 349
#     4   9  19  34  59  87 112 149 196 241 282 335
#     4  10  21  37  59  85 116 150 189 238 291 346
#     4  10  21  39  61  87 116 152 192 236 288 347
#     4  11  21  34  57  89 116 145 190 245 293 345
#
# _framework density 19.688172000000002
#
# number of rings (size 3 to 8) (size 9 to 14) (size 15 to 20)
#    0.000    1.750    1.250    4.500    0.000    7.000 
#    0.000    3.125    0.000    3.750    0.000    0.000 
#    0.000    0.000    0.000    0.000    0.000    0.000 
#
# Total GULP energy -396661.698301 kJ/mol
# GULP energy per Si atom -12395.678072 kJ/mol
# Density = 1.964336 g / cm^3
# Si number density = 19.688172 Si / 1000 Ang^3
#
#
#
# Elastic Constant Matrix: (Units=GPa)
#
#
# Indices 1 2 3 4 5 6 
#
# 1 133.8428 17.7065 59.4907 -0.0002 -0.0890 0.0006
# 2 17.7065 48.6251 21.9305 -0.0003 1.0104 0.0012
# 3 59.4907 21.9305 103.9375 -0.0003 14.8289 0.0003
# 4 -0.0002 -0.0003 -0.0003 28.7451 0.0002 0.8707
# 5 -0.0890 1.0104 14.8289 0.0002 24.7515 0.0002
# 6 0.0006 0.0012 0.0003 0.8707 0.0002 33.3032
#
#
#
# Elastic Compliance Matrix: (Units=1/GPa)
#
#
# Indices 1 2 3 4 5 6 
#
# 1 0.010405 -0.001034 -0.006286 0.000000 0.003846 0.000000
# 2 -0.001034 0.022934 -0.004498 0.000000 0.001755 -0.000001
# 3 -0.006286 -0.004498 0.015467 0.000000 -0.009106 0.000000
# 4 0.000000 0.000000 0.000000 0.034816 0.000000 -0.000910
# 5 0.003846 0.001755 -0.009106 0.000000 0.045799 0.000000
# 6 0.000000 -0.000001 0.000000 -0.000910 0.000000 0.030051
#
#
# Mechanical properties :
#
#
# Convention : Reuss Voigt Hill
#
# Bulk Modulus (GPa) = 39.72784 53.85118 46.78951
# Shear Modulus (GPa) = 26.11008 29.84514 27.97761
#
# Velocity S-wave (km/s) = 3.64563 3.89767 3.77375
# Velocity P-wave (km/s) = 6.15980 6.90414 6.54257
#
# Compressibility (1/GPa) = 0.02517127
#
# Stress axis : x y z
#
# Youngs Moduli (GPa) = 96.11014 43.60345 64.65323
#
# Poissons Ratio (x) = 0.04507 0.40640
# Poissons Ratio (y) = 0.09935 0.29079
# Poissons Ratio (z) = 0.60414 0.19611
#
# Static dielectric constant tensor:
#      x y z
#    x 1.210790 0.000000 3.048320 
#    y 0.000000 3.467290 -0.000010 
#    z 3.048320 -0.000010 -0.263710 
# 
# 
# High freq. dielectric constant tensor:
#      x y z
#    x 1.780940 0.000000 0.007330 
#    y 0.000000 1.760650 0.000000 
#    z 0.007330 0.000000 1.746530 
# 
# From -- ./inp_files/345968.got.cif
#   From: 2010.06.25/outbox.cif.g09.slc.cpg/sg12_173_cif.got.tgz:345968.got - 2010.06.28 00:19:55.
