data_PCOD8107239
_publ_section_title
;
Structure prediction by ZEFSAII (Michael W. Deem and Ramdas Pophale) SiO2 
 PCOD8107239
Probable space group: C 2/M
;
_chemical_formula_sum "Si O2"
_cell_formula_units_Z 64
_cell_length_a 18.449919
_cell_length_b 23.307720
_cell_length_c 14.042865
_cell_angle_alpha 90.000000
_cell_angle_beta 149.060960
_cell_angle_gamma 90.000000
_cell_volume 3104.698083
_symmetry_space_group_name_H-M "C 2/M"
_symmetry_group_IT_number 12
_symmetry_cell_setting 'monoclinic'
loop_
_space_group_symop_operation_xyz
x,y,z
-x,y,-z
-x,-y,-z
x,-y,z
1/2+x,1/2+y,z
1/2-x,1/2+y,-z
1/2-x,1/2-y,-z
1/2+x,1/2-y,z
loop_
_atom_site_type_symbol
_atom_site_label
_atom_site_fract_x
_atom_site_fract_y
_atom_site_fract_z
Si Si1 0.192737 0.625250 0.979259
Si Si2 0.560441 0.802789 0.285918
Si Si3 0.948890 0.820559 0.190537
Si Si4 0.629123 0.621400 0.079809
Si Si5 0.167363 0.066044 0.692397
Si Si6 0.704621 0.668793 0.603938
Si Si7 0.619066 0.935612 0.702792
Si Si8 0.638881 0.209983 0.592138
O O1 0.131249 0.597691 0.814433
O O2 0.057186 0.651538 0.878480
O O3 0.295757 0.678500 0.068828
O O4 0.271659 0.578362 0.133415
O O5 0.493097 0.740277 0.197328
O O6 0.687070 0.813297 0.356437
O O7 0.609497 0.809318 0.450477
O O8 0.057067 0.845044 0.388869
O O9 0.946744 0.866550 0.104738
O O10 0.732129 0.566741 0.185772
O O11 0.726108 0.675337 0.218576
O O12 0.500000 0.605060 0.000000
O O13 0.244530 0.111345 0.708001
O O14 0.000000 0.075868 0.500000
O O15 0.203997 0.000000 0.706106
O O16 0.684449 0.723236 0.650842
O O17 0.500000 0.907087 0.500000
O O18 0.574482 0.000000 0.675674
O O19 0.500000 0.200422 0.500000
#
# Coordination Sequence:
#
# PCOD8107239 Si02
#       8
#     8   8   8   8   8   8   8   8
#     4  11  22  39  65  93 123 162 218 261 316 379
#     4  11  23  38  60  92 132 162 201 265 326 384
#     4  10  21  37  58  89 125 164 206 253 311 387
#     4  11  21  35  58  91 124 155 199 256 318 379
#     4  11  24  44  68  92 123 172 228 273 311 378
#     4  11  23  41  60  91 128 171 208 264 324 379
#     4  10  22  41  63  88 122 165 213 260 313 378
#     4  11  22  38  64  90 128 168 210 251 321 397
#
# _framework density 20.61392
#
# number of rings (size 3 to 8) (size 9 to 14) (size 15 to 20)
#    0.000    1.250    1.250    6.750    3.500    0.750 
#    0.000    1.875    0.000    2.250    0.000    0.000 
#    0.000    0.000    0.000    0.000    0.000    0.000 
#
# Total GULP energy -396659.188848 kJ/mol
# GULP energy per Si atom -12395.599651 kJ/mol
# Density = 2.056700 g / cm^3
# Si number density = 20.613920 Si / 1000 Ang^3
#
#
#
# Elastic Constant Matrix: (Units=GPa)
#
#
# Indices 1 2 3 4 5 6 
#
# 1 94.5041 29.1282 22.7855 0.0000 4.8602 0.0000
# 2 29.1282 97.8018 27.5907 0.0000 -6.0186 0.0000
# 3 22.7855 27.5907 83.0950 0.0000 -13.9375 0.0000
# 4 0.0000 0.0000 0.0000 0.9299 0.0000 -2.4599
# 5 4.8602 -6.0186 -13.9375 0.0000 31.2992 0.0000
# 6 0.0000 0.0000 0.0000 -2.4599 0.0000 18.8897
#
#
#
# Elastic Compliance Matrix: (Units=1/GPa)
#
#
# Indices 1 2 3 4 5 6 
#
# 1 0.012469 -0.003094 -0.003044 0.000000 -0.003886 0.000000
# 2 -0.003094 0.012058 -0.002903 0.000000 0.001507 0.000000
# 3 -0.003044 -0.002903 0.014934 0.000000 0.006565 0.000000
# 4 0.000000 0.000000 0.000000 1.640592 0.000000 0.213649
# 5 -0.003886 0.001507 0.006565 0.000000 0.035766 0.000000
# 6 0.000000 0.000000 0.000000 0.213649 0.000000 0.080762
#
#
# Mechanical properties :
#
#
# Convention : Reuss Voigt Hill
#
# Bulk Modulus (GPa) = 46.77259 48.26773 47.52016
# Shear Modulus (GPa) = 2.74456 23.28352 13.01404
#
# Velocity S-wave (km/s) = 1.15512 3.36446 2.51534
# Velocity P-wave (km/s) = 4.95158 6.20957 5.61591
#
# Compressibility (1/GPa) = 0.02138004
#
# Stress axis : x y z
#
# Youngs Moduli (GPa) = 80.19921 82.93367 66.96210
#
# Poissons Ratio (x) = 0.25661 0.20381
# Poissons Ratio (y) = 0.24815 0.19436
# Poissons Ratio (z) = 0.24410 0.24072
#
# Static dielectric constant tensor:
#      x y z
#    x 3.747740 0.000000 0.039140 
#    y 0.000000 3.604240 0.000000 
#    z 0.039140 0.000000 4.100860 
# 
# 
# High freq. dielectric constant tensor:
#      x y z
#    x 1.800680 0.000000 -0.005400 
#    y 0.000000 1.793950 0.000000 
#    z -0.005400 0.000000 1.824740 
# 
# From -- ./inp_files/228187.got.cif
#   From: 2010.06.25/outbox.cif.g09.slc.cpg/sg12_115_cif.got.tgz:228187.got - 2010.06.28 00:19:55.
