data_PCOD8107466
_publ_section_title
;
Structure prediction by ZEFSAII (Michael W. Deem and Ramdas Pophale) SiO2 
 PCOD8107466
Probable space group: C 2/M
;
_chemical_formula_sum "Si O2"
_cell_formula_units_Z 48
_cell_length_a 23.105361
_cell_length_b 11.074932
_cell_length_c 9.062328
_cell_angle_alpha 90.000000
_cell_angle_beta 90.871997
_cell_angle_gamma 90.000000
_cell_volume 2318.693289
_symmetry_space_group_name_H-M "C 2/M"
_symmetry_group_IT_number 12
_symmetry_cell_setting 'monoclinic'
loop_
_space_group_symop_operation_xyz
x,y,z
-x,y,-z
-x,-y,-z
x,-y,z
1/2+x,1/2+y,z
1/2-x,1/2+y,-z
1/2-x,1/2-y,-z
1/2+x,1/2-y,z
loop_
_atom_site_type_symbol
_atom_site_label
_atom_site_fract_x
_atom_site_fract_y
_atom_site_fract_z
Si Si1 0.316669 0.634867 0.885731
Si Si2 0.744870 0.867981 0.396498
Si Si3 0.589531 0.139964 0.635110
Si Si4 0.692827 0.772778 0.827730
Si Si5 0.876943 0.705151 0.675237
Si Si6 0.990383 0.638391 0.838906
O O1 0.332993 0.500000 0.933338
O O2 0.248490 0.641517 0.847875
O O3 0.355088 0.668020 0.743171
O O4 0.332336 0.728237 0.017063
O O5 0.750000 0.750000 0.500000
O O6 0.788655 0.846876 0.262855
O O7 0.679282 0.880817 0.334772
O O8 0.759890 0.000000 0.469701
O O9 0.645153 0.149008 0.741955
O O10 0.597311 0.220869 0.488436
O O11 0.533846 0.194522 0.718442
O O12 0.580927 0.000000 0.587300
O O13 0.924466 0.648793 0.785365
O O14 0.009292 0.500000 0.854003
O O15 0.000000 0.700583 0.000000
#
# Coordination Sequence:
#
# PCOD8107466 Si02
#       6
#     8   8   8   8   8   8
#     4  10  22  39  59  84 121 162 206 252 302 363
#     4  11  22  36  59  90 125 162 199 248 304 368
#     4  11  21  36  60  90 123 156 197 252 311 367
#     4  10  21  38  59  88 118 160 202 251 303 363
#     4  11  22  37  59  88 122 158 198 250 307 363
#     4  10  21  37  60  88 119 157 200 251 309 366
#
# _framework density 20.701315000000001
#
# number of rings (size 3 to 8) (size 9 to 14) (size 15 to 20)
#    0.000    1.500    1.667    4.000    0.000    4.000 
#    0.000    6.667    0.000    7.500    0.000    0.000 
#    0.000    0.000    0.000    0.000    0.000    0.000 
#
# Total GULP energy -297478.667556 kJ/mol
# GULP energy per Si atom -12394.944481 kJ/mol
# Density = 2.065420 g / cm^3
# Si number density = 20.701315 Si / 1000 Ang^3
#
#
#
# Elastic Constant Matrix: (Units=GPa)
#
#
# Indices 1 2 3 4 5 6 
#
# 1 96.8772 17.4049 47.6049 0.0000 -4.5189 0.0000
# 2 17.4049 89.1047 39.7069 0.0000 -10.7551 0.0000
# 3 47.6049 39.7069 131.3878 0.0000 -10.1103 0.0000
# 4 0.0000 0.0000 0.0000 26.1090 0.0000 4.1238
# 5 -4.5189 -10.7551 -10.1103 0.0000 45.6506 0.0000
# 6 0.0000 0.0000 0.0000 4.1238 0.0000 10.5857
#
#
#
# Elastic Compliance Matrix: (Units=1/GPa)
#
#
# Indices 1 2 3 4 5 6 
#
# 1 0.012578 -0.000477 -0.004401 0.000000 0.000158 0.000000
# 2 -0.000477 0.013214 -0.003647 0.000000 0.002258 0.000000
# 3 -0.004401 -0.003647 0.010385 0.000000 0.001005 0.000000
# 4 0.000000 0.000000 0.000000 0.040812 0.000000 -0.015899
# 5 0.000158 0.002258 0.001005 0.000000 0.022676 0.000000
# 6 0.000000 0.000000 0.000000 -0.015899 0.000000 0.100661
#
#
# Mechanical properties :
#
#
# Convention : Reuss Voigt Hill
#
# Bulk Modulus (GPa) = 52.28035 58.53367 55.40701
# Shear Modulus (GPa) = 22.34637 30.64594 26.49615
#
# Velocity S-wave (km/s) = 3.28909 3.85175 3.58149
# Velocity P-wave (km/s) = 6.30346 6.93672 6.62765
#
# Compressibility (1/GPa) = 0.01912765
#
# Stress axis : x y z
#
# Youngs Moduli (GPa) = 79.50372 75.68007 96.29132
#
# Poissons Ratio (x) = 0.03607 0.42379
# Poissons Ratio (y) = 0.03789 0.35116
# Poissons Ratio (z) = 0.34991 0.27599
#
# Static dielectric constant tensor:
#      x y z
#    x 3.780850 0.000000 -0.178820 
#    y 0.000000 3.297500 0.000000 
#    z -0.178820 0.000000 4.063050 
# 
# 
# High freq. dielectric constant tensor:
#      x y z
#    x 1.806470 0.000000 -0.006430 
#    y 0.000000 1.764690 0.000000 
#    z -0.006430 0.000000 1.827940 
# 
# From -- ./inp_files/94406.got.cif
#   From: 2010.06.25/outbox.cif.g09.slc.cpg/sg12_48_cif.got.tgz:94406.got - 2010.06.28 00:19:55.
