data_PCOD8107270
_publ_section_title
;
Structure prediction by ZEFSAII (Michael W. Deem and Ramdas Pophale) SiO2 
 PCOD8107270
Probable space group: C 2/M
;
_chemical_formula_sum "Si O2"
_cell_formula_units_Z 64
_cell_length_a 29.929269
_cell_length_b 8.882958
_cell_length_c 12.427997
_cell_angle_alpha 90.000000
_cell_angle_beta 87.587183
_cell_angle_gamma 90.000000
_cell_volume 3301.183442
_symmetry_space_group_name_H-M "C 2/M"
_symmetry_group_IT_number 12
_symmetry_cell_setting 'monoclinic'
loop_
_space_group_symop_operation_xyz
x,y,z
-x,y,-z
-x,-y,-z
x,-y,z
1/2+x,1/2+y,z
1/2-x,1/2+y,-z
1/2-x,1/2-y,-z
1/2+x,1/2-y,z
loop_
_atom_site_type_symbol
_atom_site_label
_atom_site_fract_x
_atom_site_fract_y
_atom_site_fract_z
Si Si1 0.752519 0.824878 0.619664
Si Si2 0.029978 0.832631 0.582551
Si Si3 0.127419 0.165314 0.522332
Si Si4 0.586292 0.825263 0.158225
Si Si5 0.489213 0.321587 0.184399
Si Si6 0.838842 0.324155 0.681068
Si Si7 0.843072 0.673256 0.278667
Si Si8 0.907705 0.672193 0.084289
O O1 0.750000 0.750000 0.500000
O O2 0.791528 0.760927 0.693277
O O3 0.709539 0.795765 0.699738
O O4 0.759930 0.000000 0.596917
O O5 0.075246 0.845720 0.512671
O O6 0.000000 0.740008 0.500000
O O7 0.030528 0.758124 0.700119
O O8 0.009662 0.000000 0.603838
O O9 0.146007 0.292533 0.442273
O O10 0.132753 0.214379 0.643844
O O11 0.149513 0.000000 0.498793
O O12 0.539504 0.738478 0.168831
O O13 0.623802 0.762872 0.238499
O O14 0.576965 0.000000 0.184043
O O15 0.606760 0.800714 0.037493
O O16 0.490283 0.500000 0.172608
O O17 0.453667 0.263019 0.100517
O O18 0.830849 0.500000 0.699389
O O19 0.853943 0.500000 0.304982
O O20 0.863952 0.716868 0.159975
O O21 0.920560 0.500000 0.103778
#
# Coordination Sequence:
#
# PCOD8107270 Si02
#       8
#     8   8   8   8   8   8   8   8
#     4  11  22  37  60  89 118 149 187 234 291 349
#     4   9  18  31  47  74 113 150 182 223 280 340
#     4  11  20  33  56  82 114 151 186 230 288 343
#     4  10  23  41  59  81 113 157 200 238 284 341
#     4  11  21  35  57  86 117 150 194 243 288 335
#     4  11  23  39  58  84 118 152 193 239 287 343
#     4  10  21  37  59  85 113 145 187 236 282 339
#     4  10  21  40  62  82 113 156 198 238 285 338
#
# _framework density 19.386987000000001
#
# number of rings (size 3 to 8) (size 9 to 14) (size 15 to 20)
#    0.000    1.625    2.500    2.625    0.000    4.500 
#    0.000    0.625    0.000    3.000    0.000    0.000 
#    0.000    0.000    0.000    0.000    0.000    0.000 
#
# Total GULP energy -396474.143985 kJ/mol
# GULP energy per Si atom -12389.817000 kJ/mol
# Density = 1.934286 g / cm^3
# Si number density = 19.386987 Si / 1000 Ang^3
#
#
#
# Elastic Constant Matrix: (Units=GPa)
#
#
# Indices 1 2 3 4 5 6 
#
# 1 127.6935 43.1708 40.2155 0.0000 -7.4998 0.0000
# 2 43.1708 70.4038 25.8805 0.0000 0.1561 0.0000
# 3 40.2155 25.8805 72.3026 0.0000 -2.4867 0.0000
# 4 0.0000 0.0000 0.0000 18.0600 0.0000 0.7864
# 5 -7.4998 0.1561 -2.4867 0.0000 27.5171 0.0000
# 6 0.0000 0.0000 0.0000 0.7864 0.0000 29.9310
#
#
#
# Elastic Compliance Matrix: (Units=1/GPa)
#
#
# Indices 1 2 3 4 5 6 
#
# 1 0.011088 -0.005264 -0.004191 0.000000 0.002673 0.000000
# 2 -0.005264 0.018866 -0.003890 0.000000 -0.001893 0.000000
# 3 -0.004191 -0.003890 0.017570 0.000000 0.000468 0.000000
# 4 0.000000 0.000000 0.000000 0.055434 0.000000 -0.001456
# 5 0.002673 -0.001893 0.000468 0.000000 0.037123 0.000000
# 6 0.000000 0.000000 0.000000 -0.001456 0.000000 0.033448
#
#
# Mechanical properties :
#
#
# Convention : Reuss Voigt Hill
#
# Bulk Modulus (GPa) = 47.99939 54.32592 51.16266
# Shear Modulus (GPa) = 24.13540 25.84385 24.98962
#
# Velocity S-wave (km/s) = 3.53218 3.65506 3.59415
# Velocity P-wave (km/s) = 6.43796 6.77461 6.60843
#
# Compressibility (1/GPa) = 0.02083360
#
# Stress axis : x y z
#
# Youngs Moduli (GPa) = 90.18841 53.00548 56.91413
#
# Poissons Ratio (x) = 0.27904 0.23852
# Poissons Ratio (y) = 0.47478 0.22140
# Poissons Ratio (z) = 0.37797 0.20619
#
# Static dielectric constant tensor:
#      x y z
#    x 3.690490 0.000000 -0.012900 
#    y 0.000000 3.491330 0.000000 
#    z -0.012900 0.000000 3.692370 
# 
# 
# High freq. dielectric constant tensor:
#      x y z
#    x 1.761970 0.000000 -0.005050 
#    y 0.000000 1.745100 0.000000 
#    z -0.005050 0.000000 1.749700 
# 
# From -- ./inp_files/187529.got.cif
#   From: 2010.06.25/outbox.cif.g09.slc.cpg/sg12_94_cif.got.tgz:187529.got - 2010.06.28 00:19:55.
