data_PCOD8107741
_publ_section_title
;
Structure prediction by ZEFSAII (Michael W. Deem and Ramdas Pophale) SiO2 
 PCOD8107741
Probable space group: C 2/M
;
_chemical_formula_sum "Si O2"
_cell_formula_units_Z 48
_cell_length_a 12.100502
_cell_length_b 28.702965
_cell_length_c 8.178610
_cell_angle_alpha 90.000000
_cell_angle_beta 56.960220
_cell_angle_gamma 90.000000
_cell_volume 2381.250520
_symmetry_space_group_name_H-M "C 2/M"
_symmetry_group_IT_number 12
_symmetry_cell_setting 'monoclinic'
loop_
_space_group_symop_operation_xyz
x,y,z
-x,y,-z
-x,-y,-z
x,-y,z
1/2+x,1/2+y,z
1/2-x,1/2+y,-z
1/2-x,1/2-y,-z
1/2+x,1/2-y,z
loop_
_atom_site_type_symbol
_atom_site_label
_atom_site_fract_x
_atom_site_fract_y
_atom_site_fract_z
Si Si1 0.352450 0.051924 0.052643
Si Si2 0.961007 0.612442 0.696185
Si Si3 0.343468 0.302959 0.770997
Si Si4 0.299085 0.201101 0.783542
Si Si5 0.423436 0.653406 0.218775
Si Si6 0.240321 0.380210 0.620622
O O1 0.251396 0.075327 0.264303
O O2 0.299368 0.000000 0.057701
O O3 0.500000 0.048729 0.000000
O O4 0.354803 0.082786 0.885608
O O5 0.898158 0.659071 0.671975
O O6 0.000000 0.583365 0.500000
O O7 0.087388 0.625750 0.701082
O O8 0.366200 0.250498 0.685922
O O9 0.479416 0.324282 0.726662
O O10 0.286760 0.333278 0.669854
O O11 0.233262 0.301070 0.998712
O O12 0.169222 0.194530 0.776451
O O13 0.334437 0.614091 0.384214
O O14 0.500000 0.630787 0.000000
#
# Coordination Sequence:
#
# PCOD8107741 Si02
#       6
#     8   8   8   8   8   8
#     4   9  20  39  63  91 117 145 189 243 303 359
#     4  11  21  36  60  89 123 151 188 243 299 349
#     4  10  22  36  58  82 118 165 205 237 279 341
#     4  10  21  38  54  85 122 158 202 238 288 339
#     4  10  22  39  55  81 118 164 195 244 281 340
#     4  11  21  37  62  85 114 158 196 241 294 344
#
# _framework density 20.157475999999999
#
# number of rings (size 3 to 8) (size 9 to 14) (size 15 to 20)
#    0.000    1.833    3.333    0.500    2.333    2.333 
#    0.000    0.000    0.000    2.500    0.000    0.000 
#    0.000    0.000    0.000    0.000    0.000    0.000 
#
# Total GULP energy -297484.980530 kJ/mol
# GULP energy per Si atom -12395.207522 kJ/mol
# Density = 2.011160 g / cm^3
# Si number density = 20.157476 Si / 1000 Ang^3
#
#
#
# Elastic Constant Matrix: (Units=GPa)
#
#
# Indices 1 2 3 4 5 6 
#
# 1 76.1615 22.2742 19.9304 0.0000 6.1627 0.0000
# 2 22.2742 123.1549 60.5103 0.0000 1.7443 0.0000
# 3 19.9304 60.5103 136.7540 0.0000 -0.7287 0.0000
# 4 0.0000 0.0000 0.0000 12.3278 0.0000 -2.5864
# 5 6.1627 1.7443 -0.7287 0.0000 28.5695 0.0000
# 6 0.0000 0.0000 0.0000 -2.5864 0.0000 15.5683
#
#
#
# Elastic Compliance Matrix: (Units=1/GPa)
#
#
# Indices 1 2 3 4 5 6 
#
# 1 0.014260 -0.001927 -0.001242 0.000000 -0.002990 0.000000
# 2 -0.001927 0.010652 -0.004434 0.000000 -0.000348 0.000000
# 3 -0.001242 -0.004434 0.009460 0.000000 0.000780 0.000000
# 4 0.000000 0.000000 0.000000 0.084047 0.000000 0.013963
# 5 -0.002990 -0.000348 0.000780 0.000000 0.035688 0.000000
# 6 0.000000 0.000000 0.000000 0.013963 0.000000 0.066553
#
#
# Mechanical properties :
#
#
# Convention : Reuss Voigt Hill
#
# Bulk Modulus (GPa) = 52.17441 60.16670 56.17056
# Shear Modulus (GPa) = 20.63946 26.85015 23.74480
#
# Velocity S-wave (km/s) = 3.20333 3.65364 3.43587
# Velocity P-wave (km/s) = 6.29455 6.90738 6.60808
#
# Compressibility (1/GPa) = 0.01916648
#
# Stress axis : x y z
#
# Youngs Moduli (GPa) = 70.12438 93.87925 105.71287
#
# Poissons Ratio (x) = 0.18088 0.13126
# Poissons Ratio (y) = 0.13511 0.46876
# Poissons Ratio (z) = 0.08707 0.41629
#
# Static dielectric constant tensor:
#      x y z
#    x 3.553350 0.000000 0.084730 
#    y 0.000000 3.548790 0.000000 
#    z 0.084730 0.000000 4.078710 
# 
# 
# High freq. dielectric constant tensor:
#      x y z
#    x 1.778060 0.000000 0.008910 
#    y 0.000000 1.746480 0.000000 
#    z 0.008910 0.000000 1.808880 
# 
# From -- ./inp_files/52440.got.cif
#   From: 2010.06.25/outbox.cif.g09.slc.cpg/sg12_27_cif.got.tgz:52440.got - 2010.06.28 00:19:55.
