data_PCOD8107550
_publ_section_title
;
Structure prediction by ZEFSAII (Michael W. Deem and Ramdas Pophale) SiO2 
 PCOD8107550
Probable space group: C 2/M
;
_chemical_formula_sum "Si O2"
_cell_formula_units_Z 44
_cell_length_a 14.299235
_cell_length_b 21.797069
_cell_length_c 7.361597
_cell_angle_alpha 90.000000
_cell_angle_beta 115.986085
_cell_angle_gamma 90.000000
_cell_volume 2062.502842
_symmetry_space_group_name_H-M "C 2/M"
_symmetry_group_IT_number 12
_symmetry_cell_setting 'monoclinic'
loop_
_space_group_symop_operation_xyz
x,y,z
-x,y,-z
-x,-y,-z
x,-y,z
1/2+x,1/2+y,z
1/2-x,1/2+y,-z
1/2-x,1/2-y,-z
1/2+x,1/2-y,z
loop_
_atom_site_type_symbol
_atom_site_label
_atom_site_fract_x
_atom_site_fract_y
_atom_site_fract_z
Si Si1 0.250772 0.118684 0.847700
Si Si2 0.185105 0.069197 0.155085
Si Si3 0.079264 0.787203 0.718021
Si Si4 0.500000 0.649673 0.000000
Si Si5 0.037119 0.661482 0.837494
Si Si6 0.851014 0.571201 0.584755
O O1 0.194254 0.185344 0.770742
O O2 0.265447 0.084494 0.668921
O O3 0.185170 0.078917 0.936402
O O4 0.362062 0.122105 0.036266
O O5 0.092811 0.109088 0.163076
O O6 0.294697 0.085596 0.345405
O O7 0.156162 0.000000 0.174716
O O8 0.072101 0.713282 0.721810
O O9 0.000000 0.812330 0.500000
O O10 0.045085 0.807627 0.885175
O O11 0.949703 0.616347 0.679838
O O12 0.000000 0.689643 0.000000
O O13 0.887505 0.500000 0.628201
#
# Coordination Sequence:
#
# PCOD8107550 Si02
#       6
#     8   8   8   4   8   8
#     4  10  22  38  59  86 116 155 195 239 289 347
#     4  10  21  37  61  88 117 154 194 241 294 345
#     4  11  22  38  60  84 117 155 197 240 288 345
#     4  10  21  40  58  86 121 152 196 244 288 348
#     4  10  22  40  58  85 120 156 192 238 296 343
#     4  10  22  40  61  89 120 153 196 242 292 352
#
# _framework density 21.333302
#
# number of rings (size 3 to 8) (size 9 to 14) (size 15 to 20)
#    0.000    1.818    0.909    2.455    2.545    4.000 
#    0.000    4.545    0.000    8.727    0.000    0.000 
#    0.000    0.000    0.000    0.000    0.000    0.000 
#
# Total GULP energy -272691.532765 kJ/mol
# GULP energy per Si atom -12395.069671 kJ/mol
# Density = 2.128475 g / cm^3
# Si number density = 21.333302 Si / 1000 Ang^3
#
#
#
# Elastic Constant Matrix: (Units=GPa)
#
#
# Indices 1 2 3 4 5 6 
#
# 1 48.9762 18.7130 8.7165 0.0000 7.4579 0.0000
# 2 18.7130 104.6405 34.5906 0.0000 9.1360 0.0000
# 3 8.7165 34.5906 84.6344 0.0000 4.3690 0.0000
# 4 0.0000 0.0000 0.0000 24.5023 0.0000 18.2569
# 5 7.4579 9.1360 4.3690 0.0000 30.0191 0.0000
# 6 0.0000 0.0000 0.0000 18.2569 0.0000 -23.1373
#
#
#
# Elastic Compliance Matrix: (Units=1/GPa)
#
#
# Indices 1 2 3 4 5 6 
#
# 1 0.022523 -0.003408 -0.000697 0.000000 -0.004457 0.000000
# 2 -0.003408 0.011791 -0.004359 0.000000 -0.002107 0.000000
# 3 -0.000697 -0.004359 0.013694 0.000000 -0.000493 0.000000
# 4 0.000000 0.000000 0.000000 0.025701 0.000000 0.020280
# 5 -0.004457 -0.002107 -0.000493 0.000000 0.035133 0.000000
# 6 0.000000 0.000000 0.000000 0.020280 0.000000 -0.027218
#
#
# Mechanical properties :
#
#
# Convention : Reuss Voigt Hill
#
# Bulk Modulus (GPa) = 32.17502 40.25459 36.21480
# Shear Modulus (GPa) = 45.90811 18.02555 31.96683
#
# Velocity S-wave (km/s) = 4.64394 2.90995 3.87518
# Velocity P-wave (km/s) = 6.62342 5.49552 6.08566
#
# Compressibility (1/GPa) = 0.03108001
#
# Stress axis : x y z
#
# Youngs Moduli (GPa) = 44.39898 84.80992 73.02266
#
# Poissons Ratio (x) = 0.28907 0.05086
# Poissons Ratio (y) = 0.15133 0.31833
# Poissons Ratio (z) = 0.03092 0.36971
#
# Static dielectric constant tensor:
#      x y z
#    x 4.005860 0.000000 -0.104690 
#    y 0.000000 3.758910 0.000000 
#    z -0.104690 0.000000 3.988550 
# 
# 
# High freq. dielectric constant tensor:
#      x y z
#    x 1.834950 0.000000 -0.001760 
#    y 0.000000 1.831910 0.000000 
#    z -0.001760 0.000000 1.842120 
# 
# From -- ./inp_files/65562.got.cif
#   From: 2010.06.25/outbox.cif.g09.slc.cpg/sg12_33_cif.got.tgz:65562.got - 2010.06.28 00:19:55.
