data_PCOD8107004
_publ_section_title
;
Structure prediction by ZEFSAII (Michael W. Deem and Ramdas Pophale) SiO2 
 PCOD8107004
Probable space group: C 2/M
;
_chemical_formula_sum "Si O2"
_cell_formula_units_Z 48
_cell_length_a 12.825002
_cell_length_b 13.361775
_cell_length_c 23.472597
_cell_angle_alpha 90.000000
_cell_angle_beta 35.995244
_cell_angle_gamma 90.000000
_cell_volume 2364.023563
_symmetry_space_group_name_H-M "C 2/M"
_symmetry_group_IT_number 12
_symmetry_cell_setting 'monoclinic'
loop_
_space_group_symop_operation_xyz
x,y,z
-x,y,-z
-x,-y,-z
x,-y,z
1/2+x,1/2+y,z
1/2-x,1/2+y,-z
1/2-x,1/2-y,-z
1/2+x,1/2-y,z
loop_
_atom_site_type_symbol
_atom_site_label
_atom_site_fract_x
_atom_site_fract_y
_atom_site_fract_z
Si Si1 0.159764 0.881981 0.467902
Si Si2 0.823739 0.384370 0.611345
Si Si3 0.966408 0.384735 0.251988
Si Si4 0.035703 0.882706 0.644598
Si Si5 0.369788 0.614794 0.107872
Si Si6 0.287393 0.246433 0.240803
O O1 0.345558 0.844834 0.358348
O O2 0.140948 0.846462 0.541355
O O3 0.000000 0.837403 0.500000
O O4 0.152046 0.000000 0.469393
O O5 0.828910 0.500000 0.627199
O O6 0.654821 0.359790 0.646726
O O7 0.817880 0.321038 0.671274
O O8 0.000000 0.354503 0.500000
O O9 0.920539 0.500000 0.259600
O O10 0.923809 0.323569 0.214045
O O11 0.169199 0.369555 0.177103
O O12 0.852999 0.821979 0.731185
O O13 0.989808 0.000000 0.660591
O O14 0.406487 0.500000 0.109614
O O15 0.404910 0.687642 0.145490
O O16 0.500000 0.647868 0.000000
#
# Coordination Sequence:
#
# PCOD8107004 Si02
#       6
#     8   8   8   8   8   8
#     4   9  16  30  53  84 120 157 191 224 270 335
#     4  10  24  39  50  78 124 165 195 231 286 348
#     4  10  21  37  60  90 119 151 195 242 290 342
#     4  10  21  37  57  84 125 163 191 233 284 344
#     4  10  24  45  64  83 111 151 201 252 297 343
#     4  12  22  36  63  89 113 151 195 244 290 352
#
# _framework density 20.304366000000002
#
# number of rings (size 3 to 8) (size 9 to 14) (size 15 to 20)
#    0.000    1.833    1.667    2.000    4.667    1.333 
#    0.000    0.000    0.000    2.000    0.000    0.000 
#    0.000    0.000    0.000    0.000    0.000    0.000 
#
# Total GULP energy -297664.627538 kJ/mol
# GULP energy per Si atom -12402.692814 kJ/mol
# Density = 2.025815 g / cm^3
# Si number density = 20.304366 Si / 1000 Ang^3
#
#
#
# Elastic Constant Matrix: (Units=GPa)
#
#
# Indices 1 2 3 4 5 6 
#
# 1 37.5573 17.2076 19.2861 -0.0002 10.0394 0.0000
# 2 17.2076 83.7212 32.6806 -0.0001 18.8008 0.0001
# 3 19.2861 32.6806 112.6379 0.0002 10.1277 0.0002
# 4 -0.0002 -0.0001 0.0002 19.8355 0.0000 17.1005
# 5 10.0394 18.8008 10.1277 0.0000 24.3646 -0.0001
# 6 0.0000 0.0001 0.0002 17.1005 -0.0001 16.7046
#
#
#
# Elastic Compliance Matrix: (Units=1/GPa)
#
#
# Indices 1 2 3 4 5 6 
#
# 1 0.032522 -0.003070 -0.003829 0.000004 -0.009440 -0.000004
# 2 -0.003070 0.016035 -0.003249 0.000002 -0.009758 -0.000002
# 3 -0.003829 -0.003249 0.010502 -0.000001 -0.000280 0.000000
# 4 0.000004 0.000002 -0.000001 0.429258 -0.000005 -0.439433
# 5 -0.009440 -0.009758 -0.000280 -0.000005 0.052579 0.000006
# 6 -0.000004 -0.000002 0.000000 -0.439433 0.000006 0.509712
#
#
# Mechanical properties :
#
#
# Convention : Reuss Voigt Hill
#
# Bulk Modulus (GPa) = 25.79820 41.36276 33.58048
# Shear Modulus (GPa) = 4.61329 23.16373 13.88851
#
# Velocity S-wave (km/s) = 1.50897 3.38127 2.61821
# Velocity P-wave (km/s) = 3.97106 5.97157 5.07094
#
# Compressibility (1/GPa) = 0.03876240
#
# Stress axis : x y z
#
# Youngs Moduli (GPa) = 30.74819 62.36350 95.22373
#
# Poissons Ratio (x) = 0.19144 0.36462
# Poissons Ratio (y) = 0.09439 0.30942
# Poissons Ratio (z) = 0.11774 0.20264
#
# Static dielectric constant tensor:
#      x y z
#    x 3.828970 0.000000 0.370920 
#    y 0.000000 3.940820 0.000000 
#    z 0.370920 0.000000 3.957320 
# 
# 
# High freq. dielectric constant tensor:
#      x y z
#    x 1.790960 0.000000 0.000850 
#    y 0.000000 1.816680 0.000000 
#    z 0.000850 0.000000 1.760650 
# 
# From -- ./inp_files/204286.got.cif
#   From: 2010.06.25/outbox.cif.g09.slc.cpg/sg12_103_cif.got.tgz:204286.got - 2010.06.28 00:19:55.
