data_PCOD8107224
_publ_section_title
;
Structure prediction by ZEFSAII (Michael W. Deem and Ramdas Pophale) SiO2 
 PCOD8107224
Probable space group: C 2/M
;
_chemical_formula_sum "Si O2"
_cell_formula_units_Z 60
_cell_length_a 21.731273
_cell_length_b 15.185726
_cell_length_c 24.975944
_cell_angle_alpha 90.000000
_cell_angle_beta 158.666152
_cell_angle_gamma 90.000000
_cell_volume 2998.521800
_symmetry_space_group_name_H-M "C 2/M"
_symmetry_group_IT_number 12
_symmetry_cell_setting 'monoclinic'
loop_
_space_group_symop_operation_xyz
x,y,z
-x,y,-z
-x,-y,-z
x,-y,z
1/2+x,1/2+y,z
1/2-x,1/2+y,-z
1/2-x,1/2-y,-z
1/2+x,1/2-y,z
loop_
_atom_site_type_symbol
_atom_site_label
_atom_site_fract_x
_atom_site_fract_y
_atom_site_fract_z
Si Si1 0.837297 0.223094 0.723936
Si Si2 0.601242 0.821657 0.876380
Si Si3 0.368774 0.603752 0.654026
Si Si4 0.781414 0.899843 0.112075
Si Si5 0.537911 0.902752 0.336740
Si Si6 0.406288 0.754754 0.973594
Si Si7 0.500000 0.185682 0.500000
Si Si8 0.691401 0.097929 0.750297
O O1 0.848199 0.132742 0.699216
O O2 0.640824 0.243872 0.581428
O O3 0.913795 0.294159 0.744437
O O4 0.960548 0.219710 0.874890
O O5 0.583960 0.847413 0.800608
O O6 0.750000 0.750000 0.000000
O O7 0.654919 0.901735 0.958702
O O8 0.362128 0.500000 0.651040
O O9 0.540596 0.636511 0.765721
O O10 0.222271 0.640142 0.495672
O O11 0.721522 0.828600 0.107475
O O12 0.791089 0.000000 0.143182
O O13 0.463883 0.907858 0.335645
O O14 0.554632 0.000000 0.324875
O O15 0.321270 0.668284 0.879451
O O16 0.500000 0.802679 0.000000
O O17 0.616364 0.126040 0.632277
O O18 0.774573 0.000000 0.811974
#
# Coordination Sequence:
#
# PCOD8107224 Si02
#       8
#     8   8   8   8   8   8   4   8
#     4  11  23  39  58  86 120 164 200 251 303 365
#     4  11  21  38  61  91 122 155 200 255 316 364
#     4  10  21  37  58  89 120 154 200 248 305 369
#     4  10  22  40  65  92 121 159 204 261 318 364
#     4  10  21  37  58  88 121 153 196 246 303 370
#     4  11  24  43  61  88 122 159 214 257 301 369
#     4  12  23  42  58  84 127 170 205 244 298 378
#     4  11  24  39  60  90 124 163 201 246 305 369
#
# _framework density 20.009858999999999
#
# number of rings (size 3 to 8) (size 9 to 14) (size 15 to 20)
#    0.000    1.333    4.000    2.200    0.000    3.200 
#    0.000    0.000    0.000    0.000    0.000    2.800 
#    0.000    0.000    0.000    0.000    0.000    0.000 
#
# Total GULP energy -371712.040351 kJ/mol
# GULP energy per Si atom -12390.401345 kJ/mol
# Density = 1.996432 g / cm^3
# Si number density = 20.009859 Si / 1000 Ang^3
#
#
#
# Elastic Constant Matrix: (Units=GPa)
#
#
# Indices 1 2 3 4 5 6 
#
# 1 109.7476 31.3351 48.7792 0.0395 6.6191 0.0073
# 2 31.3351 64.2887 36.3487 -0.0318 2.2368 -0.0346
# 3 48.7792 36.3487 99.5605 -0.0392 3.8959 -0.0609
# 4 0.0395 -0.0318 -0.0392 28.0466 0.0118 -2.3115
# 5 6.6191 2.2368 3.8959 0.0118 49.2508 0.0031
# 6 0.0073 -0.0346 -0.0609 -2.3115 0.0031 21.3318
#
#
#
# Elastic Compliance Matrix: (Units=1/GPa)
#
#
# Indices 1 2 3 4 5 6 
#
# 1 0.012217 -0.003221 -0.004766 -0.000029 -0.001119 -0.000026
# 2 -0.003221 0.020455 -0.005889 0.000021 -0.000030 0.000020
# 3 -0.004766 -0.005889 0.014539 0.000023 -0.000242 0.000036
# 4 -0.000029 0.000021 0.000023 0.035976 -0.000008 0.003899
# 5 -0.001119 -0.000030 -0.000242 -0.000008 0.020475 -0.000004
# 6 -0.000026 0.000020 0.000036 0.003899 -0.000004 0.047301
#
#
# Mechanical properties :
#
#
# Convention : Reuss Voigt Hill
#
# Bulk Modulus (GPa) = 51.38876 56.28030 53.83453
# Shear Modulus (GPa) = 26.99751 30.20144 28.59948
#
# Velocity S-wave (km/s) = 3.67715 3.88922 3.78467
# Velocity P-wave (km/s) = 6.61559 6.95381 6.78680
#
# Compressibility (1/GPa) = 0.01945951
#
# Stress axis : x y z
#
# Youngs Moduli (GPa) = 81.85056 48.88676 68.78228
#
# Poissons Ratio (x) = 0.15748 0.32782
# Poissons Ratio (y) = 0.26367 0.40503
# Poissons Ratio (z) = 0.39010 0.28788
#
# Static dielectric constant tensor:
#      x y z
#    x 3.972510 -0.000050 0.162020 
#    y -0.000050 3.519620 -0.000100 
#    z 0.162020 -0.000100 3.918470 
# 
# 
# High freq. dielectric constant tensor:
#      x y z
#    x 1.788340 0.000000 0.002390 
#    y 0.000000 1.758540 -0.000010 
#    z 0.002390 -0.000010 1.790920 
# 
# From -- ./inp_files/368166.got.cif
#   From: 2010.06.25/outbox.cif.g09.slc.cpg/sg12_185_cif.got.tgz:368166.got - 2010.06.28 00:19:55.
