data_PCOD8107259
_publ_section_title
;
Structure prediction by ZEFSAII (Michael W. Deem and Ramdas Pophale) SiO2 
 PCOD8107259
Probable space group: C 2/M
;
_chemical_formula_sum "Si O2"
_cell_formula_units_Z 56
_cell_length_a 29.183993
_cell_length_b 9.082291
_cell_length_c 12.722173
_cell_angle_alpha 90.000000
_cell_angle_beta 59.658406
_cell_angle_gamma 90.000000
_cell_volume 2910.226841
_symmetry_space_group_name_H-M "C 2/M"
_symmetry_group_IT_number 12
_symmetry_cell_setting 'monoclinic'
loop_
_space_group_symop_operation_xyz
x,y,z
-x,y,-z
-x,-y,-z
x,-y,z
1/2+x,1/2+y,z
1/2-x,1/2+y,-z
1/2-x,1/2-y,-z
1/2+x,1/2-y,z
loop_
_atom_site_type_symbol
_atom_site_label
_atom_site_fract_x
_atom_site_fract_y
_atom_site_fract_z
Si Si1 0.358882 0.825937 0.509845
Si Si2 0.059091 0.324506 0.407522
Si Si3 0.741321 0.330418 0.713067
Si Si4 0.059543 0.673132 0.963202
Si Si5 0.636844 0.670952 0.712008
Si Si6 0.594419 0.830166 0.144577
Si Si7 0.715471 0.169654 0.955113
O O1 0.399060 0.769137 0.553512
O O2 0.299081 0.778288 0.607883
O O3 0.375961 0.748819 0.382664
O O4 0.363265 0.000000 0.488178
O O5 0.061197 0.500000 0.402688
O O6 0.075042 0.255686 0.275703
O O7 0.000000 0.266971 0.500000
O O8 0.743221 0.500000 0.747109
O O9 0.698781 0.306095 0.669468
O O10 0.723662 0.233413 0.830828
O O11 0.073543 0.500000 0.940377
O O12 0.100187 0.759062 0.843291
O O13 0.065342 0.734739 0.075408
O O14 0.000000 0.707585 0.000000
O O15 0.622754 0.500000 0.718652
O O16 0.579195 0.000000 0.169535
O O17 0.656246 0.804401 0.061214
O O18 0.731269 0.000000 0.933825
O O19 0.750000 0.250000 0.000000
#
# Coordination Sequence:
#
# PCOD8107259 Si02
#       7
#     8   8   8   8   8   8   8
#     4  10  21  37  59  84 115 153 197 242 287 347
#     4   9  18  32  55  85 112 141 183 240 293 333
#     4  10  21  38  57  83 116 151 193 243 294 349
#     4  10  21  37  62  90 115 147 195 244 287 347
#     4  11  23  38  58  85 121 155 191 239 295 357
#     4   9  18  34  54  83 117 145 182 237 291 336
#     4  11  21  34  56  83 117 155 192 238 288 349
#
# _framework density 19.242487000000001
#
# number of rings (size 3 to 8) (size 9 to 14) (size 15 to 20)
#    0.000    2.000    1.429    2.143    2.000    3.714 
#    0.000    0.000    0.000    1.286    0.000    0.000 
#    0.000    0.000    0.000    0.000    0.000    0.000 
#
# Total GULP energy -347219.943971 kJ/mol
# GULP energy per Si atom -12400.712285 kJ/mol
# Density = 1.919869 g / cm^3
# Si number density = 19.242487 Si / 1000 Ang^3
#
#
#
# Elastic Constant Matrix: (Units=GPa)
#
#
# Indices 1 2 3 4 5 6 
#
# 1 165.0401 33.9070 71.2305 0.0000 15.2862 0.0000
# 2 33.9070 51.7577 43.9215 0.0000 4.1530 0.0000
# 3 71.2305 43.9215 162.3963 0.0000 23.3425 0.0000
# 4 0.0000 0.0000 0.0000 17.1019 0.0000 -7.6199
# 5 15.2862 4.1530 23.3425 0.0000 33.6615 0.0000
# 6 0.0000 0.0000 0.0000 -7.6199 0.0000 16.1403
#
#
#
# Elastic Compliance Matrix: (Units=1/GPa)
#
#
# Indices 1 2 3 4 5 6 
#
# 1 0.007856 -0.002967 -0.002425 0.000000 -0.001520 0.000000
# 2 -0.002967 0.026294 -0.006150 0.000000 0.002368 0.000000
# 3 -0.002425 -0.006150 0.009572 0.000000 -0.004777 0.000000
# 4 0.000000 0.000000 0.000000 0.074050 0.000000 0.034959
# 5 -0.001520 0.002368 -0.004777 0.000000 0.033418 0.000000
# 6 0.000000 0.000000 0.000000 0.034959 0.000000 0.078461
#
#
# Mechanical properties :
#
#
# Convention : Reuss Voigt Hill
#
# Bulk Modulus (GPa) = 48.45714 75.25689 61.85701
# Shear Modulus (GPa) = 19.25937 28.72306 23.99122
#
# Velocity S-wave (km/s) = 3.16710 3.86773 3.53481
# Velocity P-wave (km/s) = 6.21378 7.69028 6.99112
#
# Compressibility (1/GPa) = 0.02063679
#
# Stress axis : x y z
#
# Youngs Moduli (GPa) = 127.29071 38.03204 104.47634
#
# Poissons Ratio (x) = 0.11283 0.25335
# Poissons Ratio (y) = 0.37765 0.64258
# Poissons Ratio (z) = 0.30867 0.23391
#
# Static dielectric constant tensor:
#      x y z
#    x 3.742990 0.000000 0.129120 
#    y 0.000000 3.241700 0.000000 
#    z 0.129120 0.000000 3.751430 
# 
# 
# High freq. dielectric constant tensor:
#      x y z
#    x 1.765220 0.000000 0.005710 
#    y 0.000000 1.713530 0.000000 
#    z 0.005710 0.000000 1.762250 
# 
# From -- ./inp_files/181126.got.cif
#   From: 2010.06.25/outbox.cif.g09.slc.cpg/sg12_91_cif.got.tgz:181126.got - 2010.06.28 00:19:55.
