data_PCOD8107808
_publ_section_title
;
Structure prediction by ZEFSAII (Michael W. Deem and Ramdas Pophale) SiO2 
 PCOD8107808
Probable space group: C 2/M
;
_chemical_formula_sum "Si O2"
_cell_formula_units_Z 48
_cell_length_a 8.865732
_cell_length_b 19.037481
_cell_length_c 15.537686
_cell_angle_alpha 90.000000
_cell_angle_beta 77.003816
_cell_angle_gamma 90.000000
_cell_volume 2555.294923
_symmetry_space_group_name_H-M "C 2/M"
_symmetry_group_IT_number 12
_symmetry_cell_setting 'monoclinic'
loop_
_space_group_symop_operation_xyz
x,y,z
-x,y,-z
-x,-y,-z
x,-y,z
1/2+x,1/2+y,z
1/2-x,1/2+y,-z
1/2-x,1/2-y,-z
1/2+x,1/2-y,z
loop_
_atom_site_type_symbol
_atom_site_label
_atom_site_fract_x
_atom_site_fract_y
_atom_site_fract_z
Si Si1 0.131268 0.578932 0.741007
Si Si2 0.566052 0.079951 0.399942
Si Si3 0.786803 0.167929 0.264892
Si Si4 0.681754 0.917750 0.126579
Si Si5 0.665796 0.322591 0.023811
Si Si6 0.864783 0.811968 0.773445
O O1 0.187882 0.500000 0.753442
O O2 0.274954 0.631002 0.728599
O O3 0.070252 0.584705 0.651960
O O4 0.995555 0.600362 0.825587
O O5 0.500000 0.103564 0.500000
O O6 0.700883 0.134451 0.358004
O O7 0.631338 0.000000 0.394822
O O8 0.794337 0.111040 0.187105
O O9 0.700487 0.235132 0.236497
O O10 0.956040 0.188673 0.276108
O O11 0.709495 0.000000 0.115697
O O12 0.725734 0.883313 0.029965
O O13 0.649831 0.336014 0.126406
O O14 0.500000 0.321420 0.000000
O O15 0.750000 0.250000 0.000000
#
# Coordination Sequence:
#
# PCOD8107808 Si02
#       6
#     8   8   8   8   8   8
#     4   9  21  39  60  86 118 154 193 242 295 353
#     4   9  19  40  68  92 117 151 189 235 295 361
#     4  11  21  38  59  86 117 157 192 242 296 352
#     4  10  21  38  57  82 115 154 200 246 294 343
#     4  12  24  38  56  82 112 160 205 250 287 339
#     4  12  23  38  59  85 120 158 201 242 295 346
#
# _framework density 18.784526
#
# number of rings (size 3 to 8) (size 9 to 14) (size 15 to 20)
#    0.000    1.500    3.333    3.500    2.333    2.333 
#    0.000    5.833    0.000    3.000    0.000    0.000 
#    0.000    0.000    0.000    0.000    0.000    0.000 
#
# Total GULP energy -297654.740785 kJ/mol
# GULP energy per Si atom -12402.280866 kJ/mol
# Density = 1.874177 g / cm^3
# Si number density = 18.784526 Si / 1000 Ang^3
#
#
#
# Elastic Constant Matrix: (Units=GPa)
#
#
# Indices 1 2 3 4 5 6 
#
# 1 115.2337 62.4134 46.4028 0.0000 -2.5339 0.0000
# 2 62.4134 120.9412 51.8251 0.0000 -7.4688 0.0000
# 3 46.4028 51.8251 121.6562 0.0000 -19.9163 0.0000
# 4 0.0000 0.0000 0.0000 31.7444 0.0000 -2.0051
# 5 -2.5339 -7.4688 -19.9163 0.0000 18.3229 0.0000
# 6 0.0000 0.0000 0.0000 -2.0051 0.0000 37.0827
#
#
#
# Elastic Compliance Matrix: (Units=1/GPa)
#
#
# Indices 1 2 3 4 5 6 
#
# 1 0.012867 -0.005510 -0.003208 0.000000 -0.003953 0.000000
# 2 -0.005510 0.012481 -0.003050 0.000000 0.001010 0.000000
# 3 -0.003208 -0.003050 0.012732 0.000000 0.012153 0.000000
# 4 0.000000 0.000000 0.000000 0.031610 0.000000 0.001709
# 5 -0.003953 0.001010 0.012153 0.000000 0.067651 0.000000
# 6 0.000000 0.000000 0.000000 0.001709 0.000000 0.027059
#
#
# Mechanical properties :
#
#
# Convention : Reuss Voigt Hill
#
# Bulk Modulus (GPa) = 68.75080 75.45708 72.10394
# Shear Modulus (GPa) = 25.93580 30.57600 28.25590
#
# Velocity S-wave (km/s) = 3.71981 4.03888 3.88262
# Velocity P-wave (km/s) = 7.42485 7.87446 7.65296
#
# Compressibility (1/GPa) = 0.01454529
#
# Stress axis : x y z
#
# Youngs Moduli (GPa) = 77.71790 80.12038 78.54094
#
# Poissons Ratio (x) = 0.44144 0.25195
# Poissons Ratio (y) = 0.42820 0.23955
# Poissons Ratio (z) = 0.24931 0.24437
#
# Static dielectric constant tensor:
#      x y z
#    x 3.433050 0.000000 -0.027860 
#    y 0.000000 3.577130 0.000000 
#    z -0.027860 0.000000 3.561010 
# 
# 
# High freq. dielectric constant tensor:
#      x y z
#    x 1.722780 0.000000 -0.002140 
#    y 0.000000 1.741650 0.000000 
#    z -0.002140 0.000000 1.717910 
# 
# From -- ./inp_files/195940.got.cif
#   From: 2010.06.25/outbox.cif.g09.slc.cpg/sg12_98_cif.got.tgz:195940.got - 2010.06.28 00:19:55.
