data_PCOD8107371
_publ_section_title
;
Structure prediction by ZEFSAII (Michael W. Deem and Ramdas Pophale) SiO2 
 PCOD8107371
Probable space group: C 2/M
;
_chemical_formula_sum "Si O2"
_cell_formula_units_Z 64
_cell_length_a 30.419333
_cell_length_b 8.983543
_cell_length_c 19.513678
_cell_angle_alpha 90.000000
_cell_angle_beta 35.298931
_cell_angle_gamma 90.000000
_cell_volume 3081.384374
_symmetry_space_group_name_H-M "C 2/M"
_symmetry_group_IT_number 12
_symmetry_cell_setting 'monoclinic'
loop_
_space_group_symop_operation_xyz
x,y,z
-x,y,-z
-x,-y,-z
x,-y,z
1/2+x,1/2+y,z
1/2-x,1/2+y,-z
1/2-x,1/2-y,-z
1/2+x,1/2-y,z
loop_
_atom_site_type_symbol
_atom_site_label
_atom_site_fract_x
_atom_site_fract_y
_atom_site_fract_z
Si Si1 0.299495 0.824273 0.879605
Si Si2 0.274083 0.175974 0.396657
Si Si3 0.957175 0.174624 0.881546
Si Si4 0.053293 0.829356 0.262654
Si Si5 0.458403 0.169586 0.482687
Si Si6 0.794568 0.174187 0.125942
Si Si7 0.702933 0.168993 0.367783
Si Si8 0.055007 0.324283 0.866293
O O1 0.385611 0.775909 0.778962
O O2 0.267933 0.762865 0.847491
O O3 0.293324 0.000000 0.893655
O O4 0.250000 0.750000 0.000000
O O5 0.250000 0.250000 0.500000
O O6 0.207321 0.223666 0.428066
O O7 0.355395 0.225131 0.257155
O O8 0.272501 0.000000 0.410102
O O9 0.963560 0.210878 0.793713
O O10 0.021705 0.265023 0.837812
O O11 0.966394 0.000000 0.885699
O O12 0.877074 0.243373 0.007836
O O13 0.977775 0.788773 0.399510
O O14 0.078133 0.000000 0.238848
O O15 0.500000 0.218177 0.500000
O O16 0.367253 0.183915 0.596550
O O17 0.483153 0.000000 0.433870
O O18 0.774621 0.211297 0.229242
O O19 0.800416 0.000000 0.104200
O O20 0.707441 0.000000 0.389554
O O21 0.051362 0.500000 0.874337
O O22 0.000000 0.262805 0.000000
#
# Coordination Sequence:
#
# PCOD8107371 Si02
#       8
#     8   8   8   8   8   8   8   8
#     4  11  20  35  57  84 122 165 205 251 304 364
#     4  11  25  44  66  93 128 166 208 260 317 379
#     4  10  21  37  59  89 122 156 196 245 304 368
#     4  11  23  38  56  86 123 158 203 254 305 364
#     4  10  22  41  63  89 121 163 210 252 304 370
#     4   9  18  36  60  87 122 158 198 248 301 364
#     4  10  21  39  66  93 119 158 208 254 303 367
#     4  10  23  43  65  91 123 157 201 258 316 375
#
# _framework density 20.769886
#
# number of rings (size 3 to 8) (size 9 to 14) (size 15 to 20)
#    0.000    1.750    1.250    2.625    1.750    5.000 
#    0.000    2.500    0.000    0.000    0.000    0.000 
#    0.000    0.000    0.000    0.000    0.000    0.000 
#
# Total GULP energy -396465.327422 kJ/mol
# GULP energy per Si atom -12389.541482 kJ/mol
# Density = 2.072261 g / cm^3
# Si number density = 20.769886 Si / 1000 Ang^3
#
#
#
# Elastic Constant Matrix: (Units=GPa)
#
#
# Indices 1 2 3 4 5 6 
#
# 1 131.2661 33.1878 39.6494 -0.0012 3.7475 -0.0018
# 2 33.1878 38.3645 32.8991 0.0057 3.9206 -0.0019
# 3 39.6494 32.8991 113.5161 -0.0093 5.4610 0.0041
# 4 -0.0012 0.0057 -0.0093 32.7515 0.0018 1.4426
# 5 3.7475 3.9206 5.4610 0.0018 17.2429 0.0002
# 6 -0.0018 -0.0019 0.0041 1.4426 0.0002 33.5324
#
#
#
# Elastic Compliance Matrix: (Units=1/GPa)
#
#
# Indices 1 2 3 4 5 6 
#
# 1 0.009892 -0.007441 -0.001296 0.000001 -0.000048 0.000000
# 2 -0.007441 0.040675 -0.008959 -0.000010 -0.004794 0.000003
# 3 -0.001296 -0.008959 0.011929 0.000005 -0.001459 -0.000002
# 4 0.000001 -0.000010 0.000005 0.030591 -0.000003 -0.001316
# 5 -0.000048 -0.004794 -0.001459 -0.000003 0.059558 0.000000
# 6 0.000000 0.000003 -0.000002 -0.001316 0.000000 0.029879
#
#
# Mechanical properties :
#
#
# Convention : Reuss Voigt Hill
#
# Bulk Modulus (GPa) = 36.89509 54.95771 45.92640
# Shear Modulus (GPa) = 22.03129 28.53272 25.28201
#
# Velocity S-wave (km/s) = 3.26042 3.71044 3.49269
# Velocity P-wave (km/s) = 5.65474 6.69882 6.19880
#
# Compressibility (1/GPa) = 0.02710388
#
# Stress axis : x y z
#
# Youngs Moduli (GPa) = 101.08838 24.58512 83.83094
#
# Poissons Ratio (x) = 0.18294 0.10868
# Poissons Ratio (y) = 0.75219 0.75102
# Poissons Ratio (z) = 0.13105 0.22025
#
# Static dielectric constant tensor:
#      x y z
#    x 3.641780 0.000000 0.075640 
#    y 0.000000 3.501480 0.000030 
#    z 0.075640 0.000030 3.816980 
# 
# 
# High freq. dielectric constant tensor:
#      x y z
#    x 1.823110 0.000000 0.000110 
#    y 0.000000 1.789960 0.000000 
#    z 0.000110 0.000000 1.824030 
# 
# From -- ./inp_files/295587.got.cif
#   From: 2010.06.25/outbox.cif.g09.slc.cpg/sg12_148_cif.got.tgz:295587.got - 2010.06.28 00:19:55.
