data_PCOD8107160
_publ_section_title
;
Structure prediction by ZEFSAII (Michael W. Deem and Ramdas Pophale) SiO2 
 PCOD8107160
Probable space group: C 2/M
;
_chemical_formula_sum "Si O2"
_cell_formula_units_Z 64
_cell_length_a 10.107536
_cell_length_b 9.013932
_cell_length_c 35.293458
_cell_angle_alpha 90.000000
_cell_angle_beta 89.852086
_cell_angle_gamma 90.000000
_cell_volume 3215.528322
_symmetry_space_group_name_H-M "C 2/M"
_symmetry_group_IT_number 12
_symmetry_cell_setting 'monoclinic'
loop_
_space_group_symop_operation_xyz
x,y,z
-x,y,-z
-x,-y,-z
x,-y,z
1/2+x,1/2+y,z
1/2-x,1/2+y,-z
1/2-x,1/2-y,-z
1/2+x,1/2-y,z
loop_
_atom_site_type_symbol
_atom_site_label
_atom_site_fract_x
_atom_site_fract_y
_atom_site_fract_z
Si Si1 0.908980 0.673339 0.106732
Si Si2 0.131329 0.674140 0.978988
Si Si3 0.362083 0.329482 0.356545
Si Si4 0.859049 0.173900 0.851112
Si Si5 0.589238 0.672454 0.729967
Si Si6 0.094108 0.327981 0.398564
Si Si7 0.643250 0.174336 0.228740
Si Si8 0.366555 0.673282 0.522292
O O1 0.944579 0.500000 0.107835
O O2 0.871507 0.724868 0.064603
O O3 0.787601 0.711569 0.134429
O O4 0.036396 0.765296 0.118904
O O5 0.150808 0.500000 0.982316
O O6 0.250000 0.750000 0.000000
O O7 0.000000 0.728390 0.000000
O O8 0.402537 0.500000 0.363801
O O9 0.371323 0.286711 0.312686
O O10 0.211315 0.300181 0.368629
O O11 0.457364 0.226013 0.380798
O O12 0.884149 0.249457 0.811061
O O13 0.881323 0.000000 0.846566
O O14 0.553545 0.500000 0.734222
O O15 0.462951 0.769255 0.740878
O O16 0.711049 0.715940 0.756924
O O17 0.080410 0.500000 0.409237
O O18 0.125787 0.237087 0.435894
O O19 0.625337 0.000000 0.223947
O O20 0.500000 0.708051 0.500000
O O21 0.337044 0.500000 0.524887
O O22 0.250000 0.750000 0.500000
#
# Coordination Sequence:
#
# PCOD8107160 Si02
#       8
#     8   8   8   8   8   8   8   8
#     4  10  22  39  58  84 116 149 190 237 282 336
#     4  10  21  37  58  85 116 150 189 233 283 338
#     4  10  22  40  60  86 120 153 190 238 286 338
#     4  11  23  38  58  84 113 149 192 235 284 341
#     4  10  22  40  61  86 117 153 192 234 284 341
#     4  11  23  39  61  89 119 153 195 239 286 343
#     4  11  23  39  60  86 116 150 190 237 287 340
#     4  11  24  41  61  87 119 155 196 242 291 343
#
# _framework density 19.903416
#
# number of rings (size 3 to 8) (size 9 to 14) (size 15 to 20)
#    0.000    1.500    0.000    4.500    0.000   11.250 
#    0.000    0.000    0.000    0.000    0.000    0.000 
#    0.000    0.000    0.000    0.000    0.000    0.000 
#
# Total GULP energy -397020.952750 kJ/mol
# GULP energy per Si atom -12406.904773 kJ/mol
# Density = 1.985811 g / cm^3
# Si number density = 19.903416 Si / 1000 Ang^3
#
#
#
# Elastic Constant Matrix: (Units=GPa)
#
#
# Indices 1 2 3 4 5 6 
#
# 1 79.9198 50.1680 15.5294 0.0000 9.3829 0.0000
# 2 50.1680 73.3469 33.4385 0.0000 0.2292 0.0000
# 3 15.5294 33.4385 101.7986 0.0000 0.8035 0.0000
# 4 0.0000 0.0000 0.0000 30.8605 0.0000 6.0301
# 5 9.3829 0.2292 0.8035 0.0000 41.0206 0.0000
# 6 0.0000 0.0000 0.0000 6.0301 0.0000 36.7379
#
#
#
# Elastic Compliance Matrix: (Units=1/GPa)
#
#
# Indices 1 2 3 4 5 6 
#
# 1 0.023320 -0.016856 0.002021 0.000000 -0.005280 0.000000
# 2 -0.016856 0.028218 -0.006728 0.000000 0.003830 0.000000
# 3 0.002021 -0.006728 0.011730 0.000000 -0.000654 0.000000
# 4 0.000000 0.000000 0.000000 0.033478 0.000000 -0.005495
# 5 -0.005280 0.003830 -0.000654 0.000000 0.025577 0.000000
# 6 0.000000 0.000000 0.000000 -0.005495 0.000000 0.028122
#
#
# Mechanical properties :
#
#
# Convention : Reuss Voigt Hill
#
# Bulk Modulus (GPa) = 49.64420 50.37079 50.00750
# Shear Modulus (GPa) = 24.96445 32.11908 28.54176
#
# Velocity S-wave (km/s) = 3.54542 4.02150 3.79095
# Velocity P-wave (km/s) = 6.46195 6.85025 6.65893
#
# Compressibility (1/GPa) = 0.02014334
#
# Stress axis : x y z
#
# Youngs Moduli (GPa) = 42.88080 35.43841 85.25033
#
# Poissons Ratio (x) = 0.59733 -0.17227
# Poissons Ratio (y) = 0.72278 0.57355
# Poissons Ratio (z) = -0.08665 0.23842
#
# Static dielectric constant tensor:
#      x y z
#    x 4.054110 0.000000 0.489850 
#    y 0.000000 3.645170 0.000000 
#    z 0.489850 0.000000 4.559100 
# 
# 
# High freq. dielectric constant tensor:
#      x y z
#    x 1.790020 0.000000 -0.001650 
#    y 0.000000 1.778960 0.000000 
#    z -0.001650 0.000000 1.794500 
# 
# From -- ./inp_files/373612.got.cif
#   From: 2010.06.25/outbox.cif.g09.slc.cpg/sg12_187_cif.got.tgz:373612.got - 2010.06.28 00:19:55.
