data_PCOD8107107
_publ_section_title
;
Structure prediction by ZEFSAII (Michael W. Deem and Ramdas Pophale) SiO2 
 PCOD8107107
Probable space group: C 2/M
;
_chemical_formula_sum "Si O2"
_cell_formula_units_Z 64
_cell_length_a 10.065270
_cell_length_b 9.063113
_cell_length_c 35.273455
_cell_angle_alpha 90.000000
_cell_angle_beta 90.210096
_cell_angle_gamma 90.000000
_cell_volume 3217.717444
_symmetry_space_group_name_H-M "C 2/M"
_symmetry_group_IT_number 12
_symmetry_cell_setting 'monoclinic'
loop_
_space_group_symop_operation_xyz
x,y,z
-x,y,-z
-x,-y,-z
x,-y,z
1/2+x,1/2+y,z
1/2-x,1/2+y,-z
1/2-x,1/2-y,-z
1/2+x,1/2-y,z
loop_
_atom_site_type_symbol
_atom_site_label
_atom_site_fract_x
_atom_site_fract_y
_atom_site_fract_z
Si Si1 0.888981 0.829480 0.730290
Si Si2 0.115227 0.170117 0.356628
Si Si3 0.864594 0.669925 0.477307
Si Si4 0.859077 0.327417 0.149096
Si Si5 0.657078 0.671353 0.772381
Si Si6 0.410652 0.671957 0.893291
Si Si7 0.152780 0.829102 0.601010
Si Si8 0.867790 0.172895 0.978827
O O1 0.872556 0.780730 0.686856
O O2 0.793865 0.732887 0.756196
O O3 0.040795 0.800154 0.742015
O O4 0.851008 0.000000 0.736200
O O5 0.210025 0.270973 0.381811
O O6 0.963710 0.195962 0.368848
O O7 0.156424 0.000000 0.362225
O O8 0.824612 0.500000 0.471969
O O9 0.750000 0.750000 0.500000
O O10 0.885223 0.742377 0.436674
O O11 0.000000 0.688170 0.500000
O O12 0.884332 0.500000 0.153699
O O13 0.883252 0.250709 0.189111
O O14 0.710594 0.293890 0.134942
O O15 0.962209 0.264780 0.118892
O O16 0.676321 0.500000 0.781182
O O17 0.448920 0.500000 0.892777
O O18 0.371450 0.724160 0.935256
O O19 0.171744 0.000000 0.590741
O O20 0.845240 0.000000 0.981774
O O21 0.750000 0.250000 0.000000
O O22 0.000000 0.224211 0.000000
#
# Coordination Sequence:
#
# PCOD8107107 Si02
#       8
#     8   8   8   8   8   8   8   8
#     4  10  22  40  60  85 117 151 190 236 284 337
#     4  10  22  40  61  86 118 154 191 235 286 338
#     4  11  24  41  62  89 119 154 197 242 290 344
#     4  11  23  38  58  84 113 149 191 232 281 340
#     4  11  23  39  60  86 116 150 190 237 287 339
#     4  10  22  39  57  82 116 149 186 235 284 335
#     4  11  23  39  61  89 120 155 195 238 287 343
#     4  10  21  37  58  84 113 147 188 233 283 338
#
# _framework density 19.889876000000001
#
# number of rings (size 3 to 8) (size 9 to 14) (size 15 to 20)
#    0.000    1.500    0.000    4.500    0.000   11.250 
#    0.000    0.000    0.000    0.000    0.000    0.000 
#    0.000    0.000    0.000    0.000    0.000    0.000 
#
# Total GULP energy -397023.253559 kJ/mol
# GULP energy per Si atom -12406.976674 kJ/mol
# Density = 1.984461 g / cm^3
# Si number density = 19.889876 Si / 1000 Ang^3
#
#
#
# Elastic Constant Matrix: (Units=GPa)
#
#
# Indices 1 2 3 4 5 6 
#
# 1 81.6545 49.4240 18.5194 0.0000 -10.1932 0.0000
# 2 49.4240 98.7727 44.7768 0.0000 -2.3682 0.0000
# 3 18.5194 44.7768 109.5688 0.0000 -2.2278 0.0000
# 4 0.0000 0.0000 0.0000 35.4530 0.0000 -5.7335
# 5 -10.1932 -2.3682 -2.2278 0.0000 39.2954 0.0000
# 6 0.0000 0.0000 0.0000 -5.7335 0.0000 33.8327
#
#
#
# Elastic Compliance Matrix: (Units=1/GPa)
#
#
# Indices 1 2 3 4 5 6 
#
# 1 0.018294 -0.009438 0.000851 0.000000 0.004225 0.000000
# 2 -0.009438 0.017304 -0.005511 0.000000 -0.001718 0.000000
# 3 0.000851 -0.005511 0.011246 0.000000 0.000526 0.000000
# 4 0.000000 0.000000 0.000000 0.029001 0.000000 0.004915
# 5 0.004225 -0.001718 0.000526 0.000000 0.026471 0.000000
# 6 0.000000 0.000000 0.000000 0.004915 0.000000 0.030390
#
#
# Mechanical properties :
#
#
# Convention : Reuss Voigt Hill
#
# Bulk Modulus (GPa) = 53.62889 57.27069 55.44979
# Shear Modulus (GPa) = 29.91876 33.53459 31.72668
#
# Velocity S-wave (km/s) = 3.88264 4.11056 3.99822
# Velocity P-wave (km/s) = 6.86449 7.16836 7.01807
#
# Compressibility (1/GPa) = 0.01864666
#
# Stress axis : x y z
#
# Youngs Moduli (GPa) = 54.66249 57.78893 88.92202
#
# Poissons Ratio (x) = 0.54544 -0.07567
# Poissons Ratio (y) = 0.51593 0.49007
# Poissons Ratio (z) = -0.04652 0.31849
#
# Static dielectric constant tensor:
#      x y z
#    x 3.585330 0.000000 0.006510 
#    y 0.000000 3.739710 0.000000 
#    z 0.006510 0.000000 3.880670 
# 
# 
# High freq. dielectric constant tensor:
#      x y z
#    x 1.787110 0.000000 0.000170 
#    y 0.000000 1.779540 0.000000 
#    z 0.000170 0.000000 1.793470 
# 
# From -- ./inp_files/373607.got.cif
#   From: 2010.06.25/outbox.cif.g09.slc.cpg/sg12_187_cif.got.tgz:373607.got - 2010.06.28 00:19:55.
