data_PCOD8107098
_publ_section_title
;
Structure prediction by ZEFSAII (Michael W. Deem and Ramdas Pophale) SiO2 
 PCOD8107098
Probable space group: C 2/M
;
_chemical_formula_sum "Si O2"
_cell_formula_units_Z 56
_cell_length_a 16.392842
_cell_length_b 15.717529
_cell_length_c 12.206357
_cell_angle_alpha 90.000000
_cell_angle_beta 57.010650
_cell_angle_gamma 90.000000
_cell_volume 2637.961218
_symmetry_space_group_name_H-M "C 2/M"
_symmetry_group_IT_number 12
_symmetry_cell_setting 'monoclinic'
loop_
_space_group_symop_operation_xyz
x,y,z
-x,y,-z
-x,-y,-z
x,-y,z
1/2+x,1/2+y,z
1/2-x,1/2+y,-z
1/2-x,1/2-y,-z
1/2+x,1/2-y,z
loop_
_atom_site_type_symbol
_atom_site_label
_atom_site_fract_x
_atom_site_fract_y
_atom_site_fract_z
Si Si1 0.480213 0.752920 0.389087
Si Si2 0.149573 0.096233 0.469973
Si Si3 0.974565 0.091971 0.144013
Si Si4 0.778274 0.837737 0.246971
Si Si5 0.659716 0.096794 0.532311
Si Si6 0.320966 0.315690 0.766781
Si Si7 0.311307 0.598258 0.981835
O O1 0.500000 0.774223 0.500000
O O2 0.419805 0.664554 0.418089
O O3 0.424549 0.834398 0.378350
O O4 0.586885 0.740626 0.258402
O O5 0.258063 0.108655 0.436228
O O6 0.145532 0.110074 0.341278
O O7 0.112642 0.000000 0.520131
O O8 0.885810 0.157765 0.222753
O O9 0.074856 0.120592 0.126098
O O10 0.938544 0.000000 0.215763
O O11 0.000000 0.079781 0.000000
O O12 0.702265 0.886072 0.379775
O O13 0.751967 0.739393 0.254805
O O14 0.773481 0.876625 0.128461
O O15 0.618357 0.000000 0.565338
O O16 0.262181 0.350775 0.916368
O O17 0.289550 0.500000 0.982336
#
# Coordination Sequence:
#
# PCOD8107098 Si02
#       7
#     8   8   8   8   8   8   8
#     4  10  21  39  54  83 116 151 190 235 280 338
#     4  10  22  38  58  82 110 151 195 234 284 335
#     4   8  16  31  51  76 104 136 179 226 272 321
#     4  11  20  36  55  84 116 149 184 229 283 346
#     4  11  22  37  60  86 115 152 190 235 284 336
#     4  11  23  36  56  81 118 153 189 230 284 338
#     4  10  21  37  58  84 113 145 188 239 288 338
#
# _framework density 21.228515999999999
#
# number of rings (size 3 to 8) (size 9 to 14) (size 15 to 20)
#    0.000    1.857    2.857    3.429    2.000    3.429 
#    0.000    0.000    0.000    0.000    0.000    0.000 
#    0.000   17.143    0.000    0.000    0.000    0.000 
#
# Total GULP energy -346968.838007 kJ/mol
# GULP energy per Si atom -12391.744215 kJ/mol
# Density = 2.118020 g / cm^3
# Si number density = 21.228516 Si / 1000 Ang^3
#
#
#
# Elastic Constant Matrix: (Units=GPa)
#
#
# Indices 1 2 3 4 5 6 
#
# 1 57.2439 39.6270 7.8987 0.0000 -2.5156 0.0000
# 2 39.6270 124.8348 14.6675 0.0000 -8.9846 0.0000
# 3 7.8987 14.6675 64.0269 0.0000 9.8276 0.0000
# 4 0.0000 0.0000 0.0000 9.2920 0.0000 -1.1124
# 5 -2.5156 -8.9846 9.8276 0.0000 28.3640 0.0000
# 6 0.0000 0.0000 0.0000 -1.1124 0.0000 37.4894
#
#
#
# Elastic Compliance Matrix: (Units=1/GPa)
#
#
# Indices 1 2 3 4 5 6 
#
# 1 0.022475 -0.006978 -0.001205 0.000000 0.000200 0.000000
# 2 -0.006978 0.010730 -0.002138 0.000000 0.003521 0.000000
# 3 -0.001205 -0.002138 0.017297 0.000000 -0.006777 0.000000
# 4 0.000000 0.000000 0.000000 0.108003 0.000000 0.003205
# 5 0.000200 0.003521 -0.006777 0.000000 0.038737 0.000000
# 6 0.000000 0.000000 0.000000 0.003205 0.000000 0.026769
#
#
# Mechanical properties :
#
#
# Convention : Reuss Voigt Hill
#
# Bulk Modulus (GPa) = 33.48880 41.16575 37.32728
# Shear Modulus (GPa) = 19.63813 27.28991 23.46402
#
# Velocity S-wave (km/s) = 3.04482 3.58932 3.32822
# Velocity P-wave (km/s) = 5.30762 6.05074 5.69132
#
# Compressibility (1/GPa) = 0.02986073
#
# Stress axis : x y z
#
# Youngs Moduli (GPa) = 44.49406 93.19383 57.81359
#
# Poissons Ratio (x) = 0.65034 0.06965
# Poissons Ratio (y) = 0.31050 0.12359
# Poissons Ratio (z) = 0.05360 0.19922
#
# Static dielectric constant tensor:
#      x y z
#    x 4.202600 0.000000 -0.187020 
#    y 0.000000 3.920520 0.000000 
#    z -0.187020 0.000000 3.757350 
# 
# 
# High freq. dielectric constant tensor:
#      x y z
#    x 1.830150 0.000000 0.019000 
#    y 0.000000 1.828780 0.000000 
#    z 0.019000 0.000000 1.813360 
# 
# From -- ./inp_files/225207.got.cif
#   From: 2010.06.25/outbox.cif.g09.slc.cpg/sg12_113_cif.got.tgz:225207.got - 2010.06.28 00:19:55.
