data_PCOD8107033
_publ_section_title
;
Structure prediction by ZEFSAII (Michael W. Deem and Ramdas Pophale) SiO2 
 PCOD8107033
Probable space group: C 2/M
;
_chemical_formula_sum "Si O2"
_cell_formula_units_Z 60
_cell_length_a 23.617404
_cell_length_b 20.629578
_cell_length_c 12.326654
_cell_angle_alpha 90.000000
_cell_angle_beta 29.805747
_cell_angle_gamma 90.000000
_cell_volume 2985.227247
_symmetry_space_group_name_H-M "C 2/M"
_symmetry_group_IT_number 12
_symmetry_cell_setting 'monoclinic'
loop_
_space_group_symop_operation_xyz
x,y,z
-x,y,-z
-x,-y,-z
x,-y,z
1/2+x,1/2+y,z
1/2-x,1/2+y,-z
1/2-x,1/2-y,-z
1/2+x,1/2-y,z
loop_
_atom_site_type_symbol
_atom_site_label
_atom_site_fract_x
_atom_site_fract_y
_atom_site_fract_z
Si Si1 0.895608 0.726635 0.593656
Si Si2 0.760372 0.144098 0.816646
Si Si3 0.369913 0.575956 0.201957
Si Si4 0.763402 0.575943 0.362735
Si Si5 0.604794 0.574324 0.247452
Si Si6 0.500000 0.859299 0.000000
Si Si7 0.170893 0.155112 0.937494
Si Si8 0.537304 0.215106 0.149735
O O1 0.845159 0.797011 0.703647
O O2 0.795831 0.673648 0.775602
O O3 0.000000 0.711110 0.500000
O O4 0.936050 0.724634 0.402522
O O5 0.788734 0.115612 0.650982
O O6 0.781224 0.089380 0.873141
O O7 0.629170 0.164574 0.044702
O O8 0.357231 0.500000 0.202601
O O9 0.305470 0.597998 0.417242
O O10 0.312741 0.610760 0.194851
O O11 0.500000 0.597116 0.000000
O O12 0.749537 0.500000 0.362124
O O13 0.894455 0.592990 0.161828
O O14 0.500000 0.591822 0.500000
O O15 0.603286 0.500000 0.212868
O O16 0.599673 0.617556 0.147933
O O17 0.482062 0.812501 0.132372
O O18 0.101456 0.218245 0.016827
#
# Coordination Sequence:
#
# PCOD8107033 Si02
#       8
#     8   8   8   8   8   4   8   8
#     4  11  22  38  61  85 116 156 192 237 295 347
#     4  10  21  37  57  87 116 147 194 240 285 345
#     4  10  23  39  59  86 118 157 196 238 292 351
#     4  10  21  38  60  84 116 155 196 241 293 346
#     4  11  23  37  59  85 113 148 187 235 288 340
#     4  10  21  38  58  86 117 150 198 244 288 348
#     4  11  23  39  60  86 118 153 193 241 290 348
#     4  10  22  36  58  86 115 152 191 237 290 342
#
# _framework density 20.098973000000001
#
# number of rings (size 3 to 8) (size 9 to 14) (size 15 to 20)
#    0.000    1.600    0.000    4.600    4.667    2.133 
#    0.000    4.000    0.000    9.600    0.000    0.000 
#    0.000    0.000    0.000    0.000    0.000    0.000 
#
# Total GULP energy -372142.906339 kJ/mol
# GULP energy per Si atom -12404.763545 kJ/mol
# Density = 2.005323 g / cm^3
# Si number density = 20.098973 Si / 1000 Ang^3
#
#
#
# Elastic Constant Matrix: (Units=GPa)
#
#
# Indices 1 2 3 4 5 6 
#
# 1 71.6080 27.1655 0.4625 0.0000 0.9911 0.0001
# 2 27.1655 63.2611 15.5149 0.0000 -3.8790 0.0000
# 3 0.4625 15.5149 68.1478 0.0001 4.7726 0.0000
# 4 0.0000 0.0000 0.0001 25.1946 0.0000 10.7913
# 5 0.9911 -3.8790 4.7726 0.0000 26.5888 -0.0001
# 6 0.0001 0.0000 0.0000 10.7913 -0.0001 28.5249
#
#
#
# Elastic Compliance Matrix: (Units=1/GPa)
#
#
# Indices 1 2 3 4 5 6 
#
# 1 0.016964 -0.007861 0.001822 0.000000 -0.002106 0.000000
# 2 -0.007861 0.020652 -0.004942 0.000000 0.004193 0.000000
# 3 0.001822 -0.004942 0.016044 0.000000 -0.003669 0.000000
# 4 0.000000 0.000000 0.000000 0.047366 0.000000 -0.017919
# 5 -0.002106 0.004193 -0.003669 0.000000 0.038959 0.000000
# 6 0.000000 0.000000 0.000000 -0.017919 0.000000 0.041836
#
#
# Mechanical properties :
#
#
# Convention : Reuss Voigt Hill
#
# Bulk Modulus (GPa) = 31.54724 32.14476 31.84600
# Shear Modulus (GPa) = 23.32641 26.71993 25.02317
#
# Velocity S-wave (km/s) = 3.41042 3.65007 3.53228
# Velocity P-wave (km/s) = 5.58909 5.81309 5.70219
#
# Compressibility (1/GPa) = 0.03169850
#
# Stress axis : x y z
#
# Youngs Moduli (GPa) = 58.94693 48.42090 62.32977
#
# Poissons Ratio (x) = 0.38063 -0.11356
# Poissons Ratio (y) = 0.46337 0.30804
# Poissons Ratio (z) = -0.10740 0.23930
#
# Static dielectric constant tensor:
#      x y z
#    x 3.652040 0.000000 0.032100 
#    y 0.000000 3.629640 0.000000 
#    z 0.032100 0.000000 3.668180 
# 
# 
# High freq. dielectric constant tensor:
#      x y z
#    x 1.793520 0.000000 0.004290 
#    y 0.000000 1.785460 0.000000 
#    z 0.004290 0.000000 1.785980 
# 
# From -- ./inp_files/178026.got.cif
#   From: 2010.06.25/outbox.cif.g09.slc.cpg/sg12_90_cif.got.tgz:178026.got - 2010.06.28 00:19:55.
