data_PCOD8107758
_publ_section_title
;
Structure prediction by ZEFSAII (Michael W. Deem and Ramdas Pophale) SiO2 
 PCOD8107758
Probable space group: C 2/M
;
_chemical_formula_sum "Si O2"
_cell_formula_units_Z 64
_cell_length_a 20.175397
_cell_length_b 8.975856
_cell_length_c 19.059317
_cell_angle_alpha 90.000000
_cell_angle_beta 92.092521
_cell_angle_gamma 90.000000
_cell_volume 3449.177953
_symmetry_space_group_name_H-M "C 2/M"
_symmetry_group_IT_number 12
_symmetry_cell_setting 'monoclinic'
loop_
_space_group_symop_operation_xyz
x,y,z
-x,y,-z
-x,-y,-z
x,-y,z
1/2+x,1/2+y,z
1/2-x,1/2+y,-z
1/2-x,1/2-y,-z
1/2+x,1/2-y,z
loop_
_atom_site_type_symbol
_atom_site_label
_atom_site_fract_x
_atom_site_fract_y
_atom_site_fract_z
Si Si1 0.052905 0.172890 0.561179
Si Si2 0.980462 0.675047 0.295949
Si Si3 0.373162 0.323542 0.196621
Si Si4 0.296448 0.325906 0.445411
Si Si5 0.383149 0.824118 0.765719
Si Si6 0.256025 0.677162 0.291512
Si Si7 0.584356 0.175824 0.934172
Si Si8 0.934221 0.676279 0.913162
O O1 0.126458 0.209119 0.535406
O O2 0.000000 0.215966 0.500000
O O3 0.038377 0.272058 0.627783
O O4 0.047523 0.000000 0.582817
O O5 0.967767 0.500000 0.288710
O O6 0.057035 0.716150 0.284337
O O7 0.937811 0.756345 0.235480
O O8 0.378840 0.500000 0.196921
O O9 0.308453 0.268073 0.235770
O O10 0.367154 0.262903 0.116918
O O11 0.282107 0.500000 0.448141
O O12 0.250000 0.250000 0.500000
O O13 0.278073 0.261043 0.368129
O O14 0.315729 0.755204 0.731424
O O15 0.395925 0.756705 0.844257
O O16 0.374834 0.000000 0.772158
O O17 0.254412 0.500000 0.293997
O O18 0.509808 0.232750 0.916173
O O19 0.591862 0.000000 0.922231
O O20 0.602466 0.220097 0.015374
O O21 0.937570 0.500000 0.907569
#
# Coordination Sequence:
#
# PCOD8107758 Si02
#       8
#     8   8   8   8   8   8   8   8
#     4  10  22  40  58  78 111 146 173 209 266 326
#     4  11  21  34  58  84 105 132 180 233 260 296
#     4  11  20  34  54  77 108 145 176 211 264 322
#     4  10  21  38  56  77 106 142 177 212 257 313
#     4   9  17  31  53  80 103 133 177 223 264 305
#     4   9  19  35  53  73 105 141 174 210 259 321
#     4   9  16  29  51  78 104 135 177 221 260 305
#     4   8  14  27  49  76 106 134 170 220 268 308
#
# _framework density 18.555146000000001
#
# number of rings (size 3 to 8) (size 9 to 14) (size 15 to 20)
#    0.000    2.375    2.500    1.500    1.750    0.750 
#    0.000    1.875    0.000    3.000    0.000    0.000 
#    0.000    0.000    0.000    0.000    0.000    0.000 
#
# Total GULP energy -396726.190593 kJ/mol
# GULP energy per Si atom -12397.693456 kJ/mol
# Density = 1.851291 g / cm^3
# Si number density = 18.555146 Si / 1000 Ang^3
#
#
#
# Elastic Constant Matrix: (Units=GPa)
#
#
# Indices 1 2 3 4 5 6 
#
# 1 121.6388 29.1646 59.7794 0.0000 -7.7841 0.0000
# 2 29.1646 42.0053 32.5830 0.0000 -10.6411 0.0000
# 3 59.7794 32.5830 130.5138 0.0000 -20.4262 0.0000
# 4 0.0000 0.0000 0.0000 28.6097 0.0000 -7.1118
# 5 -7.7841 -10.6411 -20.4262 0.0000 36.2465 0.0000
# 6 0.0000 0.0000 0.0000 -7.1118 0.0000 18.7334
#
#
#
# Elastic Compliance Matrix: (Units=1/GPa)
#
#
# Indices 1 2 3 4 5 6 
#
# 1 0.011390 -0.005015 -0.004181 0.000000 -0.001383 0.000000
# 2 -0.005015 0.032565 -0.004941 0.000000 0.005699 0.000000
# 3 -0.004181 -0.004941 0.011453 0.000000 0.004106 0.000000
# 4 0.000000 0.000000 0.000000 0.038595 0.000000 0.014652
# 5 -0.001383 0.005699 0.004106 0.000000 0.031279 0.000000
# 6 0.000000 0.000000 0.000000 0.014652 0.000000 0.058943
#
#
# Mechanical properties :
#
#
# Convention : Reuss Voigt Hill
#
# Bulk Modulus (GPa) = 36.85472 59.69022 48.27247
# Shear Modulus (GPa) = 22.56889 28.22665 25.39777
#
# Velocity S-wave (km/s) = 3.49135 3.90453 3.70371
# Velocity P-wave (km/s) = 6.01316 7.25024 6.66049
#
# Compressibility (1/GPa) = 0.02713357
#
# Stress axis : x y z
#
# Youngs Moduli (GPa) = 87.79705 30.70803 87.31105
#
# Poissons Ratio (x) = 0.15400 0.36508
# Poissons Ratio (y) = 0.44030 0.43140
# Poissons Ratio (z) = 0.36711 0.15173
#
# Static dielectric constant tensor:
#      x y z
#    x 3.563900 0.000000 0.134680 
#    y 0.000000 3.021170 0.000000 
#    z 0.134680 0.000000 3.806050 
# 
# 
# High freq. dielectric constant tensor:
#      x y z
#    x 1.713550 0.000000 -0.005780 
#    y 0.000000 1.679850 0.000000 
#    z -0.005780 0.000000 1.735620 
# 
# From -- ./inp_files/314066.got.cif
#   From: 2010.06.25/outbox.cif.g09.slc.cpg/sg12_158_cif.got.tgz:314066.got - 2010.06.28 00:19:55.
