data_PCOD8107864
_publ_section_title
;
Structure prediction by ZEFSAII (Michael W. Deem and Ramdas Pophale) SiO2 
 PCOD8107864
Probable space group: C 2/M
;
_chemical_formula_sum "Si O2"
_cell_formula_units_Z 64
_cell_length_a 32.249152
_cell_length_b 20.828943
_cell_length_c 16.013221
_cell_angle_alpha 90.000000
_cell_angle_beta 162.049042
_cell_angle_gamma 90.000000
_cell_volume 3315.132187
_symmetry_space_group_name_H-M "C 2/M"
_symmetry_group_IT_number 12
_symmetry_cell_setting 'monoclinic'
loop_
_space_group_symop_operation_xyz
x,y,z
-x,y,-z
-x,-y,-z
x,-y,z
1/2+x,1/2+y,z
1/2-x,1/2+y,-z
1/2-x,1/2-y,-z
1/2+x,1/2-y,z
loop_
_atom_site_type_symbol
_atom_site_label
_atom_site_fract_x
_atom_site_fract_y
_atom_site_fract_z
Si Si1 0.560145 0.854018 0.392468
Si Si2 0.772453 0.072675 0.907238
Si Si3 0.815791 0.681357 0.709568
Si Si4 0.335310 0.346824 0.177236
Si Si5 0.425515 0.572826 0.501138
Si Si6 0.075839 0.280071 0.724868
Si Si7 0.182802 0.575483 0.153598
Si Si8 0.098794 0.715188 0.301455
O O1 0.680812 0.890993 0.666440
O O2 0.503397 0.797289 0.342738
O O3 0.627109 0.822352 0.440381
O O4 0.443834 0.904155 0.145298
O O5 0.722039 0.000000 0.816044
O O6 0.757105 0.102514 0.969960
O O7 0.927861 0.077496 0.175621
O O8 0.814917 0.612618 0.753646
O O9 0.841094 0.672103 0.659183
O O10 0.673247 0.716437 0.449611
O O11 0.938004 0.725070 0.980913
O O12 0.428241 0.384155 0.422451
O O13 0.420492 0.297113 0.281824
O O14 0.226793 0.306615 0.022252
O O15 0.393325 0.500000 0.411681
O O16 0.316018 0.595646 0.358327
O O17 0.000000 0.311774 0.500000
O O18 0.176283 0.500000 0.160576
#
# Coordination Sequence:
#
# PCOD8107864 Si02
#       8
#     8   8   8   8   8   8   8   8
#     4  11  22  39  57  85 115 149 191 231 292 333
#     4  11  23  38  57  80 112 150 193 237 279 335
#     4   9  19  38  60  91 116 145 190 225 285 339
#     4  11  22  37  57  78 111 150 193 238 285 332
#     4  10  21  38  58  82 111 152 195 235 283 339
#     4  11  22  37  53  81 115 145 188 239 285 337
#     4  10  21  38  61  85 116 151 191 234 278 341
#     4   9  20  37  61  86 119 150 181 234 279 345
#
# _framework density 19.305413000000001
#
# number of rings (size 3 to 8) (size 9 to 14) (size 15 to 20)
#    0.000    1.750    2.500    1.875    0.000    6.000 
#    0.000    6.250    0.000    0.000    0.000    9.625 
#    0.000    0.000    0.000    0.000    0.000    0.000 
#
# Total GULP energy -396786.777523 kJ/mol
# GULP energy per Si atom -12399.586798 kJ/mol
# Density = 1.926147 g / cm^3
# Si number density = 19.305413 Si / 1000 Ang^3
#
#
#
# Elastic Constant Matrix: (Units=GPa)
#
#
# Indices 1 2 3 4 5 6 
#
# 1 124.6106 73.6147 55.6853 0.0000 -9.1408 0.0000
# 2 73.6147 105.3046 52.7357 0.0000 -3.7111 0.0000
# 3 55.6853 52.7357 91.8274 0.0000 -3.6183 0.0000
# 4 0.0000 0.0000 0.0000 30.1112 0.0000 -0.6424
# 5 -9.1408 -3.7111 -3.6183 0.0000 29.1467 0.0000
# 6 0.0000 0.0000 0.0000 -0.6424 0.0000 28.6456
#
#
#
# Elastic Compliance Matrix: (Units=1/GPa)
#
#
# Indices 1 2 3 4 5 6 
#
# 1 0.015043 -0.008281 -0.004243 0.000000 0.003137 0.000000
# 2 -0.008281 0.017904 -0.005299 0.000000 -0.000975 0.000000
# 3 -0.004243 -0.005299 0.016508 0.000000 0.000044 0.000000
# 4 0.000000 0.000000 0.000000 0.033226 0.000000 0.000745
# 5 0.003137 -0.000975 0.000044 0.000000 0.035174 0.000000
# 6 0.000000 0.000000 0.000000 0.000745 0.000000 0.034926
#
#
# Mechanical properties :
#
#
# Convention : Reuss Voigt Hill
#
# Bulk Modulus (GPa) = 72.41430 76.20157 74.30793
# Shear Modulus (GPa) = 25.90248 26.89449 26.39849
#
# Velocity S-wave (km/s) = 3.66692 3.73648 3.70187
# Velocity P-wave (km/s) = 7.45116 7.62708 7.53963
#
# Compressibility (1/GPa) = 0.01380943
#
# Stress axis : x y z
#
# Youngs Moduli (GPa) = 66.47564 55.85216 60.57576
#
# Poissons Ratio (x) = 0.46249 0.25704
# Poissons Ratio (y) = 0.55046 0.32101
# Poissons Ratio (z) = 0.28207 0.29598
#
# Static dielectric constant tensor:
#      x y z
#    x 3.494550 0.000000 0.055960 
#    y 0.000000 3.481400 0.000000 
#    z 0.055960 0.000000 3.735400 
# 
# 
# High freq. dielectric constant tensor:
#      x y z
#    x 1.742960 0.000000 0.007240 
#    y 0.000000 1.744320 0.000000 
#    z 0.007240 0.000000 1.766370 
# 
# From -- ./inp_files/251937.got.cif
#   From: 2010.06.25/outbox.cif.g09.slc.cpg/sg12_126_cif.got.tgz:251937.got - 2010.06.28 00:19:55.
