data_PCOD8107156
_publ_section_title
;
Structure prediction by ZEFSAII (Michael W. Deem and Ramdas Pophale) SiO2 
 PCOD8107156
Probable space group: C 2/M
;
_chemical_formula_sum "Si O2"
_cell_formula_units_Z 52
_cell_length_a 21.488556
_cell_length_b 12.282395
_cell_length_c 21.565457
_cell_angle_alpha 90.000000
_cell_angle_beta 152.606143
_cell_angle_gamma 90.000000
_cell_volume 2618.819274
_symmetry_space_group_name_H-M "C 2/M"
_symmetry_group_IT_number 12
_symmetry_cell_setting 'monoclinic'
loop_
_space_group_symop_operation_xyz
x,y,z
-x,y,-z
-x,-y,-z
x,-y,z
1/2+x,1/2+y,z
1/2-x,1/2+y,-z
1/2-x,1/2-y,-z
1/2+x,1/2-y,z
loop_
_atom_site_type_symbol
_atom_site_label
_atom_site_fract_x
_atom_site_fract_y
_atom_site_fract_z
Si Si1 0.916451 0.876238 0.984695
Si Si2 0.457522 0.376523 0.660486
Si Si3 0.804429 0.500000 0.864918
Si Si4 0.662926 0.274008 0.757274
Si Si5 0.226203 0.834714 0.611354
Si Si6 0.000000 0.796437 0.500000
Si Si7 0.075434 0.500000 0.162903
Si Si8 0.869508 0.122937 0.719110
O O1 0.003955 0.868615 0.123525
O O2 0.873637 0.000000 0.931790
O O3 0.782548 0.807515 0.878831
O O4 0.000000 0.827992 0.000000
O O5 0.516193 0.500000 0.712417
O O6 0.565403 0.288271 0.730428
O O7 0.322412 0.372597 0.499186
O O8 0.420119 0.340438 0.696440
O O9 0.712362 0.394208 0.784849
O O10 0.883600 0.500000 0.871539
O O11 0.911559 0.500000 0.017610
O O12 0.580159 0.227704 0.623966
O O13 0.367336 0.893492 0.751739
O O14 0.251095 0.704474 0.635828
O O15 0.110997 0.867565 0.559992
O O16 0.810605 0.000000 0.666565
#
# Coordination Sequence:
#
# PCOD8107156 Si02
#       8
#     8   8   4   8   8   4   4   8
#     4  10  22  40  61  82 112 152 196 240 287 340
#     4  10  21  37  58  85 115 157 189 232 289 344
#     4  11  22  32  54  92 122 146 182 236 289 339
#     4  11  21  36  58  85 118 148 191 232 287 347
#     4  11  20  37  58  85 117 150 192 230 289 345
#     4  10  22  33  57  86 112 150 177 233 288 336
#     4  11  22  32  56  86 122 150 178 237 287 344
#     4  10  22  40  61  82 109 152 200 236 281 338
#
# _framework density 19.856276999999999
#
# number of rings (size 3 to 8) (size 9 to 14) (size 15 to 20)
#    0.000    1.538    3.077    2.308    2.154    1.231 
#    0.000    3.846    1.692    0.000    0.000    0.000 
#    0.000    0.000    0.000    0.000    0.000    0.000 
#
# Total GULP energy -322324.507189 kJ/mol
# GULP energy per Si atom -12397.096430 kJ/mol
# Density = 1.981108 g / cm^3
# Si number density = 19.856277 Si / 1000 Ang^3
#
#
#
# Elastic Constant Matrix: (Units=GPa)
#
#
# Indices 1 2 3 4 5 6 
#
# 1 90.8952 35.5211 45.3784 0.0000 -14.7221 0.0000
# 2 35.5211 95.7825 31.3366 -0.0002 9.2134 -0.0001
# 3 45.3784 31.3366 96.5381 -0.0004 -5.9361 -0.0002
# 4 0.0000 -0.0002 -0.0004 21.0312 -0.0001 1.7709
# 5 -14.7221 9.2134 -5.9361 -0.0001 30.5016 -0.0001
# 6 0.0000 -0.0001 -0.0002 1.7709 -0.0001 16.7998
#
#
#
# Elastic Compliance Matrix: (Units=1/GPa)
#
#
# Indices 1 2 3 4 5 6 
#
# 1 0.017529 -0.005421 -0.005930 0.000000 0.008944 0.000000
# 2 -0.005421 0.013948 -0.002428 0.000000 -0.007302 0.000000
# 3 -0.005930 -0.002428 0.013971 0.000000 0.000590 0.000000
# 4 0.000000 0.000000 0.000000 0.047974 0.000000 -0.005057
# 5 0.008944 -0.007302 0.000590 0.000000 0.039423 0.000000
# 6 0.000000 0.000000 0.000000 -0.005057 0.000000 0.060058
#
#
# Mechanical properties :
#
#
# Convention : Reuss Voigt Hill
#
# Bulk Modulus (GPa) = 55.90114 56.40980 56.15547
# Shear Modulus (GPa) = 22.08245 25.06516 23.57380
#
# Velocity S-wave (km/s) = 3.33846 3.55678 3.44935
# Velocity P-wave (km/s) = 6.56311 6.73337 6.64879
#
# Compressibility (1/GPa) = 0.01788872
#
# Stress axis : x y z
#
# Youngs Moduli (GPa) = 57.04690 71.69712 71.57877
#
# Poissons Ratio (x) = 0.38867 0.42447
# Poissons Ratio (y) = 0.30925 0.17381
# Poissons Ratio (z) = 0.33830 0.17410
#
# Static dielectric constant tensor:
#      x y z
#    x 3.542180 0.000000 -0.096310 
#    y 0.000000 3.531780 0.000000 
#    z -0.096310 0.000000 3.813590 
# 
# 
# High freq. dielectric constant tensor:
#      x y z
#    x 1.765160 0.000000 -0.013110 
#    y 0.000000 1.756340 0.000000 
#    z -0.013110 0.000000 1.785080 
# 
# From -- ./inp_files/321607.got.cif
#   From: 2010.06.25/outbox.cif.g09.slc.cpg/sg12_161_cif.got.tgz:321607.got - 2010.06.28 00:19:55.
