data_PCOD8107809
_publ_section_title
;
Structure prediction by ZEFSAII (Michael W. Deem and Ramdas Pophale) SiO2 
 PCOD8107809
Probable space group: C 2/M
;
_chemical_formula_sum "Si O2"
_cell_formula_units_Z 56
_cell_length_a 31.178226
_cell_length_b 8.703929
_cell_length_c 11.772094
_cell_angle_alpha 90.000000
_cell_angle_beta 63.058823
_cell_angle_gamma 90.000000
_cell_volume 2847.922981
_symmetry_space_group_name_H-M "C 2/M"
_symmetry_group_IT_number 12
_symmetry_cell_setting 'monoclinic'
loop_
_space_group_symop_operation_xyz
x,y,z
-x,y,-z
-x,-y,-z
x,-y,z
1/2+x,1/2+y,z
1/2-x,1/2+y,-z
1/2-x,1/2-y,-z
1/2+x,1/2-y,z
loop_
_atom_site_type_symbol
_atom_site_label
_atom_site_fract_x
_atom_site_fract_y
_atom_site_fract_z
Si Si1 0.537634 0.818864 0.809402
Si Si2 0.662638 0.680310 0.278509
Si Si3 0.295338 0.680131 0.384333
Si Si4 0.641429 0.823966 0.072106
Si Si5 0.438572 0.318924 0.984348
Si Si6 0.729086 0.176257 0.814938
Si Si7 0.383865 0.680153 0.427020
O O1 0.485976 0.737873 0.861855
O O2 0.567728 0.772120 0.661643
O O3 0.530039 0.000000 0.823872
O O4 0.565569 0.762618 0.888452
O O5 0.662724 0.500000 0.251805
O O6 0.637412 0.768875 0.206093
O O7 0.717375 0.740139 0.227373
O O8 0.631854 0.720673 0.426529
O O9 0.291758 0.500000 0.400872
O O10 0.250000 0.750000 0.500000
O O11 0.297217 0.727927 0.251338
O O12 0.342964 0.739417 0.390050
O O13 0.607719 0.720599 0.034207
O O14 0.624517 0.000000 0.083386
O O15 0.696828 0.804714 0.966098
O O16 0.441240 0.500000 0.001378
O O17 0.732353 0.000000 0.770719
O O18 0.393527 0.500000 0.401334
#
# Coordination Sequence:
#
# PCOD8107809 Si02
#       7
#     8   8   8   8   8   8   8
#     4  11  22  38  63  93 121 146 183 240 295 341
#     4  10  21  39  58  79 116 160 200 237 281 343
#     4  11  21  34  55  82 115 151 190 237 285 338
#     4  11  23  38  59  87 117 149 195 247 292 336
#     4  11  22  40  64  88 117 152 191 232 286 352
#     4  10  21  38  57  82 116 155 196 241 289 341
#     4  10  21  38  58  83 118 159 197 234 284 349
#
# _framework density 19.663453000000001
#
# number of rings (size 3 to 8) (size 9 to 14) (size 15 to 20)
#    0.000    1.429    1.429    5.571    0.000    5.714 
#    0.000    0.714    0.000    4.286    0.000    0.000 
#    0.000    0.000    0.000    0.000    0.000    0.000 
#
# Total GULP energy -347346.178100 kJ/mol
# GULP energy per Si atom -12405.220646 kJ/mol
# Density = 1.961870 g / cm^3
# Si number density = 19.663453 Si / 1000 Ang^3
#
#
#
# Elastic Constant Matrix: (Units=GPa)
#
#
# Indices 1 2 3 4 5 6 
#
# 1 63.8651 13.4616 33.1238 0.0000 -1.1906 0.0000
# 2 13.4616 61.5062 22.5251 0.0000 -1.7141 0.0000
# 3 33.1238 22.5251 110.0007 0.0000 -7.0923 0.0000
# 4 0.0000 0.0000 0.0000 33.3576 0.0000 1.7180
# 5 -1.1906 -1.7141 -7.0923 0.0000 30.0814 0.0000
# 6 0.0000 0.0000 0.0000 1.7180 0.0000 31.6818
#
#
#
# Elastic Compliance Matrix: (Units=1/GPa)
#
#
# Indices 1 2 3 4 5 6 
#
# 1 0.018841 -0.002215 -0.005260 0.000000 -0.000621 0.000000
# 2 -0.002215 0.017838 -0.002971 0.000000 0.000228 0.000000
# 3 -0.005260 -0.002971 0.011433 0.000000 0.002318 0.000000
# 4 0.000000 0.000000 0.000000 0.030062 0.000000 -0.001630
# 5 -0.000621 0.000228 0.002318 0.000000 0.033778 0.000000
# 6 0.000000 0.000000 0.000000 -0.001630 0.000000 0.031652
#
#
# Mechanical properties :
#
#
# Convention : Reuss Voigt Hill
#
# Bulk Modulus (GPa) = 36.73759 41.51035 39.12397
# Shear Modulus (GPa) = 28.80695 30.10826 29.45761
#
# Velocity S-wave (km/s) = 3.83168 3.91727 3.87471
# Velocity P-wave (km/s) = 6.18866 6.45107 6.32122
#
# Compressibility (1/GPa) = 0.02722008
#
# Stress axis : x y z
#
# Youngs Moduli (GPa) = 53.07456 56.06108 87.46891
#
# Poissons Ratio (x) = 0.12416 0.46010
# Poissons Ratio (y) = 0.11754 0.25988
# Poissons Ratio (z) = 0.27918 0.16656
#
# Static dielectric constant tensor:
#      x y z
#    x 3.529220 0.000000 -0.064420 
#    y 0.000000 3.606090 0.000000 
#    z -0.064420 0.000000 3.616970 
# 
# 
# High freq. dielectric constant tensor:
#      x y z
#    x 1.756480 0.000000 -0.007020 
#    y 0.000000 1.768120 0.000000 
#    z -0.007020 0.000000 1.772890 
# 
# From -- ./inp_files/180839.got.cif
#   From: 2010.06.25/outbox.cif.g09.slc.cpg/sg12_91_cif.got.tgz:180839.got - 2010.06.28 00:19:55.
