data_PCOD8107973
_publ_section_title
;
Structure prediction by ZEFSAII (Michael W. Deem and Ramdas Pophale) SiO2 
 PCOD8107973
Probable space group: C 2/M
;
_chemical_formula_sum "Si O2"
_cell_formula_units_Z 48
_cell_length_a 29.875150
_cell_length_b 9.017792
_cell_length_c 14.647989
_cell_angle_alpha 90.000000
_cell_angle_beta 141.499178
_cell_angle_gamma 90.000000
_cell_volume 2456.663727
_symmetry_space_group_name_H-M "C 2/M"
_symmetry_group_IT_number 12
_symmetry_cell_setting 'monoclinic'
loop_
_space_group_symop_operation_xyz
x,y,z
-x,y,-z
-x,-y,-z
x,-y,z
1/2+x,1/2+y,z
1/2-x,1/2+y,-z
1/2-x,1/2-y,-z
1/2+x,1/2-y,z
loop_
_atom_site_type_symbol
_atom_site_label
_atom_site_fract_x
_atom_site_fract_y
_atom_site_fract_z
Si Si1 0.543054 0.328424 0.983306
Si Si2 0.298244 0.169165 0.504229
Si Si3 0.805573 0.831001 0.826596
Si Si4 0.566332 0.328708 0.348327
Si Si5 0.932916 0.674035 0.456583
Si Si6 0.278126 0.823530 0.135838
O O1 0.552991 0.500000 0.025511
O O2 0.505373 0.308361 0.825471
O O3 0.500000 0.253420 0.000000
O O4 0.622209 0.252609 0.097736
O O5 0.250000 0.250000 0.500000
O O6 0.260613 0.179698 0.347036
O O7 0.373333 0.251924 0.616741
O O8 0.310775 0.000000 0.554335
O O9 0.776126 0.761044 0.873341
O O10 0.826867 0.000000 0.880500
O O11 0.586367 0.500000 0.394105
O O12 0.556113 0.255227 0.430053
O O13 0.930082 0.500000 0.473287
O O14 0.859691 0.726037 0.289760
O O15 0.000000 0.716636 0.500000
O O16 0.274827 0.000000 0.122021
O O17 0.250000 0.750000 0.000000
#
# Coordination Sequence:
#
# PCOD8107973 Si02
#       6
#     8   8   8   8   8   8
#     4   9  18  33  54  82 114 148 188 232 283 342
#     4  11  21  37  61  86 116 153 193 237 288 345
#     4   9  18  35  57  79 111 150 188 232 285 342
#     4  11  22  36  59  89 117 149 193 241 289 342
#     4  10  22  41  61  82 115 157 193 234 297 356
#     4  10  21  38  59  84 111 148 192 235 289 346
#
# _framework density 19.538694
#
# number of rings (size 3 to 8) (size 9 to 14) (size 15 to 20)
#    0.000    2.000    1.667    2.000    2.333    3.667 
#    0.000    0.000    0.000   11.000    0.000    0.000 
#    0.000    0.000    0.000    0.000    0.000    0.000 
#
# Total GULP energy -297550.889195 kJ/mol
# GULP energy per Si atom -12397.953716 kJ/mol
# Density = 1.949422 g / cm^3
# Si number density = 19.538694 Si / 1000 Ang^3
#
#
#
# Elastic Constant Matrix: (Units=GPa)
#
#
# Indices 1 2 3 4 5 6 
#
# 1 135.6861 27.3473 30.9886 0.0000 4.5500 0.0000
# 2 27.3473 52.8420 14.3197 0.0000 -3.7649 0.0000
# 3 30.9886 14.3197 69.6888 0.0000 4.9053 0.0000
# 4 0.0000 0.0000 0.0000 23.7579 0.0000 -7.6625
# 5 4.5500 -3.7649 4.9053 0.0000 41.6392 0.0000
# 6 0.0000 0.0000 0.0000 -7.6625 0.0000 28.4964
#
#
#
# Elastic Compliance Matrix: (Units=1/GPa)
#
#
# Indices 1 2 3 4 5 6 
#
# 1 0.008880 -0.003824 -0.003096 0.000000 -0.000951 0.000000
# 2 -0.003824 0.021911 -0.002996 0.000000 0.002752 0.000000
# 3 -0.003096 -0.002996 0.016473 0.000000 -0.001873 0.000000
# 4 0.000000 0.000000 0.000000 0.046088 0.000000 0.012393
# 5 -0.000951 0.002752 -0.001873 0.000000 0.024589 0.000000
# 6 0.000000 0.000000 0.000000 0.012393 0.000000 0.038424
#
#
# Mechanical properties :
#
#
# Convention : Reuss Voigt Hill
#
# Bulk Modulus (GPa) = 36.45201 44.83648 40.64425
# Shear Modulus (GPa) = 26.97715 31.14947 29.06331
#
# Velocity S-wave (km/s) = 3.71981 3.99713 3.86096
# Velocity P-wave (km/s) = 6.09477 6.65583 6.38147
#
# Compressibility (1/GPa) = 0.02743333
#
# Stress axis : x y z
#
# Youngs Moduli (GPa) = 112.61684 45.63834 60.70368
#
# Poissons Ratio (x) = 0.17454 0.18792
# Poissons Ratio (y) = 0.43069 0.18184
# Poissons Ratio (z) = 0.34863 0.13671
#
# Static dielectric constant tensor:
#      x y z
#    x 3.634160 0.000000 0.260070 
#    y 0.000000 3.029380 0.000000 
#    z 0.260070 0.000000 3.389010 
# 
# 
# High freq. dielectric constant tensor:
#      x y z
#    x 1.783330 0.000000 0.004210 
#    y 0.000000 1.723490 0.000000 
#    z 0.004210 0.000000 1.769510 
# 
# From -- ./inp_files/248798.got.cif
#   From: 2010.06.25/outbox.cif.g09.slc.cpg/sg12_125_cif.got.tgz:248798.got - 2010.06.28 00:19:55.
