data_PCOD8107175
_publ_section_title
;
Structure prediction by ZEFSAII (Michael W. Deem and Ramdas Pophale) SiO2 
 PCOD8107175
Probable space group: C 2/M
;
_chemical_formula_sum "Si O2"
_cell_formula_units_Z 56
_cell_length_a 15.327604
_cell_length_b 20.322503
_cell_length_c 13.534265
_cell_angle_alpha 90.000000
_cell_angle_beta 136.022788
_cell_angle_gamma 90.000000
_cell_volume 2927.375801
_symmetry_space_group_name_H-M "C 2/M"
_symmetry_group_IT_number 12
_symmetry_cell_setting 'monoclinic'
loop_
_space_group_symop_operation_xyz
x,y,z
-x,y,-z
-x,-y,-z
x,-y,z
1/2+x,1/2+y,z
1/2-x,1/2+y,-z
1/2-x,1/2-y,-z
1/2+x,1/2-y,z
loop_
_atom_site_type_symbol
_atom_site_label
_atom_site_fract_x
_atom_site_fract_y
_atom_site_fract_z
Si Si1 0.122428 0.274659 0.442436
Si Si2 0.957196 0.150115 0.362695
Si Si3 0.746965 0.924586 0.888854
Si Si4 0.274553 0.654747 0.720479
Si Si5 0.772824 0.269131 0.858773
Si Si6 0.492488 0.423592 0.793553
Si Si7 0.598323 0.182721 0.857469
O O1 0.250000 0.250000 0.500000
O O2 0.043616 0.214180 0.419918
O O3 0.154010 0.326071 0.555785
O O4 0.045886 0.312399 0.294025
O O5 0.000000 0.115953 0.500000
O O6 0.810716 0.171007 0.252045
O O7 0.972913 0.096975 0.289067
O O8 0.728948 0.897917 0.763485
O O9 0.650116 0.891031 0.885692
O O10 0.711150 0.000000 0.860107
O O11 0.889821 0.911791 0.038850
O O12 0.324539 0.721445 0.814778
O O13 0.383096 0.624102 0.741695
O O14 0.682388 0.229381 0.858050
O O15 0.890127 0.296909 0.017902
O O16 0.450636 0.500000 0.761535
#
# Coordination Sequence:
#
# PCOD8107175 Si02
#       7
#     8   8   8   8   8   8   8
#     4  11  22  35  55  83 116 150 187 248 305 342
#     4  11  20  36  61  85 116 148 199 248 292 346
#     4  10  21  37  58  85 120 159 197 234 284 357
#     4  11  21  34  56  88 123 151 188 242 302 355
#     4   9  18  33  56  83 109 151 190 245 292 344
#     4  11  23  38  58  85 121 160 194 240 293 352
#     4   9  19  34  55  78 113 153 198 236 284 347
#
# _framework density 19.129760999999998
#
# number of rings (size 3 to 8) (size 9 to 14) (size 15 to 20)
#    0.000    1.714    4.286    0.857    2.000    2.571 
#    0.000    2.143    0.000    0.000    0.000    0.000 
#    0.000    4.571    0.000    0.000    0.000    0.000 
#
# Total GULP energy -347178.234590 kJ/mol
# GULP energy per Si atom -12399.222664 kJ/mol
# Density = 1.908622 g / cm^3
# Si number density = 19.129761 Si / 1000 Ang^3
#
#
#
# Elastic Constant Matrix: (Units=GPa)
#
#
# Indices 1 2 3 4 5 6 
#
# 1 47.7538 32.2339 30.7027 0.0000 -9.3403 0.0000
# 2 32.2339 81.6905 57.4722 0.0000 -5.6899 0.0000
# 3 30.7027 57.4722 152.8306 0.0000 -16.6958 0.0000
# 4 0.0000 0.0000 0.0000 27.4693 0.0000 -0.0810
# 5 -9.3403 -5.6899 -16.6958 0.0000 30.6033 0.0000
# 6 0.0000 0.0000 0.0000 -0.0810 0.0000 26.9827
#
#
#
# Elastic Compliance Matrix: (Units=1/GPa)
#
#
# Indices 1 2 3 4 5 6 
#
# 1 0.030184 -0.010457 -0.001422 0.000000 0.006492 0.000000
# 2 -0.010457 0.020271 -0.005805 0.000000 -0.002590 0.000000
# 3 -0.001422 -0.005805 0.009407 0.000000 0.003619 0.000000
# 4 0.000000 0.000000 0.000000 0.036405 0.000000 0.000109
# 5 0.006492 -0.002590 0.003619 0.000000 0.036150 0.000000
# 6 0.000000 0.000000 0.000000 0.000109 0.000000 0.037061
#
#
# Mechanical properties :
#
#
# Convention : Reuss Voigt Hill
#
# Bulk Modulus (GPa) = 40.82774 58.12140 49.47457
# Shear Modulus (GPa) = 23.47285 27.80213 25.63749
#
# Velocity S-wave (km/s) = 3.50670 3.81641 3.66483
# Velocity P-wave (km/s) = 6.14694 7.06177 6.62018
#
# Compressibility (1/GPa) = 0.02449315
#
# Stress axis : x y z
#
# Youngs Moduli (GPa) = 33.13056 49.33036 106.30104
#
# Poissons Ratio (x) = 0.51587 0.15115
# Poissons Ratio (y) = 0.34646 0.61710
# Poissons Ratio (z) = 0.04711 0.28637
#
# Static dielectric constant tensor:
#      x y z
#    x 3.310540 0.000000 -0.211730 
#    y 0.000000 3.460370 0.000000 
#    z -0.211730 0.000000 3.990200 
# 
# 
# High freq. dielectric constant tensor:
#      x y z
#    x 1.722510 0.000000 -0.016000 
#    y 0.000000 1.722620 0.000000 
#    z -0.016000 0.000000 1.758610 
# 
# From -- ./inp_files/217721.got.cif
#   From: 2010.06.25/outbox.cif.g09.slc.cpg/sg12_109_cif.got.tgz:217721.got - 2010.06.28 00:19:55.
