data_PCOD8107916
_publ_section_title
;
Structure prediction by ZEFSAII (Michael W. Deem and Ramdas Pophale) SiO2 
 PCOD8107916
Probable space group: C 2/M
;
_chemical_formula_sum "Si O2"
_cell_formula_units_Z 64
_cell_length_a 16.105020
_cell_length_b 8.976357
_cell_length_c 27.409758
_cell_angle_alpha 90.000000
_cell_angle_beta 127.088423
_cell_angle_gamma 90.000000
_cell_volume 3160.889641
_symmetry_space_group_name_H-M "C 2/M"
_symmetry_group_IT_number 12
_symmetry_cell_setting 'monoclinic'
loop_
_space_group_symop_operation_xyz
x,y,z
-x,y,-z
-x,-y,-z
x,-y,z
1/2+x,1/2+y,z
1/2-x,1/2+y,-z
1/2-x,1/2-y,-z
1/2+x,1/2-y,z
loop_
_atom_site_type_symbol
_atom_site_label
_atom_site_fract_x
_atom_site_fract_y
_atom_site_fract_z
Si Si1 0.722201 0.835338 0.872506
Si Si2 0.051488 0.333216 0.889796
Si Si3 0.046776 0.830071 0.628495
Si Si4 0.108007 0.337860 0.014232
Si Si5 0.328084 0.823715 0.565038
Si Si6 0.865033 0.824699 0.773859
Si Si7 0.688930 0.669988 0.768691
Si Si8 0.244816 0.675765 0.352248
O O1 0.656817 0.845162 0.897796
O O2 0.831842 0.767389 0.927048
O O3 0.660841 0.731231 0.812070
O O4 0.740055 0.000000 0.856427
O O5 0.002788 0.500000 0.879389
O O6 0.975530 0.226407 0.833121
O O7 0.085935 0.262707 0.953706
O O8 0.089938 0.816729 0.698554
O O9 0.136279 0.776360 0.621228
O O10 0.943968 0.729356 0.591602
O O11 0.014932 0.000000 0.604992
O O12 0.164607 0.500000 0.027560
O O13 0.000000 0.370021 0.000000
O O14 0.250000 0.750000 0.500000
O O15 0.286841 0.776710 0.604212
O O16 0.325455 0.000000 0.558537
O O17 0.781077 0.775148 0.783531
O O18 0.839735 0.751566 0.712644
O O19 0.864060 0.000000 0.766297
O O20 0.727858 0.500000 0.784904
O O21 0.235757 0.500000 0.340893
#
# Coordination Sequence:
#
# PCOD8107916 Si02
#       8
#     8   8   8   8   8   8   8   8
#     4  11  23  36  55  84 116 150 193 247 296 348
#     4  10  22  38  55  81 118 155 191 238 299 359
#     4   9  20  40  64  89 121 161 208 254 303 363
#     4  10  21  38  59  78 104 151 200 241 295 361
#     4  11  24  41  64  93 127 165 207 252 303 361
#     4  11  22  36  60  91 118 149 196 248 295 351
#     4  10  21  39  61  84 117 157 195 240 300 363
#     4   9  21  42  64  88 124 171 207 246 309 373
#
# _framework density 20.247464000000001
#
# number of rings (size 3 to 8) (size 9 to 14) (size 15 to 20)
#    0.000    1.875    0.000    4.125    1.750    6.750 
#    0.000    2.500    0.000    0.000    0.000    0.000 
#    0.000    0.000    0.000    0.000    0.000    0.000 
#
# Total GULP energy -396696.699343 kJ/mol
# GULP energy per Si atom -12396.771854 kJ/mol
# Density = 2.020138 g / cm^3
# Si number density = 20.247464 Si / 1000 Ang^3
#
#
#
# Elastic Constant Matrix: (Units=GPa)
#
#
# Indices 1 2 3 4 5 6 
#
# 1 58.9276 17.7387 20.6511 0.0000 -4.5202 0.0000
# 2 17.7387 80.8599 41.8170 0.0000 1.3180 0.0000
# 3 20.6511 41.8170 90.8044 0.0000 -3.8716 0.0000
# 4 0.0000 0.0000 0.0000 -343.3428 0.0000 -144.9839
# 5 -4.5202 1.3180 -3.8716 0.0000 35.6260 0.0000
# 6 0.0000 0.0000 0.0000 -144.9839 0.0000 -27.9474
#
#
#
# Elastic Compliance Matrix: (Units=1/GPa)
#
#
# Indices 1 2 3 4 5 6 
#
# 1 0.018987 -0.002646 -0.003007 0.000000 0.002180 0.000000
# 2 -0.002646 0.016674 -0.007150 0.000000 -0.001730 0.000000
# 3 -0.003007 -0.007150 0.015054 0.000000 0.001519 0.000000
# 4 0.000000 0.000000 0.000000 0.002446 0.000000 -0.012690
# 5 0.002180 -0.001730 0.001519 0.000000 0.028575 0.000000
# 6 0.000000 0.000000 0.000000 -0.012690 0.000000 0.030052
#
#
# Mechanical properties :
#
#
# Convention : Reuss Voigt Hill
#
# Bulk Modulus (GPa) = 39.82659 43.44506 41.63582
# Shear Modulus (GPa) = 34.30181 -57.10717 -11.40268
#
# Velocity S-wave (km/s) = 4.12045 -5.31656 -2.37569
# Velocity P-wave (km/s) = 6.50769 4.02295 3.61703
#
# Compressibility (1/GPa) = 0.02510885
#
# Stress axis : x y z
#
# Youngs Moduli (GPa) = 52.66649 59.97501 66.42681
#
# Poissons Ratio (x) = 0.15869 0.19973
# Poissons Ratio (y) = 0.13935 0.47498
# Poissons Ratio (z) = 0.15835 0.42885
#
# Static dielectric constant tensor:
#      x y z
#    x 3.713480 0.000000 -0.140110 
#    y 0.000000 3.764360 0.000000 
#    z -0.140110 0.000000 3.656900 
# 
# 
# High freq. dielectric constant tensor:
#      x y z
#    x 1.793080 0.000000 -0.008280 
#    y 0.000000 1.789180 0.000000 
#    z -0.008280 0.000000 1.791250 
# 
# From -- ./inp_files/375662.got.cif
#   From: 2010.06.25/outbox.cif.g09.slc.cpg/sg12_188_cif.got.tgz:375662.got - 2010.06.28 00:19:55.
