data_PCOD8107714
_publ_section_title
;
Structure prediction by ZEFSAII (Michael W. Deem and Ramdas Pophale) SiO2 
 PCOD8107714
Probable space group: C 2/M
;
_chemical_formula_sum "Si O2"
_cell_formula_units_Z 64
_cell_length_a 30.577015
_cell_length_b 13.062487
_cell_length_c 20.592398
_cell_angle_alpha 90.000000
_cell_angle_beta 22.530291
_cell_angle_gamma 90.000000
_cell_volume 3151.529925
_symmetry_space_group_name_H-M "C 2/M"
_symmetry_group_IT_number 12
_symmetry_cell_setting 'monoclinic'
loop_
_space_group_symop_operation_xyz
x,y,z
-x,y,-z
-x,-y,-z
x,-y,z
1/2+x,1/2+y,z
1/2-x,1/2+y,-z
1/2-x,1/2-y,-z
1/2+x,1/2-y,z
loop_
_atom_site_type_symbol
_atom_site_label
_atom_site_fract_x
_atom_site_fract_y
_atom_site_fract_z
Si Si1 0.633418 0.115972 0.828740
Si Si2 0.406734 0.620282 0.763363
Si Si3 0.570056 0.771715 0.464688
Si Si4 0.833575 0.616456 0.955344
Si Si5 0.680941 0.218257 0.897638
Si Si6 0.701017 0.280135 0.497958
Si Si7 0.537328 0.382648 0.165341
Si Si8 0.076617 0.619430 0.581780
O O1 0.657133 0.186867 0.857331
O O2 0.700094 0.160566 0.675862
O O3 0.675443 0.000000 0.783753
O O4 0.500000 0.118520 0.000000
O O5 0.420334 0.500000 0.727777
O O6 0.507538 0.677975 0.586936
O O7 0.283953 0.666123 0.909360
O O8 0.413037 0.639162 0.831465
O O9 0.500000 0.816935 0.500000
O O10 0.685609 0.732495 0.274728
O O11 0.603916 0.861275 0.468768
O O12 0.829726 0.500000 0.939664
O O13 0.851490 0.628033 0.007979
O O14 0.947521 0.664100 0.766837
O O15 0.608560 0.318990 0.014716
O O16 0.750000 0.250000 0.500000
O O17 0.595720 0.355590 0.653551
O O18 0.662845 0.179342 0.510612
O O19 0.551570 0.500000 0.125731
O O20 0.087281 0.500000 0.584643
#
# Coordination Sequence:
#
# PCOD8107714 Si02
#       8
#     8   8   8   8   8   8   8   8
#     4  11  25  44  69  99 129 161 206 267 330 387
#     4  10  21  39  63  95 130 172 219 266 323 384
#     4  12  24  38  62  92 133 181 214 267 320 388
#     4  10  21  37  64  95 126 168 218 266 316 380
#     4  12  22  40  62  94 132 167 210 264 325 378
#     4  12  24  46  73  96 127 167 217 268 326 389
#     4  11  24  42  67  95 128 169 218 265 313 384
#     4  11  25  45  65  93 131 175 221 268 321 386
#
# _framework density 20.307597000000001
#
# number of rings (size 3 to 8) (size 9 to 14) (size 15 to 20)
#    0.000    0.875    5.000    1.500    1.750    5.000 
#    0.000    0.000    0.000    1.500    0.000    0.000 
#    0.000    0.000    0.000    0.000    0.000    0.000 
#
# Total GULP energy -396829.693981 kJ/mol
# GULP energy per Si atom -12400.927937 kJ/mol
# Density = 2.026138 g / cm^3
# Si number density = 20.307597 Si / 1000 Ang^3
#
#
#
# Elastic Constant Matrix: (Units=GPa)
#
#
# Indices 1 2 3 4 5 6 
#
# 1 145.0105 45.6217 37.0694 0.0000 2.5430 0.0000
# 2 45.6217 103.8436 52.9782 0.0000 2.8506 0.0000
# 3 37.0694 52.9782 112.5998 0.0000 4.6826 0.0000
# 4 0.0000 0.0000 0.0000 37.2424 0.0000 -15.7988
# 5 2.5430 2.8506 4.6826 0.0000 33.6355 0.0000
# 6 0.0000 0.0000 0.0000 -15.7988 0.0000 27.8171
#
#
#
# Elastic Compliance Matrix: (Units=1/GPa)
#
#
# Indices 1 2 3 4 5 6 
#
# 1 0.008148 -0.002908 -0.001306 0.000000 -0.000188 0.000000
# 2 -0.002908 0.013711 -0.005486 0.000000 -0.000178 0.000000
# 3 -0.001306 -0.005486 0.011938 0.000000 -0.001098 0.000000
# 4 0.000000 0.000000 0.000000 0.035374 0.000000 0.020091
# 5 -0.000188 -0.000178 -0.001098 0.000000 0.029913 0.000000
# 6 0.000000 0.000000 0.000000 0.020091 0.000000 0.047360
#
#
# Mechanical properties :
#
#
# Convention : Reuss Voigt Hill
#
# Bulk Modulus (GPa) = 69.46443 70.31029 69.88736
# Shear Modulus (GPa) = 29.30068 34.79131 32.04599
#
# Velocity S-wave (km/s) = 3.80260 4.14359 3.97675
# Velocity P-wave (km/s) = 7.31847 7.58883 7.45488
#
# Compressibility (1/GPa) = 0.01439586
#
# Stress axis : x y z
#
# Youngs Moduli (GPa) = 122.72607 72.93199 83.76518
#
# Poissons Ratio (x) = 0.21209 0.10943
# Poissons Ratio (y) = 0.35690 0.45957
# Poissons Ratio (z) = 0.16033 0.40014
#
# Static dielectric constant tensor:
#      x y z
#    x 3.652360 0.000000 0.010240 
#    y 0.000000 3.647590 0.000000 
#    z 0.010240 0.000000 3.785430 
# 
# 
# High freq. dielectric constant tensor:
#      x y z
#    x 1.795080 0.000000 0.000860 
#    y 0.000000 1.793180 0.000000 
#    z 0.000860 0.000000 1.806960 
# 
# From -- ./inp_files/330323.got.cif
#   From: 2010.06.25/outbox.cif.g09.slc.cpg/sg12_166_cif.got.tgz:330323.got - 2010.06.28 00:19:55.
