data_PCOD8107393
_publ_section_title
;
Structure prediction by ZEFSAII (Michael W. Deem and Ramdas Pophale) SiO2 
 PCOD8107393
Probable space group: C 2/M
;
_chemical_formula_sum "Si O2"
_cell_formula_units_Z 56
_cell_length_a 28.039134
_cell_length_b 13.465287
_cell_length_c 12.010489
_cell_angle_alpha 90.000000
_cell_angle_beta 141.747327
_cell_angle_gamma 90.000000
_cell_volume 2807.521945
_symmetry_space_group_name_H-M "C 2/M"
_symmetry_group_IT_number 12
_symmetry_cell_setting 'monoclinic'
loop_
_space_group_symop_operation_xyz
x,y,z
-x,y,-z
-x,-y,-z
x,-y,z
1/2+x,1/2+y,z
1/2-x,1/2+y,-z
1/2-x,1/2-y,-z
1/2+x,1/2-y,z
loop_
_atom_site_type_symbol
_atom_site_label
_atom_site_fract_x
_atom_site_fract_y
_atom_site_fract_z
Si Si1 0.014841 0.795128 0.649478
Si Si2 0.792704 0.388324 0.851981
Si Si3 0.313486 0.886608 0.324522
Si Si4 0.607821 0.889191 0.759091
Si Si5 0.585355 0.613667 0.168783
Si Si6 0.851596 0.179968 0.943318
Si Si7 0.137213 0.801340 0.488080
O O1 0.037365 0.679067 0.672163
O O2 0.000000 0.843851 0.500000
O O3 0.941773 0.815903 0.591692
O O4 0.085109 0.843082 0.846350
O O5 0.811918 0.500000 0.839185
O O6 0.842565 0.297114 0.890927
O O7 0.702278 0.366692 0.669679
O O8 0.815721 0.385126 0.024056
O O9 0.362771 0.854016 0.307306
O O10 0.224038 0.865502 0.138529
O O11 0.341093 0.815317 0.474726
O O12 0.328253 0.000000 0.385167
O O13 0.573738 0.000000 0.693841
O O14 0.578977 0.500000 0.194459
O O15 0.630518 0.621353 0.136307
O O16 0.631710 0.669888 0.349544
O O17 0.500000 0.660258 0.000000
#
# Coordination Sequence:
#
# PCOD8107393 Si02
#       7
#     8   8   8   8   8   8   8
#     4  11  21  34  57  89 119 154 194 244 293 347
#     4   9  20  37  59  87 120 158 199 241 297 353
#     4  10  21  37  59  90 122 156 198 245 296 351
#     4   9  19  35  56  83 122 165 195 233 296 364
#     4  11  23  42  64  85 119 160 198 238 293 360
#     4  10  22  39  63  86 117 158 203 244 292 352
#     4  11  22  37  61  88 118 154 201 247 291 344
#
# _framework density 19.946417
#
# number of rings (size 3 to 8) (size 9 to 14) (size 15 to 20)
#    0.000    1.857    2.857    0.857    2.000    4.857 
#    0.000    2.143    0.000    4.286    0.000    0.000 
#    0.000    0.000    0.000    0.000    0.000    0.000 
#
# Total GULP energy -347023.811875 kJ/mol
# GULP energy per Si atom -12393.707567 kJ/mol
# Density = 1.990102 g / cm^3
# Si number density = 19.946417 Si / 1000 Ang^3
#
#
#
# Elastic Constant Matrix: (Units=GPa)
#
#
# Indices 1 2 3 4 5 6 
#
# 1 69.1693 4.5247 34.7421 0.0000 -7.1983 0.0000
# 2 4.5247 75.2275 22.0946 0.0000 -12.8597 0.0000
# 3 34.7421 22.0946 118.7669 0.0000 -6.4749 0.0000
# 4 0.0000 0.0000 0.0000 19.2477 0.0000 -1.6392
# 5 -7.1983 -12.8597 -6.4749 0.0000 33.2047 0.0000
# 6 0.0000 0.0000 0.0000 -1.6392 0.0000 24.1690
#
#
#
# Elastic Compliance Matrix: (Units=1/GPa)
#
#
# Indices 1 2 3 4 5 6 
#
# 1 0.017262 0.000985 -0.005062 0.000000 0.003136 0.000000
# 2 0.000985 0.014985 -0.002777 0.000000 0.005476 0.000000
# 3 -0.005062 -0.002777 0.010409 0.000000 -0.000143 0.000000
# 4 0.000000 0.000000 0.000000 0.052256 0.000000 0.003544
# 5 0.003136 0.005476 -0.000143 0.000000 0.032889 0.000000
# 6 0.000000 0.000000 0.000000 0.003544 0.000000 0.041616
#
#
# Mechanical properties :
#
#
# Convention : Reuss Voigt Hill
#
# Bulk Modulus (GPa) = 34.54504 42.87630 38.71067
# Shear Modulus (GPa) = 25.93696 28.77776 27.35736
#
# Velocity S-wave (km/s) = 3.60992 3.80248 3.70745
# Velocity P-wave (km/s) = 5.89338 6.38912 6.14625
#
# Compressibility (1/GPa) = 0.02894772
#
# Stress axis : x y z
#
# Youngs Moduli (GPa) = 57.93211 66.73120 96.06745
#
# Poissons Ratio (x) = -0.06570 0.48625
# Poissons Ratio (y) = -0.05704 0.26681
# Poissons Ratio (z) = 0.29323 0.18533
#
# Static dielectric constant tensor:
#      x y z
#    x 3.347760 0.000000 0.052380 
#    y 0.000000 3.751310 0.000000 
#    z 0.052380 0.000000 3.862410 
# 
# 
# High freq. dielectric constant tensor:
#      x y z
#    x 1.753730 0.000000 0.009030 
#    y 0.000000 1.775140 0.000000 
#    z 0.009030 0.000000 1.795280 
# 
# From -- ./inp_files/183524.got.cif
#   From: 2010.06.25/outbox.cif.g09.slc.cpg/sg12_92_cif.got.tgz:183524.got - 2010.06.28 00:19:55.
