data_PCOD8107302
_publ_section_title
;
Structure prediction by ZEFSAII (Michael W. Deem and Ramdas Pophale) SiO2 
 PCOD8107302
Probable space group: C 2/M
;
_chemical_formula_sum "Si O2"
_cell_formula_units_Z 64
_cell_length_a 9.103685
_cell_length_b 17.879244
_cell_length_c 28.626231
_cell_angle_alpha 90.000000
_cell_angle_beta 43.315267
_cell_angle_gamma 90.000000
_cell_volume 3196.409525
_symmetry_space_group_name_H-M "C 2/M"
_symmetry_group_IT_number 12
_symmetry_cell_setting 'monoclinic'
loop_
_space_group_symop_operation_xyz
x,y,z
-x,y,-z
-x,-y,-z
x,-y,z
1/2+x,1/2+y,z
1/2-x,1/2+y,-z
1/2-x,1/2-y,-z
1/2+x,1/2-y,z
loop_
_atom_site_type_symbol
_atom_site_label
_atom_site_fract_x
_atom_site_fract_y
_atom_site_fract_z
Si Si1 0.762783 0.410791 0.568745
Si Si2 0.052125 0.913333 0.437857
Si Si3 0.546725 0.916308 0.038694
Si Si4 0.964449 0.413193 0.701611
Si Si5 0.030533 0.083230 0.942422
Si Si6 0.299339 0.835260 0.177313
Si Si7 0.620332 0.178483 0.187474
Si Si8 0.633321 0.412083 0.700237
O O1 0.752599 0.500000 0.572645
O O2 0.591858 0.378269 0.570582
O O3 0.702067 0.378040 0.634012
O O4 0.000000 0.383130 0.500000
O O5 0.302063 0.901451 0.373102
O O6 0.000000 0.875516 0.500000
O O7 0.989211 0.000000 0.454528
O O8 0.462139 0.867342 0.101079
O O9 0.446516 0.000000 0.065951
O O10 0.500000 0.877022 0.000000
O O11 0.798604 0.923123 0.975105
O O12 0.920507 0.500000 0.724337
O O13 0.961454 0.364247 0.748481
O O14 0.790928 0.382052 0.704532
O O15 0.171725 0.135816 0.878140
O O16 0.137282 0.000000 0.921924
O O17 0.000000 0.120450 0.000000
O O18 0.432461 0.819096 0.193048
O O19 0.185976 0.761938 0.184422
O O20 0.112495 0.893886 0.231646
O O21 0.660623 0.500000 0.691658
#
# Coordination Sequence:
#
# PCOD8107302 Si02
#       8
#     8   8   8   8   8   8   8   8
#     4   9  16  28  50  82 118 153 190 238 292 341
#     4   9  16  28  50  82 118 152 191 239 290 342
#     4  10  23  41  65  91 117 149 189 238 291 348
#     4  10  21  37  59  87 117 154 197 242 292 347
#     4  10  21  41  65  90 116 148 190 238 291 348
#     4  12  26  42  59  84 118 156 198 241 292 347
#     4  12  26  41  60  84 117 158 196 242 292 346
#     4  10  21  37  59  86 118 154 196 243 292 348
#
# _framework density 20.022465
#
# number of rings (size 3 to 8) (size 9 to 14) (size 15 to 20)
#    0.000    1.750    1.250    3.000    3.500    6.500 
#    0.000    0.000    0.000    0.750    0.000    5.250 
#    0.000    0.000    0.000    0.000    0.000    0.000 
#
# Total GULP energy -396726.419351 kJ/mol
# GULP energy per Si atom -12397.700605 kJ/mol
# Density = 1.997689 g / cm^3
# Si number density = 20.022465 Si / 1000 Ang^3
#
#
#
# Elastic Constant Matrix: (Units=GPa)
#
#
# Indices 1 2 3 4 5 6 
#
# 1 171.1441 24.3220 41.5926 0.0037 8.9747 -0.0008
# 2 24.3220 35.1183 16.0047 -0.0135 8.0324 0.0020
# 3 41.5926 16.0047 77.5707 -0.0211 5.8764 0.0029
# 4 0.0037 -0.0135 -0.0211 4.0000 0.0003 -0.5724
# 5 8.9747 8.0324 5.8764 0.0003 39.8601 0.0007
# 6 -0.0008 0.0020 0.0029 -0.5724 0.0007 24.7668
#
#
#
# Elastic Compliance Matrix: (Units=1/GPa)
#
#
# Indices 1 2 3 4 5 6 
#
# 1 0.007097 -0.003413 -0.003067 -0.000034 -0.000458 0.000000
# 2 -0.003413 0.034283 -0.004832 0.000094 -0.005428 0.000000
# 3 -0.003067 -0.004832 0.015581 0.000069 -0.000633 0.000000
# 4 -0.000034 0.000094 0.000069 0.250828 -0.000023 0.005797
# 5 -0.000458 -0.005428 -0.000633 -0.000023 0.026378 -0.000001
# 6 0.000000 0.000000 0.000000 0.005797 -0.000001 0.040511
#
#
# Mechanical properties :
#
#
# Convention : Reuss Voigt Hill
#
# Bulk Modulus (GPa) = 29.12304 49.74127 39.43215
# Shear Modulus (GPa) = 12.23252 27.18631 19.70941
#
# Velocity S-wave (km/s) = 2.47440 3.68882 3.14086
# Velocity P-wave (km/s) = 4.76868 6.56048 5.73499
#
# Compressibility (1/GPa) = 0.03433708
#
# Stress axis : x y z
#
# Youngs Moduli (GPa) = 140.89711 29.16933 64.18209
#
# Poissons Ratio (x) = 0.09956 0.19682
# Poissons Ratio (y) = 0.48090 0.31013
# Poissons Ratio (z) = 0.43208 0.14095
#
# Static dielectric constant tensor:
#      x y z
#    x 3.981050 0.000010 0.258600 
#    y 0.000010 3.336060 0.000020 
#    z 0.258600 0.000020 3.624550 
# 
# 
# High freq. dielectric constant tensor:
#      x y z
#    x 1.805870 0.000000 0.003280 
#    y 0.000000 1.737910 0.000000 
#    z 0.003280 0.000000 1.792860 
# 
# From -- ./inp_files/372928.got.cif
#   From: 2010.06.25/outbox.cif.g09.slc.cpg/sg12_187_cif.got.tgz:372928.got - 2010.06.28 00:19:55.
