data_PCOD8107784
_publ_section_title
;
Structure prediction by ZEFSAII (Michael W. Deem and Ramdas Pophale) SiO2 
 PCOD8107784
Probable space group: C 2/M
;
_chemical_formula_sum "Si O2"
_cell_formula_units_Z 64
_cell_length_a 14.357885
_cell_length_b 8.733963
_cell_length_c 27.471160
_cell_angle_alpha 90.000000
_cell_angle_beta 105.651646
_cell_angle_gamma 90.000000
_cell_volume 3317.179108
_symmetry_space_group_name_H-M "C 2/M"
_symmetry_group_IT_number 12
_symmetry_cell_setting 'monoclinic'
loop_
_space_group_symop_operation_xyz
x,y,z
-x,y,-z
-x,-y,-z
x,-y,z
1/2+x,1/2+y,z
1/2-x,1/2+y,-z
1/2-x,1/2-y,-z
1/2+x,1/2-y,z
loop_
_atom_site_type_symbol
_atom_site_label
_atom_site_fract_x
_atom_site_fract_y
_atom_site_fract_z
Si Si1 0.138600 0.819129 0.827464
Si Si2 0.321755 0.321965 0.902453
Si Si3 0.109903 0.181543 0.714781
Si Si4 0.390508 0.831259 0.002627
Si Si5 0.782590 0.181312 0.363750
Si Si6 0.471339 0.681867 0.443744
Si Si7 0.580144 0.319331 0.364480
Si Si8 0.985880 0.319985 0.111015
O O1 0.239864 0.777696 0.865758
O O2 0.138002 0.757215 0.772018
O O3 0.050139 0.733819 0.841570
O O4 0.121715 0.000000 0.827936
O O5 0.298564 0.500000 0.892583
O O6 0.421295 0.278594 0.890278
O O7 0.327433 0.285939 0.961419
O O8 0.188146 0.240786 0.686203
O O9 0.002411 0.237432 0.684811
O O10 0.110854 0.000000 0.714227
O O11 0.397024 0.785955 0.060634
O O12 0.344754 0.000000 0.989717
O O13 0.500000 0.832966 0.000000
O O14 0.680282 0.245202 0.364397
O O15 0.864440 0.239044 0.413271
O O16 0.777597 0.000000 0.363411
O O17 0.500000 0.754060 0.500000
O O18 0.470596 0.500000 0.446541
O O19 0.549769 0.733827 0.414503
O O20 0.591835 0.500000 0.363739
O O21 0.012390 0.500000 0.114473
#
# Coordination Sequence:
#
# PCOD8107784 Si02
#       8
#     8   8   8   8   8   8   8   8
#     4  11  22  37  56  77 103 135 174 218 265 313
#     4  11  22  36  55  80 108 137 171 210 257 313
#     4   8  18  36  53  70  97 134 171 210 256 308
#     4   8  16  33  55  76 102 136 170 207 252 305
#     4   9  17  32  53  75 100 133 174 212 251 301
#     4   8  15  29  49  73 105 143 174 202 245 304
#     4   9  17  32  53  75 100 132 173 214 253 300
#     4  10  21  38  57  79 107 136 170 212 259 312
#
# _framework density 19.293500999999999
#
# number of rings (size 3 to 8) (size 9 to 14) (size 15 to 20)
#    0.000    2.750    0.000    4.125    0.000    4.750 
#    0.000    7.500    0.000    0.750    0.000    0.000 
#    0.000    0.000    0.000    0.000    0.000    0.000 
#
# Total GULP energy -396660.677815 kJ/mol
# GULP energy per Si atom -12395.646182 kJ/mol
# Density = 1.924959 g / cm^3
# Si number density = 19.293501 Si / 1000 Ang^3
#
#
#
# Elastic Constant Matrix: (Units=GPa)
#
#
# Indices 1 2 3 4 5 6 
#
# 1 85.2165 12.1712 35.5983 0.0000 -2.3646 0.0000
# 2 12.1712 37.5941 19.5658 0.0000 -3.8791 0.0000
# 3 35.5983 19.5658 118.2363 0.0000 -15.0019 0.0000
# 4 0.0000 0.0000 0.0000 16.9581 0.0000 1.4481
# 5 -2.3646 -3.8791 -15.0019 0.0000 23.9805 0.0000
# 6 0.0000 0.0000 0.0000 1.4481 0.0000 33.4949
#
#
#
# Elastic Compliance Matrix: (Units=1/GPa)
#
#
# Indices 1 2 3 4 5 6 
#
# 1 0.013682 -0.002562 -0.003885 0.000000 -0.001496 0.000000
# 2 -0.002562 0.029661 -0.003867 0.000000 0.002126 0.000000
# 3 -0.003885 -0.003867 0.011014 0.000000 0.005881 0.000000
# 4 0.000000 0.000000 0.000000 0.059187 0.000000 -0.002559
# 5 -0.001496 0.002126 0.005881 0.000000 0.045576 0.000000
# 6 0.000000 0.000000 0.000000 -0.002559 0.000000 0.029966
#
#
# Mechanical properties :
#
#
# Convention : Reuss Voigt Hill
#
# Bulk Modulus (GPa) = 29.64868 41.74640 35.69754
# Shear Modulus (GPa) = 22.62868 26.46748 24.54808
#
# Velocity S-wave (km/s) = 3.42843 3.70785 3.57087
# Velocity P-wave (km/s) = 5.57429 6.32577 5.96188
#
# Compressibility (1/GPa) = 0.03372832
#
# Stress axis : x y z
#
# Youngs Moduli (GPa) = 73.08744 33.71379 90.79688
#
# Poissons Ratio (x) = 0.08637 0.35277
# Poissons Ratio (y) = 0.18724 0.35114
# Poissons Ratio (z) = 0.28396 0.13038
#
# Static dielectric constant tensor:
#      x y z
#    x 3.717500 0.000000 -0.163690 
#    y 0.000000 3.188310 0.000000 
#    z -0.163690 0.000000 4.042820 
# 
# 
# High freq. dielectric constant tensor:
#      x y z
#    x 1.753090 0.000000 -0.005100 
#    y 0.000000 1.722710 0.000000 
#    z -0.005100 0.000000 1.754080 
# 
# From -- ./inp_files/375088.got.cif
#   From: 2010.06.25/outbox.cif.g09.slc.cpg/sg12_188_cif.got.tgz:375088.got - 2010.06.28 00:19:55.
