data_PCOD8107354
_publ_section_title
;
Structure prediction by ZEFSAII (Michael W. Deem and Ramdas Pophale) SiO2 
 PCOD8107354
Probable space group: C 2/M
;
_chemical_formula_sum "Si O2"
_cell_formula_units_Z 56
_cell_length_a 14.356820
_cell_length_b 27.327353
_cell_length_c 11.464033
_cell_angle_alpha 90.000000
_cell_angle_beta 35.683724
_cell_angle_gamma 90.000000
_cell_volume 2623.572339
_symmetry_space_group_name_H-M "C 2/M"
_symmetry_group_IT_number 12
_symmetry_cell_setting 'monoclinic'
loop_
_space_group_symop_operation_xyz
x,y,z
-x,y,-z
-x,-y,-z
x,-y,z
1/2+x,1/2+y,z
1/2-x,1/2+y,-z
1/2-x,1/2-y,-z
1/2+x,1/2-y,z
loop_
_atom_site_type_symbol
_atom_site_label
_atom_site_fract_x
_atom_site_fract_y
_atom_site_fract_z
Si Si1 0.184955 0.709644 0.308765
Si Si2 0.892255 0.136234 0.223063
Si Si3 0.683346 0.586357 0.344203
Si Si4 0.800531 0.847995 0.971987
Si Si5 0.314319 0.815037 0.163939
Si Si6 0.794031 0.554004 0.466417
Si Si7 0.340159 0.944333 0.947313
O O1 0.275938 0.682000 0.320149
O O2 0.217003 0.766725 0.294462
O O3 0.000000 0.698097 0.500000
O O4 0.245618 0.690551 0.123442
O O5 0.780662 0.089995 0.362498
O O6 0.005893 0.149611 0.217917
O O7 0.000000 0.124720 0.000000
O O8 0.500000 0.592418 0.500000
O O9 0.755432 0.639885 0.302905
O O10 0.694235 0.553609 0.448013
O O11 0.782148 0.561362 0.139466
O O12 0.728041 0.829495 0.925246
O O13 0.745156 0.904425 0.049548
O O14 0.500000 0.805204 0.000000
O O15 0.785654 0.500000 0.530203
O O16 0.973612 0.568228 0.249925
O O17 0.303539 0.000000 0.942645
#
# Coordination Sequence:
#
# PCOD8107354 Si02
#       7
#     8   8   8   8   8   8   8
#     4  11  23  40  61  87 119 157 204 252 299 353
#     4  10  23  42  63  88 120 158 207 256 298 349
#     4  11  22  36  57  89 124 157 198 246 300 364
#     4  10  21  40  62  85 120 160 200 248 299 356
#     4  11  22  39  62  89 123 160 198 242 301 365
#     4  11  22  38  60  86 120 161 202 247 304 360
#     4  10  21  37  59  88 121 158 197 244 304 364
#
# _framework density 21.344942
#
# number of rings (size 3 to 8) (size 9 to 14) (size 15 to 20)
#    0.000    1.429    0.000    7.286    0.000    4.286 
#    0.000    4.286    0.000    7.714    0.000    0.000 
#    0.000    0.000    0.000    0.000    0.000    0.000 
#
# Total GULP energy -347177.963487 kJ/mol
# GULP energy per Si atom -12399.212982 kJ/mol
# Density = 2.129636 g / cm^3
# Si number density = 21.344942 Si / 1000 Ang^3
#
#
#
# Elastic Constant Matrix: (Units=GPa)
#
#
# Indices 1 2 3 4 5 6 
#
# 1 101.9817 30.4188 17.7837 0.0000 -27.1215 0.0000
# 2 30.4188 129.9054 40.0999 0.0000 -13.7226 0.0000
# 3 17.7837 40.0999 95.5671 0.0000 -23.3095 0.0000
# 4 0.0000 0.0000 0.0000 37.4444 0.0000 -2.2209
# 5 -27.1215 -13.7226 -23.3095 0.0000 32.2568 0.0000
# 6 0.0000 0.0000 0.0000 -2.2209 0.0000 25.3294
#
#
#
# Elastic Compliance Matrix: (Units=1/GPa)
#
#
# Indices 1 2 3 4 5 6 
#
# 1 0.013205 -0.002298 0.001186 0.000000 0.010982 0.000000
# 2 -0.002298 0.009289 -0.003615 0.000000 -0.000592 0.000000
# 3 0.001186 -0.003615 0.014116 0.000000 0.009660 0.000000
# 4 0.000000 0.000000 0.000000 0.026846 0.000000 0.002354
# 5 0.010982 -0.000592 0.009660 0.000000 0.046963 0.000000
# 6 0.000000 0.000000 0.000000 0.002354 0.000000 0.039686
#
#
# Mechanical properties :
#
#
# Convention : Reuss Voigt Hill
#
# Bulk Modulus (GPa) = 36.82423 56.00655 46.41539
# Shear Modulus (GPa) = 29.65399 34.94957 32.30178
#
# Velocity S-wave (km/s) = 3.73134 4.05083 3.89436
# Velocity P-wave (km/s) = 5.98776 6.94080 6.48182
#
# Compressibility (1/GPa) = 0.02715603
#
# Stress axis : x y z
#
# Youngs Moduli (GPa) = 75.72917 107.65186 70.84169
#
# Poissons Ratio (x) = 0.24738 -0.08398
# Poissons Ratio (y) = 0.17402 0.25606
# Poissons Ratio (z) = -0.08978 0.38912
#
# Static dielectric constant tensor:
#      x y z
#    x 3.899190 0.000000 -0.246730 
#    y 0.000000 4.094500 0.000000 
#    z -0.246730 0.000000 3.958730 
# 
# 
# High freq. dielectric constant tensor:
#      x y z
#    x 1.833840 0.000000 -0.021240 
#    y 0.000000 1.850880 0.000000 
#    z -0.021240 0.000000 1.837360 
# 
# From -- ./inp_files/150450.got.cif
#   From: 2010.06.25/outbox.cif.g09.slc.cpg/sg12_76_cif.got.tgz:150450.got - 2010.06.28 00:19:55.
