data_PCOD8107304
_publ_section_title
;
Structure prediction by ZEFSAII (Michael W. Deem and Ramdas Pophale) SiO2 
 PCOD8107304
Probable space group: C 2/M
;
_chemical_formula_sum "Si O2"
_cell_formula_units_Z 56
_cell_length_a 27.842010
_cell_length_b 9.014448
_cell_length_c 18.872103
_cell_angle_alpha 90.000000
_cell_angle_beta 35.694671
_cell_angle_gamma 90.000000
_cell_volume 2763.600962
_symmetry_space_group_name_H-M "C 2/M"
_symmetry_group_IT_number 12
_symmetry_cell_setting 'monoclinic'
loop_
_space_group_symop_operation_xyz
x,y,z
-x,y,-z
-x,-y,-z
x,-y,z
1/2+x,1/2+y,z
1/2-x,1/2+y,-z
1/2-x,1/2-y,-z
1/2+x,1/2-y,z
loop_
_atom_site_type_symbol
_atom_site_label
_atom_site_fract_x
_atom_site_fract_y
_atom_site_fract_z
Si Si1 0.505064 0.175068 0.294539
Si Si2 0.441590 0.329587 0.505652
Si Si3 0.259021 0.669890 0.700908
Si Si4 0.366442 0.332621 0.051203
Si Si5 0.460605 0.329915 0.209130
Si Si6 0.171275 0.830781 0.065606
Si Si7 0.222021 0.829101 0.604674
O O1 0.455952 0.222110 0.422737
O O2 0.455170 0.228859 0.285381
O O3 0.593774 0.249601 0.192174
O O4 0.514907 0.000000 0.279798
O O5 0.500000 0.277994 0.500000
O O6 0.461257 0.500000 0.461538
O O7 0.344812 0.311724 0.641396
O O8 0.242210 0.500000 0.701914
O O9 0.182795 0.725316 0.838415
O O10 0.266766 0.757580 0.618044
O O11 0.358300 0.500000 0.090368
O O12 0.462598 0.283300 0.932932
O O13 0.328060 0.319835 0.019583
O O14 0.475274 0.500000 0.216673
O O15 0.376445 0.312385 0.266592
O O16 0.170748 0.000000 0.092290
O O17 0.250000 0.750000 0.000000
O O18 0.250000 0.750000 0.500000
O O19 0.248339 0.000000 0.568188
#
# Coordination Sequence:
#
# PCOD8107304 Si02
#       7
#     8   8   8   8   8   8   8
#     4  11  22  36  58  89 118 150 194 248 302 353
#     4  10  23  42  60  80 112 160 203 243 301 364
#     4  11  24  40  60  89 122 156 199 249 305 362
#     4   9  20  39  60  84 118 157 198 244 295 351
#     4   9  20  40  63  86 117 161 201 239 293 363
#     4  10  21  37  59  86 118 158 201 248 299 356
#     4  11  23  40  64  91 121 158 201 247 301 360
#
# _framework density 20.263417
#
# number of rings (size 3 to 8) (size 9 to 14) (size 15 to 20)
#    0.000    1.857    0.000    4.286    2.000    9.429 
#    0.000    2.857    0.000    0.000    0.000    0.000 
#    0.000    0.000    0.000    0.000    0.000    0.000 
#
# Total GULP energy -347292.260812 kJ/mol
# GULP energy per Si atom -12403.295029 kJ/mol
# Density = 2.021730 g / cm^3
# Si number density = 20.263417 Si / 1000 Ang^3
#
#
#
# Elastic Constant Matrix: (Units=GPa)
#
#
# Indices 1 2 3 4 5 6 
#
# 1 89.2426 41.3470 38.0644 0.0076 -14.8683 -0.0030
# 2 41.3470 135.7145 51.0652 -0.0023 1.6673 0.0008
# 3 38.0644 51.0652 101.6592 0.0053 4.6579 0.0009
# 4 0.0076 -0.0023 0.0053 38.5462 0.0001 1.5169
# 5 -14.8683 1.6673 4.6579 0.0001 24.5925 -0.0033
# 6 -0.0030 0.0008 0.0009 1.5169 -0.0033 31.5763
#
#
#
# Elastic Compliance Matrix: (Units=1/GPa)
#
#
# Indices 1 2 3 4 5 6 
#
# 1 0.016845 -0.003332 -0.005155 -0.000003 0.011387 0.000003
# 2 -0.003332 0.009746 -0.003556 0.000002 -0.002002 -0.000001
# 3 -0.005155 -0.003556 0.013805 -0.000001 -0.005490 -0.000001
# 4 -0.000003 0.000002 -0.000001 0.025992 -0.000002 -0.001249
# 5 0.011387 -0.002002 -0.005490 -0.000002 0.048723 0.000006
# 6 0.000003 -0.000001 -0.000001 -0.001249 0.000006 0.031729
#
#
# Mechanical properties :
#
#
# Convention : Reuss Voigt Hill
#
# Bulk Modulus (GPa) = 61.31603 65.28551 63.30077
# Shear Modulus (GPa) = 28.35034 32.01897 30.18466
#
# Velocity S-wave (km/s) = 3.74450 3.97941 3.86374
# Velocity P-wave (km/s) = 7.00144 7.30771 7.15621
#
# Compressibility (1/GPa) = 0.01630895
#
# Stress axis : x y z
#
# Youngs Moduli (GPa) = 59.36401 102.60258 72.43718
#
# Poissons Ratio (x) = 0.34189 0.37343
# Poissons Ratio (y) = 0.19781 0.25761
# Poissons Ratio (z) = 0.30604 0.36489
#
# Static dielectric constant tensor:
#      x y z
#    x 3.672420 -0.000020 -0.170530 
#    y -0.000020 3.716850 0.000030 
#    z -0.170530 0.000030 3.671640 
# 
# 
# High freq. dielectric constant tensor:
#      x y z
#    x 1.790970 0.000000 -0.014450 
#    y 0.000000 1.794160 0.000000 
#    z -0.014450 0.000000 1.795630 
# 
# From -- ./inp_files/292420.got.cif
#   From: 2010.06.25/outbox.cif.g09.slc.cpg/sg12_147_cif.got.tgz:292420.got - 2010.06.28 00:19:55.
