data_PCOD8107619
_publ_section_title
;
Structure prediction by ZEFSAII (Michael W. Deem and Ramdas Pophale) SiO2 
 PCOD8107619
Probable space group: C 2/M
;
_chemical_formula_sum "Si O2"
_cell_formula_units_Z 56
_cell_length_a 19.516943
_cell_length_b 16.709335
_cell_length_c 14.160994
_cell_angle_alpha 90.000000
_cell_angle_beta 37.114041
_cell_angle_gamma 90.000000
_cell_volume 2786.586129
_symmetry_space_group_name_H-M "C 2/M"
_symmetry_group_IT_number 12
_symmetry_cell_setting 'monoclinic'
loop_
_space_group_symop_operation_xyz
x,y,z
-x,y,-z
-x,-y,-z
x,-y,z
1/2+x,1/2+y,z
1/2-x,1/2+y,-z
1/2-x,1/2-y,-z
1/2+x,1/2-y,z
loop_
_atom_site_type_symbol
_atom_site_label
_atom_site_fract_x
_atom_site_fract_y
_atom_site_fract_z
Si Si1 0.415344 0.092873 0.285052
Si Si2 0.878503 0.841191 0.879261
Si Si3 0.780922 0.671036 0.269934
Si Si4 0.023580 0.091824 0.870721
Si Si5 0.244880 0.815227 0.586085
Si Si6 0.953197 0.090287 0.447284
Si Si7 0.653671 0.162520 0.019430
O O1 0.383010 0.143506 0.226706
O O2 0.348254 0.123355 0.452855
O O3 0.549218 0.103956 0.155103
O O4 0.388329 0.000000 0.298774
O O5 0.879771 0.751037 0.913574
O O6 0.910103 0.897908 0.932779
O O7 0.975087 0.848446 0.693967
O O8 0.758366 0.868390 0.967964
O O9 0.748140 0.765154 0.323218
O O10 0.677496 0.614031 0.411416
O O11 0.814073 0.659457 0.125629
O O12 0.126618 0.138011 0.708302
O O13 0.058719 0.000000 0.840950
O O14 0.000000 0.128222 0.000000
O O15 0.250000 0.750000 0.500000
O O16 0.000000 0.095991 0.500000
O O17 0.965025 0.000000 0.393987
#
# Coordination Sequence:
#
# PCOD8107619 Si02
#       7
#     8   8   8   8   8   8   8
#     4  11  23  38  58  87 126 165 199 240 299 365
#     4  11  22  41  60  87 122 158 200 251 299 358
#     4  11  21  39  61  89 118 159 204 251 294 353
#     4  11  23  40  65  92 116 151 202 259 308 347
#     4  10  21  37  62  85 115 155 200 246 291 347
#     4  11  22  37  60  90 123 155 195 248 302 353
#     4  11  24  38  59  88 121 160 203 241 299 361
#
# _framework density 20.096274000000001
#
# number of rings (size 3 to 8) (size 9 to 14) (size 15 to 20)
#    0.000    1.143    1.429    6.857    0.000    2.857 
#    0.000    0.000    0.000    0.000    0.000    7.000 
#    0.000    0.000    0.000    0.000    0.000    0.000 
#
# Total GULP energy -347239.153026 kJ/mol
# GULP energy per Si atom -12401.398322 kJ/mol
# Density = 2.005053 g / cm^3
# Si number density = 20.096274 Si / 1000 Ang^3
#
#
#
# Elastic Constant Matrix: (Units=GPa)
#
#
# Indices 1 2 3 4 5 6 
#
# 1 101.6117 32.8455 56.1318 0.0000 -8.6242 0.0000
# 2 32.8455 85.7783 51.4593 0.0000 3.5752 0.0000
# 3 56.1318 51.4593 136.9166 0.0000 -8.1619 0.0000
# 4 0.0000 0.0000 0.0000 31.5669 0.0000 0.9959
# 5 -8.6242 3.5752 -8.1619 0.0000 25.0947 0.0000
# 6 0.0000 0.0000 0.0000 0.9959 0.0000 28.0333
#
#
#
# Elastic Compliance Matrix: (Units=1/GPa)
#
#
# Indices 1 2 3 4 5 6 
#
# 1 0.013372 -0.002725 -0.004243 0.000000 0.003604 0.000000
# 2 -0.002725 0.016025 -0.005198 0.000000 -0.004910 0.000000
# 3 -0.004243 -0.005198 0.011171 0.000000 0.002916 0.000000
# 4 0.000000 0.000000 0.000000 0.031714 0.000000 -0.001127
# 5 0.003604 -0.004910 0.002916 0.000000 0.042735 0.000000
# 6 0.000000 0.000000 0.000000 -0.001127 0.000000 0.035712
#
#
# Mechanical properties :
#
#
# Convention : Reuss Voigt Hill
#
# Bulk Modulus (GPa) = 61.59685 67.24218 64.41951
# Shear Modulus (GPa) = 27.70493 29.19699 28.45096
#
# Velocity S-wave (km/s) = 3.71699 3.81577 3.76670
# Velocity P-wave (km/s) = 7.00991 7.27641 7.14440
#
# Compressibility (1/GPa) = 0.01623460
#
# Stress axis : x y z
#
# Youngs Moduli (GPa) = 74.78269 62.40425 89.51891
#
# Poissons Ratio (x) = 0.17005 0.37984
# Poissons Ratio (y) = 0.20378 0.46534
# Poissons Ratio (z) = 0.31731 0.32439
#
# Static dielectric constant tensor:
#      x y z
#    x 3.812230 0.000000 0.070130 
#    y 0.000000 3.808670 0.000000 
#    z 0.070130 0.000000 3.889250 
# 
# 
# High freq. dielectric constant tensor:
#      x y z
#    x 1.779850 0.000000 -0.000050 
#    y 0.000000 1.785210 0.000000 
#    z -0.000050 0.000000 1.795160 
# 
# From -- ./inp_files/234635.got.cif
#   From: 2010.06.25/outbox.cif.g09.slc.cpg/sg12_118_cif.got.tgz:234635.got - 2010.06.28 00:19:55.
