data_PCOD8107829
_publ_section_title
;
Structure prediction by ZEFSAII (Michael W. Deem and Ramdas Pophale) SiO2 
 PCOD8107829
Probable space group: C 2/M
;
_chemical_formula_sum "Si O2"
_cell_formula_units_Z 56
_cell_length_a 8.719749
_cell_length_b 25.361791
_cell_length_c 13.605787
_cell_angle_alpha 90.000000
_cell_angle_beta 110.378341
_cell_angle_gamma 90.000000
_cell_volume 2820.582861
_symmetry_space_group_name_H-M "C 2/M"
_symmetry_group_IT_number 12
_symmetry_cell_setting 'monoclinic'
loop_
_space_group_symop_operation_xyz
x,y,z
-x,y,-z
-x,-y,-z
x,-y,z
1/2+x,1/2+y,z
1/2-x,1/2+y,-z
1/2-x,1/2-y,-z
1/2+x,1/2-y,z
loop_
_atom_site_type_symbol
_atom_site_label
_atom_site_fract_x
_atom_site_fract_y
_atom_site_fract_z
Si Si1 0.350494 0.265863 0.261859
Si Si2 0.824387 0.712728 0.597533
Si Si3 0.143206 0.439529 0.228185
Si Si4 0.616581 0.878058 0.945094
Si Si5 0.766123 0.156312 0.783912
Si Si6 0.014838 0.393033 0.396167
Si Si7 0.869562 0.869795 0.157347
O O1 0.314285 0.299107 0.352537
O O2 0.526518 0.239358 0.310653
O O3 0.214940 0.218857 0.229030
O O4 0.334809 0.307351 0.168623
O O5 0.750000 0.750000 0.500000
O O6 0.873431 0.658095 0.558511
O O7 0.191033 0.500000 0.224943
O O8 0.096660 0.430101 0.331976
O O9 0.301514 0.404364 0.233679
O O10 0.988130 0.427027 0.122018
O O11 0.669178 0.842640 0.865778
O O12 0.500000 0.848302 0.000000
O O13 0.782126 0.892827 0.040151
O O14 0.662623 0.126071 0.678623
O O15 0.937257 0.125040 0.819407
O O16 0.000000 0.421777 0.500000
#
# Coordination Sequence:
#
# PCOD8107829 Si02
#       7
#     8   8   8   8   8   8   8
#     4  11  21  33  54  84 126 160 200 242 292 356
#     4  11  20  35  54  88 120 166 205 241 289 351
#     4  10  22  43  66  87 115 152 200 257 309 361
#     4   9  21  37  62  86 113 152 201 245 297 355
#     4  10  21  38  57  88 128 160 196 242 297 361
#     4  10  21  38  61  90 122 158 201 247 294 362
#     4  11  21  37  58  87 121 156 200 253 294 355
#
# _framework density 19.854053
#
# number of rings (size 3 to 8) (size 9 to 14) (size 15 to 20)
#    0.000    1.714    2.857    2.571    2.000    3.429 
#    0.000    5.000    0.000    7.714    0.000    0.000 
#    0.000    0.000    0.000    0.000    0.000    0.000 
#
# Total GULP energy -346875.854468 kJ/mol
# GULP energy per Si atom -12388.423374 kJ/mol
# Density = 1.980886 g / cm^3
# Si number density = 19.854053 Si / 1000 Ang^3
#
#
#
# Elastic Constant Matrix: (Units=GPa)
#
#
# Indices 1 2 3 4 5 6 
#
# 1 89.0810 27.6684 36.9486 0.0000 -12.3450 0.0000
# 2 27.6684 81.8788 20.5798 0.0000 5.1662 0.0000
# 3 36.9486 20.5798 101.6739 0.0000 -17.0818 0.0000
# 4 0.0000 0.0000 0.0000 18.6674 0.0000 1.3736
# 5 -12.3450 5.1662 -17.0818 0.0000 33.2370 0.0000
# 6 0.0000 0.0000 0.0000 1.3736 0.0000 18.1978
#
#
#
# Elastic Compliance Matrix: (Units=1/GPa)
#
#
# Indices 1 2 3 4 5 6 
#
# 1 0.014701 -0.004284 -0.003772 0.000000 0.004188 0.000000
# 2 -0.004284 0.014535 -0.002224 0.000000 -0.004993 0.000000
# 3 -0.003772 -0.002224 0.012564 0.000000 0.005402 0.000000
# 4 0.000000 0.000000 0.000000 0.053869 0.000000 -0.004066
# 5 0.004188 -0.004993 0.005402 0.000000 0.035195 0.000000
# 6 0.000000 0.000000 0.000000 -0.004066 0.000000 0.055259
#
#
# Mechanical properties :
#
#
# Convention : Reuss Voigt Hill
#
# Bulk Modulus (GPa) = 47.08090 49.22527 48.15308
# Shear Modulus (GPa) = 23.39057 26.51624 24.95340
#
# Velocity S-wave (km/s) = 3.43611 3.65849 3.54904
# Velocity P-wave (km/s) = 6.28549 6.53402 6.41096
#
# Compressibility (1/GPa) = 0.02124004
#
# Stress axis : x y z
#
# Youngs Moduli (GPa) = 68.02205 68.79991 79.59408
#
# Poissons Ratio (x) = 0.29474 0.30021
# Poissons Ratio (y) = 0.29141 0.17703
# Poissons Ratio (z) = 0.25656 0.15302
#
# Static dielectric constant tensor:
#      x y z
#    x 3.635580 0.000000 -0.086350 
#    y 0.000000 3.322220 0.000000 
#    z -0.086350 0.000000 3.665340 
# 
# 
# High freq. dielectric constant tensor:
#      x y z
#    x 1.790300 0.000000 -0.014210 
#    y 0.000000 1.729920 0.000000 
#    z -0.014210 0.000000 1.773480 
# 
# From -- ./inp_files/199938.got.cif
#   From: 2010.06.25/outbox.cif.g09.slc.cpg/sg12_100_cif.got.tgz:199938.got - 2010.06.28 00:19:55.
