data_PCOD8107088
_publ_section_title
;
Structure prediction by ZEFSAII (Michael W. Deem and Ramdas Pophale) SiO2 
 PCOD8107088
Probable space group: C 2/M
;
_chemical_formula_sum "Si O2"
_cell_formula_units_Z 48
_cell_length_a 31.661602
_cell_length_b 8.638066
_cell_length_c 15.871777
_cell_angle_alpha 90.000000
_cell_angle_beta 36.173512
_cell_angle_gamma 90.000000
_cell_volume 2562.111988
_symmetry_space_group_name_H-M "C 2/M"
_symmetry_group_IT_number 12
_symmetry_cell_setting 'monoclinic'
loop_
_space_group_symop_operation_xyz
x,y,z
-x,y,-z
-x,-y,-z
x,-y,z
1/2+x,1/2+y,z
1/2-x,1/2+y,-z
1/2-x,1/2-y,-z
1/2+x,1/2-y,z
loop_
_atom_site_type_symbol
_atom_site_label
_atom_site_fract_x
_atom_site_fract_y
_atom_site_fract_z
Si Si1 0.488545 0.819414 0.758872
Si Si2 0.528309 0.316399 0.864190
Si Si3 0.317774 0.320231 0.435271
Si Si4 0.146327 0.821187 0.108738
Si Si5 0.804770 0.679220 0.803298
Si Si6 0.132674 0.180799 0.463034
O O1 0.481815 0.765591 0.866664
O O2 0.413535 0.786504 0.835352
O O3 0.550401 0.725214 0.611248
O O4 0.506319 0.000000 0.725237
O O5 0.521613 0.500000 0.862095
O O6 0.610058 0.258523 0.725099
O O7 0.500000 0.261883 0.000000
O O8 0.312930 0.500000 0.428520
O O9 0.250000 0.250000 0.500000
O O10 0.320227 0.279538 0.530289
O O11 0.153206 0.781798 0.196304
O O12 0.124675 0.000000 0.133707
O O13 0.220474 0.783047 0.941909
O O14 0.818540 0.500000 0.801840
O O15 0.834442 0.718431 0.664067
O O16 0.136381 0.000000 0.434589
#
# Coordination Sequence:
#
# PCOD8107088 Si02
#       6
#     8   8   8   8   8   8
#     4  11  22  36  56  82 111 142 183 230 269 315
#     4   9  19  37  57  77 105 142 182 222 269 323
#     4   9  19  34  53  77 105 138 175 217 263 315
#     4  10  21  38  58  80 111 147 179 218 271 326
#     4  10  21  37  58  84 110 139 180 226 269 318
#     4  10  21  38  57  79 110 146 182 221 272 327
#
# _framework density 18.734546000000002
#
# number of rings (size 3 to 8) (size 9 to 14) (size 15 to 20)
#    0.000    2.167    0.000    4.000    0.000    7.667 
#    0.000    8.333    0.000    0.000    0.000    0.000 
#    0.000    0.000    0.000    0.000    0.000    0.000 
#
# Total GULP energy -297673.416267 kJ/mol
# GULP energy per Si atom -12403.059011 kJ/mol
# Density = 1.869191 g / cm^3
# Si number density = 18.734546 Si / 1000 Ang^3
#
#
#
# Elastic Constant Matrix: (Units=GPa)
#
#
# Indices 1 2 3 4 5 6 
#
# 1 109.6208 25.3380 48.6118 -0.0002 -8.3611 0.0001
# 2 25.3380 42.1124 18.2744 -0.0008 0.2721 0.0003
# 3 48.6118 18.2744 84.7169 -0.0006 15.2694 0.0002
# 4 -0.0002 -0.0008 -0.0006 27.0880 0.0000 -1.1364
# 5 -8.3611 0.2721 15.2694 0.0000 28.0908 0.0000
# 6 0.0001 0.0003 0.0002 -1.1364 0.0000 36.8211
#
#
#
# Elastic Compliance Matrix: (Units=1/GPa)
#
#
# Indices 1 2 3 4 5 6 
#
# 1 0.015194 -0.005148 -0.009348 0.000000 0.009654 0.000000
# 2 -0.005148 0.028192 -0.003107 0.000001 -0.000117 0.000000
# 3 -0.009348 -0.003107 0.020326 0.000000 -0.013801 0.000000
# 4 0.000000 0.000001 0.000000 0.036965 0.000000 0.001141
# 5 0.009654 -0.000117 -0.013801 0.000000 0.045975 0.000000
# 6 0.000000 0.000000 0.000000 0.001141 0.000000 0.027194
#
#
# Mechanical properties :
#
#
# Convention : Reuss Voigt Hill
#
# Bulk Modulus (GPa) = 35.07900 46.76653 40.92277
# Shear Modulus (GPa) = 22.87789 28.01504 25.44647
#
# Velocity S-wave (km/s) = 3.49830 3.87119 3.68946
# Velocity P-wave (km/s) = 5.92304 6.70809 6.32775
#
# Compressibility (1/GPa) = 0.02850708
#
# Stress axis : x y z
#
# Youngs Moduli (GPa) = 65.81569 35.47104 49.19897
#
# Poissons Ratio (x) = 0.18259 0.45991
# Poissons Ratio (y) = 0.33880 0.15284
# Poissons Ratio (z) = 0.61525 0.11019
#
# Static dielectric constant tensor:
#      x y z
#    x 3.273490 0.000000 0.179240 
#    y 0.000000 3.409530 0.000000 
#    z 0.179240 0.000000 3.329250 
# 
# 
# High freq. dielectric constant tensor:
#      x y z
#    x 1.730450 0.000000 0.002430 
#    y 0.000000 1.732240 0.000000 
#    z 0.002430 0.000000 1.727080 
# 
# From -- ./inp_files/248817.got.cif
#   From: 2010.06.25/outbox.cif.g09.slc.cpg/sg12_125_cif.got.tgz:248817.got - 2010.06.28 00:19:55.
