data_PCOD8107360
_publ_section_title
;
Structure prediction by ZEFSAII (Michael W. Deem and Ramdas Pophale) SiO2 
 PCOD8107360
Probable space group: C 2/M
;
_chemical_formula_sum "Si O2"
_cell_formula_units_Z 56
_cell_length_a 9.946540
_cell_length_b 17.868380
_cell_length_c 17.111321
_cell_angle_alpha 90.000000
_cell_angle_beta 108.004049
_cell_angle_gamma 90.000000
_cell_volume 2892.258487
_symmetry_space_group_name_H-M "C 2/M"
_symmetry_group_IT_number 12
_symmetry_cell_setting 'monoclinic'
loop_
_space_group_symop_operation_xyz
x,y,z
-x,y,-z
-x,-y,-z
x,-y,z
1/2+x,1/2+y,z
1/2-x,1/2+y,-z
1/2-x,1/2-y,-z
1/2+x,1/2-y,z
loop_
_atom_site_type_symbol
_atom_site_label
_atom_site_fract_x
_atom_site_fract_y
_atom_site_fract_z
Si Si1 0.124981 0.411196 0.177461
Si Si2 0.606214 0.586617 0.157649
Si Si3 0.331583 0.158717 0.089939
Si Si4 0.160340 0.321332 0.504132
Si Si5 0.771475 0.414476 0.338074
Si Si6 0.082571 0.414140 0.345665
Si Si7 0.177429 0.169515 0.900320
O O1 0.116807 0.500000 0.163395
O O2 0.138171 0.389814 0.270872
O O3 0.263607 0.377557 0.161854
O O4 0.989352 0.372560 0.114848
O O5 0.565781 0.500000 0.137771
O O6 0.739817 0.605029 0.127932
O O7 0.644124 0.601948 0.255257
O O8 0.478725 0.639614 0.108549
O O9 0.329995 0.243115 0.122981
O O10 0.276047 0.156412 0.992103
O O11 0.250000 0.250000 0.500000
O O12 0.242475 0.363447 0.588256
O O13 0.165260 0.370622 0.427369
O O14 0.000000 0.301763 0.500000
O O15 0.769273 0.500000 0.366367
O O16 0.915981 0.397227 0.318032
O O17 0.114770 0.500000 0.367797
#
# Coordination Sequence:
#
# PCOD8107360 Si02
#       7
#     8   8   8   8   8   8   8
#     4  11  22  39  62  88 116 152 202 249 289 345
#     4  11  22  39  62  88 116 152 202 249 289 345
#     4  11  23  41  59  82 117 164 197 239 294 367
#     4  10  21  37  59  89 119 148 188 234 280 338
#     4   9  18  37  62  85 111 150 195 235 281 341
#     4   9  18  37  62  85 111 150 195 235 281 341
#     4  11  25  39  57  86 123 154 195 243 310 349
#
# _framework density 19.362031000000002
#
# number of rings (size 3 to 8) (size 9 to 14) (size 15 to 20)
#    0.000    1.714    1.429    3.000    0.000    9.714 
#    2.571    0.000    0.000    0.857    0.000    0.000 
#    0.000    0.000    0.000    0.000    0.000    0.000 
#
# Total GULP energy -347318.388818 kJ/mol
# GULP energy per Si atom -12404.228172 kJ/mol
# Density = 1.931796 g / cm^3
# Si number density = 19.362031 Si / 1000 Ang^3
#
#
#
# Elastic Constant Matrix: (Units=GPa)
#
#
# Indices 1 2 3 4 5 6 
#
# 1 51.6008 24.0205 17.7235 0.0000 -6.4573 0.0000
# 2 24.0205 97.4949 49.1680 0.0000 -10.9566 0.0000
# 3 17.7235 49.1680 67.3140 0.0000 -17.6662 0.0000
# 4 0.0000 0.0000 0.0000 21.3849 0.0000 -11.7548
# 5 -6.4573 -10.9566 -17.6662 0.0000 23.2503 0.0000
# 6 0.0000 0.0000 0.0000 -11.7548 0.0000 28.2965
#
#
#
# Elastic Compliance Matrix: (Units=1/GPa)
#
#
# Indices 1 2 3 4 5 6 
#
# 1 0.022375 -0.004106 -0.002210 0.000000 0.002600 0.000000
# 2 -0.004106 0.017046 -0.011942 0.000000 -0.002182 0.000000
# 3 -0.002210 -0.011942 0.028133 0.000000 0.015134 0.000000
# 4 0.000000 0.000000 0.000000 0.060600 0.000000 0.025174
# 5 0.002600 -0.002182 0.015134 0.000000 0.054204 0.000000
# 6 0.000000 0.000000 0.000000 0.025174 0.000000 0.045798
#
#
# Mechanical properties :
#
#
# Convention : Reuss Voigt Hill
#
# Bulk Modulus (GPa) = 32.21894 44.24819 38.23357
# Shear Modulus (GPa) = 18.18066 22.95285 20.56676
#
# Velocity S-wave (km/s) = 3.06761 3.44678 3.26271
# Velocity P-wave (km/s) = 5.40587 6.22439 5.82951
#
# Compressibility (1/GPa) = 0.03103764
#
# Stress axis : x y z
#
# Youngs Moduli (GPa) = 44.69206 58.66426 35.54604
#
# Poissons Ratio (x) = 0.24089 0.07854
# Poissons Ratio (y) = 0.18352 0.42451
# Poissons Ratio (z) = 0.09875 0.70059
#
# Static dielectric constant tensor:
#      x y z
#    x 3.352410 0.000000 -0.037520 
#    y 0.000000 3.719560 0.000000 
#    z -0.037520 0.000000 3.663120 
# 
# 
# High freq. dielectric constant tensor:
#      x y z
#    x 1.742810 0.000000 -0.003710 
#    y 0.000000 1.760190 0.000000 
#    z -0.003710 0.000000 1.764010 
# 
# From -- ./inp_files/257173.got.cif
#   From: 2010.06.25/outbox.cif.g09.slc.cpg/sg12_129_cif.got.tgz:257173.got - 2010.06.28 00:19:55.
