data_PCOD8107724
_publ_section_title
;
Structure prediction by ZEFSAII (Michael W. Deem and Ramdas Pophale) SiO2 
 PCOD8107724
Probable space group: C 2/M
;
_chemical_formula_sum "Si O2"
_cell_formula_units_Z 40
_cell_length_a 8.987461
_cell_length_b 24.713126
_cell_length_c 15.814046
_cell_angle_alpha 90.000000
_cell_angle_beta 146.636843
_cell_angle_gamma 90.000000
_cell_volume 1931.639174
_symmetry_space_group_name_H-M "C 2/M"
_symmetry_group_IT_number 12
_symmetry_cell_setting 'monoclinic'
loop_
_space_group_symop_operation_xyz
x,y,z
-x,y,-z
-x,-y,-z
x,-y,z
1/2+x,1/2+y,z
1/2-x,1/2+y,-z
1/2-x,1/2-y,-z
1/2+x,1/2-y,z
loop_
_atom_site_type_symbol
_atom_site_label
_atom_site_fract_x
_atom_site_fract_y
_atom_site_fract_z
Si Si1 0.743110 0.211476 0.332017
Si Si2 0.336629 0.000000 0.006404
Si Si3 0.904931 0.887556 0.086567
Si Si4 0.292951 0.295505 0.160305
Si Si5 0.934603 0.614068 0.241728
Si Si6 0.677607 0.000000 0.333547
O O1 0.502943 0.254323 0.218974
O O2 0.825272 0.196299 0.275567
O O3 0.671397 0.158573 0.354750
O O4 0.000000 0.238332 0.500000
O O5 0.129176 0.049411 0.911170
O O6 0.500000 0.000000 0.000000
O O7 0.575939 0.000000 0.189083
O O8 0.823560 0.853686 0.130258
O O9 0.215982 0.874886 0.211208
O O10 0.704677 0.875079 0.914600
O O11 0.000000 0.270822 0.000000
O O12 0.054939 0.554461 0.316286
O O13 0.000000 0.000000 0.500000
#
# Coordination Sequence:
#
# PCOD8107724 Si02
#       6
#     8   4   8   8   8   4
#     4  12  26  42  64  93 130 166 208 261 322 374
#     4  10  21  37  65  93 126 156 208 262 308 360
#     4  10  21  38  65  95 122 160 212 264 304 360
#     4  12  24  42  66  93 123 167 214 260 311 373
#     4  10  21  39  64  93 125 162 210 257 310 370
#     4  10  21  39  65  91 126 167 202 250 316 378
#
# _framework density 20.707802000000001
#
# number of rings (size 3 to 8) (size 9 to 14) (size 15 to 20)
#    0.000    1.200    2.000    4.200    5.600    2.400 
#    0.000    0.000    0.000    1.200    0.000    0.000 
#    0.000    0.000    0.000    0.000    0.000    0.000 
#
# Total GULP energy -248006.990666 kJ/mol
# GULP energy per Si atom -12400.349533 kJ/mol
# Density = 2.066067 g / cm^3
# Si number density = 20.707802 Si / 1000 Ang^3
#
#
#
# Elastic Constant Matrix: (Units=GPa)
#
#
# Indices 1 2 3 4 5 6 
#
# 1 126.3098 35.2474 47.9323 0.0001 6.6996 0.0000
# 2 35.2474 117.5766 36.0862 0.0000 4.9312 0.0000
# 3 47.9323 36.0862 107.5479 0.0003 5.9288 0.0000
# 4 0.0001 0.0000 0.0003 7.0919 0.0002 12.7687
# 5 6.6996 4.9312 5.9288 0.0002 23.9411 0.0000
# 6 0.0000 0.0000 0.0000 12.7687 0.0000 25.7794
#
#
#
# Elastic Compliance Matrix: (Units=1/GPa)
#
#
# Indices 1 2 3 4 5 6 
#
# 1 0.009907 -0.001759 -0.003744 0.000000 -0.001483 0.000000
# 2 -0.001759 0.009827 -0.002463 0.000001 -0.000922 -0.000001
# 3 -0.003744 -0.002463 0.011869 -0.000004 -0.001385 0.000002
# 4 0.000000 0.000001 -0.000004 1.302975 -0.000011 -0.645372
# 5 -0.001483 -0.000922 -0.001385 -0.000011 0.042717 0.000005
# 6 0.000000 -0.000001 0.000002 -0.645372 0.000005 0.358448
#
#
# Mechanical properties :
#
#
# Convention : Reuss Voigt Hill
#
# Bulk Modulus (GPa) = 63.80259 65.55180 64.67719
# Shear Modulus (GPa) = 2.84593 26.84039 14.84316
#
# Velocity S-wave (km/s) = 1.17359 3.60411 2.68020
# Velocity P-wave (km/s) = 5.71963 7.00313 6.39367
#
# Compressibility (1/GPa) = 0.01567335
#
# Stress axis : x y z
#
# Youngs Moduli (GPa) = 100.93763 101.76223 84.25165
#
# Poissons Ratio (x) = 0.17898 0.31540
# Poissons Ratio (y) = 0.17753 0.20747
# Poissons Ratio (z) = 0.37786 0.25059
#
# Static dielectric constant tensor:
#      x y z
#    x 3.554570 0.000000 0.077730 
#    y 0.000000 3.751030 0.000000 
#    z 0.077730 0.000000 3.613660 
# 
# 
# High freq. dielectric constant tensor:
#      x y z
#    x 1.814420 0.000000 0.018510 
#    y 0.000000 1.820280 0.000000 
#    z 0.018510 0.000000 1.801050 
# 
# From -- ./inp_files/259782.got.cif
#   From: 2010.06.25/outbox.cif.g09.slc.cpg/sg12_130_cif.got.tgz:259782.got - 2010.06.28 00:19:55.
