data_PCOD8107177
_publ_section_title
;
Structure prediction by ZEFSAII (Michael W. Deem and Ramdas Pophale) SiO2 
 PCOD8107177
Probable space group: C 2/M
;
_chemical_formula_sum "Si O2"
_cell_formula_units_Z 64
_cell_length_a 12.445405
_cell_length_b 19.440087
_cell_length_c 13.743852
_cell_angle_alpha 90.000000
_cell_angle_beta 106.707914
_cell_angle_gamma 90.000000
_cell_volume 3184.804212
_symmetry_space_group_name_H-M "C 2/M"
_symmetry_group_IT_number 12
_symmetry_cell_setting 'monoclinic'
loop_
_space_group_symop_operation_xyz
x,y,z
-x,y,-z
-x,-y,-z
x,-y,z
1/2+x,1/2+y,z
1/2-x,1/2+y,-z
1/2-x,1/2-y,-z
1/2+x,1/2-y,z
loop_
_atom_site_type_symbol
_atom_site_label
_atom_site_fract_x
_atom_site_fract_y
_atom_site_fract_z
Si Si1 0.195912 0.922455 0.300142
Si Si2 0.254185 0.314649 0.208048
Si Si3 0.516628 0.312802 0.272251
Si Si4 0.373883 0.079083 0.949936
Si Si5 0.205701 0.922207 0.079951
Si Si6 0.827815 0.287626 0.599446
Si Si7 0.375006 0.922407 0.503992
Si Si8 0.400841 0.286577 0.916151
O O1 0.239234 0.909518 0.201341
O O2 0.299399 0.900630 0.393295
O O3 0.085561 0.882691 0.306349
O O4 0.159718 0.000000 0.306627
O O5 0.385747 0.329033 0.239195
O O6 0.186506 0.382231 0.155655
O O7 0.231329 0.289591 0.311345
O O8 0.216285 0.255721 0.119893
O O9 0.556022 0.256063 0.362366
O O10 0.550110 0.284945 0.177543
O O11 0.375377 0.000000 0.917928
O O12 0.500000 0.106300 0.000000
O O13 0.310353 0.088692 0.036234
O O14 0.115766 0.861580 0.036505
O O15 0.155601 0.000000 0.053185
O O16 0.750000 0.250000 0.500000
O O17 0.854772 0.366753 0.582353
O O18 0.500000 0.918714 0.500000
O O19 0.347008 0.000000 0.534525
O O20 0.500000 0.247930 0.000000
#
# Coordination Sequence:
#
# PCOD8107177 Si02
#       8
#     8   8   8   8   8   8   8   8
#     4   9  18  37  60  87 120 151 199 251 303 363
#     4  11  25  39  59  89 119 163 205 246 314 369
#     4  10  22  38  60  89 119 161 201 248 313 369
#     4  10  22  40  61  88 126 166 206 251 304 374
#     4   9  19  35  60  87 115 155 197 242 300 358
#     4  11  24  41  62  88 123 161 207 260 315 380
#     4  10  22  39  64  91 117 155 203 260 310 362
#     4  10  21  37  58  85 122 155 199 250 294 362
#
# _framework density 20.095427000000001
#
# number of rings (size 3 to 8) (size 9 to 14) (size 15 to 20)
#    0.000    2.000    1.250    1.125    1.750    6.250 
#    0.000    5.000    0.000    1.500    0.000    0.000 
#    0.000    0.000    0.000    0.000    0.000    0.000 
#
# Total GULP energy -396527.854396 kJ/mol
# GULP energy per Si atom -12391.495450 kJ/mol
# Density = 2.004969 g / cm^3
# Si number density = 20.095427 Si / 1000 Ang^3
#
#
#
# Elastic Constant Matrix: (Units=GPa)
#
#
# Indices 1 2 3 4 5 6 
#
# 1 115.1591 41.7663 61.9021 0.0000 29.6697 0.0000
# 2 41.7663 109.0219 62.3498 0.0000 9.6954 0.0000
# 3 61.9021 62.3498 81.1299 0.0000 27.3471 0.0000
# 4 0.0000 0.0000 0.0000 37.0410 0.0000 1.3672
# 5 29.6697 9.6954 27.3471 0.0000 36.2945 0.0000
# 6 0.0000 0.0000 0.0000 1.3672 0.0000 30.9585
#
#
#
# Elastic Compliance Matrix: (Units=1/GPa)
#
#
# Indices 1 2 3 4 5 6 
#
# 1 0.015388 0.000580 -0.010582 0.000000 -0.004761 0.000000
# 2 0.000580 0.017761 -0.016532 0.000000 0.007238 0.000000
# 3 -0.010582 -0.016532 0.038472 0.000000 -0.015921 0.000000
# 4 0.000000 0.000000 0.000000 0.027041 0.000000 -0.001194
# 5 -0.004761 0.007238 -0.015921 0.000000 0.041507 0.000000
# 6 0.000000 0.000000 0.000000 -0.001194 0.000000 0.032354
#
#
# Mechanical properties :
#
#
# Convention : Reuss Voigt Hill
#
# Bulk Modulus (GPa) = 53.90000 70.81635 62.35818
# Shear Modulus (GPa) = 21.57246 30.14500 25.85873
#
# Velocity S-wave (km/s) = 3.27999 3.87730 3.59109
# Velocity P-wave (km/s) = 6.42064 7.44051 6.94931
#
# Compressibility (1/GPa) = 0.01855287
#
# Stress axis : x y z
#
# Youngs Moduli (GPa) = 64.98513 56.30181 25.99278
#
# Poissons Ratio (x) = -0.03267 0.27506
# Poissons Ratio (y) = -0.03771 0.42972
# Poissons Ratio (z) = 0.68769 0.93080
#
# Static dielectric constant tensor:
#      x y z
#    x 3.601550 0.000000 0.279360 
#    y 0.000000 3.986080 0.000000 
#    z 0.279360 0.000000 3.860760 
# 
# 
# High freq. dielectric constant tensor:
#      x y z
#    x 1.770100 0.000000 0.011390 
#    y 0.000000 1.800340 0.000000 
#    z 0.011390 0.000000 1.786870 
# 
# From -- ./inp_files/207718.got.cif
#   From: 2010.06.25/outbox.cif.g09.slc.cpg/sg12_104_cif.got.tgz:207718.got - 2010.06.28 00:19:55.
