data_PCOD8107375
_publ_section_title
;
Structure prediction by ZEFSAII (Michael W. Deem and Ramdas Pophale) SiO2 
 PCOD8107375
Probable space group: C 2/M
;
_chemical_formula_sum "Si O2"
_cell_formula_units_Z 64
_cell_length_a 12.160503
_cell_length_b 26.904053
_cell_length_c 9.586465
_cell_angle_alpha 90.000000
_cell_angle_beta 88.256187
_cell_angle_gamma 90.000000
_cell_volume 3134.920734
_symmetry_space_group_name_H-M "C 2/M"
_symmetry_group_IT_number 12
_symmetry_cell_setting 'monoclinic'
loop_
_space_group_symop_operation_xyz
x,y,z
-x,y,-z
-x,-y,-z
x,-y,z
1/2+x,1/2+y,z
1/2-x,1/2+y,-z
1/2-x,1/2-y,-z
1/2+x,1/2-y,z
loop_
_atom_site_type_symbol
_atom_site_label
_atom_site_fract_x
_atom_site_fract_y
_atom_site_fract_z
Si Si1 0.385150 0.340362 0.867146
Si Si2 0.880199 0.443263 0.967174
Si Si3 0.815043 0.944255 0.821849
Si Si4 0.381556 0.197128 0.565017
Si Si5 0.624947 0.442897 0.495370
Si Si6 0.722443 0.887260 0.292340
Si Si7 0.886783 0.193128 0.175897
Si Si8 0.743147 0.223198 0.696737
O O1 0.387929 0.400416 0.889250
O O2 0.492883 0.323720 0.777012
O O3 0.277180 0.324355 0.787003
O O4 0.381623 0.310695 0.010484
O O5 0.894790 0.500000 0.918521
O O6 0.822973 0.415820 0.840162
O O7 0.807251 0.439374 0.110219
O O8 0.000000 0.420325 0.000000
O O9 0.815653 0.935315 0.655882
O O10 0.862274 0.000000 0.853887
O O11 0.500000 0.209648 0.500000
O O12 0.378928 0.140752 0.626118
O O13 0.289516 0.200177 0.449073
O O14 0.347443 0.239219 0.679266
O O15 0.500000 0.419649 0.500000
O O16 0.612226 0.500000 0.535698
O O17 0.706135 0.421637 0.609190
O O18 0.799080 0.842483 0.246432
O O19 0.860052 0.249263 0.225365
#
# Coordination Sequence:
#
# PCOD8107375 Si02
#       8
#     8   8   8   8   8   8   8   8
#     4  11  20  37  61  85 121 164 198 253 308 366
#     4  10  22  41  62  85 120 166 212 262 319 375
#     4  10  21  39  61  90 125 162 208 256 310 377
#     4  10  22  38  57  87 116 154 205 252 303 374
#     4  10  21  37  59  89 123 160 205 255 312 375
#     4  11  21  38  59  87 123 156 204 261 310 374
#     4  10  22  36  56  90 120 153 207 250 300 376
#     4  10  21  38  60  81 121 162 199 251 308 360
#
# _framework density 20.415189000000002
#
# number of rings (size 3 to 8) (size 9 to 14) (size 15 to 20)
#    0.000    1.750    1.250    3.000    0.000    2.000 
#    0.000    5.000    0.000    3.750    0.000    0.000 
#    0.000    0.000    0.000    0.000    0.000    0.000 
#
# Total GULP energy -396642.195942 kJ/mol
# GULP energy per Si atom -12395.068623 kJ/mol
# Density = 2.036872 g / cm^3
# Si number density = 20.415189 Si / 1000 Ang^3
#
#
#
# Elastic Constant Matrix: (Units=GPa)
#
#
# Indices 1 2 3 4 5 6 
#
# 1 85.3175 34.9744 35.8953 0.0000 -14.4783 0.0000
# 2 34.9744 92.9278 33.0197 0.0000 -0.5312 0.0000
# 3 35.8953 33.0197 95.7742 0.0000 0.0560 0.0000
# 4 0.0000 0.0000 0.0000 29.0928 0.0000 2.7522
# 5 -14.4783 -0.5312 0.0560 0.0000 31.4838 0.0000
# 6 0.0000 0.0000 0.0000 2.7522 0.0000 18.6045
#
#
#
# Elastic Compliance Matrix: (Units=1/GPa)
#
#
# Indices 1 2 3 4 5 6 
#
# 1 0.016931 -0.004640 -0.004750 0.000000 0.007716 0.000000
# 2 -0.004640 0.013537 -0.002927 0.000000 -0.001900 0.000000
# 3 -0.004750 -0.002927 0.013232 0.000000 -0.002257 0.000000
# 4 0.000000 0.000000 0.000000 0.034861 0.000000 -0.005157
# 5 0.007716 -0.001900 -0.002257 0.000000 0.035283 0.000000
# 6 0.000000 0.000000 0.000000 -0.005157 0.000000 0.054513
#
#
# Mechanical properties :
#
#
# Convention : Reuss Voigt Hill
#
# Bulk Modulus (GPa) = 52.45197 53.53316 52.99256
# Shear Modulus (GPa) = 25.08204 27.17822 26.13013
#
# Velocity S-wave (km/s) = 3.50894 3.65262 3.58150
# Velocity P-wave (km/s) = 6.49348 6.63837 6.56633
#
# Compressibility (1/GPa) = 0.01906506
#
# Stress axis : x y z
#
# Youngs Moduli (GPa) = 59.06287 73.87424 75.57451
#
# Poissons Ratio (x) = 0.34279 0.35901
# Poissons Ratio (y) = 0.27406 0.22119
# Poissons Ratio (z) = 0.28057 0.21621
#
# Static dielectric constant tensor:
#      x y z
#    x 3.808000 0.000000 -0.252250 
#    y 0.000000 3.849640 0.000000 
#    z -0.252250 0.000000 3.759650 
# 
# 
# High freq. dielectric constant tensor:
#      x y z
#    x 1.789910 0.000000 -0.013550 
#    y 0.000000 1.801680 0.000000 
#    z -0.013550 0.000000 1.799580 
# 
# From -- ./inp_files/54690.got.cif
#   From: 2010.06.25/outbox.cif.g09.slc.cpg/sg12_28_cif.got.tgz:54690.got - 2010.06.28 00:19:55.
