data_PCOD8107661
_publ_section_title
;
Structure prediction by ZEFSAII (Michael W. Deem and Ramdas Pophale) SiO2 
 PCOD8107661
Probable space group: C 2/M
;
_chemical_formula_sum "Si O2"
_cell_formula_units_Z 44
_cell_length_a 28.104191
_cell_length_b 17.981011
_cell_length_c 11.610084
_cell_angle_alpha 90.000000
_cell_angle_beta 161.990440
_cell_angle_gamma 90.000000
_cell_volume 1813.952363
_symmetry_space_group_name_H-M "C 2/M"
_symmetry_group_IT_number 12
_symmetry_cell_setting 'monoclinic'
loop_
_space_group_symop_operation_xyz
x,y,z
-x,y,-z
-x,-y,-z
x,-y,z
1/2+x,1/2+y,z
1/2-x,1/2+y,-z
1/2-x,1/2-y,-z
1/2+x,1/2-y,z
loop_
_atom_site_type_symbol
_atom_site_label
_atom_site_fract_x
_atom_site_fract_y
_atom_site_fract_z
Si Si1 0.938640 0.783432 0.478297
Si Si2 0.241699 0.500000 0.122272
Si Si3 0.325758 0.500000 0.059786
Si Si4 0.950120 0.000000 0.017519
Si Si5 0.669274 0.837732 0.003213
Si Si6 0.684196 0.378754 0.150872
Si Si7 0.164182 0.757963 0.419126
O O1 0.000000 0.820006 0.500000
O O2 0.757519 0.796220 0.095857
O O3 0.997752 0.697291 0.615928
O O4 0.029850 0.828794 0.786195
O O5 0.232991 0.500000 0.964568
O O6 0.412004 0.500000 0.570092
O O7 0.151075 0.426049 0.951500
O O8 0.500000 0.500000 0.500000
O O9 0.283223 0.427677 0.887038
O O10 0.843799 0.071486 0.799529
O O11 0.000000 0.000000 0.000000
O O12 0.765626 0.822259 0.339846
O O13 0.828495 0.322352 0.498526
O O14 0.250000 0.750000 0.500000
O O15 0.000000 0.783956 0.000000
#
# Coordination Sequence:
#
# PCOD8107661 Si02
#       7
#     8   4   4   4   8   8   8
#     4  11  21  39  66  97 134 173 220 278 333 406
#     4  12  23  39  69  98 135 174 222 285 334 394
#     4  11  18  36  62  95 135 172 228 279 333 406
#     4  11  23  36  62  96 136 168 227 274 332 396
#     4  11  24  41  65 103 129 174 229 272 343 403
#     4  10  21  37  62  98 127 175 226 280 334 399
#     4  11  25  43  67  94 139 180 229 287 344 405
#
# _framework density 24.256425
#
# number of rings (size 3 to 8) (size 9 to 14) (size 15 to 20)
#    0.000    1.091    3.636    4.364    2.545    1.455 
#    0.000    2.273    0.000   18.545    0.000    0.000 
#    0.000    0.000    0.000    0.000    0.000    0.000 
#
# Total GULP energy -272687.383266 kJ/mol
# GULP energy per Si atom -12394.881058 kJ/mol
# Density = 2.420122 g / cm^3
# Si number density = 24.256425 Si / 1000 Ang^3
#
#
#
# Elastic Constant Matrix: (Units=GPa)
#
#
# Indices 1 2 3 4 5 6 
#
# 1 147.2884 44.0753 22.8575 0.0000 -22.4729 0.0000
# 2 44.0753 193.7510 23.5316 0.0000 -4.2380 0.0000
# 3 22.8575 23.5316 78.2915 0.0000 2.9418 0.0000
# 4 0.0000 0.0000 0.0000 7.9842 0.0000 -8.3095
# 5 -22.4729 -4.2380 2.9418 0.0000 38.2263 0.0000
# 6 0.0000 0.0000 0.0000 -8.3095 0.0000 32.6930
#
#
#
# Elastic Compliance Matrix: (Units=1/GPa)
#
#
# Indices 1 2 3 4 5 6 
#
# 1 0.008327 -0.001525 -0.002156 0.000000 0.004892 0.000000
# 2 -0.001525 0.005656 -0.001248 0.000000 -0.000174 0.000000
# 3 -0.002156 -0.001248 0.013870 0.000000 -0.002474 0.000000
# 4 0.000000 0.000000 0.000000 0.170295 0.000000 0.043284
# 5 0.004892 -0.000174 -0.002474 0.000000 0.029207 0.000000
# 6 0.000000 0.000000 0.000000 0.043284 0.000000 0.041589
#
#
# Mechanical properties :
#
#
# Convention : Reuss Voigt Hill
#
# Bulk Modulus (GPa) = 55.57541 66.69554 61.13547
# Shear Modulus (GPa) = 17.55604 37.70512 27.63058
#
# Velocity S-wave (km/s) = 2.69321 3.94691 3.37872
# Velocity P-wave (km/s) = 5.71249 6.95173 6.36235
#
# Compressibility (1/GPa) = 0.01799357
#
# Stress axis : x y z
#
# Youngs Moduli (GPa) = 120.09205 176.80194 72.09570
#
# Poissons Ratio (x) = 0.26968 0.15547
# Poissons Ratio (y) = 0.18318 0.08999
# Poissons Ratio (z) = 0.25897 0.22068
#
# Static dielectric constant tensor:
#      x y z
#    x 4.541450 0.000000 -0.260330 
#    y 0.000000 3.584520 0.000000 
#    z -0.260330 0.000000 3.958080 
# 
# 
# High freq. dielectric constant tensor:
#      x y z
#    x 1.970000 0.000000 -0.021870 
#    y 0.000000 1.971500 0.000000 
#    z -0.021870 0.000000 1.943950 
# 
# From -- ./inp_files/190124.got.cif
#   From: 2010.06.25/outbox.cif.g09.slc.cpg/sg12_96_cif.got.tgz:190124.got - 2010.06.28 00:19:55.
