data_PCOD8107732
_publ_section_title
;
Structure prediction by ZEFSAII (Michael W. Deem and Ramdas Pophale) SiO2 
 PCOD8107732
Probable space group: C 2/M
;
_chemical_formula_sum "Si O2"
_cell_formula_units_Z 60
_cell_length_a 17.481257
_cell_length_b 28.383414
_cell_length_c 6.334167
_cell_angle_alpha 90.000000
_cell_angle_beta 111.160423
_cell_angle_gamma 90.000000
_cell_volume 2930.959443
_symmetry_space_group_name_H-M "C 2/M"
_symmetry_group_IT_number 12
_symmetry_cell_setting 'monoclinic'
loop_
_space_group_symop_operation_xyz
x,y,z
-x,y,-z
-x,-y,-z
x,-y,z
1/2+x,1/2+y,z
1/2-x,1/2+y,-z
1/2-x,1/2-y,-z
1/2+x,1/2-y,z
loop_
_atom_site_type_symbol
_atom_site_label
_atom_site_fract_x
_atom_site_fract_y
_atom_site_fract_z
Si Si1 0.803111 0.946781 0.071250
Si Si2 0.129326 0.628474 0.436136
Si Si3 0.172288 0.192515 0.886590
Si Si4 0.200897 0.275447 0.641462
Si Si5 0.698523 0.618132 0.574875
Si Si6 0.907438 0.123033 0.916762
Si Si7 0.615652 0.946696 0.774303
Si Si8 0.000000 0.407449 0.000000
O O1 0.830136 0.928788 0.330480
O O2 0.831211 0.000000 0.076952
O O3 0.849330 0.919058 0.933617
O O4 0.706139 0.939332 0.955954
O O5 0.138894 0.683702 0.505651
O O6 0.217794 0.607726 0.464207
O O7 0.095786 0.594110 0.585688
O O8 0.063859 0.626837 0.182527
O O9 0.147362 0.238801 0.728756
O O10 0.217530 0.157867 0.768484
O O11 0.233141 0.201742 0.138981
O O12 0.094658 0.167106 0.920546
O O13 0.250000 0.250000 0.500000
O O14 0.626239 0.636356 0.348963
O O15 0.000000 0.105152 0.000000
O O16 0.550046 0.941600 0.895267
O O17 0.607121 0.000000 0.670991
#
# Coordination Sequence:
#
# PCOD8107732 Si02
#       8
#     8   8   8   8   8   8   8   4
#     4  10  22  39  65  99 129 173 225 269 330 404
#     4  12  23  41  68  94 134 172 221 263 335 389
#     4  10  21  37  68  97 121 167 224 265 324 403
#     4  11  21  39  72  97 124 171 219 270 330 399
#     4  11  20  41  66  92 126 176 211 272 334 396
#     4  11  23  41  67  95 130 170 222 275 330 391
#     4  11  24  44  67  97 132 175 226 270 327 398
#     4  12  27  40  66  98 136 176 216 278 325 388
#
# _framework density 20.471114
#
# number of rings (size 3 to 8) (size 9 to 14) (size 15 to 20)
#    0.000    1.067    5.333    1.400    0.000    5.067 
#    0.000    0.667   22.000    0.000    0.000    0.000 
#    0.000    0.000    0.000    0.000    0.000    0.000 
#
# Total GULP energy -371926.223350 kJ/mol
# GULP energy per Si atom -12397.540778 kJ/mol
# Density = 2.042452 g / cm^3
# Si number density = 20.471114 Si / 1000 Ang^3
#
#
#
# Elastic Constant Matrix: (Units=GPa)
#
#
# Indices 1 2 3 4 5 6 
#
# 1 100.0980 30.6344 43.7684 0.0000 4.3241 0.0000
# 2 30.6344 134.8896 53.2300 0.0000 -0.9522 0.0000
# 3 43.7684 53.2300 120.2036 0.0000 0.1085 0.0000
# 4 0.0000 0.0000 0.0000 30.9045 0.0000 -4.9166
# 5 4.3241 -0.9522 0.1085 0.0000 28.6446 0.0000
# 6 0.0000 0.0000 0.0000 -4.9166 0.0000 9.6576
#
#
#
# Elastic Compliance Matrix: (Units=1/GPa)
#
#
# Indices 1 2 3 4 5 6 
#
# 1 0.012143 -0.001244 -0.003869 0.000000 -0.001860 0.000000
# 2 -0.001244 0.009114 -0.003583 0.000000 0.000504 0.000000
# 3 -0.003869 -0.003583 0.011314 0.000000 0.000422 0.000000
# 4 0.000000 0.000000 0.000000 0.035209 0.000000 0.017925
# 5 -0.001860 0.000504 0.000422 0.000000 0.035206 0.000000
# 6 0.000000 0.000000 0.000000 0.017925 0.000000 0.112671
#
#
# Mechanical properties :
#
#
# Convention : Reuss Voigt Hill
#
# Bulk Modulus (GPa) = 65.88298 67.82853 66.85575
# Shear Modulus (GPa) = 20.99871 29.01190 25.00530
#
# Velocity S-wave (km/s) = 3.20624 3.76867 3.49878
# Velocity P-wave (km/s) = 6.77937 7.22100 7.00367
#
# Compressibility (1/GPa) = 0.01517843
#
# Stress axis : x y z
#
# Youngs Moduli (GPa) = 82.35198 109.72618 88.38357
#
# Poissons Ratio (x) = 0.13652 0.34194
# Poissons Ratio (y) = 0.10246 0.31670
# Poissons Ratio (z) = 0.31861 0.39317
#
# Static dielectric constant tensor:
#      x y z
#    x 3.516080 0.000000 -0.214180 
#    y 0.000000 3.860080 0.000000 
#    z -0.214180 0.000000 3.936900 
# 
# 
# High freq. dielectric constant tensor:
#      x y z
#    x 1.781550 0.000000 -0.017590 
#    y 0.000000 1.802820 0.000000 
#    z -0.017590 0.000000 1.811430 
# 
# From -- ./inp_files/18339.got.cif
#   From: 2010.06.25/outbox.cif.g09.slc.cpg/sg12_10_cif.got.tgz:18339.got - 2010.06.28 00:19:55.
