data_PCOD8107468
_publ_section_title
;
Structure prediction by ZEFSAII (Michael W. Deem and Ramdas Pophale) SiO2 
 PCOD8107468
Probable space group: C 2/M
;
_chemical_formula_sum "Si O2"
_cell_formula_units_Z 64
_cell_length_a 20.721262
_cell_length_b 12.441529
_cell_length_c 27.941414
_cell_angle_alpha 90.000000
_cell_angle_beta 26.601403
_cell_angle_gamma 90.000000
_cell_volume 3225.551524
_symmetry_space_group_name_H-M "C 2/M"
_symmetry_group_IT_number 12
_symmetry_cell_setting 'monoclinic'
loop_
_space_group_symop_operation_xyz
x,y,z
-x,y,-z
-x,-y,-z
x,-y,z
1/2+x,1/2+y,z
1/2-x,1/2+y,-z
1/2-x,1/2-y,-z
1/2+x,1/2-y,z
loop_
_atom_site_type_symbol
_atom_site_label
_atom_site_fract_x
_atom_site_fract_y
_atom_site_fract_z
Si Si1 0.923139 0.381031 0.732564
Si Si2 0.846194 0.124232 0.308365
Si Si3 0.382607 0.380049 0.112416
Si Si4 0.129251 0.243414 0.142118
Si Si5 0.608772 0.124286 0.063899
Si Si6 0.660493 0.216378 0.513019
Si Si7 0.185246 0.730845 0.757716
Si Si8 0.981301 0.874865 0.568779
O O1 0.964946 0.500000 0.724150
O O2 0.764653 0.381876 0.817889
O O3 0.932468 0.293462 0.768215
O O4 0.025085 0.351839 0.620627
O O5 0.761333 0.141031 0.414030
O O6 0.773876 0.202393 0.316985
O O7 0.014438 0.154195 0.201370
O O8 0.833173 0.000000 0.301526
O O9 0.432828 0.500000 0.093034
O O10 0.377318 0.315485 0.164215
O O11 0.500000 0.325385 0.000000
O O12 0.147109 0.338931 0.092103
O O13 0.285740 0.186651 0.043478
O O14 0.439725 0.143612 0.167283
O O15 0.642127 0.000000 0.036201
O O16 0.750000 0.250000 0.500000
O O17 0.604868 0.317488 0.518366
O O18 0.324357 0.670722 0.686651
O O19 0.000000 0.855490 0.500000
O O20 0.990280 0.000000 0.575875
#
# Coordination Sequence:
#
# PCOD8107468 Si02
#       8
#     8   8   8   8   8   8   8   8
#     4  11  22  38  62  88 120 160 201 248 307 370
#     4  11  23  39  62  91 125 167 207 257 319 374
#     4  10  21  37  60  88 120 158 196 246 308 368
#     4  10  21  39  59  88 126 160 203 257 302 378
#     4  10  21  37  62  90 119 159 205 256 311 365
#     4  12  24  44  62  93 132 163 214 266 315 385
#     4  11  21  40  64  91 123 158 208 263 306 380
#     4  11  24  44  69  94 125 168 214 265 325 381
#
# _framework density 19.841567000000001
#
# number of rings (size 3 to 8) (size 9 to 14) (size 15 to 20)
#    0.000    1.250    3.750    2.625    0.000    1.000 
#    0.000    4.375    0.000    1.500    0.000    0.000 
#    0.000    0.000    0.000    0.000    0.000    0.000 
#
# Total GULP energy -396848.244475 kJ/mol
# GULP energy per Si atom -12401.507640 kJ/mol
# Density = 1.979641 g / cm^3
# Si number density = 19.841567 Si / 1000 Ang^3
#
#
#
# Elastic Constant Matrix: (Units=GPa)
#
#
# Indices 1 2 3 4 5 6 
#
# 1 79.0624 38.5330 22.2299 -0.0001 1.9432 -0.0006
# 2 38.5330 115.1770 33.8992 -0.0001 -2.3038 -0.0014
# 3 22.2299 33.8992 102.6911 0.0091 2.2662 -0.0021
# 4 -0.0001 -0.0001 0.0091 18.6172 -0.0003 15.8719
# 5 1.9432 -2.3038 2.2662 -0.0003 31.3488 -0.0038
# 6 -0.0006 -0.0014 -0.0021 15.8719 -0.0038 9.7018
#
#
#
# Elastic Compliance Matrix: (Units=1/GPa)
#
#
# Indices 1 2 3 4 5 6 
#
# 1 0.015453 -0.004670 -0.001778 -0.000004 -0.001173 0.000005
# 2 -0.004670 0.011056 -0.002667 -0.000001 0.001295 0.000003
# 3 -0.001778 -0.002667 0.011023 0.000017 -0.000883 -0.000027
# 4 -0.000004 -0.000001 0.000017 -0.136079 0.000024 0.222621
# 5 -0.001173 0.001295 -0.000883 0.000024 0.032131 -0.000027
# 6 0.000005 0.000003 -0.000027 0.222621 -0.000027 -0.261129
#
#
# Mechanical properties :
#
#
# Convention : Reuss Voigt Hill
#
# Bulk Modulus (GPa) = 51.80966 54.02830 52.91898
# Shear Modulus (GPa) = -16.50808 25.41813 4.45502
#
# Velocity S-wave (km/s) = -2.88756 3.58307 1.50006
# Velocity P-wave (km/s) = 3.87956 6.66384 5.45242
#
# Compressibility (1/GPa) = 0.01930142
#
# Stress axis : x y z
#
# Youngs Moduli (GPa) = 64.71250 90.45183 90.72202
#
# Poissons Ratio (x) = 0.42242 0.16127
# Poissons Ratio (y) = 0.30221 0.24197
# Poissons Ratio (z) = 0.11503 0.24125
#
# Static dielectric constant tensor:
#      x y z
#    x 2.486210 0.000630 -0.671350 
#    y 0.000630 3.643150 0.000390 
#    z -0.671350 0.000390 3.387550 
# 
# 
# High freq. dielectric constant tensor:
#      x y z
#    x 1.763460 0.000000 -0.003340 
#    y 0.000000 1.772150 0.000000 
#    z -0.003340 0.000000 1.793550 
# 
# From -- ./inp_files/366016.got.cif
#   From: 2010.06.25/outbox.cif.g09.slc.cpg/sg12_184_cif.got.tgz:366016.got - 2010.06.28 00:19:55.
