data_PCOD8107862
_publ_section_title
;
Structure prediction by ZEFSAII (Michael W. Deem and Ramdas Pophale) SiO2 
 PCOD8107862
Probable space group: C 2/M
;
_chemical_formula_sum "Si O2"
_cell_formula_units_Z 56
_cell_length_a 13.127009
_cell_length_b 13.592669
_cell_length_c 16.536661
_cell_angle_alpha 90.000000
_cell_angle_beta 121.184215
_cell_angle_gamma 90.000000
_cell_volume 2524.305346
_symmetry_space_group_name_H-M "C 2/M"
_symmetry_group_IT_number 12
_symmetry_cell_setting 'monoclinic'
loop_
_space_group_symop_operation_xyz
x,y,z
-x,y,-z
-x,-y,-z
x,-y,z
1/2+x,1/2+y,z
1/2-x,1/2+y,-z
1/2-x,1/2-y,-z
1/2+x,1/2-y,z
loop_
_atom_site_type_symbol
_atom_site_label
_atom_site_fract_x
_atom_site_fract_y
_atom_site_fract_z
Si Si1 0.277834 0.884721 0.886150
Si Si2 0.893745 0.889038 0.893320
Si Si3 0.201001 0.111856 0.430861
Si Si4 0.073219 0.706406 0.186600
Si Si5 0.283293 0.301765 0.390682
Si Si6 0.430592 0.614131 0.315624
Si Si7 0.678020 0.117075 0.915667
O O1 0.389898 0.840184 0.884424
O O2 0.151836 0.855107 0.793879
O O3 0.296452 0.000000 0.892159
O O4 0.277423 0.846094 0.978012
O O5 0.921335 0.824356 0.825298
O O6 0.774410 0.850012 0.888550
O O7 0.877256 0.000000 0.854632
O O8 0.000000 0.883505 0.000000
O O9 0.287109 0.187103 0.419042
O O10 0.213360 0.125894 0.531794
O O11 0.066174 0.137621 0.348382
O O12 0.235572 0.000000 0.422671
O O13 0.163060 0.672072 0.293044
O O14 0.943767 0.669861 0.159052
O O15 0.396562 0.321638 0.380327
O O16 0.413449 0.500000 0.331395
O O17 0.661475 0.000000 0.908229
#
# Coordination Sequence:
#
# PCOD8107862 Si02
#       7
#     8   8   8   8   8   8   8
#     4   9  18  33  56  87 115 143 189 239 276 321
#     4  10  23  40  56  79 114 155 195 232 271 320
#     4  10  21  39  62  84 108 143 185 230 284 338
#     4  11  22  35  57  84 115 150 187 228 278 333
#     4  10  22  36  57  87 115 140 182 236 280 330
#     4   9  18  35  60  85 110 145 187 232 281 329
#     4  10  21  38  58  81 115 155 189 226 275 329
#
# _framework density 22.184321000000001
#
# number of rings (size 3 to 8) (size 9 to 14) (size 15 to 20)
#    0.000    2.143    0.000    2.571    0.000   10.286 
#    0.000    2.857    0.000    8.571    0.000    0.000 
#    0.000    0.000    0.000    0.000    0.000    0.000 
#
# Total GULP energy -347330.718722 kJ/mol
# GULP energy per Si atom -12404.668526 kJ/mol
# Density = 2.213383 g / cm^3
# Si number density = 22.184321 Si / 1000 Ang^3
#
#
#
# Elastic Constant Matrix: (Units=GPa)
#
#
# Indices 1 2 3 4 5 6 
#
# 1 78.6260 33.8007 8.7638 0.0000 10.9142 0.0000
# 2 33.8007 54.9496 4.7791 0.0000 3.1436 0.0000
# 3 8.7638 4.7791 56.8931 0.0000 10.9794 0.0000
# 4 0.0000 0.0000 0.0000 23.6056 0.0000 0.4315
# 5 10.9142 3.1436 10.9794 0.0000 22.7798 0.0000
# 6 0.0000 0.0000 0.0000 0.4315 0.0000 35.1065
#
#
#
# Elastic Compliance Matrix: (Units=1/GPa)
#
#
# Indices 1 2 3 4 5 6 
#
# 1 0.018444 -0.010892 -0.000563 0.000000 -0.007062 0.000000
# 2 -0.010892 0.024846 -0.000832 0.000000 0.002191 0.000000
# 3 -0.000563 -0.000832 0.019470 0.000000 -0.009000 0.000000
# 4 0.000000 0.000000 0.000000 0.042372 0.000000 -0.000521
# 5 -0.007062 0.002191 -0.009000 0.000000 0.051317 0.000000
# 6 0.000000 0.000000 0.000000 -0.000521 0.000000 0.028491
#
#
# Mechanical properties :
#
#
# Convention : Reuss Voigt Hill
#
# Bulk Modulus (GPa) = 26.18854 31.68398 28.93626
# Shear Modulus (GPa) = 22.49778 25.84007 24.16893
#
# Velocity S-wave (km/s) = 3.18800 3.41660 3.30428
# Velocity P-wave (km/s) = 5.03802 5.46602 5.25638
#
# Compressibility (1/GPa) = 0.03818464
#
# Stress axis : x y z
#
# Youngs Moduli (GPa) = 54.21802 40.24855 51.36040
#
# Poissons Ratio (x) = 0.43840 0.02893
# Poissons Ratio (y) = 0.59056 0.04273
# Poissons Ratio (z) = 0.03054 0.03349
#
# Static dielectric constant tensor:
#      x y z
#    x 3.889780 0.000000 0.036640 
#    y 0.000000 4.085590 0.000000 
#    z 0.036640 0.000000 4.004050 
# 
# 
# High freq. dielectric constant tensor:
#      x y z
#    x 1.861140 0.000000 0.000040 
#    y 0.000000 1.882680 0.000000 
#    z 0.000040 0.000000 1.872050 
# 
# From -- ./inp_files/263447.got.cif
#   From: 2010.06.25/outbox.cif.g09.slc.cpg/sg12_132_cif.got.tgz:263447.got - 2010.06.28 00:19:55.
