data_PCOD8107800
_publ_section_title
;
Structure prediction by ZEFSAII (Michael W. Deem and Ramdas Pophale) SiO2 
 PCOD8107800
Probable space group: C 2/M
;
_chemical_formula_sum "Si O2"
_cell_formula_units_Z 64
_cell_length_a 23.007626
_cell_length_b 8.766120
_cell_length_c 29.911496
_cell_angle_alpha 90.000000
_cell_angle_beta 33.958962
_cell_angle_gamma 90.000000
_cell_volume 3369.903623
_symmetry_space_group_name_H-M "C 2/M"
_symmetry_group_IT_number 12
_symmetry_cell_setting 'monoclinic'
loop_
_space_group_symop_operation_xyz
x,y,z
-x,y,-z
-x,-y,-z
x,-y,z
1/2+x,1/2+y,z
1/2-x,1/2+y,-z
1/2-x,1/2-y,-z
1/2+x,1/2-y,z
loop_
_atom_site_type_symbol
_atom_site_label
_atom_site_fract_x
_atom_site_fract_y
_atom_site_fract_z
Si Si1 0.657316 0.179472 0.616302
Si Si2 0.399348 0.670888 0.012257
Si Si3 0.640979 0.682155 0.057273
Si Si4 0.623844 0.820468 0.536224
Si Si5 0.723472 0.177102 0.729838
Si Si6 0.462670 0.321002 0.572298
Si Si7 0.143705 0.172640 0.866381
Si Si8 0.065480 0.180440 0.761236
O O1 0.612656 0.223866 0.595838
O O2 0.773221 0.243365 0.549649
O O3 0.581634 0.248455 0.702031
O O4 0.662615 0.000000 0.619597
O O5 0.355930 0.500000 0.037361
O O6 0.341079 0.741743 0.093015
O O7 0.374335 0.755749 0.982150
O O8 0.521913 0.666475 0.937529
O O9 0.642288 0.500000 0.055968
O O10 0.546979 0.737686 0.149216
O O11 0.750000 0.750000 0.000000
O O12 0.523413 0.764282 0.573235
O O13 0.636031 0.000000 0.522754
O O14 0.842724 0.225558 0.649804
O O15 0.694203 0.212414 0.799452
O O16 0.655427 0.271816 0.738306
O O17 0.706411 0.000000 0.730282
O O18 0.500000 0.266130 0.500000
O O19 0.480673 0.500000 0.567874
O O20 0.188844 0.000000 0.832059
O O21 0.068766 0.000000 0.754966
#
# Coordination Sequence:
#
# PCOD8107800 Si02
#       8
#     8   8   8   8   8   8   8   8
#     4  10  21  38  61  88 118 151 188 234 284 331
#     4   8  15  32  57  79 103 139 183 225 274 332
#     4  10  21  38  57  81 111 146 187 233 284 338
#     4  10  21  38  61  88 116 151 195 233 273 332
#     4  11  22  35  55  85 117 147 185 237 292 339
#     4  10  22  39  57  80 116 157 188 227 286 337
#     4   9  16  32  58  80 103 141 185 229 276 334
#     4  11  22  38  61  85 111 147 194 238 279 338
#
# _framework density 18.991641999999999
#
# number of rings (size 3 to 8) (size 9 to 14) (size 15 to 20)
#    0.000    2.125    1.250    3.000    0.000    4.750 
#    2.250    1.875    0.000    0.000    0.000    0.000 
#    0.000    0.000    0.000    0.000    0.000    0.000 
#
# Total GULP energy -396638.849257 kJ/mol
# GULP energy per Si atom -12394.964039 kJ/mol
# Density = 1.894842 g / cm^3
# Si number density = 18.991642 Si / 1000 Ang^3
#
#
#
# Elastic Constant Matrix: (Units=GPa)
#
#
# Indices 1 2 3 4 5 6 
#
# 1 120.1755 38.1963 81.8031 -0.0422 10.3330 -0.1975
# 2 38.1963 52.4529 33.9219 -0.0352 0.2115 -0.0336
# 3 81.8031 33.9219 126.1403 0.0145 15.3888 -0.0110
# 4 -0.0422 -0.0352 0.0145 31.1189 -0.0009 -0.0597
# 5 10.3330 0.2115 15.3888 -0.0009 34.7682 -0.0138
# 6 -0.1975 -0.0336 -0.0110 -0.0597 -0.0138 31.2741
#
#
#
# Elastic Compliance Matrix: (Units=1/GPa)
#
#
# Indices 1 2 3 4 5 6 
#
# 1 0.016402 -0.006215 -0.008854 0.000019 -0.000918 0.000093
# 2 -0.006215 0.025685 -0.003259 0.000022 0.003133 -0.000011
# 3 -0.008854 -0.003259 0.015034 -0.000023 -0.004003 -0.000056
# 4 0.000019 0.000022 -0.000023 0.032135 0.000005 0.000062
# 5 -0.000918 0.003133 -0.004003 0.000005 0.030788 0.000010
# 6 0.000093 -0.000011 -0.000056 0.000062 0.000010 0.031976
#
#
# Mechanical properties :
#
#
# Convention : Reuss Voigt Hill
#
# Bulk Modulus (GPa) = 48.86030 67.40128 58.13079
# Shear Modulus (GPa) = 25.57567 29.08873 27.33220
#
# Velocity S-wave (km/s) = 3.67370 3.91789 3.79775
# Velocity P-wave (km/s) = 6.61648 7.48555 7.06439
#
# Compressibility (1/GPa) = 0.02046651
#
# Stress axis : x y z
#
# Youngs Moduli (GPa) = 60.96752 38.93251 66.51439
#
# Poissons Ratio (x) = 0.24195 0.58890
# Poissons Ratio (y) = 0.37888 0.21680
# Poissons Ratio (z) = 0.53979 0.12690
#
# Static dielectric constant tensor:
#      x y z
#    x 3.552610 -0.000030 0.140080 
#    y -0.000030 3.375830 0.000010 
#    z 0.140080 0.000010 3.553940 
# 
# 
# High freq. dielectric constant tensor:
#      x y z
#    x 1.743260 0.000000 0.018020 
#    y 0.000000 1.724030 0.000000 
#    z 0.018020 0.000000 1.742400 
# 
# From -- ./inp_files/382376.got.cif
#   From: 2010.06.25/outbox.cif.g09.slc.cpg/sg12_192_cif.got.tgz:382376.got - 2010.06.28 00:19:55.
