data_PCOD8107735
_publ_section_title
;
Structure prediction by ZEFSAII (Michael W. Deem and Ramdas Pophale) SiO2 
 PCOD8107735
Probable space group: C 2/M
;
_chemical_formula_sum "Si O2"
_cell_formula_units_Z 64
_cell_length_a 23.848801
_cell_length_b 9.035481
_cell_length_c 16.786795
_cell_angle_alpha 90.000000
_cell_angle_beta 86.481001
_cell_angle_gamma 90.000000
_cell_volume 3610.488603
_symmetry_space_group_name_H-M "C 2/M"
_symmetry_group_IT_number 12
_symmetry_cell_setting 'monoclinic'
loop_
_space_group_symop_operation_xyz
x,y,z
-x,y,-z
-x,-y,-z
x,-y,z
1/2+x,1/2+y,z
1/2-x,1/2+y,-z
1/2-x,1/2-y,-z
1/2+x,1/2-y,z
loop_
_atom_site_type_symbol
_atom_site_label
_atom_site_fract_x
_atom_site_fract_y
_atom_site_fract_z
Si Si1 0.623077 0.829349 0.217727
Si Si2 0.199271 0.175441 0.336263
Si Si3 0.617074 0.172433 0.458012
Si Si4 0.174334 0.329414 0.053108
Si Si5 0.191742 0.171306 0.723932
Si Si6 0.587931 0.329651 0.621922
Si Si7 0.202868 0.172822 0.901375
Si Si8 0.476331 0.168625 0.663300
O O1 0.666908 0.726737 0.260029
O O2 0.626297 0.794350 0.123081
O O3 0.559919 0.801610 0.253645
O O4 0.640828 0.000000 0.232949
O O5 0.169932 0.240365 0.417557
O O6 0.262865 0.233658 0.328453
O O7 0.199051 0.000000 0.341712
O O8 0.605389 0.228587 0.546980
O O9 0.561796 0.201433 0.410297
O O10 0.632355 0.000000 0.458470
O O11 0.175761 0.500000 0.030224
O O12 0.233224 0.279100 0.086932
O O13 0.162253 0.243570 0.972028
O O14 0.131648 0.194108 0.689067
O O15 0.186605 0.230290 0.815034
O O16 0.210816 0.000000 0.721393
O O17 0.585178 0.500000 0.594865
O O18 0.527689 0.281048 0.660468
O O19 0.193834 0.000000 0.907860
O O20 0.498489 0.000000 0.658925
#
# Coordination Sequence:
#
# PCOD8107735 Si02
#       8
#     8   8   8   8   8   8   8   8
#     4   9  17  33  54  76 106 142 169 202 259 317
#     4  11  21  32  52  81 106 131 170 217 257 296
#     4  10  21  38  58  76 102 137 169 208 262 316
#     4   9  16  28  50  77 104 132 167 207 250 299
#     4  10  21  38  53  69 104 148 175 200 254 319
#     4  11  23  36  54  77 101 133 176 220 257 298
#     4   9  17  30  49  72 103 137 168 205 248 301
#     4   9  19  35  56  77 100 134 173 209 255 311
#
# _framework density 17.726132
#
# number of rings (size 3 to 8) (size 9 to 14) (size 15 to 20)
#    0.000    2.250    1.250    3.000    0.000    6.500 
#    0.000    0.000    0.000    0.750    0.000    5.250 
#    0.000    0.000    0.000    0.000    0.000    0.000 
#
# Total GULP energy -396839.144992 kJ/mol
# GULP energy per Si atom -12401.223281 kJ/mol
# Density = 1.768579 g / cm^3
# Si number density = 17.726132 Si / 1000 Ang^3
#
#
#
# Elastic Constant Matrix: (Units=GPa)
#
#
# Indices 1 2 3 4 5 6 
#
# 1 66.2046 45.9808 62.7164 0.0000 -0.6909 0.0000
# 2 45.9808 86.1100 45.2994 0.0000 -3.3638 0.0000
# 3 62.7164 45.2994 117.2175 0.0000 -22.1946 0.0000
# 4 0.0000 0.0000 0.0000 29.6903 0.0000 -4.8398
# 5 -0.6909 -3.3638 -22.1946 0.0000 18.2690 0.0000
# 6 0.0000 0.0000 0.0000 -4.8398 0.0000 27.3549
#
#
#
# Elastic Compliance Matrix: (Units=1/GPa)
#
#
# Indices 1 2 3 4 5 6 
#
# 1 0.052326 -0.013812 -0.029567 0.000000 -0.036485 0.000000
# 2 -0.013812 0.018645 0.000956 0.000000 0.004072 0.000000
# 3 -0.029567 0.000956 0.030915 0.000000 0.036615 0.000000
# 4 0.000000 0.000000 0.000000 0.034681 0.000000 0.006136
# 5 -0.036485 0.004072 0.036615 0.000000 0.098590 0.000000
# 6 0.000000 0.000000 0.000000 0.006136 0.000000 0.037642
#
#
# Mechanical properties :
#
#
# Convention : Reuss Voigt Hill
#
# Bulk Modulus (GPa) = 58.69217 64.16949 61.43083
# Shear Modulus (GPa) = 13.76174 22.76520 18.26347
#
# Velocity S-wave (km/s) = 2.78933 3.58756 3.21333
# Velocity P-wave (km/s) = 6.59972 7.31026 6.96406
#
# Compressibility (1/GPa) = 0.01703805
#
# Stress axis : x y z
#
# Youngs Moduli (GPa) = 19.11088 53.63458 32.34721
#
# Poissons Ratio (x) = 0.74080 0.95642
# Poissons Ratio (y) = 0.26396 -0.03091
# Poissons Ratio (z) = 0.56506 -0.05125
#
# Static dielectric constant tensor:
#      x y z
#    x 3.108760 0.000000 -0.204290 
#    y 0.000000 3.275040 0.000000 
#    z -0.204290 0.000000 3.418990 
# 
# 
# High freq. dielectric constant tensor:
#      x y z
#    x 1.659540 0.000000 -0.020700 
#    y 0.000000 1.685960 0.000000 
#    z -0.020700 0.000000 1.688480 
# 
# From -- ./inp_files/281302.got.cif
#   From: 2010.06.25/outbox.cif.g09.slc.cpg/sg12_141_cif.got.tgz:281302.got - 2010.06.28 00:19:55.
