data_PCOD8107960
_publ_section_title
;
Structure prediction by ZEFSAII (Michael W. Deem and Ramdas Pophale) SiO2 
 PCOD8107960
Probable space group: C 2/M
;
_chemical_formula_sum "Si O2"
_cell_formula_units_Z 48
_cell_length_a 31.816010
_cell_length_b 8.401316
_cell_length_c 15.875832
_cell_angle_alpha 90.000000
_cell_angle_beta 35.876434
_cell_angle_gamma 90.000000
_cell_volume 2486.887542
_symmetry_space_group_name_H-M "C 2/M"
_symmetry_group_IT_number 12
_symmetry_cell_setting 'monoclinic'
loop_
_space_group_symop_operation_xyz
x,y,z
-x,y,-z
-x,-y,-z
x,-y,z
1/2+x,1/2+y,z
1/2-x,1/2+y,-z
1/2-x,1/2-y,-z
1/2+x,1/2-y,z
loop_
_atom_site_type_symbol
_atom_site_label
_atom_site_fract_x
_atom_site_fract_y
_atom_site_fract_z
Si Si1 0.151652 0.315301 0.109897
Si Si2 0.683008 0.313727 0.558167
Si Si3 0.463969 0.812657 0.146048
Si Si4 0.127640 0.316872 0.481700
Si Si5 0.480915 0.685512 0.774328
Si Si6 0.696256 0.316709 0.207351
O O1 0.155241 0.500000 0.128293
O O2 0.081286 0.279658 0.171454
O O3 0.149708 0.215189 0.199242
O O4 0.221319 0.267086 0.942288
O O5 0.690295 0.500000 0.531347
O O6 0.750000 0.250000 0.500000
O O7 0.611777 0.276309 0.726801
O O8 0.681223 0.229263 0.470178
O O9 0.515396 0.753131 0.137148
O O10 0.450930 0.000000 0.175588
O O11 0.500000 0.765530 0.000000
O O12 0.105339 0.500000 0.526820
O O13 0.166990 0.290621 0.329957
O O14 0.055635 0.212127 0.604315
O O15 0.462583 0.500000 0.805948
O O16 0.688909 0.500000 0.245245
#
# Coordination Sequence:
#
# PCOD8107960 Si02
#       6
#     8   8   8   8   8   8
#     4  10  21  38  59  83 113 147 184 228 277 329
#     4  11  22  38  59  83 113 147 186 230 277 328
#     4  10  21  38  59  83 113 147 184 228 278 330
#     4  11  22  38  59  83 113 147 186 229 277 330
#     4  11  22  37  58  83 113 147 186 230 276 328
#     4  10  21  38  59  84 114 146 184 229 277 329
#
# _framework density 19.301234999999998
#
# number of rings (size 3 to 8) (size 9 to 14) (size 15 to 20)
#    0.000    1.500    0.000    8.000    0.000    5.333 
#    0.000    5.000    0.000    0.000    0.000    0.000 
#    0.000    0.000    0.000    0.000    0.000    0.000 
#
# Total GULP energy -297742.478108 kJ/mol
# GULP energy per Si atom -12405.936588 kJ/mol
# Density = 1.925730 g / cm^3
# Si number density = 19.301235 Si / 1000 Ang^3
#
#
#
# Elastic Constant Matrix: (Units=GPa)
#
#
# Indices 1 2 3 4 5 6 
#
# 1 130.3456 10.5973 62.4452 -0.0006 -8.7242 0.0000
# 2 10.5973 69.7429 13.1131 -0.0033 8.3831 0.0004
# 3 62.4452 13.1131 95.6229 -0.0011 22.2572 0.0001
# 4 -0.0006 -0.0033 -0.0011 32.2514 0.0000 1.4857
# 5 -8.7242 8.3831 22.2572 0.0000 30.4065 0.0001
# 6 0.0000 0.0004 0.0001 1.4857 0.0001 35.8714
#
#
#
# Elastic Compliance Matrix: (Units=1/GPa)
#
#
# Indices 1 2 3 4 5 6 
#
# 1 0.014837 -0.001543 -0.012738 0.000000 0.014006 0.000000
# 2 -0.001543 0.015126 0.000009 0.000002 -0.004619 0.000000
# 3 -0.012738 0.000009 0.023656 0.000001 -0.020973 0.000000
# 4 0.000000 0.000002 0.000001 0.031066 -0.000001 -0.001287
# 5 0.014006 -0.004619 -0.020973 -0.000001 0.053532 0.000000
# 6 0.000000 0.000000 0.000000 -0.001287 0.000000 0.027931
#
#
# Mechanical properties :
#
#
# Convention : Reuss Voigt Hill
#
# Bulk Modulus (GPa) = 39.87932 52.00253 45.94092
# Shear Modulus (GPa) = 24.62430 33.67624 29.15027
#
# Velocity S-wave (km/s) = 3.57569 4.18158 3.89045
# Velocity P-wave (km/s) = 6.14442 7.09332 6.63585
#
# Compressibility (1/GPa) = 0.02507565
#
# Stress axis : x y z
#
# Youngs Moduli (GPa) = 67.39862 66.10920 42.27179
#
# Poissons Ratio (x) = 0.10201 0.53844
# Poissons Ratio (y) = 0.10400 -0.00036
# Poissons Ratio (z) = 0.85850 -0.00056
#
# Static dielectric constant tensor:
#      x y z
#    x 3.551340 0.000000 0.037220 
#    y 0.000000 3.632670 0.000000 
#    z 0.037220 0.000000 3.453320 
# 
# 
# High freq. dielectric constant tensor:
#      x y z
#    x 1.756340 0.000000 0.003140 
#    y 0.000000 1.769420 0.000000 
#    z 0.003140 0.000000 1.747980 
# 
# From -- ./inp_files/229959.got.cif
#   From: 2010.06.25/outbox.cif.g09.slc.cpg/sg12_115_cif.got.tgz:229959.got - 2010.06.28 00:19:55.
