data_PCOD8107284
_publ_section_title
;
Structure prediction by ZEFSAII (Michael W. Deem and Ramdas Pophale) SiO2 
 PCOD8107284
Probable space group: C 2/M
;
_chemical_formula_sum "Si O2"
_cell_formula_units_Z 56
_cell_length_a 23.471244
_cell_length_b 8.960069
_cell_length_c 14.506182
_cell_angle_alpha 90.000000
_cell_angle_beta 110.200987
_cell_angle_gamma 90.000000
_cell_volume 2863.049653
_symmetry_space_group_name_H-M "C 2/M"
_symmetry_group_IT_number 12
_symmetry_cell_setting 'monoclinic'
loop_
_space_group_symop_operation_xyz
x,y,z
-x,y,-z
-x,-y,-z
x,-y,z
1/2+x,1/2+y,z
1/2-x,1/2+y,-z
1/2-x,1/2-y,-z
1/2+x,1/2-y,z
loop_
_atom_site_type_symbol
_atom_site_label
_atom_site_fract_x
_atom_site_fract_y
_atom_site_fract_z
Si Si1 0.086600 0.325981 0.805998
Si Si2 0.728183 0.824679 0.894763
Si Si3 0.702863 0.170405 0.361269
Si Si4 0.168464 0.327725 0.145672
Si Si5 0.674401 0.824410 0.546130
Si Si6 0.940419 0.176126 0.022616
Si Si7 0.941808 0.322334 0.413340
O O1 0.075340 0.500000 0.818523
O O2 0.157811 0.290425 0.839388
O O3 0.054818 0.235163 0.870403
O O4 0.056322 0.273854 0.692826
O O5 0.766302 0.747605 0.835039
O O6 0.741560 0.000000 0.904516
O O7 0.750000 0.750000 0.000000
O O8 0.657094 0.188768 0.249185
O O9 0.668249 0.221647 0.434772
O O10 0.763087 0.265317 0.377252
O O11 0.724134 0.000000 0.383550
O O12 0.169586 0.500000 0.114831
O O13 0.117180 0.245897 0.059640
O O14 0.617861 0.755134 0.570263
O O15 0.674525 0.000000 0.559828
O O16 0.932361 0.000000 0.019870
O O17 0.000000 0.225209 0.000000
O O18 0.940480 0.500000 0.418869
O O19 0.000000 0.257805 0.500000
#
# Coordination Sequence:
#
# PCOD8107284 Si02
#       7
#     8   8   8   8   8   8   8
#     4  10  21  37  59  86 113 146 188 234 284 337
#     4  11  21  34  56  86 117 149 188 234 283 336
#     4   9  19  33  53  82 113 144 181 226 278 331
#     4  11  22  36  56  85 116 149 188 231 281 340
#     4   9  17  33  55  80 110 145 183 227 277 329
#     4  11  25  42  58  78 108 148 190 232 282 341
#     4   9  18  33  56  84 111 142 185 231 274 325
#
# _framework density 19.559564000000002
#
# number of rings (size 3 to 8) (size 9 to 14) (size 15 to 20)
#    0.000    2.000    1.429    2.143    0.000    5.143 
#    0.000    3.571    0.000    1.714    0.000    0.000 
#    0.000    0.000    0.000    0.000    0.000    0.000 
#
# Total GULP energy -347194.073270 kJ/mol
# GULP energy per Si atom -12399.788331 kJ/mol
# Density = 1.951505 g / cm^3
# Si number density = 19.559564 Si / 1000 Ang^3
#
#
#
# Elastic Constant Matrix: (Units=GPa)
#
#
# Indices 1 2 3 4 5 6 
#
# 1 122.0247 44.2928 59.4618 0.0000 -15.7412 0.0000
# 2 44.2928 55.1742 36.5861 0.0000 -5.5712 0.0000
# 3 59.4618 36.5861 151.6098 0.0000 -11.5196 0.0000
# 4 0.0000 0.0000 0.0000 19.6479 0.0000 -3.8482
# 5 -15.7412 -5.5712 -11.5196 0.0000 26.8047 0.0000
# 6 0.0000 0.0000 0.0000 -3.8482 0.0000 23.8832
#
#
#
# Elastic Compliance Matrix: (Units=1/GPa)
#
#
# Indices 1 2 3 4 5 6 
#
# 1 0.013173 -0.008221 -0.002817 0.000000 0.004817 0.000000
# 2 -0.008221 0.026848 -0.003305 0.000000 -0.000668 0.000000
# 3 -0.002817 -0.003305 0.008601 0.000000 0.001355 0.000000
# 4 0.000000 0.000000 0.000000 0.052555 0.000000 0.008468
# 5 0.004817 -0.000668 0.001355 0.000000 0.040579 0.000000
# 6 0.000000 0.000000 0.000000 0.008468 0.000000 0.043235
#
#
# Mechanical properties :
#
#
# Convention : Reuss Voigt Hill
#
# Bulk Modulus (GPa) = 50.15919 67.72112 58.94015
# Shear Modulus (GPa) = 22.69396 26.63170 24.66283
#
# Velocity S-wave (km/s) = 3.40994 3.69395 3.55478
# Velocity P-wave (km/s) = 6.41900 7.27268 6.85913
#
# Compressibility (1/GPa) = 0.01993653
#
# Stress axis : x y z
#
# Youngs Moduli (GPa) = 75.91271 37.24609 116.26246
#
# Poissons Ratio (x) = 0.30620 0.32747
# Poissons Ratio (y) = 0.62408 0.38430
# Poissons Ratio (z) = 0.21382 0.12312
#
# Static dielectric constant tensor:
#      x y z
#    x 3.401530 0.000000 -0.332100 
#    y 0.000000 3.470180 0.000000 
#    z -0.332100 0.000000 3.644940 
# 
# 
# High freq. dielectric constant tensor:
#      x y z
#    x 1.756910 0.000000 -0.014070 
#    y 0.000000 1.744540 0.000000 
#    z -0.014070 0.000000 1.775820 
# 
# From -- ./inp_files/237474.got.cif
#   From: 2010.06.25/outbox.cif.g09.slc.cpg/sg12_119_cif.got.tgz:237474.got - 2010.06.28 00:19:55.
