data_PCOD8107423
_publ_section_title
;
Structure prediction by ZEFSAII (Michael W. Deem and Ramdas Pophale) SiO2 
 PCOD8107423
Probable space group: C 2/M
;
_chemical_formula_sum "Si O2"
_cell_formula_units_Z 36
_cell_length_a 12.746061
_cell_length_b 14.711737
_cell_length_c 17.002081
_cell_angle_alpha 90.000000
_cell_angle_beta 140.818609
_cell_angle_gamma 90.000000
_cell_volume 2014.216890
_symmetry_space_group_name_H-M "C 2/M"
_symmetry_group_IT_number 12
_symmetry_cell_setting 'monoclinic'
loop_
_space_group_symop_operation_xyz
x,y,z
-x,y,-z
-x,-y,-z
x,-y,z
1/2+x,1/2+y,z
1/2-x,1/2+y,-z
1/2-x,1/2-y,-z
1/2+x,1/2-y,z
loop_
_atom_site_type_symbol
_atom_site_label
_atom_site_fract_x
_atom_site_fract_y
_atom_site_fract_z
Si Si1 0.549632 0.690587 0.182056
Si Si2 0.573469 0.242592 0.357939
Si Si3 0.901385 0.605828 0.365201
Si Si4 0.000000 0.695591 0.000000
Si Si5 0.347523 0.604890 0.188613
O O1 0.593751 0.765945 0.274935
O O2 0.707740 0.626977 0.259411
O O3 0.400335 0.626422 0.128499
O O4 0.488635 0.739446 0.068577
O O5 0.750000 0.250000 0.500000
O O6 0.475213 0.155640 0.332114
O O7 0.466228 0.334305 0.314461
O O8 0.928615 0.500000 0.367047
O O9 0.000000 0.638843 0.500000
O O10 0.157900 0.630512 0.094107
O O11 0.375686 0.500000 0.225475
#
# Coordination Sequence:
#
# PCOD8107423 Si02
#       5
#     8   8   8   4   8
#     4  10  21  37  60  85 118 156 194 247 286 350
#     4  10  21  37  62  87 120 149 193 249 301 348
#     4  11  20  36  63  91 116 150 196 245 300 352
#     4  12  21  40  61  84 124 160 203 236 293 350
#     4  10  22  38  61  88 118 161 196 238 297 351
#
# _framework density 17.872951
#
# number of rings (size 3 to 8) (size 9 to 14) (size 15 to 20)
#    1.333    0.222    4.444    1.667    0.000    0.889 
#    0.000    6.667    0.000    2.000    0.000    0.000 
#    0.000    0.000    0.000    0.000    0.000    0.000 
#
# Total GULP energy -223102.757965 kJ/mol
# GULP energy per Si atom -12394.597665 kJ/mol
# Density = 1.783227 g / cm^3
# Si number density = 17.872951 Si / 1000 Ang^3
#
#
#
# Elastic Constant Matrix: (Units=GPa)
#
#
# Indices 1 2 3 4 5 6 
#
# 1 80.7173 41.8313 34.1820 0.0001 10.9166 0.0000
# 2 41.8313 113.6602 41.2960 0.0001 0.6356 0.0001
# 3 34.1820 41.2960 90.3094 0.0007 8.4581 0.0003
# 4 0.0001 0.0001 0.0007 22.3451 0.0002 1.4963
# 5 10.9166 0.6356 8.4581 0.0002 43.1082 0.0001
# 6 0.0000 0.0001 0.0003 1.4963 0.0001 22.8150
#
#
#
# Elastic Compliance Matrix: (Units=1/GPa)
#
#
# Indices 1 2 3 4 5 6 
#
# 1 0.017012 -0.004821 -0.003910 0.000000 -0.003470 0.000000
# 2 -0.004821 0.011945 -0.003805 0.000000 0.001791 0.000000
# 3 -0.003910 -0.003805 0.014460 0.000000 -0.001791 0.000000
# 4 0.000000 0.000000 0.000000 0.044950 0.000000 -0.002948
# 5 -0.003470 0.001791 -0.001791 0.000000 0.024401 0.000000
# 6 0.000000 0.000000 0.000000 -0.002948 0.000000 0.044024
#
#
# Mechanical properties :
#
#
# Convention : Reuss Voigt Hill
#
# Bulk Modulus (GPa) = 54.50742 57.70062 56.10402
# Shear Modulus (GPa) = 26.59850 28.81217 27.70533
#
# Velocity S-wave (km/s) = 3.86190 4.01940 3.94144
# Velocity P-wave (km/s) = 7.10275 7.34129 7.22301
#
# Compressibility (1/GPa) = 0.01834613
#
# Stress axis : x y z
#
# Youngs Moduli (GPa) = 58.78039 83.71653 69.15400
#
# Poissons Ratio (x) = 0.40363 0.27036
# Poissons Ratio (y) = 0.28340 0.26313
# Poissons Ratio (z) = 0.22980 0.31854
#
# Static dielectric constant tensor:
#      x y z
#    x 3.423200 0.000000 0.107610 
#    y 0.000000 3.144500 0.000000 
#    z 0.107610 0.000000 3.243660 
# 
# 
# High freq. dielectric constant tensor:
#      x y z
#    x 1.698600 0.000000 0.018610 
#    y 0.000000 1.678580 0.000000 
#    z 0.018610 0.000000 1.688830 
# 
# From -- ./inp_files/262592.got.cif
#   From: 2010.06.25/outbox.cif.g09.slc.cpg/sg12_132_cif.got.tgz:262592.got - 2010.06.28 00:19:55.
