data_PCOD8107365
_publ_section_title
;
Structure prediction by ZEFSAII (Michael W. Deem and Ramdas Pophale) SiO2 
 PCOD8107365
Probable space group: C 2/M
;
_chemical_formula_sum "Si O2"
_cell_formula_units_Z 64
_cell_length_a 17.171812
_cell_length_b 14.545370
_cell_length_c 19.706683
_cell_angle_alpha 90.000000
_cell_angle_beta 43.433779
_cell_angle_gamma 90.000000
_cell_volume 3384.052395
_symmetry_space_group_name_H-M "C 2/M"
_symmetry_group_IT_number 12
_symmetry_cell_setting 'monoclinic'
loop_
_space_group_symop_operation_xyz
x,y,z
-x,y,-z
-x,-y,-z
x,-y,z
1/2+x,1/2+y,z
1/2-x,1/2+y,-z
1/2-x,1/2-y,-z
1/2+x,1/2-y,z
loop_
_atom_site_type_symbol
_atom_site_label
_atom_site_fract_x
_atom_site_fract_y
_atom_site_fract_z
Si Si1 0.641653 0.312590 0.079052
Si Si2 0.044420 0.395581 0.396204
Si Si3 0.137454 0.895632 0.621202
Si Si4 0.598399 0.758461 0.746049
Si Si5 0.141380 0.607371 0.597251
Si Si6 0.624934 0.395712 0.947315
Si Si7 0.741411 0.235363 0.233518
Si Si8 0.880767 0.896060 0.763373
O O1 0.534572 0.244881 0.153558
O O2 0.652505 0.375765 0.138207
O O3 0.750000 0.250000 0.000000
O O4 0.626404 0.382552 0.026830
O O5 0.081209 0.500000 0.356159
O O6 0.150922 0.329102 0.326848
O O7 0.000000 0.388750 0.500000
O O8 0.949349 0.362814 0.402491
O O9 0.144059 0.836083 0.684982
O O10 0.233207 0.864378 0.507391
O O11 0.014773 0.883000 0.664636
O O12 0.159498 0.000000 0.630730
O O13 0.617779 0.842185 0.682549
O O14 0.664110 0.771081 0.774490
O O15 0.133902 0.500000 0.617254
O O16 0.663230 0.500000 0.905920
O O17 0.707951 0.322111 0.860871
O O18 0.500000 0.376519 0.000000
O O19 0.684623 0.328326 0.244271
O O20 0.844112 0.000000 0.769461
#
# Coordination Sequence:
#
# PCOD8107365 Si02
#       8
#     8   8   8   8   8   8   8   8
#     4  11  21  40  64  84 116 150 194 246 291 346
#     4  10  21  37  59  89 121 153 189 238 303 358
#     4   9  19  37  61  85 112 149 197 244 290 341
#     4  11  23  36  59  86 116 155 193 235 294 347
#     4  10  21  39  59  84 119 155 195 241 287 350
#     4  11  23  40  63  90 119 149 188 240 299 353
#     4  12  23  38  58  85 123 153 193 243 288 349
#     4  10  22  39  61  85 113 156 203 244 285 341
#
# _framework density 18.912237000000001
#
# number of rings (size 3 to 8) (size 9 to 14) (size 15 to 20)
#    0.000    1.500    2.500    3.375    0.000    4.000 
#    0.000    0.625    0.000    3.750    0.000    0.000 
#    0.000    0.000    0.000    0.000    0.000    0.000 
#
# Total GULP energy -396894.860741 kJ/mol
# GULP energy per Si atom -12402.964398 kJ/mol
# Density = 1.886919 g / cm^3
# Si number density = 18.912237 Si / 1000 Ang^3
#
#
#
# Elastic Constant Matrix: (Units=GPa)
#
#
# Indices 1 2 3 4 5 6 
#
# 1 87.9143 44.3857 41.3341 0.0000 2.7155 0.0000
# 2 44.3857 87.3257 38.0390 0.0000 -6.9226 0.0000
# 3 41.3341 38.0390 98.6690 0.0000 -9.7033 0.0000
# 4 0.0000 0.0000 0.0000 31.5221 0.0000 1.6601
# 5 2.7155 -6.9226 -9.7033 0.0000 31.1579 0.0000
# 6 0.0000 0.0000 0.0000 1.6601 0.0000 25.4636
#
#
#
# Elastic Compliance Matrix: (Units=1/GPa)
#
#
# Indices 1 2 3 4 5 6 
#
# 1 0.017447 -0.007035 -0.005055 0.000000 -0.004658 0.000000
# 2 -0.007035 0.016663 -0.003149 0.000000 0.003335 0.000000
# 3 -0.005055 -0.003149 0.013865 0.000000 0.004059 0.000000
# 4 0.000000 0.000000 0.000000 0.031833 0.000000 -0.002075
# 5 -0.004658 0.003335 0.004059 0.000000 0.034505 0.000000
# 6 0.000000 0.000000 0.000000 -0.002075 0.000000 0.039407
#
#
# Mechanical properties :
#
#
# Convention : Reuss Voigt Hill
#
# Bulk Modulus (GPa) = 57.14914 57.93628 57.54271
# Shear Modulus (GPa) = 26.31134 27.63873 26.97504
#
# Velocity S-wave (km/s) = 3.73397 3.82700 3.78077
# Velocity P-wave (km/s) = 6.99097 7.08722 7.03926
#
# Compressibility (1/GPa) = 0.01749808
#
# Stress axis : x y z
#
# Youngs Moduli (GPa) = 57.31611 60.01198 72.12148
#
# Poissons Ratio (x) = 0.42221 0.36455
# Poissons Ratio (y) = 0.40324 0.22710
# Poissons Ratio (z) = 0.28971 0.18897
#
# Static dielectric constant tensor:
#      x y z
#    x 3.358530 0.000000 -0.284980 
#    y 0.000000 3.530770 0.000000 
#    z -0.284980 0.000000 3.207850 
# 
# 
# High freq. dielectric constant tensor:
#      x y z
#    x 1.734950 0.000000 -0.005710 
#    y 0.000000 1.737230 0.000000 
#    z -0.005710 0.000000 1.741940 
# 
# From -- ./inp_files/183829.got.cif
#   From: 2010.06.25/outbox.cif.g09.slc.cpg/sg12_92_cif.got.tgz:183829.got - 2010.06.28 00:19:55.
