data_PCOD8107592
_publ_section_title
;
Structure prediction by ZEFSAII (Michael W. Deem and Ramdas Pophale) SiO2 
 PCOD8107592
Probable space group: C 2/M
;
_chemical_formula_sum "Si O2"
_cell_formula_units_Z 64
_cell_length_a 19.005213
_cell_length_b 13.886225
_cell_length_c 15.211353
_cell_angle_alpha 90.000000
_cell_angle_beta 47.886103
_cell_angle_gamma 90.000000
_cell_volume 2977.963332
_symmetry_space_group_name_H-M "C 2/M"
_symmetry_group_IT_number 12
_symmetry_cell_setting 'monoclinic'
loop_
_space_group_symop_operation_xyz
x,y,z
-x,y,-z
-x,-y,-z
x,-y,z
1/2+x,1/2+y,z
1/2-x,1/2+y,-z
1/2-x,1/2-y,-z
1/2+x,1/2-y,z
loop_
_atom_site_type_symbol
_atom_site_label
_atom_site_fract_x
_atom_site_fract_y
_atom_site_fract_z
Si Si1 0.383005 0.246613 0.933613
Si Si2 0.610906 0.894545 0.916094
Si Si3 0.562292 0.745827 0.677584
Si Si4 0.243944 0.396721 0.281948
Si Si5 0.272604 0.890849 0.904099
Si Si6 0.211777 0.293795 0.684714
Si Si7 0.917195 0.886657 0.496541
Si Si8 0.447094 0.107360 0.461534
O O1 0.493715 0.265075 0.819926
O O2 0.345980 0.183388 0.883941
O O3 0.358764 0.186711 0.041093
O O4 0.332904 0.350210 0.986500
O O5 0.655752 0.876818 0.782733
O O6 0.645944 0.000000 0.918857
O O7 0.500000 0.894285 0.000000
O O8 0.667593 0.774480 0.624903
O O9 0.553956 0.648371 0.625692
O O10 0.529340 0.834003 0.645039
O O11 0.298610 0.500000 0.245264
O O12 0.201098 0.390381 0.220498
O O13 0.309951 0.305551 0.244609
O O14 0.163914 0.393552 0.424028
O O15 0.279180 0.000000 0.936202
O O16 0.323058 0.322634 0.593998
O O17 0.000000 0.867177 0.500000
O O18 0.892859 0.000000 0.514315
O O19 0.500000 0.155902 0.500000
O O20 0.487091 0.000000 0.412058
#
# Coordination Sequence:
#
# PCOD8107592 Si02
#       8
#     8   8   8   8   8   8   8   8
#     4  11  23  39  65  93 129 173 213 273 333 390
#     4  11  23  42  65  92 128 166 216 272 327 390
#     4  12  25  40  66  97 132 168 215 277 329 390
#     4  10  21  38  63  90 122 161 204 260 322 386
#     4  10  22  40  64  96 127 166 219 269 324 395
#     4  12  24  44  68  97 130 175 221 273 337 395
#     4  11  27  47  68  95 132 181 229 271 326 401
#     4  10  21  37  61  92 123 159 202 257 324 383
#
# _framework density 21.491198000000001
#
# number of rings (size 3 to 8) (size 9 to 14) (size 15 to 20)
#    0.000    1.125    3.750    2.250    1.750    4.000 
#    0.000    1.250    0.000    2.250    0.000    0.000 
#    0.000    0.000    0.000    0.000    0.000    0.000 
#
# Total GULP energy -396588.955176 kJ/mol
# GULP energy per Si atom -12393.404849 kJ/mol
# Density = 2.144228 g / cm^3
# Si number density = 21.491198 Si / 1000 Ang^3
#
#
#
# Elastic Constant Matrix: (Units=GPa)
#
#
# Indices 1 2 3 4 5 6 
#
# 1 103.1404 28.4516 15.7854 0.0000 3.9986 0.0000
# 2 28.4516 126.9261 16.9584 0.0000 5.0429 0.0000
# 3 15.7854 16.9584 75.8943 0.0000 -1.7330 0.0000
# 4 0.0000 0.0000 0.0000 19.2349 0.0000 -0.9882
# 5 3.9986 5.0429 -1.7330 0.0000 31.6260 0.0000
# 6 0.0000 0.0000 0.0000 -0.9882 0.0000 23.2071
#
#
#
# Elastic Compliance Matrix: (Units=1/GPa)
#
#
# Indices 1 2 3 4 5 6 
#
# 1 0.010585 -0.002094 -0.001759 0.000000 -0.001101 0.000000
# 2 -0.002094 0.008597 -0.001513 0.000000 -0.001189 0.000000
# 3 -0.001759 -0.001513 0.013908 0.000000 0.001226 0.000000
# 4 0.000000 0.000000 0.000000 0.052103 0.000000 0.002219
# 5 -0.001101 -0.001189 0.001226 0.000000 0.032015 0.000000
# 6 0.000000 0.000000 0.000000 0.002219 0.000000 0.043185
#
#
# Mechanical properties :
#
#
# Convention : Reuss Voigt Hill
#
# Bulk Modulus (GPa) = 44.72395 47.59462 46.15928
# Shear Modulus (GPa) = 27.99908 31.13132 29.56520
#
# Velocity S-wave (km/s) = 3.61337 3.81013 3.71305
# Velocity P-wave (km/s) = 6.18580 6.44595 6.31721
#
# Compressibility (1/GPa) = 0.02235939
#
# Stress axis : x y z
#
# Youngs Moduli (GPa) = 94.47316 116.31509 71.90091
#
# Poissons Ratio (x) = 0.24356 0.12646
# Poissons Ratio (y) = 0.19783 0.10876
# Poissons Ratio (z) = 0.16616 0.17595
#
# Static dielectric constant tensor:
#      x y z
#    x 4.162410 0.000000 0.614680 
#    y 0.000000 4.226280 0.000000 
#    z 0.614680 0.000000 4.414720 
# 
# 
# High freq. dielectric constant tensor:
#      x y z
#    x 1.831750 0.000000 0.007200 
#    y 0.000000 1.856200 0.000000 
#    z 0.007200 0.000000 1.839610 
# 
# From -- ./inp_files/225714.got.cif
#   From: 2010.06.25/outbox.cif.g09.slc.cpg/sg12_113_cif.got.tgz:225714.got - 2010.06.28 00:19:55.
