data_PCOD8107140
_publ_section_title
;
Structure prediction by ZEFSAII (Michael W. Deem and Ramdas Pophale) SiO2 
 PCOD8107140
Probable space group: C 2/M
;
_chemical_formula_sum "Si O2"
_cell_formula_units_Z 40
_cell_length_a 8.946583
_cell_length_b 12.881586
_cell_length_c 28.118744
_cell_angle_alpha 90.000000
_cell_angle_beta 148.583541
_cell_angle_gamma 90.000000
_cell_volume 1689.166740
_symmetry_space_group_name_H-M "C 2/M"
_symmetry_group_IT_number 12
_symmetry_cell_setting 'monoclinic'
loop_
_space_group_symop_operation_xyz
x,y,z
-x,y,-z
-x,-y,-z
x,-y,z
1/2+x,1/2+y,z
1/2-x,1/2+y,-z
1/2-x,1/2-y,-z
1/2+x,1/2-y,z
loop_
_atom_site_type_symbol
_atom_site_label
_atom_site_fract_x
_atom_site_fract_y
_atom_site_fract_z
Si Si1 0.365349 0.692858 0.680517
Si Si2 0.979720 0.618402 0.859365
Si Si3 0.292696 0.789252 0.564552
Si Si4 0.220169 0.376705 0.021468
Si Si5 0.368199 0.878935 0.201770
O O1 0.635045 0.624730 0.769805
O O2 0.315791 0.694161 0.609668
O O3 0.423997 0.815325 0.707065
O O4 0.097874 0.650669 0.640691
O O5 0.076567 0.500000 0.885221
O O6 0.085347 0.666590 0.838627
O O7 0.141302 0.673444 0.948006
O O8 0.250000 0.750000 0.500000
O O9 0.000000 0.853232 0.500000
O O10 0.176782 0.500000 0.004400
O O11 0.540802 0.353038 0.126517
O O12 0.000000 0.330825 0.000000
O O13 0.446019 0.000000 0.227594
#
# Coordination Sequence:
#
# PCOD8107140 Si02
#       5
#     8   8   8   8   8
#     4  11  20  37  62  89 111 148 192 235 283 341
#     4  10  21  37  58  84 118 157 194 230 275 335
#     4   9  20  38  62  84 113 149 182 228 301 356
#     4   9  19  34  53  82 120 158 191 233 280 317
#     4  10  21  37  58  84 119 156 193 232 275 334
#
# _framework density 23.680313000000002
#
# number of rings (size 3 to 8) (size 9 to 14) (size 15 to 20)
#    0.000    2.200    2.000    0.600    2.800    3.200 
#    0.000    0.000    0.000   24.000    0.000    0.000 
#    0.000    0.000    0.000    0.000    0.000    0.000 
#
# Total GULP energy -247761.096220 kJ/mol
# GULP energy per Si atom -12388.054811 kJ/mol
# Density = 2.362642 g / cm^3
# Si number density = 23.680313 Si / 1000 Ang^3
#
#
#
# Elastic Constant Matrix: (Units=GPa)
#
#
# Indices 1 2 3 4 5 6 
#
# 1 152.3470 4.2250 50.7529 0.0005 22.0053 0.0000
# 2 4.2250 35.2501 2.2182 0.0004 -10.6002 0.0000
# 3 50.7529 2.2182 114.0056 0.0018 8.4853 0.0004
# 4 0.0005 0.0004 0.0018 17.7815 0.0003 4.3483
# 5 22.0053 -10.6002 8.4853 0.0003 55.9714 -0.0001
# 6 0.0000 0.0000 0.0004 4.3483 -0.0001 17.6923
#
#
#
# Elastic Compliance Matrix: (Units=1/GPa)
#
#
# Indices 1 2 3 4 5 6 
#
# 1 0.008173 -0.001674 -0.003381 0.000000 -0.003018 0.000000
# 2 -0.001674 0.030543 -0.000332 -0.000001 0.006493 0.000000
# 3 -0.003381 -0.000332 0.010305 -0.000001 -0.000296 0.000000
# 4 0.000000 -0.000001 -0.000001 0.059834 0.000000 -0.014706
# 5 -0.003018 0.006493 -0.000296 0.000000 0.020327 0.000000
# 6 0.000000 0.000000 0.000000 -0.014706 0.000000 0.060136
#
#
# Mechanical properties :
#
#
# Convention : Reuss Voigt Hill
#
# Bulk Modulus (GPa) = 26.14683 46.22163 36.18423
# Shear Modulus (GPa) = 23.49162 34.58281 29.03721
#
# Velocity S-wave (km/s) = 3.15307 3.82567 3.50554
# Velocity P-wave (km/s) = 4.93167 6.25106 5.63015
#
# Compressibility (1/GPa) = 0.03824555
#
# Stress axis : x y z
#
# Youngs Moduli (GPa) = 122.35943 32.74095 97.03848
#
# Poissons Ratio (x) = 0.05482 0.32810
# Poissons Ratio (y) = 0.20486 0.03224
# Poissons Ratio (z) = 0.41371 0.01088
#
# Static dielectric constant tensor:
#      x y z
#    x 5.025400 0.000000 0.304510 
#    y 0.000000 3.735020 0.000000 
#    z 0.304510 0.000000 4.842320 
# 
# 
# High freq. dielectric constant tensor:
#      x y z
#    x 1.962430 0.000000 0.005340 
#    y 0.000000 1.885350 0.000000 
#    z 0.005340 0.000000 1.954080 
# 
# From -- ./inp_files/194417.got.cif
#   From: 2010.06.25/outbox.cif.g09.slc.cpg/sg12_98_cif.got.tgz:194417.got - 2010.06.28 00:19:55.
