data_PCOD8107406
_publ_section_title
;
Structure prediction by ZEFSAII (Michael W. Deem and Ramdas Pophale) SiO2 
 PCOD8107406
Probable space group: C 2/M
;
_chemical_formula_sum "Si O2"
_cell_formula_units_Z 64
_cell_length_a 32.399706
_cell_length_b 18.237059
_cell_length_c 9.183491
_cell_angle_alpha 90.000000
_cell_angle_beta 35.658952
_cell_angle_gamma 90.000000
_cell_volume 3163.310969
_symmetry_space_group_name_H-M "C 2/M"
_symmetry_group_IT_number 12
_symmetry_cell_setting 'monoclinic'
loop_
_space_group_symop_operation_xyz
x,y,z
-x,y,-z
-x,-y,-z
x,-y,z
1/2+x,1/2+y,z
1/2-x,1/2+y,-z
1/2-x,1/2-y,-z
1/2+x,1/2-y,z
loop_
_atom_site_type_symbol
_atom_site_label
_atom_site_fract_x
_atom_site_fract_y
_atom_site_fract_z
Si Si1 0.603579 0.303275 0.911823
Si Si2 0.725354 0.336498 0.343603
Si Si3 0.639923 0.915258 0.951713
Si Si4 0.664672 0.414953 0.250471
Si Si5 0.507204 0.583839 0.810412
Si Si6 0.970880 0.347315 0.928637
Si Si7 0.566147 0.176779 0.399276
Si Si8 0.322344 0.713659 0.996292
O O1 0.654007 0.330844 0.638871
O O2 0.549340 0.367257 0.113852
O O3 0.558736 0.234977 0.982053
O O4 0.649002 0.284402 0.922129
O O5 0.787360 0.369237 0.268174
O O6 0.714825 0.392053 0.239698
O O7 0.747129 0.256218 0.218201
O O8 0.658792 0.000000 0.907025
O O9 0.591978 0.900245 0.946655
O O10 0.598087 0.890894 0.216501
O O11 0.677600 0.500000 0.175201
O O12 0.584287 0.399453 0.526752
O O13 0.685528 0.367425 0.047917
O O14 0.485991 0.500000 0.845744
O O15 0.500000 0.605200 0.000000
O O16 0.039844 0.353120 0.628597
O O17 0.000000 0.373586 0.000000
O O18 0.500000 0.211417 0.500000
O O19 0.623896 0.240182 0.259284
#
# Coordination Sequence:
#
# PCOD8107406 Si02
#       8
#     8   8   8   8   8   8   8   8
#     4  12  22  39  65  91 125 165 203 255 310 365
#     4  11  23  42  64  89 121 171 213 249 294 379
#     4  10  22  42  65  89 123 167 209 252 307 373
#     4  11  24  41  63  92 127 162 206 258 310 363
#     4  10  21  37  59  92 122 158 204 246 302 370
#     4  11  23  37  63  98 126 153 205 258 316 363
#     4   9  18  38  60  90 118 158 201 251 303 371
#     4  11  23  39  62  91 124 156 212 257 307 359
#
# _framework density 20.231964999999999
#
# number of rings (size 3 to 8) (size 9 to 14) (size 15 to 20)
#    0.000    1.375    5.000    2.250    1.750    3.500 
#    0.000    1.250    0.000    0.000    0.000    0.000 
#    0.000    0.000    0.000    0.000    0.000    0.000 
#
# Total GULP energy -396876.069336 kJ/mol
# GULP energy per Si atom -12402.377167 kJ/mol
# Density = 2.018592 g / cm^3
# Si number density = 20.231965 Si / 1000 Ang^3
#
#
#
# Elastic Constant Matrix: (Units=GPa)
#
#
# Indices 1 2 3 4 5 6 
#
# 1 79.0883 33.9870 34.1118 0.0000 2.6722 0.0000
# 2 33.9870 123.1142 36.4128 0.0000 -4.7707 0.0000
# 3 34.1118 36.4128 62.8214 0.0000 -3.9661 0.0000
# 4 0.0000 0.0000 0.0000 23.7288 0.0000 -4.6050
# 5 2.6722 -4.7707 -3.9661 0.0000 27.0023 0.0000
# 6 0.0000 0.0000 0.0000 -4.6050 0.0000 32.0918
#
#
#
# Elastic Compliance Matrix: (Units=1/GPa)
#
#
# Indices 1 2 3 4 5 6 
#
# 1 0.017366 -0.002501 -0.008192 0.000000 -0.003364 0.000000
# 2 -0.002501 0.010185 -0.004458 0.000000 0.001392 0.000000
# 3 -0.008192 -0.004458 0.023166 0.000000 0.003426 0.000000
# 4 0.000000 0.000000 0.000000 0.043350 0.000000 0.006220
# 5 -0.003364 0.001392 0.003426 0.000000 0.038116 0.000000
# 6 0.000000 0.000000 0.000000 0.006220 0.000000 0.032053
#
#
# Mechanical properties :
#
#
# Convention : Reuss Voigt Hill
#
# Bulk Modulus (GPa) = 48.98215 52.67190 50.82703
# Shear Modulus (GPa) = 24.83301 27.26539 26.04920
#
# Velocity S-wave (km/s) = 3.50725 3.67500 3.59211
# Velocity P-wave (km/s) = 6.37682 6.64064 6.51007
#
# Compressibility (1/GPa) = 0.02041560
#
# Stress axis : x y z
#
# Youngs Moduli (GPa) = 57.58332 98.17937 43.16587
#
# Poissons Ratio (x) = 0.24560 0.35362
# Poissons Ratio (y) = 0.14404 0.19241
# Poissons Ratio (z) = 0.47173 0.43764
#
# Static dielectric constant tensor:
#      x y z
#    x 3.587370 0.000000 -0.129330 
#    y 0.000000 3.596810 0.000000 
#    z -0.129330 0.000000 3.811790 
# 
# 
# High freq. dielectric constant tensor:
#      x y z
#    x 1.784370 0.000000 -0.010570 
#    y 0.000000 1.784410 0.000000 
#    z -0.010570 0.000000 1.790220 
# 
# From -- ./inp_files/112814.got.cif
#   From: 2010.06.25/outbox.cif.g09.slc.cpg/sg12_57_cif.got.tgz:112814.got - 2010.06.28 00:19:55.
