data_PCOD8107543
_publ_section_title
;
Structure prediction by ZEFSAII (Michael W. Deem and Ramdas Pophale) SiO2 
 PCOD8107543
Probable space group: C 2/M
;
_chemical_formula_sum "Si O2"
_cell_formula_units_Z 52
_cell_length_a 20.414845
_cell_length_b 22.182225
_cell_length_c 11.987815
_cell_angle_alpha 90.000000
_cell_angle_beta 28.951841
_cell_angle_gamma 90.000000
_cell_volume 2627.866226
_symmetry_space_group_name_H-M "C 2/M"
_symmetry_group_IT_number 12
_symmetry_cell_setting 'monoclinic'
loop_
_space_group_symop_operation_xyz
x,y,z
-x,y,-z
-x,-y,-z
x,-y,z
1/2+x,1/2+y,z
1/2-x,1/2+y,-z
1/2-x,1/2-y,-z
1/2+x,1/2-y,z
loop_
_atom_site_type_symbol
_atom_site_label
_atom_site_fract_x
_atom_site_fract_y
_atom_site_fract_z
Si Si1 0.157919 0.932557 0.282295
Si Si2 0.000000 0.647975 0.500000
Si Si3 0.960943 0.121797 0.941102
Si Si4 0.378839 0.246881 0.101276
Si Si5 0.402971 0.241803 0.813713
Si Si6 0.248470 0.431089 0.100312
Si Si7 0.129210 0.167395 0.502580
O O1 0.189505 0.884090 0.331572
O O2 0.000000 0.937080 0.500000
O O3 0.211172 0.000000 0.235943
O O4 0.225055 0.910412 0.066493
O O5 0.020468 0.688724 0.362102
O O6 0.129632 0.607409 0.331281
O O7 0.098209 0.140391 0.671076
O O8 0.871209 0.180544 0.106416
O O9 0.880332 0.076936 0.980668
O O10 0.000000 0.089431 0.000000
O O11 0.238222 0.220408 0.356623
O O12 0.500000 0.224742 0.000000
O O13 0.404054 0.221870 0.940117
O O14 0.487818 0.303829 0.667054
O O15 0.250000 0.250000 0.000000
O O16 0.204883 0.500000 0.167409
#
# Coordination Sequence:
#
# PCOD8107543 Si02
#       7
#     8   4   8   8   8   8   8
#     4  10  21  37  61  87 111 145 196 252 293 338
#     4  12  23  36  58  86 125 152 180 238 302 348
#     4  10  22  37  55  81 112 148 192 235 284 344
#     4  10  23  38  56  85 117 155 195 234 293 360
#     4  11  23  35  58  91 118 152 195 240 291 357
#     4  11  23  39  57  83 115 151 194 235 292 349
#     4  11  21  36  61  81 117 148 188 242 293 343
#
# _framework density 19.787917
#
# number of rings (size 3 to 8) (size 9 to 14) (size 15 to 20)
#    0.000    1.385    1.538    4.846    3.231    7.077 
#    0.000    0.000    0.000    0.462    0.000    0.000 
#    0.000    0.000    0.000    0.000    0.000    0.000 
#
# Total GULP energy -322397.160249 kJ/mol
# GULP energy per Si atom -12399.890779 kJ/mol
# Density = 1.974288 g / cm^3
# Si number density = 19.787917 Si / 1000 Ang^3
#
#
#
# Elastic Constant Matrix: (Units=GPa)
#
#
# Indices 1 2 3 4 5 6 
#
# 1 116.3186 32.6686 46.8773 -0.0008 16.6983 0.0004
# 2 32.6686 67.5535 37.9932 -0.0003 9.9825 0.0000
# 3 46.8773 37.9932 104.3631 -0.0018 8.0215 0.0008
# 4 -0.0008 -0.0003 -0.0018 36.3078 0.0007 -0.7439
# 5 16.6983 9.9825 8.0215 0.0007 30.7295 -0.0007
# 6 0.0004 0.0000 0.0008 -0.7439 -0.0007 22.2276
#
#
#
# Elastic Compliance Matrix: (Units=1/GPa)
#
#
# Indices 1 2 3 4 5 6 
#
# 1 0.011554 -0.002781 -0.003841 0.000000 -0.004372 0.000000
# 2 -0.002781 0.019876 -0.005721 0.000000 -0.003452 0.000000
# 3 -0.003841 -0.005721 0.013355 0.000001 0.000460 0.000000
# 4 0.000000 0.000000 0.000001 0.027561 -0.000001 0.000922
# 5 -0.004372 -0.003452 0.000460 -0.000001 0.035919 0.000001
# 6 0.000000 0.000000 0.000000 0.000922 0.000001 0.045020
#
#
# Mechanical properties :
#
#
# Convention : Reuss Voigt Hill
#
# Bulk Modulus (GPa) = 49.75740 58.14593 53.95167
# Shear Modulus (GPa) = 27.07515 29.23269 28.15392
#
# Velocity S-wave (km/s) = 3.70302 3.84774 3.77607
# Velocity P-wave (km/s) = 6.59417 7.01345 6.80704
#
# Compressibility (1/GPa) = 0.02009751
#
# Stress axis : x y z
#
# Youngs Moduli (GPa) = 86.55136 50.31242 74.87935
#
# Poissons Ratio (x) = 0.13991 0.28763
# Poissons Ratio (y) = 0.24069 0.42841
# Poissons Ratio (z) = 0.33247 0.28785
#
# Static dielectric constant tensor:
#      x y z
#    x 3.627550 0.000000 0.249620 
#    y 0.000000 3.655610 0.000000 
#    z 0.249620 0.000000 3.828610 
# 
# 
# High freq. dielectric constant tensor:
#      x y z
#    x 1.754950 0.000000 0.017460 
#    y 0.000000 1.765200 0.000000 
#    z 0.017460 0.000000 1.778490 
# 
# From -- ./inp_files/169832.got.cif
#   From: 2010.06.25/outbox.cif.g09.slc.cpg/sg12_85_cif.got.tgz:169832.got - 2010.06.28 00:19:55.
