data_PCOD8107967
_publ_section_title
;
Structure prediction by ZEFSAII (Michael W. Deem and Ramdas Pophale) SiO2 
 PCOD8107967
Probable space group: C 2/M
;
_chemical_formula_sum "Si O2"
_cell_formula_units_Z 56
_cell_length_a 20.486174
_cell_length_b 8.765284
_cell_length_c 27.899836
_cell_angle_alpha 90.000000
_cell_angle_beta 145.393485
_cell_angle_gamma 90.000000
_cell_volume 2845.305620
_symmetry_space_group_name_H-M "C 2/M"
_symmetry_group_IT_number 12
_symmetry_cell_setting 'monoclinic'
loop_
_space_group_symop_operation_xyz
x,y,z
-x,y,-z
-x,-y,-z
x,-y,z
1/2+x,1/2+y,z
1/2-x,1/2+y,-z
1/2-x,1/2-y,-z
1/2+x,1/2-y,z
loop_
_atom_site_type_symbol
_atom_site_label
_atom_site_fract_x
_atom_site_fract_y
_atom_site_fract_z
Si Si1 0.722725 0.178335 0.750598
Si Si2 0.847675 0.680475 0.187695
Si Si3 0.998035 0.322607 0.444062
Si Si4 0.442999 0.180125 0.840261
Si Si5 0.420996 0.181410 0.718972
Si Si6 0.683026 0.680469 0.004031
Si Si7 0.284386 0.319905 0.470531
O O1 0.676929 0.240326 0.773825
O O2 0.627658 0.210610 0.652780
O O3 0.834936 0.275156 0.806942
O O4 0.754499 0.000000 0.772193
O O5 0.858198 0.500000 0.194909
O O6 0.968897 0.748847 0.242685
O O7 0.746379 0.732428 0.090951
O O8 0.030388 0.500000 0.459963
O O9 0.088709 0.229732 0.467593
O O10 0.000000 0.265206 0.500000
O O11 0.423272 0.242974 0.774588
O O12 0.554350 0.258547 0.930031
O O13 0.461356 0.000000 0.851778
O O14 0.305388 0.240470 0.623628
O O15 0.425070 0.000000 0.721709
O O16 0.683293 0.500000 0.998421
O O17 0.750000 0.750000 0.000000
O O18 0.278845 0.500000 0.471912
O O19 0.250000 0.250000 0.500000
#
# Coordination Sequence:
#
# PCOD8107967 Si02
#       7
#     8   8   8   8   8   8   8
#     4  10  21  38  59  83 114 153 193 231 281 344
#     4   9  18  35  59  81 109 151 193 228 274 343
#     4  10  21  38  60  85 118 154 193 243 293 342
#     4  11  22  38  60  85 116 148 188 238 285 340
#     4   9  18  35  58  82 108 149 194 232 280 343
#     4  11  21  37  61  87 114 147 191 237 285 339
#     4  11  22  36  58  85 116 152 195 242 290 347
#
# _framework density 19.681540999999999
#
# number of rings (size 3 to 8) (size 9 to 14) (size 15 to 20)
#    0.000    1.857    1.429    3.000    0.000    3.714 
#    0.000    6.429    0.000    0.000    0.000    0.000 
#    0.000    0.000    0.000    0.000    0.000    0.000 
#
# Total GULP energy -347302.324923 kJ/mol
# GULP energy per Si atom -12403.654462 kJ/mol
# Density = 1.963674 g / cm^3
# Si number density = 19.681541 Si / 1000 Ang^3
#
#
#
# Elastic Constant Matrix: (Units=GPa)
#
#
# Indices 1 2 3 4 5 6 
#
# 1 114.5780 18.8925 27.5159 0.0000 2.7132 0.0000
# 2 18.8925 48.2845 26.6900 0.0000 1.8342 -0.0002
# 3 27.5159 26.6900 103.4337 0.0001 4.7483 0.0000
# 4 0.0000 0.0000 0.0001 27.6464 0.0000 5.5314
# 5 2.7132 1.8342 4.7483 0.0000 39.6055 0.0000
# 6 0.0000 -0.0002 0.0000 5.5314 0.0000 33.1463
#
#
#
# Elastic Compliance Matrix: (Units=1/GPa)
#
#
# Indices 1 2 3 4 5 6 
#
# 1 0.009629 -0.002738 -0.001841 0.000000 -0.000312 0.000000
# 2 -0.002738 0.024940 -0.005694 0.000000 -0.000285 0.000000
# 3 -0.001841 -0.005694 0.011673 0.000000 -0.001010 0.000000
# 4 0.000000 0.000000 0.000000 0.037420 0.000000 -0.006245
# 5 -0.000312 -0.000285 -0.001010 0.000000 0.025405 0.000000
# 6 0.000000 0.000000 0.000000 -0.006245 0.000000 0.031211
#
#
# Mechanical properties :
#
#
# Convention : Reuss Voigt Hill
#
# Bulk Modulus (GPa) = 38.91573 45.83255 42.37414
# Shear Modulus (GPa) = 29.51772 32.95949 31.23860
#
# Velocity S-wave (km/s) = 3.87688 4.09668 3.98829
# Velocity P-wave (km/s) = 6.31316 6.76126 6.54105
#
# Compressibility (1/GPa) = 0.02569655
#
# Stress axis : x y z
#
# Youngs Moduli (GPa) = 103.85758 40.09577 85.66546
#
# Poissons Ratio (x) = 0.10979 0.15767
# Poissons Ratio (y) = 0.28438 0.48779
# Poissons Ratio (z) = 0.19115 0.22831
#
# Static dielectric constant tensor:
#      x y z
#    x 3.797900 0.000000 -0.046600 
#    y 0.000000 3.349380 0.000000 
#    z -0.046600 0.000000 4.001560 
# 
# 
# High freq. dielectric constant tensor:
#      x y z
#    x 1.777380 0.000000 -0.000460 
#    y 0.000000 1.739570 0.000000 
#    z -0.000460 0.000000 1.783620 
# 
# From -- ./inp_files/380725.got.cif
#   From: 2010.06.25/outbox.cif.g09.slc.cpg/sg12_191_cif.got.tgz:380725.got - 2010.06.28 00:19:55.
