data_PCOD8107167
_publ_section_title
;
Structure prediction by ZEFSAII (Michael W. Deem and Ramdas Pophale) SiO2 
 PCOD8107167
Probable space group: C 2/M
;
_chemical_formula_sum "Si O2"
_cell_formula_units_Z 56
_cell_length_a 22.173933
_cell_length_b 9.049657
_cell_length_c 16.756659
_cell_angle_alpha 90.000000
_cell_angle_beta 122.989180
_cell_angle_gamma 90.000000
_cell_volume 2820.375501
_symmetry_space_group_name_H-M "C 2/M"
_symmetry_group_IT_number 12
_symmetry_cell_setting 'monoclinic'
loop_
_space_group_symop_operation_xyz
x,y,z
-x,y,-z
-x,-y,-z
x,-y,z
1/2+x,1/2+y,z
1/2-x,1/2+y,-z
1/2-x,1/2-y,-z
1/2+x,1/2-y,z
loop_
_atom_site_type_symbol
_atom_site_label
_atom_site_fract_x
_atom_site_fract_y
_atom_site_fract_z
Si Si1 0.533158 0.672403 0.774242
Si Si2 0.719649 0.332088 0.402751
Si Si3 0.695573 0.164996 0.693133
Si Si4 0.090327 0.675553 0.223472
Si Si5 0.655519 0.326907 0.126148
Si Si6 0.548992 0.673506 0.606369
Si Si7 0.675910 0.670330 0.963161
O O1 0.516618 0.500000 0.779089
O O2 0.486410 0.774003 0.798460
O O3 0.517240 0.714645 0.670541
O O4 0.616838 0.707526 0.853351
O O5 0.697031 0.500000 0.407521
O O6 0.750000 0.250000 0.500000
O O7 0.782520 0.330849 0.383293
O O8 0.650086 0.245583 0.323225
O O9 0.762649 0.219179 0.794597
O O10 0.630005 0.272973 0.659028
O O11 0.672286 0.000000 0.701580
O O12 0.096221 0.500000 0.228886
O O13 0.099932 0.734131 0.139958
O O14 0.643999 0.500000 0.137542
O O15 0.641819 0.286055 0.024356
O O16 0.500000 0.743269 0.500000
O O17 0.551960 0.500000 0.597711
O O18 0.696221 0.500000 0.978952
O O19 0.750000 0.750000 0.000000
#
# Coordination Sequence:
#
# PCOD8107167 Si02
#       7
#     8   8   8   8   8   8   8
#     4  10  22  40  58  82 118 156 194 242 298 356
#     4  10  21  37  58  85 116 152 194 241 291 347
#     4   9  19  35  55  80 109 142 183 233 284 338
#     4  11  23  38  58  86 117 154 198 243 295 349
#     4   9  19  38  60  84 116 153 191 236 296 357
#     4  10  22  37  54  79 110 150 193 234 288 347
#     4  10  21  37  62  90 117 154 198 243 297 358
#
# _framework density 19.855512000000001
#
# number of rings (size 3 to 8) (size 9 to 14) (size 15 to 20)
#    0.000    2.143    0.000    3.429    2.000    5.429 
#    0.000    2.857    0.000    0.000    0.000    0.000 
#    0.000    0.000    0.000    0.000    0.000    0.000 
#
# Total GULP energy -347236.608485 kJ/mol
# GULP energy per Si atom -12401.307446 kJ/mol
# Density = 1.981032 g / cm^3
# Si number density = 19.855512 Si / 1000 Ang^3
#
#
#
# Elastic Constant Matrix: (Units=GPa)
#
#
# Indices 1 2 3 4 5 6 
#
# 1 106.1784 55.9987 39.2940 0.0000 0.9282 0.0000
# 2 55.9987 92.4602 45.1127 0.0000 -5.8728 0.0000
# 3 39.2940 45.1127 104.6329 0.0000 -17.7720 0.0000
# 4 0.0000 0.0000 0.0000 24.8496 0.0000 3.2893
# 5 0.9282 -5.8728 -17.7720 0.0000 19.3821 0.0000
# 6 0.0000 0.0000 0.0000 3.2893 0.0000 39.2075
#
#
#
# Elastic Compliance Matrix: (Units=1/GPa)
#
#
# Indices 1 2 3 4 5 6 
#
# 1 0.014744 -0.007740 -0.003220 0.000000 -0.006003 0.000000
# 2 -0.007740 0.017797 -0.004486 0.000000 0.001650 0.000000
# 3 -0.003220 -0.004486 0.014801 0.000000 0.012366 0.000000
# 4 0.000000 0.000000 0.000000 0.040694 0.000000 -0.003414
# 5 -0.006003 0.001650 0.012366 0.000000 0.063720 0.000000
# 6 0.000000 0.000000 0.000000 -0.003414 0.000000 0.025792
#
#
# Mechanical properties :
#
#
# Convention : Reuss Voigt Hill
#
# Bulk Modulus (GPa) = 60.78988 64.89806 62.84397
# Shear Modulus (GPa) = 23.37277 27.54559 25.45918
#
# Velocity S-wave (km/s) = 3.43467 3.72869 3.58470
# Velocity P-wave (km/s) = 6.81263 7.16196 6.98948
#
# Compressibility (1/GPa) = 0.01645011
#
# Stress axis : x y z
#
# Youngs Moduli (GPa) = 67.82246 56.18877 67.56322
#
# Poissons Ratio (x) = 0.43493 0.21752
# Poissons Ratio (y) = 0.52497 0.30310
# Poissons Ratio (z) = 0.21836 0.25208
#
# Static dielectric constant tensor:
#      x y z
#    x 3.494680 0.000000 -0.135350 
#    y 0.000000 3.567690 0.000000 
#    z -0.135350 0.000000 3.813370 
# 
# 
# High freq. dielectric constant tensor:
#      x y z
#    x 1.772910 0.000000 -0.007800 
#    y 0.000000 1.765260 0.000000 
#    z -0.007800 0.000000 1.782520 
# 
# From -- ./inp_files/281656.got.cif
#   From: 2010.06.25/outbox.cif.g09.slc.cpg/sg12_141_cif.got.tgz:281656.got - 2010.06.28 00:19:55.
