data_PCOD8107716
_publ_section_title
;
Structure prediction by ZEFSAII (Michael W. Deem and Ramdas Pophale) SiO2 
 PCOD8107716
Probable space group: C 2/M
;
_chemical_formula_sum "Si O2"
_cell_formula_units_Z 64
_cell_length_a 17.188702
_cell_length_b 16.610421
_cell_length_c 14.077060
_cell_angle_alpha 90.000000
_cell_angle_beta 130.927742
_cell_angle_gamma 90.000000
_cell_volume 3036.624242
_symmetry_space_group_name_H-M "C 2/M"
_symmetry_group_IT_number 12
_symmetry_cell_setting 'monoclinic'
loop_
_space_group_symop_operation_xyz
x,y,z
-x,y,-z
-x,-y,-z
x,-y,z
1/2+x,1/2+y,z
1/2-x,1/2+y,-z
1/2-x,1/2-y,-z
1/2+x,1/2-y,z
loop_
_atom_site_type_symbol
_atom_site_label
_atom_site_fract_x
_atom_site_fract_y
_atom_site_fract_z
Si Si1 0.926859 0.906663 0.204061
Si Si2 0.320448 0.413719 0.316084
Si Si3 0.443746 0.246325 0.700612
Si Si4 0.591903 0.091468 0.840148
Si Si5 0.110494 0.758411 0.546991
Si Si6 0.803935 0.090461 0.917772
Si Si7 0.383459 0.124130 0.930619
Si Si8 0.677286 0.279184 0.205746
O O1 0.853989 0.895470 0.235789
O O2 0.007659 0.834174 0.278135
O O3 0.970262 0.000000 0.235081
O O4 0.864452 0.884710 0.060142
O O5 0.357734 0.500000 0.382438
O O6 0.372920 0.354635 0.433547
O O7 0.195334 0.411697 0.211556
O O8 0.513508 0.166618 0.770738
O O9 0.378331 0.229240 0.552823
O O10 0.372522 0.256136 0.734575
O O11 0.682782 0.106978 0.837542
O O12 0.545542 0.000000 0.785779
O O13 0.641874 0.091697 0.985041
O O14 0.199363 0.721010 0.683579
O O15 0.000000 0.731931 0.500000
O O16 0.848274 0.134825 0.859774
O O17 0.825796 0.000000 0.908538
O O18 0.365223 0.219896 0.910172
O O19 0.500000 0.098762 0.000000
#
# Coordination Sequence:
#
# PCOD8107716 Si02
#       8
#     8   8   8   8   8   8   8   8
#     4  10  21  37  64  96 126 162 204 257 323 389
#     4  10  21  38  61  96 127 156 205 261 321 385
#     4  12  24  42  62  89 131 170 213 267 319 379
#     4  11  23  39  64  95 128 172 216 264 320 381
#     4  11  23  42  64  88 117 169 216 267 312 368
#     4  10  22  40  63  93 130 168 216 265 310 384
#     4  11  21  38  61  96 129 164 197 259 334 386
#     4  11  25  41  62  93 126 167 215 259 323 383
#
# _framework density 21.076035000000001
#
# number of rings (size 3 to 8) (size 9 to 14) (size 15 to 20)
#    0.000    1.250    3.750    2.250    1.750    3.250 
#    0.000    1.875    0.000    3.750    0.000    0.000 
#    0.000    0.000    0.000    0.000    0.000    0.000 
#
# Total GULP energy -396463.428533 kJ/mol
# GULP energy per Si atom -12389.482142 kJ/mol
# Density = 2.102806 g / cm^3
# Si number density = 21.076035 Si / 1000 Ang^3
#
#
#
# Elastic Constant Matrix: (Units=GPa)
#
#
# Indices 1 2 3 4 5 6 
#
# 1 45.1668 20.5942 20.3298 0.0000 -4.2098 0.0000
# 2 20.5942 100.0385 31.7012 0.0000 -9.9413 0.0000
# 3 20.3298 31.7012 56.4969 0.0000 -10.5835 0.0000
# 4 0.0000 0.0000 0.0000 18.0233 0.0000 -7.4722
# 5 -4.2098 -9.9413 -10.5835 0.0000 34.0939 0.0000
# 6 0.0000 0.0000 0.0000 -7.4722 0.0000 15.5082
#
#
#
# Elastic Compliance Matrix: (Units=1/GPa)
#
#
# Indices 1 2 3 4 5 6 
#
# 1 0.027155 -0.003035 -0.008076 0.000000 -0.000039 0.000000
# 2 -0.003035 0.012571 -0.005675 0.000000 0.001529 0.000000
# 3 -0.008076 -0.005675 0.024732 0.000000 0.005025 0.000000
# 4 0.000000 0.000000 0.000000 0.069333 0.000000 0.033406
# 5 -0.000039 0.001529 0.005025 0.000000 0.031332 0.000000
# 6 0.000000 0.000000 0.000000 0.033406 0.000000 0.080578
#
#
# Mechanical properties :
#
#
# Convention : Reuss Voigt Hill
#
# Bulk Modulus (GPa) = 32.37691 38.55028 35.46359
# Shear Modulus (GPa) = 17.26698 22.13022 19.69860
#
# Velocity S-wave (km/s) = 2.86540 3.24391 3.06051
# Velocity P-wave (km/s) = 5.13251 5.68871 5.41775
#
# Compressibility (1/GPa) = 0.03088621
#
# Stress axis : x y z
#
# Youngs Moduli (GPa) = 36.82519 79.54577 40.43338
#
# Poissons Ratio (x) = 0.24142 0.32654
# Poissons Ratio (y) = 0.11176 0.22948
# Poissons Ratio (z) = 0.29740 0.45146
#
# Static dielectric constant tensor:
#      x y z
#    x 3.725540 0.000000 0.000430 
#    y 0.000000 4.011390 0.000000 
#    z 0.000430 0.000000 3.735530 
# 
# 
# High freq. dielectric constant tensor:
#      x y z
#    x 1.816270 0.000000 -0.001140 
#    y 0.000000 1.832230 0.000000 
#    z -0.001140 0.000000 1.819410 
# 
# From -- ./inp_files/225727.got.cif
#   From: 2010.06.25/outbox.cif.g09.slc.cpg/sg12_113_cif.got.tgz:225727.got - 2010.06.28 00:19:55.
