data_PCOD8107594
_publ_section_title
;
Structure prediction by ZEFSAII (Michael W. Deem and Ramdas Pophale) SiO2 
 PCOD8107594
Probable space group: C 2/M
;
_chemical_formula_sum "Si O2"
_cell_formula_units_Z 48
_cell_length_a 19.487873
_cell_length_b 17.428649
_cell_length_c 15.077331
_cell_angle_alpha 90.000000
_cell_angle_beta 28.062335
_cell_angle_gamma 90.000000
_cell_volume 2409.069817
_symmetry_space_group_name_H-M "C 2/M"
_symmetry_group_IT_number 12
_symmetry_cell_setting 'monoclinic'
loop_
_space_group_symop_operation_xyz
x,y,z
-x,y,-z
-x,-y,-z
x,-y,z
1/2+x,1/2+y,z
1/2-x,1/2+y,-z
1/2-x,1/2-y,-z
1/2+x,1/2-y,z
loop_
_atom_site_type_symbol
_atom_site_label
_atom_site_fract_x
_atom_site_fract_y
_atom_site_fract_z
Si Si1 0.114756 0.411557 0.135791
Si Si2 0.940970 0.410072 0.161101
Si Si3 0.674869 0.691229 0.518536
Si Si4 0.155865 0.912305 0.852745
Si Si5 0.586055 0.413360 0.130671
Si Si6 0.072081 0.682377 0.512709
O O1 0.079669 0.500000 0.198333
O O2 0.059318 0.389086 0.101289
O O3 0.037354 0.359912 0.296897
O O4 0.289289 0.396880 0.937882
O O5 0.910227 0.500000 0.191670
O O6 0.788811 0.370694 0.355060
O O7 0.000000 0.379079 0.000000
O O8 0.750000 0.750000 0.500000
O O9 0.544578 0.646673 0.715907
O O10 0.609419 0.734282 0.508348
O O11 0.279874 0.865567 0.661570
O O12 0.172212 0.000000 0.802519
O O13 0.170245 0.904319 0.941637
O O14 0.000000 0.879206 0.000000
O O15 0.523842 0.500000 0.211454
O O16 0.000000 0.693573 0.500000
#
# Coordination Sequence:
#
# PCOD8107594 Si02
#       6
#     8   8   8   8   8   8
#     4  10  21  41  68  94 124 166 211 261 313 372
#     4  10  23  45  70  91 118 166 223 264 303 365
#     4  12  25  41  61  93 131 169 206 255 320 374
#     4  10  21  37  61  92 125 163 209 257 307 372
#     4  10  22  41  64  89 123 165 212 260 309 367
#     4  12  24  40  60  96 133 170 203 251 320 388
#
# _framework density 19.924702
#
# number of rings (size 3 to 8) (size 9 to 14) (size 15 to 20)
#    0.000    1.333    3.333    2.000    0.000    4.667 
#    0.000    0.000    0.000    5.000    0.000    0.000 
#    0.000    0.000    0.000    0.000    0.000    0.000 
#
# Total GULP energy -297695.137876 kJ/mol
# GULP energy per Si atom -12403.964078 kJ/mol
# Density = 1.987935 g / cm^3
# Si number density = 19.924702 Si / 1000 Ang^3
#
#
#
# Elastic Constant Matrix: (Units=GPa)
#
#
# Indices 1 2 3 4 5 6 
#
# 1 132.1133 38.7998 35.3036 0.0071 -2.4823 0.0075
# 2 38.7998 75.2713 50.2128 0.0000 -5.1689 0.0025
# 3 35.3036 50.2128 103.4424 0.0061 -5.7071 0.0065
# 4 0.0071 0.0000 0.0061 79.1170 -0.0064 50.5835
# 5 -2.4823 -5.1689 -5.7071 -0.0064 31.7875 -0.0067
# 6 0.0075 0.0025 0.0065 50.5835 -0.0067 59.7177
#
#
#
# Elastic Compliance Matrix: (Units=1/GPa)
#
#
# Indices 1 2 3 4 5 6 
#
# 1 0.009022 -0.003847 -0.001220 0.000000 -0.000140 -0.000001
# 2 -0.003847 0.021358 -0.008969 0.000002 0.001562 -0.000001
# 3 -0.001220 -0.008969 0.014495 -0.000001 0.001049 0.000000
# 4 0.000000 0.000002 -0.000001 0.027571 0.000001 -0.023353
# 5 -0.000140 0.001562 0.001049 0.000001 0.031890 0.000003
# 6 -0.000001 -0.000001 0.000000 -0.023353 0.000003 0.036527
#
#
# Mechanical properties :
#
#
# Convention : Reuss Voigt Hill
#
# Bulk Modulus (GPa) = 59.50450 62.16216 60.83333
# Shear Modulus (GPa) = 28.64753 46.55849 37.60301
#
# Velocity S-wave (km/s) = 3.79593 4.83921 4.34897
# Velocity P-wave (km/s) = 7.01011 7.90507 7.47101
#
# Compressibility (1/GPa) = 0.01680545
#
# Stress axis : x y z
#
# Youngs Moduli (GPa) = 110.83692 46.82015 68.98981
#
# Poissons Ratio (x) = 0.18010 0.08414
# Poissons Ratio (y) = 0.42635 0.61875
# Poissons Ratio (z) = 0.13518 0.41992
#
# Static dielectric constant tensor:
#      x y z
#    x 3.886120 0.000000 -0.071770 
#    y 0.000000 3.621770 0.000000 
#    z -0.071770 0.000000 3.557430 
# 
# 
# High freq. dielectric constant tensor:
#      x y z
#    x 1.790770 0.000000 -0.010570 
#    y 0.000000 1.774720 0.000000 
#    z -0.010570 0.000000 1.775940 
# 
# From -- ./inp_files/226742.got.cif
#   From: 2010.06.25/outbox.cif.g09.slc.cpg/sg12_114_cif.got.tgz:226742.got - 2010.06.28 00:19:55.
