data_PCOD8107068
_publ_section_title
;
Structure prediction by ZEFSAII (Michael W. Deem and Ramdas Pophale) SiO2 
 PCOD8107068
Probable space group: C 2/M
;
_chemical_formula_sum "Si O2"
_cell_formula_units_Z 64
_cell_length_a 28.680501
_cell_length_b 8.736863
_cell_length_c 17.420995
_cell_angle_alpha 90.000000
_cell_angle_beta 136.153592
_cell_angle_gamma 90.000000
_cell_volume 3023.971383
_symmetry_space_group_name_H-M "C 2/M"
_symmetry_group_IT_number 12
_symmetry_cell_setting 'monoclinic'
loop_
_space_group_symop_operation_xyz
x,y,z
-x,y,-z
-x,-y,-z
x,-y,z
1/2+x,1/2+y,z
1/2-x,1/2+y,-z
1/2-x,1/2-y,-z
1/2+x,1/2-y,z
loop_
_atom_site_type_symbol
_atom_site_label
_atom_site_fract_x
_atom_site_fract_y
_atom_site_fract_z
Si Si1 0.790704 0.180102 0.272344
Si Si2 0.663486 0.827052 0.392117
Si Si3 0.172900 0.818106 0.045778
Si Si4 0.575111 0.182343 0.614362
Si Si5 0.015142 0.332414 0.222026
Si Si6 0.736946 0.678842 0.358380
Si Si7 0.106980 0.673547 0.821867
Si Si8 0.043401 0.824340 0.981984
O O1 0.746461 0.247125 0.149216
O O2 0.865584 0.252642 0.369621
O O3 0.747758 0.222839 0.295909
O O4 0.797587 0.000000 0.270929
O O5 0.590143 0.815603 0.341158
O O6 0.667205 0.725415 0.318067
O O7 0.708998 0.764950 0.514952
O O8 0.683975 0.000000 0.395133
O O9 0.177450 0.000000 0.054330
O O10 0.152748 0.770572 0.934988
O O11 0.117750 0.758818 0.044876
O O12 0.500000 0.242111 0.500000
O O13 0.600281 0.241454 0.728085
O O14 0.574584 0.000000 0.610388
O O15 0.003982 0.500000 0.169006
O O16 0.970011 0.320095 0.243204
O O17 0.001490 0.196538 0.146552
O O18 0.738998 0.500000 0.339929
O O19 0.135067 0.500000 0.854211
O O20 0.053672 0.000000 0.015787
O O21 0.000000 0.745052 0.000000
#
# Coordination Sequence:
#
# PCOD8107068 Si02
#       8
#     8   8   8   8   8   8   8   8
#     4  12  26  42  62  90 126 161 203 259 314 364
#     4   9  19  35  56  84 118 157 202 247 296 356
#     4  10  21  39  62  88 121 162 207 251 305 367
#     4  10  23  43  70  97 122 158 204 248 306 376
#     4   9  18  32  54  84 114 151 193 237 292 352
#     4  10  21  37  58  82 118 160 204 249 298 361
#     4   9  19  38  63  91 122 156 199 251 303 361
#     4   9  19  34  52  80 116 153 197 246 294 347
#
# _framework density 21.16422
#
# number of rings (size 3 to 8) (size 9 to 14) (size 15 to 20)
#    0.000    2.250    0.000    1.875    3.500    3.000 
#    0.000    0.000    0.000    0.000    0.000    0.000 
#    0.000    0.000    0.000    0.000    0.000    0.000 
#
# Total GULP energy -396467.089278 kJ/mol
# GULP energy per Si atom -12389.596540 kJ/mol
# Density = 2.111605 g / cm^3
# Si number density = 21.164220 Si / 1000 Ang^3
#
#
#
# Elastic Constant Matrix: (Units=GPa)
#
#
# Indices 1 2 3 4 5 6 
#
# 1 47.9474 17.9756 32.6163 0.0000 1.1144 0.0000
# 2 17.9756 54.0323 31.2989 0.0000 3.9330 0.0000
# 3 32.6163 31.2989 93.6644 0.0000 9.6592 0.0000
# 4 0.0000 0.0000 0.0000 27.3629 0.0000 -1.9248
# 5 1.1144 3.9330 9.6592 0.0000 34.4497 0.0000
# 6 0.0000 0.0000 0.0000 -1.9248 0.0000 27.6144
#
#
#
# Elastic Compliance Matrix: (Units=1/GPa)
#
#
# Indices 1 2 3 4 5 6 
#
# 1 0.028350 -0.004637 -0.008530 0.000000 0.002004 0.000000
# 2 -0.004637 0.023716 -0.006227 0.000000 -0.000812 0.000000
# 3 -0.008530 -0.006227 0.016091 0.000000 -0.003525 0.000000
# 4 0.000000 0.000000 0.000000 0.036726 0.000000 0.002560
# 5 0.002004 -0.000812 -0.003525 0.000000 0.030044 0.000000
# 6 0.000000 0.000000 0.000000 0.002560 0.000000 0.036391
#
#
# Mechanical properties :
#
#
# Convention : Reuss Voigt Hill
#
# Bulk Modulus (GPa) = 34.04680 39.93620 36.99150
# Shear Modulus (GPa) = 22.73823 25.46896 24.10360
#
# Velocity S-wave (km/s) = 3.28132 3.47276 3.37840
# Velocity P-wave (km/s) = 5.52068 5.91530 5.72139
#
# Compressibility (1/GPa) = 0.02937134
#
# Stress axis : x y z
#
# Youngs Moduli (GPa) = 35.27322 42.16581 62.14728
#
# Poissons Ratio (x) = 0.19551 0.53009
# Poissons Ratio (y) = 0.16355 0.38697
# Poissons Ratio (z) = 0.30086 0.26255
#
# Static dielectric constant tensor:
#      x y z
#    x 4.054280 0.000000 0.111570 
#    y 0.000000 3.677840 0.000000 
#    z 0.111570 0.000000 3.794520 
# 
# 
# High freq. dielectric constant tensor:
#      x y z
#    x 1.837100 0.000000 0.008130 
#    y 0.000000 1.809710 0.000000 
#    z 0.008130 0.000000 1.823960 
# 
# From -- ./inp_files/295756.got.cif
#   From: 2010.06.25/outbox.cif.g09.slc.cpg/sg12_148_cif.got.tgz:295756.got - 2010.06.28 00:19:55.
