data_PCOD8107883
_publ_section_title
;
Structure prediction by ZEFSAII (Michael W. Deem and Ramdas Pophale) SiO2 
 PCOD8107883
Probable space group: C 2/M
;
_chemical_formula_sum "Si O2"
_cell_formula_units_Z 56
_cell_length_a 29.129075
_cell_length_b 8.848375
_cell_length_c 11.152860
_cell_angle_alpha 90.000000
_cell_angle_beta 111.059924
_cell_angle_gamma 90.000000
_cell_volume 2682.585497
_symmetry_space_group_name_H-M "C 2/M"
_symmetry_group_IT_number 12
_symmetry_cell_setting 'monoclinic'
loop_
_space_group_symop_operation_xyz
x,y,z
-x,y,-z
-x,-y,-z
x,-y,z
1/2+x,1/2+y,z
1/2-x,1/2+y,-z
1/2-x,1/2-y,-z
1/2+x,1/2-y,z
loop_
_atom_site_type_symbol
_atom_site_label
_atom_site_fract_x
_atom_site_fract_y
_atom_site_fract_z
Si Si1 0.123777 0.327626 0.977213
Si Si2 0.327366 0.826231 0.730665
Si Si3 0.224830 0.322295 0.637671
Si Si4 0.023698 0.178110 0.398098
Si Si5 0.132248 0.824284 0.435538
Si Si6 0.978183 0.177554 0.105175
Si Si7 0.707381 0.175940 0.886666
O O1 0.103915 0.500000 0.955728
O O2 0.163520 0.306176 0.120057
O O3 0.079258 0.212875 0.948340
O O4 0.153098 0.283420 0.884575
O O5 0.273279 0.767243 0.641801
O O6 0.370011 0.724155 0.706703
O O7 0.331759 0.000000 0.695035
O O8 0.235787 0.500000 0.640317
O O9 0.177216 0.280780 0.517138
O O10 0.210209 0.265017 0.755186
O O11 0.081650 0.217452 0.455042
O O12 0.000000 0.245489 0.500000
O O13 0.001365 0.245224 0.251710
O O14 0.014633 0.000000 0.388174
O O15 0.144439 0.000000 0.463066
O O16 0.987638 0.000000 0.114127
O O17 0.000000 0.245769 0.000000
O O18 0.716595 0.000000 0.904823
O O19 0.750000 0.250000 0.000000
#
# Coordination Sequence:
#
# PCOD8107883 Si02
#       7
#     8   8   8   8   8   8   8
#     4  10  22  38  59  88 120 154 191 238 295 351
#     4  11  22  39  61  86 121 157 195 239 288 351
#     4  11  23  38  59  87 121 156 196 240 290 350
#     4   9  20  39  60  85 117 154 198 247 296 351
#     4  11  23  39  62  86 116 154 197 244 294 348
#     4  10  21  38  62  90 117 150 198 251 297 349
#     4  10  21  38  58  84 119 155 193 240 289 347
#
# _framework density 20.875384
#
# number of rings (size 3 to 8) (size 9 to 14) (size 15 to 20)
#    0.000    1.714    1.429    2.571    2.000    3.714 
#    0.000    1.429    0.000    2.143    0.000    0.000 
#    0.000    0.000    0.000    0.000    0.000    0.000 
#
# Total GULP energy -347096.507630 kJ/mol
# GULP energy per Si atom -12396.303844 kJ/mol
# Density = 2.082787 g / cm^3
# Si number density = 20.875384 Si / 1000 Ang^3
#
#
#
# Elastic Constant Matrix: (Units=GPa)
#
#
# Indices 1 2 3 4 5 6 
#
# 1 135.0825 31.0818 45.3063 0.0000 -15.9160 0.0000
# 2 31.0818 35.8771 13.1753 0.0000 -2.7054 0.0000
# 3 45.3063 13.1753 93.2073 0.0000 -10.6944 0.0000
# 4 0.0000 0.0000 0.0000 22.9186 0.0000 4.0369
# 5 -15.9160 -2.7054 -10.6944 0.0000 40.1632 0.0000
# 6 0.0000 0.0000 0.0000 4.0369 0.0000 30.4428
#
#
#
# Elastic Compliance Matrix: (Units=1/GPa)
#
#
# Indices 1 2 3 4 5 6 
#
# 1 0.010792 -0.007734 -0.003839 0.000000 0.002734 0.000000
# 2 -0.007734 0.034973 -0.001306 0.000000 -0.001057 0.000000
# 3 -0.003839 -0.001306 0.012992 0.000000 0.001850 0.000000
# 4 0.000000 0.000000 0.000000 0.044676 0.000000 -0.005924
# 5 0.002734 -0.001057 0.001850 0.000000 0.026403 0.000000
# 6 0.000000 0.000000 0.000000 -0.005924 0.000000 0.033634
#
#
# Mechanical properties :
#
#
# Convention : Reuss Voigt Hill
#
# Bulk Modulus (GPa) = 30.30310 49.25485 39.77897
# Shear Modulus (GPa) = 24.97177 30.34516 27.65847
#
# Velocity S-wave (km/s) = 3.46241 3.81679 3.64391
# Velocity P-wave (km/s) = 5.52558 6.56276 6.06638
#
# Compressibility (1/GPa) = 0.03299993
#
# Stress axis : x y z
#
# Youngs Moduli (GPa) = 92.66117 28.59377 76.97248
#
# Poissons Ratio (x) = 0.22113 0.29550
# Poissons Ratio (y) = 0.71661 0.10050
# Poissons Ratio (z) = 0.35572 0.03733
#
# Static dielectric constant tensor:
#      x y z
#    x 3.855650 0.000000 -0.433710 
#    y 0.000000 3.467200 0.000000 
#    z -0.433710 0.000000 4.152900 
# 
# 
# High freq. dielectric constant tensor:
#      x y z
#    x 1.828310 0.000000 -0.016220 
#    y 0.000000 1.792300 0.000000 
#    z -0.016220 0.000000 1.829260 
# 
# From -- ./inp_files/181136.got.cif
#   From: 2010.06.25/outbox.cif.g09.slc.cpg/sg12_91_cif.got.tgz:181136.got - 2010.06.28 00:19:55.
