data_PCOD8107123
_publ_section_title
;
Structure prediction by ZEFSAII (Michael W. Deem and Ramdas Pophale) SiO2 
 PCOD8107123
Probable space group: C 2/M
;
_chemical_formula_sum "Si O2"
_cell_formula_units_Z 48
_cell_length_a 15.597581
_cell_length_b 9.176505
_cell_length_c 16.559104
_cell_angle_alpha 90.000000
_cell_angle_beta 91.788557
_cell_angle_gamma 90.000000
_cell_volume 2368.971059
_symmetry_space_group_name_H-M "C 2/M"
_symmetry_group_IT_number 12
_symmetry_cell_setting 'monoclinic'
loop_
_space_group_symop_operation_xyz
x,y,z
-x,y,-z
-x,-y,-z
x,-y,z
1/2+x,1/2+y,z
1/2-x,1/2+y,-z
1/2-x,1/2-y,-z
1/2+x,1/2-y,z
loop_
_atom_site_type_symbol
_atom_site_label
_atom_site_fract_x
_atom_site_fract_y
_atom_site_fract_z
Si Si1 0.915157 0.837033 0.842782
Si Si2 0.070063 0.164633 0.336975
Si Si3 0.169914 0.661527 0.021785
Si Si4 0.917180 0.665359 0.150334
Si Si5 0.373646 0.670592 0.295027
Si Si6 0.223711 0.671306 0.418076
O O1 0.884373 0.830827 0.749652
O O2 0.012422 0.788987 0.842943
O O3 0.906358 0.000000 0.878169
O O4 0.866783 0.725448 0.897670
O O5 0.128787 0.271269 0.391707
O O6 0.969160 0.213205 0.332358
O O7 0.074991 0.000000 0.371878
O O8 0.198152 0.500000 0.044902
O O9 0.108325 0.663598 0.943519
O O10 0.250000 0.750000 0.000000
O O11 0.944955 0.500000 0.174896
O O12 0.850647 0.727666 0.215642
O O13 0.373465 0.500000 0.270991
O O14 0.298750 0.706380 0.356089
O O15 0.215734 0.500000 0.432425
O O16 0.250000 0.750000 0.500000
#
# Coordination Sequence:
#
# PCOD8107123 Si02
#       6
#     8   8   8   8   8   8
#     4  10  21  38  60  84 114 155 197 240 297 353
#     4   9  20  40  63  87 119 156 197 244 296 353
#     4  11  24  37  52  81 118 156 199 247 296 346
#     4  10  21  37  58  84 114 151 197 246 294 344
#     4   9  21  41  63  88 119 160 201 241 297 363
#     4  11  24  41  63  92 122 155 196 241 299 361
#
# _framework density 20.261962
#
# number of rings (size 3 to 8) (size 9 to 14) (size 15 to 20)
#    0.000    2.000    0.000    3.500    2.333   10.000 
#    0.000    3.333    0.000    0.000    0.000    0.000 
#    0.000    0.000    0.000    0.000    0.000    0.000 
#
# Total GULP energy -297378.887611 kJ/mol
# GULP energy per Si atom -12390.786984 kJ/mol
# Density = 2.021585 g / cm^3
# Si number density = 20.261962 Si / 1000 Ang^3
#
#
#
# Elastic Constant Matrix: (Units=GPa)
#
#
# Indices 1 2 3 4 5 6 
#
# 1 47.4612 10.8176 -3.3636 0.0000 -1.1083 0.0000
# 2 10.8176 106.6100 19.7472 0.0000 4.3182 0.0000
# 3 -3.3636 19.7472 25.4548 0.0000 -5.8582 0.0000
# 4 0.0000 0.0000 0.0000 38.6277 0.0000 -0.9899
# 5 -1.1083 4.3182 -5.8582 0.0000 28.7240 0.0000
# 6 0.0000 0.0000 0.0000 -0.9899 0.0000 34.3903
#
#
#
# Elastic Compliance Matrix: (Units=1/GPa)
#
#
# Indices 1 2 3 4 5 6 
#
# 1 0.022392 -0.003555 0.006336 0.000000 0.002690 0.000000
# 2 -0.003555 0.011874 -0.010622 0.000000 -0.004089 0.000000
# 3 0.006336 -0.010622 0.051189 0.000000 0.012281 0.000000
# 4 0.000000 0.000000 0.000000 0.025907 0.000000 0.000746
# 5 0.002690 -0.004089 0.012281 0.000000 0.038037 0.000000
# 6 0.000000 0.000000 0.000000 0.000746 0.000000 0.029099
#
#
# Mechanical properties :
#
#
# Convention : Reuss Voigt Hill
#
# Bulk Modulus (GPa) = 14.33220 25.99204 20.16212
# Shear Modulus (GPa) = 22.99501 30.50339 26.74920
#
# Velocity S-wave (km/s) = 3.37246 3.88422 3.63735
# Velocity P-wave (km/s) = 4.71736 5.74213 5.25479
#
# Compressibility (1/GPa) = 0.06977294
#
# Stress axis : x y z
#
# Youngs Moduli (GPa) = 44.65909 84.21918 19.53534
#
# Poissons Ratio (x) = 0.29937 -0.12377
# Poissons Ratio (y) = 0.15875 0.20751
# Poissons Ratio (z) = -0.28294 0.89458
#
# Static dielectric constant tensor:
#      x y z
#    x 3.443610 0.000000 -0.146630 
#    y 0.000000 3.909530 0.000000 
#    z -0.146630 0.000000 3.596870 
# 
# 
# High freq. dielectric constant tensor:
#      x y z
#    x 1.783660 0.000000 -0.008960 
#    y 0.000000 1.804070 0.000000 
#    z -0.008960 0.000000 1.791920 
# 
# From -- ./inp_files/267611.got.cif
#   From: 2010.06.25/outbox.cif.g09.slc.cpg/sg12_134_cif.got.tgz:267611.got - 2010.06.28 00:19:55.
