data_PCOD8107237
_publ_section_title
;
Structure prediction by ZEFSAII (Michael W. Deem and Ramdas Pophale) SiO2 
 PCOD8107237
Probable space group: C 2/M
;
_chemical_formula_sum "Si O2"
_cell_formula_units_Z 64
_cell_length_a 29.301144
_cell_length_b 14.254097
_cell_length_c 21.538593
_cell_angle_alpha 90.000000
_cell_angle_beta 19.324834
_cell_angle_gamma 90.000000
_cell_volume 2976.933574
_symmetry_space_group_name_H-M "C 2/M"
_symmetry_group_IT_number 12
_symmetry_cell_setting 'monoclinic'
loop_
_space_group_symop_operation_xyz
x,y,z
-x,y,-z
-x,-y,-z
x,-y,z
1/2+x,1/2+y,z
1/2-x,1/2+y,-z
1/2-x,1/2-y,-z
1/2+x,1/2-y,z
loop_
_atom_site_type_symbol
_atom_site_label
_atom_site_fract_x
_atom_site_fract_y
_atom_site_fract_z
Si Si1 0.806434 0.729524 0.713473
Si Si2 0.030311 0.763206 0.326028
Si Si3 0.987032 0.602319 0.187729
Si Si4 0.285973 0.391210 0.829255
Si Si5 0.002816 0.238855 0.068219
Si Si6 0.688424 0.892306 0.176659
Si Si7 0.705551 0.652079 0.583581
Si Si8 0.499905 0.602860 0.743018
O O1 0.816094 0.835935 0.726733
O O2 0.861519 0.657074 0.695166
O O3 0.900372 0.729181 0.532541
O O4 0.652889 0.698669 0.891926
O O5 0.121200 0.849064 0.235631
O O6 0.125614 0.669142 0.199824
O O7 0.973069 0.806271 0.335292
O O8 0.008464 0.500000 0.130562
O O9 0.968779 0.670022 0.152613
O O10 0.851817 0.599506 0.406242
O O11 0.123236 0.626121 0.053817
O O12 0.323307 0.500000 0.772492
O O13 0.885106 0.161609 0.236795
O O14 0.000000 0.265722 0.000000
O O15 0.636814 0.000000 0.239340
O O16 0.852208 0.884550 0.964437
O O17 0.750000 0.750000 0.500000
O O18 0.613579 0.600021 0.650535
O O19 0.506434 0.500000 0.700962
#
# Coordination Sequence:
#
# PCOD8107237 Si02
#       8
#     8   8   8   8   8   8   8   8
#     4  10  21  37  58  89 122 165 210 248 309 369
#     4  11  23  35  61  95 127 159 208 258 305 366
#     4   9  19  36  61  89 119 159 200 246 308 372
#     4   9  18  35  56  86 130 166 198 246 307 369
#     4  10  21  38  60  86 117 156 203 257 311 366
#     4  10  21  41  64  86 122 170 211 255 309 367
#     4  10  21  38  63  85 117 162 205 253 307 364
#     4  11  23  40  63  93 127 163 205 256 314 375
#
# _framework density 21.498633000000002
#
# number of rings (size 3 to 8) (size 9 to 14) (size 15 to 20)
#    0.000    2.000    1.250    2.625    5.250    2.750 
#    0.000    0.000    0.000    4.125    0.000    0.000 
#    0.000    0.000    0.000    0.000    0.000    0.000 
#
# Total GULP energy -396522.348945 kJ/mol
# GULP energy per Si atom -12391.323405 kJ/mol
# Density = 2.144970 g / cm^3
# Si number density = 21.498633 Si / 1000 Ang^3
#
#
#
# Elastic Constant Matrix: (Units=GPa)
#
#
# Indices 1 2 3 4 5 6 
#
# 1 39.5048 12.7138 21.6449 -0.0012 9.2115 0.0006
# 2 12.7138 124.9578 22.6028 -0.0015 5.1412 0.0008
# 3 21.6449 22.6028 105.9226 -0.0017 -2.1036 0.0010
# 4 -0.0012 -0.0015 -0.0017 20.8659 0.0010 -2.6915
# 5 9.2115 5.1412 -2.1036 0.0010 24.8205 -0.0004
# 6 0.0006 0.0008 0.0010 -2.6915 -0.0004 21.2020
#
#
#
# Elastic Compliance Matrix: (Units=1/GPa)
#
#
# Indices 1 2 3 4 5 6 
#
# 1 0.032221 -0.001605 -0.006484 0.000002 -0.012175 -0.000001
# 2 -0.001605 0.008492 -0.001510 0.000000 -0.001291 0.000000
# 3 -0.006484 -0.001510 0.011161 0.000000 0.003665 0.000000
# 4 0.000002 0.000000 0.000000 0.048723 -0.000002 0.006185
# 5 -0.012175 -0.001291 0.003665 -0.000002 0.045386 0.000001
# 6 -0.000001 0.000000 0.000000 0.006185 0.000001 0.047951
#
#
# Mechanical properties :
#
#
# Convention : Reuss Voigt Hill
#
# Bulk Modulus (GPa) = 30.60181 42.70089 36.65135
# Shear Modulus (GPa) = 22.31919 27.60594 24.96256
#
# Velocity S-wave (km/s) = 3.22556 3.58729 3.41122
# Velocity P-wave (km/s) = 5.30448 6.08798 5.70968
#
# Compressibility (1/GPa) = 0.03267781
#
# Stress axis : x y z
#
# Youngs Moduli (GPa) = 31.03545 117.75492 89.59966
#
# Poissons Ratio (x) = 0.18895 0.58094
# Poissons Ratio (y) = 0.04980 0.13529
# Poissons Ratio (z) = 0.20122 0.17780
#
# Static dielectric constant tensor:
#      x y z
#    x 3.753760 0.000000 -0.581520 
#    y 0.000000 4.062280 0.000000 
#    z -0.581520 0.000000 5.010830 
# 
# 
# High freq. dielectric constant tensor:
#      x y z
#    x 1.812530 0.000000 -0.022010 
#    y 0.000000 1.841360 0.000000 
#    z -0.022010 0.000000 1.857470 
# 
# From -- ./inp_files/330369.got.cif
#   From: 2010.06.25/outbox.cif.g09.slc.cpg/sg12_166_cif.got.tgz:330369.got - 2010.06.28 00:19:55.
