data_PCOD8107069
_publ_section_title
;
Structure prediction by ZEFSAII (Michael W. Deem and Ramdas Pophale) SiO2 
 PCOD8107069
Probable space group: C 2/M
;
_chemical_formula_sum "Si O2"
_cell_formula_units_Z 56
_cell_length_a 31.112561
_cell_length_b 9.297382
_cell_length_c 23.872846
_cell_angle_alpha 90.000000
_cell_angle_beta 25.503010
_cell_angle_gamma 90.000000
_cell_volume 2973.259487
_symmetry_space_group_name_H-M "C 2/M"
_symmetry_group_IT_number 12
_symmetry_cell_setting 'monoclinic'
loop_
_space_group_symop_operation_xyz
x,y,z
-x,y,-z
-x,-y,-z
x,-y,z
1/2+x,1/2+y,z
1/2-x,1/2+y,-z
1/2-x,1/2-y,-z
1/2+x,1/2-y,z
loop_
_atom_site_type_symbol
_atom_site_label
_atom_site_fract_x
_atom_site_fract_y
_atom_site_fract_z
Si Si1 0.289168 0.832258 0.899356
Si Si2 0.014881 0.665383 0.615915
Si Si3 0.519911 0.329041 0.038245
Si Si4 0.860915 0.168214 0.312112
Si Si5 0.636229 0.163526 0.583324
Si Si6 0.774579 0.831089 0.147671
Si Si7 0.101303 0.164529 0.414665
O O1 0.400779 0.781184 0.751957
O O2 0.221647 0.799842 0.923793
O O3 0.288915 0.000000 0.915088
O O4 0.250000 0.750000 0.000000
O O5 0.021414 0.500000 0.588099
O O6 0.057218 0.685867 0.627824
O O7 0.083501 0.760788 0.495145
O O8 0.520990 0.500000 0.034373
O O9 0.428332 0.270849 0.182826
O O10 0.500000 0.264386 0.000000
O O11 0.623424 0.275692 0.943814
O O12 0.746741 0.209339 0.432714
O O13 0.899283 0.238497 0.324081
O O14 0.877555 0.000000 0.299373
O O15 0.639277 0.000000 0.600891
O O16 0.685556 0.745846 0.281087
O O17 0.756538 0.000000 0.179328
O O18 0.000000 0.175478 0.500000
O O19 0.133989 0.000000 0.385933
#
# Coordination Sequence:
#
# PCOD8107069 Si02
#       7
#     8   8   8   8   8   8   8
#     4  10  22  37  55  83 114 147 187 226 272 331
#     4  10  21  37  58  83 109 143 187 229 275 334
#     4   9  19  34  56  84 110 143 188 230 271 322
#     4   9  18  34  55  80 108 140 182 227 271 322
#     4   9  19  34  55  81 107 141 180 224 277 325
#     4  10  21  38  60  83 111 150 190 229 275 334
#     4  11  23  38  57  83 112 142 181 230 283 333
#
# _framework density 18.834548000000002
#
# number of rings (size 3 to 8) (size 9 to 14) (size 15 to 20)
#    0.000    2.286    1.429    0.429    4.000    2.286 
#    0.000    0.714    0.000    0.857    0.000    0.000 
#    0.000    0.000    0.000    0.000    0.000    0.000 
#
# Total GULP energy -347209.426183 kJ/mol
# GULP energy per Si atom -12400.336649 kJ/mol
# Density = 1.879168 g / cm^3
# Si number density = 18.834548 Si / 1000 Ang^3
#
#
#
# Elastic Constant Matrix: (Units=GPa)
#
#
# Indices 1 2 3 4 5 6 
#
# 1 121.2271 36.3465 63.0321 0.0124 2.2592 0.0015
# 2 36.3465 54.3126 47.4646 0.0195 11.0461 -0.0046
# 3 63.0321 47.4646 130.8387 0.0408 21.6568 -0.0036
# 4 0.0124 0.0195 0.0408 24.3476 -0.0172 10.0614
# 5 2.2592 11.0461 21.6568 -0.0172 29.3160 -0.0022
# 6 0.0015 -0.0046 -0.0036 10.0614 -0.0022 24.4861
#
#
#
# Elastic Compliance Matrix: (Units=1/GPa)
#
#
# Indices 1 2 3 4 5 6 
#
# 1 0.012115 -0.004785 -0.004836 0.000012 0.004442 -0.000007
# 2 -0.004785 0.029139 -0.007416 -0.000017 -0.005132 0.000011
# 3 -0.004836 -0.007416 0.013830 -0.000024 -0.007050 0.000010
# 4 0.000012 -0.000017 -0.000024 0.049472 0.000050 -0.020328
# 5 0.004442 -0.005132 -0.007050 0.000050 0.040910 -0.000019
# 6 -0.000007 0.000011 0.000010 -0.020328 -0.000019 0.049192
#
#
# Mechanical properties :
#
#
# Convention : Reuss Voigt Hill
#
# Bulk Modulus (GPa) = 47.59592 66.67386 57.13489
# Shear Modulus (GPa) = 21.21011 26.26563 23.73787
#
# Velocity S-wave (km/s) = 3.35942 3.73841 3.55397
# Velocity P-wave (km/s) = 6.35398 7.35601 6.87328
#
# Compressibility (1/GPa) = 0.02101020
#
# Stress axis : x y z
#
# Youngs Moduli (GPa) = 82.54049 34.31849 72.30631
#
# Poissons Ratio (x) = 0.16420 0.34968
# Poissons Ratio (y) = 0.39493 0.53624
# Poissons Ratio (z) = 0.39917 0.25451
#
# Static dielectric constant tensor:
#      x y z
#    x 3.963510 -0.000050 -0.314920 
#    y -0.000050 3.313160 0.000060 
#    z -0.314920 0.000060 3.776710 
# 
# 
# High freq. dielectric constant tensor:
#      x y z
#    x 1.740930 0.000000 0.000360 
#    y 0.000000 1.708050 0.000000 
#    z 0.000360 0.000000 1.737050 
# 
# From -- ./inp_files/329543.got.cif
#   From: 2010.06.25/outbox.cif.g09.slc.cpg/sg12_165_cif.got.tgz:329543.got - 2010.06.28 00:19:55.
