data_PCOD8107474
_publ_section_title
;
Structure prediction by ZEFSAII (Michael W. Deem and Ramdas Pophale) SiO2 
 PCOD8107474
Probable space group: C 2/M
;
_chemical_formula_sum "Si O2"
_cell_formula_units_Z 48
_cell_length_a 19.919459
_cell_length_b 7.903244
_cell_length_c 20.250515
_cell_angle_alpha 90.000000
_cell_angle_beta 131.268756
_cell_angle_gamma 90.000000
_cell_volume 2396.180884
_symmetry_space_group_name_H-M "C 2/M"
_symmetry_group_IT_number 12
_symmetry_cell_setting 'monoclinic'
loop_
_space_group_symop_operation_xyz
x,y,z
-x,y,-z
-x,-y,-z
x,-y,z
1/2+x,1/2+y,z
1/2-x,1/2+y,-z
1/2-x,1/2-y,-z
1/2+x,1/2-y,z
loop_
_atom_site_type_symbol
_atom_site_label
_atom_site_fract_x
_atom_site_fract_y
_atom_site_fract_z
Si Si1 0.239105 0.199661 0.592397
Si Si2 0.107977 0.304625 0.402500
Si Si3 0.747265 0.306463 0.749184
Si Si4 0.550431 0.500000 0.931785
Si Si5 0.338501 0.685362 0.091752
Si Si6 0.365294 0.500000 0.870181
Si Si7 0.410124 0.193028 0.270402
O O1 0.149975 0.277484 0.502158
O O2 0.326204 0.274216 0.610637
O O3 0.242453 0.253940 0.670408
O O4 0.234071 0.000000 0.580314
O O5 0.095357 0.500000 0.378321
O O6 0.009105 0.222971 0.334711
O O7 0.784131 0.500000 0.778325
O O8 0.809066 0.172463 0.827314
O O9 0.649172 0.301255 0.717483
O O10 0.583662 0.667340 0.913504
O O11 0.443550 0.500000 0.866426
O O12 0.594484 0.500000 0.031553
O O13 0.318111 0.500000 0.109612
O O14 0.370006 0.807452 0.170434
O O15 0.250000 0.750000 0.000000
O O16 0.411689 0.000000 0.296440
#
# Coordination Sequence:
#
# PCOD8107474 Si02
#       7
#     8   8   8   4   8   4   8
#     4   9  20  38  57  88 121 162 204 257 310 371
#     4   9  20  37  60  85 123 158 208 256 308 372
#     4  11  24  40  65  91 126 168 209 256 320 374
#     4   9  24  40  64  94 124 166 210 260 316 381
#     4  10  21  37  60  88 122 159 204 249 313 368
#     4  11  22  46  66  91 134 158 210 267 310 382
#     4  11  22  38  59  92 123 163 211 265 308 374
#
# _framework density 20.031876
#
# number of rings (size 3 to 8) (size 9 to 14) (size 15 to 20)
#    0.500    1.500    0.833    2.000    3.500    2.000 
#    0.000    6.667    0.000    0.000    0.000    0.000 
#    0.000    0.000    0.000    0.000    0.000    0.000 
#
# Total GULP energy -297528.966394 kJ/mol
# GULP energy per Si atom -12397.040266 kJ/mol
# Density = 1.998628 g / cm^3
# Si number density = 20.031876 Si / 1000 Ang^3
#
#
#
# Elastic Constant Matrix: (Units=GPa)
#
#
# Indices 1 2 3 4 5 6 
#
# 1 125.0242 20.0523 48.5036 0.0000 7.9734 0.0000
# 2 20.0523 63.3063 19.1474 0.0000 5.2650 0.0000
# 3 48.5036 19.1474 96.3310 0.0000 9.2604 0.0000
# 4 0.0000 0.0000 0.0000 27.1695 0.0000 -4.3059
# 5 7.9734 5.2650 9.2604 0.0000 40.1622 0.0000
# 6 0.0000 0.0000 0.0000 -4.3059 0.0000 23.4884
#
#
#
# Elastic Compliance Matrix: (Units=1/GPa)
#
#
# Indices 1 2 3 4 5 6 
#
# 1 0.010143 -0.001734 -0.004695 0.000000 -0.000704 0.000000
# 2 -0.001734 0.017188 -0.002413 0.000000 -0.001353 0.000000
# 3 -0.004695 -0.002413 0.013401 0.000000 -0.001842 0.000000
# 4 0.000000 0.000000 0.000000 0.037907 0.000000 0.006949
# 5 -0.000704 -0.001353 -0.001842 0.000000 0.025641 0.000000
# 6 0.000000 0.000000 0.000000 0.006949 0.000000 0.043848
#
#
# Mechanical properties :
#
#
# Convention : Reuss Voigt Hill
#
# Bulk Modulus (GPa) = 43.38778 51.11868 47.25323
# Shear Modulus (GPa) = 28.81931 31.29457 30.05694
#
# Velocity S-wave (km/s) = 3.79710 3.95680 3.87777
# Velocity P-wave (km/s) = 6.39768 6.81536 6.60982
#
# Compressibility (1/GPa) = 0.02304796
#
# Stress axis : x y z
#
# Youngs Moduli (GPa) = 98.59219 58.18048 74.61940
#
# Poissons Ratio (x) = 0.10090 0.35031
# Poissons Ratio (y) = 0.17099 0.18007
# Poissons Ratio (z) = 0.46285 0.14040
#
# Static dielectric constant tensor:
#      x y z
#    x 3.937490 0.000000 0.078960 
#    y 0.000000 3.697470 0.000000 
#    z 0.078960 0.000000 3.530790 
# 
# 
# High freq. dielectric constant tensor:
#      x y z
#    x 1.788070 0.000000 -0.000500 
#    y 0.000000 1.769980 0.000000 
#    z -0.000500 0.000000 1.779850 
# 
# From -- ./inp_files/323886.got.cif
#   From: 2010.06.25/outbox.cif.g09.slc.cpg/sg12_162_cif.got.tgz:323886.got - 2010.06.28 00:19:55.
