data_PCOD8107631
_publ_section_title
;
Structure prediction by ZEFSAII (Michael W. Deem and Ramdas Pophale) SiO2 
 PCOD8107631
Probable space group: C 2/M
;
_chemical_formula_sum "Si O2"
_cell_formula_units_Z 40
_cell_length_a 8.619468
_cell_length_b 28.848559
_cell_length_c 12.078925
_cell_angle_alpha 90.000000
_cell_angle_beta 142.189837
_cell_angle_gamma 90.000000
_cell_volume 1841.309460
_symmetry_space_group_name_H-M "C 2/M"
_symmetry_group_IT_number 12
_symmetry_cell_setting 'monoclinic'
loop_
_space_group_symop_operation_xyz
x,y,z
-x,y,-z
-x,-y,-z
x,-y,z
1/2+x,1/2+y,z
1/2-x,1/2+y,-z
1/2-x,1/2-y,-z
1/2+x,1/2-y,z
loop_
_atom_site_type_symbol
_atom_site_label
_atom_site_fract_x
_atom_site_fract_y
_atom_site_fract_z
Si Si1 0.966841 0.093429 0.638187
Si Si2 0.636705 0.947757 0.284431
Si Si3 0.918416 0.945928 0.074720
Si Si4 0.765896 0.766333 0.633428
Si Si5 0.276825 0.688850 0.202354
O O1 0.151280 0.054146 0.691333
O O2 0.933005 0.084266 0.749722
O O3 0.090264 0.142698 0.677153
O O4 0.700216 0.086674 0.423604
O O5 0.612682 0.000000 0.317184
O O6 0.375812 0.933219 0.079759
O O7 0.979870 0.000000 0.126662
O O8 0.000000 0.928887 0.000000
O O9 0.500000 0.795445 0.500000
O O10 0.750000 0.750000 0.500000
O O11 0.761035 0.724635 0.718640
O O12 0.033407 0.793746 0.790401
O O13 0.000000 0.677341 0.000000
#
# Coordination Sequence:
#
# PCOD8107631 Si02
#       5
#     8   8   8   8   8
#     4  11  22  37  61  94 122 159 211 261 301 361
#     4  10  21  37  62  89 123 169 211 253 305 365
#     4  10  21  39  59  87 129 169 206 253 309 365
#     4   9  21  40  62  87 118 160 199 246 317 379
#     4  11  22  40  64  92 122 160 203 260 312 373
#
# _framework density 21.723669999999998
#
# number of rings (size 3 to 8) (size 9 to 14) (size 15 to 20)
#    0.000    1.800    0.000    4.800    8.400    2.400 
#    3.600    6.000    0.000    0.000    0.000    0.000 
#    0.000    0.000    0.000    0.000    0.000    0.000 
#
# Total GULP energy -247791.536649 kJ/mol
# GULP energy per Si atom -12389.576832 kJ/mol
# Density = 2.167423 g / cm^3
# Si number density = 21.723670 Si / 1000 Ang^3
#
#
#
# Elastic Constant Matrix: (Units=GPa)
#
#
# Indices 1 2 3 4 5 6 
#
# 1 92.4883 18.1606 16.3544 0.0000 -7.1215 0.0000
# 2 18.1606 83.4511 32.3684 0.0000 -1.1058 0.0000
# 3 16.3544 32.3684 61.2316 0.0000 -10.5500 0.0000
# 4 0.0000 0.0000 0.0000 26.0275 0.0000 -5.7685
# 5 -7.1215 -1.1058 -10.5500 0.0000 44.2647 0.0000
# 6 0.0000 0.0000 0.0000 -5.7685 0.0000 22.4117
#
#
#
# Elastic Compliance Matrix: (Units=1/GPa)
#
#
# Indices 1 2 3 4 5 6 
#
# 1 0.011604 -0.001756 -0.001936 0.000000 0.001362 0.000000
# 2 -0.001756 0.015447 -0.008008 0.000000 -0.001805 0.000000
# 3 -0.001936 -0.008008 0.021893 0.000000 0.004706 0.000000
# 4 0.000000 0.000000 0.000000 0.040745 0.000000 0.010487
# 5 0.001362 -0.001805 0.004706 0.000000 0.023887 0.000000
# 6 0.000000 0.000000 0.000000 0.010487 0.000000 0.047319
#
#
# Mechanical properties :
#
#
# Convention : Reuss Voigt Hill
#
# Bulk Modulus (GPa) = 39.14904 41.21528 40.18216
# Shear Modulus (GPa) = 25.93220 29.89330 27.91275
#
# Velocity S-wave (km/s) = 3.45879 3.71357 3.58844
# Velocity P-wave (km/s) = 5.83193 6.11565 5.97547
#
# Compressibility (1/GPa) = 0.02554341
#
# Stress axis : x y z
#
# Youngs Moduli (GPa) = 86.17522 64.73618 45.67755
#
# Poissons Ratio (x) = 0.11369 0.08845
# Poissons Ratio (y) = 0.15134 0.36577
# Poissons Ratio (z) = 0.16687 0.51839
#
# Static dielectric constant tensor:
#      x y z
#    x 4.460750 0.000000 0.425770 
#    y 0.000000 3.859720 0.000000 
#    z 0.425770 0.000000 4.259180 
# 
# 
# High freq. dielectric constant tensor:
#      x y z
#    x 1.852340 0.000000 0.004020 
#    y 0.000000 1.826640 0.000000 
#    z 0.004020 0.000000 1.863650 
# 
# From -- ./inp_files/125005.got.cif
#   From: 2010.06.25/outbox.cif.g09.slc.cpg/sg12_63_cif.got.tgz:125005.got - 2010.06.28 00:19:55.
