data_PCOD8107605
_publ_section_title
;
Structure prediction by ZEFSAII (Michael W. Deem and Ramdas Pophale) SiO2 
 PCOD8107605
Probable space group: C 2/M
;
_chemical_formula_sum "Si O2"
_cell_formula_units_Z 56
_cell_length_a 27.745749
_cell_length_b 18.434768
_cell_length_c 9.490454
_cell_angle_alpha 90.000000
_cell_angle_beta 32.935611
_cell_angle_gamma 90.000000
_cell_volume 2639.231040
_symmetry_space_group_name_H-M "C 2/M"
_symmetry_group_IT_number 12
_symmetry_cell_setting 'monoclinic'
loop_
_space_group_symop_operation_xyz
x,y,z
-x,y,-z
-x,-y,-z
x,-y,z
1/2+x,1/2+y,z
1/2-x,1/2+y,-z
1/2-x,1/2-y,-z
1/2+x,1/2-y,z
loop_
_atom_site_type_symbol
_atom_site_label
_atom_site_fract_x
_atom_site_fract_y
_atom_site_fract_z
Si Si1 0.644265 0.284742 0.389806
Si Si2 0.040293 0.718152 0.098097
Si Si3 0.560356 0.082908 0.220664
Si Si4 0.692866 0.792928 0.526485
Si Si5 0.257189 0.918028 0.076944
Si Si6 0.737109 0.583539 0.810004
Si Si7 0.401084 0.303524 0.794061
O O1 0.546505 0.268577 0.692911
O O2 0.711010 0.239951 0.325616
O O3 0.672791 0.369028 0.328801
O O4 0.649167 0.261956 0.212928
O O5 0.026628 0.634335 0.176826
O O6 0.106511 0.751868 0.052647
O O7 0.089884 0.715666 0.825436
O O8 0.500000 0.102816 0.500000
O O9 0.546326 0.000000 0.206196
O O10 0.661444 0.097796 0.018175
O O11 0.750000 0.750000 0.500000
O O12 0.715547 0.877385 0.441384
O O13 0.223541 0.000000 0.178254
O O14 0.287221 0.906865 0.838598
O O15 0.727630 0.500000 0.790131
O O16 0.640025 0.618633 0.067151
O O17 0.500000 0.319404 0.500000
#
# Coordination Sequence:
#
# PCOD8107605 Si02
#       7
#     8   8   8   8   8   8   8
#     4  10  22  39  64  89 121 162 208 264 309 362
#     4  11  22  39  59  93 124 160 212 252 312 380
#     4  10  21  37  61  93 130 163 208 270 317 371
#     4  12  24  39  59  86 127 168 208 254 304 379
#     4   9  20  39  65  96 124 160 211 265 321 372
#     4  10  22  38  60  91 124 163 207 255 316 374
#     4   9  19  37  64  93 119 154 204 261 310 369
#
# _framework density 21.218301
#
# number of rings (size 3 to 8) (size 9 to 14) (size 15 to 20)
#    0.000    1.857    1.429    2.571    4.000    2.000 
#    0.000    2.857    0.000    2.571    0.000    0.000 
#    0.000    0.000    0.000    0.000    0.000    0.000 
#
# Total GULP energy -346952.532794 kJ/mol
# GULP energy per Si atom -12391.161885 kJ/mol
# Density = 2.117001 g / cm^3
# Si number density = 21.218301 Si / 1000 Ang^3
#
#
#
# Elastic Constant Matrix: (Units=GPa)
#
#
# Indices 1 2 3 4 5 6 
#
# 1 64.7409 34.1649 16.9920 0.0000 10.5698 0.0000
# 2 34.1649 124.0449 47.2780 0.0000 12.0744 0.0000
# 3 16.9920 47.2780 104.8451 0.0000 14.1161 0.0000
# 4 0.0000 0.0000 0.0000 39.5085 0.0000 -0.5500
# 5 10.5698 12.0744 14.1161 0.0000 22.1525 0.0000
# 6 0.0000 0.0000 0.0000 -0.5500 0.0000 20.9723
#
#
#
# Elastic Compliance Matrix: (Units=1/GPa)
#
#
# Indices 1 2 3 4 5 6 
#
# 1 0.018931 -0.004525 -0.000157 0.000000 -0.006466 0.000000
# 2 -0.004525 0.010971 -0.004047 0.000000 -0.001242 0.000000
# 3 -0.000157 -0.004047 0.012121 0.000000 -0.005443 0.000000
# 4 0.000000 0.000000 0.000000 0.025320 0.000000 0.000664
# 5 -0.006466 -0.001242 -0.005443 0.000000 0.052373 0.000000
# 6 0.000000 0.000000 0.000000 0.000664 0.000000 0.047699
#
#
# Mechanical properties :
#
#
# Convention : Reuss Voigt Hill
#
# Bulk Modulus (GPa) = 40.70673 54.50010 47.60341
# Shear Modulus (GPa) = 25.89859 29.53973 27.71916
#
# Velocity S-wave (km/s) = 3.49747 3.73524 3.61831
# Velocity P-wave (km/s) = 5.96121 6.65912 6.31981
#
# Compressibility (1/GPa) = 0.02456596
#
# Stress axis : x y z
#
# Youngs Moduli (GPa) = 52.82365 91.14896 82.50183
#
# Poissons Ratio (x) = 0.41242 0.01296
# Poissons Ratio (y) = 0.23901 0.33385
# Poissons Ratio (z) = 0.00830 0.36885
#
# Static dielectric constant tensor:
#      x y z
#    x 4.118210 0.000000 0.073110 
#    y 0.000000 3.835410 0.000000 
#    z 0.073110 0.000000 3.799460 
# 
# 
# High freq. dielectric constant tensor:
#      x y z
#    x 1.836910 0.000000 -0.001990 
#    y 0.000000 1.824850 0.000000 
#    z -0.001990 0.000000 1.826240 
# 
# From -- ./inp_files/105970.got.cif
#   From: 2010.06.25/outbox.cif.g09.slc.cpg/sg12_53_cif.got.tgz:105970.got - 2010.06.28 00:19:55.
