data_PCOD8107860
_publ_section_title
;
Structure prediction by ZEFSAII (Michael W. Deem and Ramdas Pophale) SiO2 
 PCOD8107860
Probable space group: C 2/M
;
_chemical_formula_sum "Si O2"
_cell_formula_units_Z 56
_cell_length_a 11.635032
_cell_length_b 14.570972
_cell_length_c 16.367645
_cell_angle_alpha 90.000000
_cell_angle_beta 89.851955
_cell_angle_gamma 90.000000
_cell_volume 2774.858571
_symmetry_space_group_name_H-M "C 2/M"
_symmetry_group_IT_number 12
_symmetry_cell_setting 'monoclinic'
loop_
_space_group_symop_operation_xyz
x,y,z
-x,y,-z
-x,-y,-z
x,-y,z
1/2+x,1/2+y,z
1/2-x,1/2+y,-z
1/2-x,1/2-y,-z
1/2+x,1/2-y,z
loop_
_atom_site_type_symbol
_atom_site_label
_atom_site_fract_x
_atom_site_fract_y
_atom_site_fract_z
Si Si1 0.855597 0.225317 0.213706
Si Si2 0.970425 0.691829 0.358591
Si Si3 0.010854 0.894825 0.907243
Si Si4 0.385641 0.345703 0.472455
Si Si5 0.762081 0.101595 0.622466
Si Si6 0.712639 0.396694 0.197987
Si Si7 0.786105 0.395398 0.665407
O O1 0.807816 0.320621 0.177178
O O2 0.756321 0.169281 0.261342
O O3 0.960594 0.247476 0.275580
O O4 0.893995 0.165990 0.136969
O O5 0.093411 0.644074 0.367486
O O6 0.940249 0.752381 0.437373
O O7 0.871710 0.614427 0.356085
O O8 0.890920 0.880831 0.862979
O O9 0.052107 0.000000 0.903539
O O10 0.000000 0.860714 0.000000
O O11 0.500000 0.403924 0.500000
O O12 0.310079 0.326409 0.555204
O O13 0.307120 0.397415 0.407124
O O14 0.830536 0.115152 0.707681
O O15 0.780733 0.000000 0.586038
O O16 0.763417 0.500000 0.186725
O O17 0.801819 0.500000 0.696103
#
# Coordination Sequence:
#
# PCOD8107860 Si02
#       7
#     8   8   8   8   8   8   8
#     4  10  21  38  63  89 117 153 195 238 292 349
#     4  10  23  38  60  82 115 153 198 245 297 350
#     4  10  21  38  61  90 121 153 190 234 287 348
#     4  11  26  37  56  79 115 155 202 244 294 349
#     4  10  21  38  58  81 111 151 197 244 297 350
#     4   9  20  38  61  85 116 154 192 235 291 352
#     4  11  24  40  59  86 118 154 199 250 298 342
#
# _framework density 20.181208999999999
#
# number of rings (size 3 to 8) (size 9 to 14) (size 15 to 20)
#    0.000    1.857    0.000    2.571   12.000    2.286 
#    0.000    1.429    0.000    0.429    0.000    0.000 
#    0.000    0.000    0.000    0.000    0.000    0.000 
#
# Total GULP energy -347086.501025 kJ/mol
# GULP energy per Si atom -12395.946465 kJ/mol
# Density = 2.013528 g / cm^3
# Si number density = 20.181209 Si / 1000 Ang^3
#
#
#
# Elastic Constant Matrix: (Units=GPa)
#
#
# Indices 1 2 3 4 5 6 
#
# 1 120.8655 54.3910 59.1507 0.0000 -2.6995 0.0000
# 2 54.3910 114.9895 52.9265 0.0000 0.3064 0.0000
# 3 59.1507 52.9265 138.7058 0.0000 -2.7063 0.0000
# 4 0.0000 0.0000 0.0000 24.2316 0.0000 -3.8485
# 5 -2.6995 0.3064 -2.7063 0.0000 19.8717 0.0000
# 6 0.0000 0.0000 0.0000 -3.8485 0.0000 25.9138
#
#
#
# Elastic Compliance Matrix: (Units=1/GPa)
#
#
# Indices 1 2 3 4 5 6 
#
# 1 0.011798 -0.003977 -0.003491 0.000000 0.001189 0.000000
# 2 -0.003977 0.011900 -0.002866 0.000000 -0.001114 0.000000
# 3 -0.003491 -0.002866 0.009809 0.000000 0.000906 0.000000
# 4 0.000000 0.000000 0.000000 0.042265 0.000000 0.006277
# 5 0.001189 -0.001114 0.000906 0.000000 0.050625 0.000000
# 6 0.000000 0.000000 0.000000 0.006277 0.000000 0.039522
#
#
# Mechanical properties :
#
#
# Convention : Reuss Voigt Hill
#
# Bulk Modulus (GPa) = 77.88532 78.61080 78.24806
# Shear Modulus (GPa) = 26.19614 27.87625 27.03619
#
# Velocity S-wave (km/s) = 3.60675 3.72061 3.66412
# Velocity P-wave (km/s) = 7.48476 7.58250 7.53379
#
# Compressibility (1/GPa) = 0.01283939
#
# Stress axis : x y z
#
# Youngs Moduli (GPa) = 84.75826 84.03355 101.94263
#
# Poissons Ratio (x) = 0.33422 0.35583
# Poissons Ratio (y) = 0.33711 0.29221
# Poissons Ratio (z) = 0.29585 0.24087
#
# Static dielectric constant tensor:
#      x y z
#    x 3.670180 0.000000 0.144540 
#    y 0.000000 3.721860 0.000000 
#    z 0.144540 0.000000 3.612910 
# 
# 
# High freq. dielectric constant tensor:
#      x y z
#    x 1.784110 0.000000 0.012060 
#    y 0.000000 1.793140 0.000000 
#    z 0.012060 0.000000 1.771440 
# 
# From -- ./inp_files/205004.got.cif
#   From: 2010.06.25/outbox.cif.g09.slc.cpg/sg12_103_cif.got.tgz:205004.got - 2010.06.28 00:19:55.
