data_PCOD8107587
_publ_section_title
;
Structure prediction by ZEFSAII (Michael W. Deem and Ramdas Pophale) SiO2 
 PCOD8107587
Probable space group: C 2/M
;
_chemical_formula_sum "Si O2"
_cell_formula_units_Z 48
_cell_length_a 24.875575
_cell_length_b 8.463056
_cell_length_c 12.277782
_cell_angle_alpha 90.000000
_cell_angle_beta 109.371128
_cell_angle_gamma 90.000000
_cell_volume 2438.436730
_symmetry_space_group_name_H-M "C 2/M"
_symmetry_group_IT_number 12
_symmetry_cell_setting 'monoclinic'
loop_
_space_group_symop_operation_xyz
x,y,z
-x,y,-z
-x,-y,-z
x,-y,z
1/2+x,1/2+y,z
1/2-x,1/2+y,-z
1/2-x,1/2-y,-z
1/2+x,1/2-y,z
loop_
_atom_site_type_symbol
_atom_site_label
_atom_site_fract_x
_atom_site_fract_y
_atom_site_fract_z
Si Si1 0.753959 0.816230 0.881659
Si Si2 0.139702 0.817943 0.727439
Si Si3 0.940552 0.182210 0.734997
Si Si4 0.938873 0.316530 0.500329
Si Si5 0.065843 0.182527 0.886721
Si Si6 0.368088 0.182124 0.870971
O O1 0.695263 0.789579 0.778627
O O2 0.803152 0.727570 0.849412
O O3 0.768929 0.000000 0.898054
O O4 0.750000 0.750000 0.000000
O O5 0.110786 0.779758 0.593054
O O6 0.094745 0.777199 0.791408
O O7 0.158389 0.000000 0.743876
O O8 0.932320 0.289787 0.624001
O O9 0.889690 0.214423 0.784375
O O10 0.999541 0.226175 0.834262
O O11 0.940688 0.000000 0.698751
O O12 0.931867 0.500000 0.467577
O O13 0.000000 0.253248 0.500000
O O14 0.074912 0.000000 0.925167
O O15 0.093722 0.290008 0.997125
O O16 0.371893 0.000000 0.840841
#
# Coordination Sequence:
#
# PCOD8107587 Si02
#       6
#     8   8   8   8   8   8
#     4  12  24  41  64  91 123 162 206 254 306 363
#     4  11  22  39  64  94 125 160 205 255 305 361
#     4  11  23  41  63  89 125 167 209 253 307 368
#     4  11  23  39  62  92 127 163 206 255 303 361
#     4  10  21  37  61  91 126 163 203 252 307 367
#     4  12  25  40  61  91 127 165 205 254 312 369
#
# _framework density 19.684743000000001
#
# number of rings (size 3 to 8) (size 9 to 14) (size 15 to 20)
#    0.000    0.833    3.333    5.000    0.000    4.667 
#    0.000    0.833    0.000    0.000    0.000    0.000 
#    0.000    0.000    0.000    0.000    0.000    0.000 
#
# Total GULP energy -297815.236598 kJ/mol
# GULP energy per Si atom -12408.968192 kJ/mol
# Density = 1.963994 g / cm^3
# Si number density = 19.684743 Si / 1000 Ang^3
#
#
#
# Elastic Constant Matrix: (Units=GPa)
#
#
# Indices 1 2 3 4 5 6 
#
# 1 118.6720 14.1186 32.3361 0.0000 1.9153 0.0000
# 2 14.1186 64.7215 20.3199 0.0000 2.2250 0.0000
# 3 32.3361 20.3199 72.5592 0.0000 11.0360 0.0000
# 4 0.0000 0.0000 0.0000 35.0942 0.0000 0.1978
# 5 1.9153 2.2250 11.0360 0.0000 29.9672 0.0000
# 6 0.0000 0.0000 0.0000 0.1978 0.0000 30.9857
#
#
#
# Elastic Compliance Matrix: (Units=1/GPa)
#
#
# Indices 1 2 3 4 5 6 
#
# 1 0.009660 -0.000814 -0.004229 0.000000 0.001000 0.000000
# 2 -0.000814 0.017016 -0.004469 0.000000 0.000434 0.000000
# 3 -0.004229 -0.004469 0.017825 0.000000 -0.005962 0.000000
# 4 0.000000 0.000000 0.000000 0.028496 0.000000 -0.000182
# 5 0.001000 0.000434 -0.005962 0.000000 0.035469 0.000000
# 6 0.000000 0.000000 0.000000 -0.000182 0.000000 0.032274
#
#
# Mechanical properties :
#
#
# Convention : Reuss Voigt Hill
#
# Bulk Modulus (GPa) = 39.25021 43.27798 41.26409
# Shear Modulus (GPa) = 29.71663 31.82129 30.76896
#
# Velocity S-wave (km/s) = 3.88961 4.02499 3.95788
# Velocity P-wave (km/s) = 6.33678 6.60560 6.47259
#
# Compressibility (1/GPa) = 0.02547757
#
# Stress axis : x y z
#
# Youngs Moduli (GPa) = 103.52375 58.76671 56.10145
#
# Poissons Ratio (x) = 0.04783 0.23726
# Poissons Ratio (y) = 0.08425 0.25070
# Poissons Ratio (z) = 0.43781 0.26261
#
# Static dielectric constant tensor:
#      x y z
#    x 3.680660 0.000000 0.048950 
#    y 0.000000 3.600060 0.000000 
#    z 0.048950 0.000000 3.366400 
# 
# 
# High freq. dielectric constant tensor:
#      x y z
#    x 1.770130 0.000000 0.002240 
#    y 0.000000 1.774890 0.000000 
#    z 0.002240 0.000000 1.763380 
# 
# From -- ./inp_files/172945.got.cif
#   From: 2010.06.25/outbox.cif.g09.slc.cpg/sg12_87_cif.got.tgz:172945.got - 2010.06.28 00:19:55.
