data_PCOD8107903
_publ_section_title
;
Structure prediction by ZEFSAII (Michael W. Deem and Ramdas Pophale) SiO2 
 PCOD8107903
Probable space group: C 2/M
;
_chemical_formula_sum "Si O2"
_cell_formula_units_Z 64
_cell_length_a 24.771755
_cell_length_b 18.605406
_cell_length_c 15.689354
_cell_angle_alpha 90.000000
_cell_angle_beta 26.701271
_cell_angle_gamma 90.000000
_cell_volume 3249.188643
_symmetry_space_group_name_H-M "C 2/M"
_symmetry_group_IT_number 12
_symmetry_cell_setting 'monoclinic'
loop_
_space_group_symop_operation_xyz
x,y,z
-x,y,-z
-x,-y,-z
x,-y,z
1/2+x,1/2+y,z
1/2-x,1/2+y,-z
1/2-x,1/2-y,-z
1/2+x,1/2-y,z
loop_
_atom_site_type_symbol
_atom_site_label
_atom_site_fract_x
_atom_site_fract_y
_atom_site_fract_z
Si Si1 0.692704 0.918569 0.996538
Si Si2 0.135588 0.754445 0.780545
Si Si3 0.304032 0.816517 0.683463
Si Si4 0.762801 0.137027 0.493210
Si Si5 0.621633 0.666856 0.372638
Si Si6 0.070890 0.080886 0.605861
Si Si7 0.582476 0.081271 0.610018
Si Si8 0.799979 0.082682 0.025957
O O1 0.554057 0.906468 0.168403
O O2 0.733379 0.000000 0.916419
O O3 0.765512 0.861320 0.839394
O O4 0.714018 0.904433 0.066459
O O5 0.203192 0.778045 0.770041
O O6 0.149537 0.814616 0.688200
O O7 0.188742 0.681333 0.667709
O O8 0.000000 0.741997 0.000000
O O9 0.377976 0.753414 0.625519
O O10 0.392731 0.863217 0.500460
O O11 0.243773 0.868211 0.836211
O O12 0.851553 0.083017 0.416955
O O13 0.669046 0.093299 0.568196
O O14 0.500000 0.639705 0.500000
O O15 0.629675 0.634806 0.455705
O O16 0.935098 0.106174 0.813520
O O17 0.072171 0.000000 0.567758
O O18 0.600580 0.000000 0.550778
O O19 0.795990 0.000000 0.061805
#
# Coordination Sequence:
#
# PCOD8107903 Si02
#       8
#     8   8   8   8   8   8   8   8
#     4  10  23  42  62  88 121 160 200 246 301 352
#     4  10  21  38  58  86 126 158 191 244 303 350
#     4  11  24  39  61  91 123 158 198 246 301 356
#     4  10  21  38  61  89 118 157 201 242 295 357
#     4  12  25  40  60  90 124 158 200 246 303 354
#     4  11  22  40  64  90 119 155 204 252 296 351
#     4  10  23  42  63  88 122 159 199 246 298 357
#     4  10  22  40  64  89 118 159 203 247 297 355
#
# _framework density 19.697225
#
# number of rings (size 3 to 8) (size 9 to 14) (size 15 to 20)
#    0.000    1.500    2.500    1.875    3.500    2.000 
#    0.000    1.875    0.000    9.000    0.000    0.000 
#    0.000    0.000    0.000    0.000    0.000    0.000 
#
# Total GULP energy -396926.097776 kJ/mol
# GULP energy per Si atom -12403.940556 kJ/mol
# Density = 1.965239 g / cm^3
# Si number density = 19.697225 Si / 1000 Ang^3
#
#
#
# Elastic Constant Matrix: (Units=GPa)
#
#
# Indices 1 2 3 4 5 6 
#
# 1 69.4643 30.4193 41.8516 0.0000 -1.3272 0.0001
# 2 30.4193 98.8607 36.9782 0.0001 8.8789 0.0000
# 3 41.8516 36.9782 74.8301 -0.0001 2.2253 0.0001
# 4 0.0000 0.0001 -0.0001 46.4556 0.0000 -2.4895
# 5 -1.3272 8.8789 2.2253 0.0000 31.8361 0.0000
# 6 0.0001 0.0000 0.0001 -2.4895 0.0000 39.3344
#
#
#
# Elastic Compliance Matrix: (Units=1/GPa)
#
#
# Indices 1 2 3 4 5 6 
#
# 1 0.022481 -0.002962 -0.011185 0.000000 0.002545 0.000000
# 2 -0.002962 0.013100 -0.004714 0.000000 -0.003447 0.000000
# 3 -0.011185 -0.004714 0.021969 0.000000 -0.000687 0.000000
# 4 0.000000 0.000000 0.000000 0.021599 0.000000 0.001367
# 5 0.002545 -0.003447 -0.000687 0.000000 0.032526 0.000000
# 6 0.000000 0.000000 0.000000 0.001367 0.000000 0.025510
#
#
# Mechanical properties :
#
#
# Convention : Reuss Voigt Hill
#
# Bulk Modulus (GPa) = 50.43670 51.29480 50.86575
# Shear Modulus (GPa) = 27.54579 32.45229 29.99904
#
# Velocity S-wave (km/s) = 3.74366 4.06341 3.90681
# Velocity P-wave (km/s) = 6.65944 6.93637 6.79932
#
# Compressibility (1/GPa) = 0.01982683
#
# Stress axis : x y z
#
# Youngs Moduli (GPa) = 44.48297 76.33822 45.51825
#
# Poissons Ratio (x) = 0.22612 0.50912
# Poissons Ratio (y) = 0.13176 0.21458
# Poissons Ratio (z) = 0.49754 0.35987
#
# Static dielectric constant tensor:
#      x y z
#    x 3.647220 0.000000 -0.044500 
#    y 0.000000 3.612380 0.000000 
#    z -0.044500 0.000000 3.460190 
# 
# 
# High freq. dielectric constant tensor:
#      x y z
#    x 1.777610 0.000000 -0.004440 
#    y 0.000000 1.772350 0.000000 
#    z -0.004440 0.000000 1.767680 
# 
# From -- ./inp_files/241450.got.cif
#   From: 2010.06.25/outbox.cif.g09.slc.cpg/sg12_121_cif.got.tgz:241450.got - 2010.06.28 00:19:55.
