data_PCOD8107823
_publ_section_title
;
Structure prediction by ZEFSAII (Michael W. Deem and Ramdas Pophale) SiO2 
 PCOD8107823
Probable space group: C 2/M
;
_chemical_formula_sum "Si O2"
_cell_formula_units_Z 64
_cell_length_a 30.209863
_cell_length_b 8.934973
_cell_length_c 14.206395
_cell_angle_alpha 90.000000
_cell_angle_beta 54.758155
_cell_angle_gamma 90.000000
_cell_volume 3131.850629
_symmetry_space_group_name_H-M "C 2/M"
_symmetry_group_IT_number 12
_symmetry_cell_setting 'monoclinic'
loop_
_space_group_symop_operation_xyz
x,y,z
-x,y,-z
-x,-y,-z
x,-y,z
1/2+x,1/2+y,z
1/2-x,1/2+y,-z
1/2-x,1/2-y,-z
1/2+x,1/2-y,z
loop_
_atom_site_type_symbol
_atom_site_label
_atom_site_fract_x
_atom_site_fract_y
_atom_site_fract_z
Si Si1 0.337747 0.823841 0.649389
Si Si2 0.000642 0.331530 0.254581
Si Si3 0.888322 0.172219 0.916301
Si Si4 0.449619 0.831610 0.118913
Si Si5 0.245302 0.324312 0.404244
Si Si6 0.703687 0.673381 0.117484
Si Si7 0.547497 0.325129 0.512664
Si Si8 0.152192 0.175915 0.834167
O O1 0.311236 0.787062 0.579796
O O2 0.300940 0.750358 0.775445
O O3 0.398441 0.763083 0.579928
O O4 0.338375 0.000000 0.666918
O O5 0.004463 0.500000 0.291537
O O6 0.060072 0.278165 0.153115
O O7 0.961317 0.330943 0.214344
O O8 0.973312 0.217314 0.359428
O O9 0.853347 0.193039 0.865646
O O10 0.907186 0.000000 0.904238
O O11 0.853402 0.224601 0.049870
O O12 0.397201 0.733282 0.167235
O O13 0.439084 0.000000 0.094530
O O14 0.500000 0.760768 0.000000
O O15 0.251322 0.500000 0.412886
O O16 0.250000 0.250000 0.500000
O O17 0.292595 0.260259 0.278324
O O18 0.718363 0.500000 0.112625
O O19 0.750000 0.750000 0.000000
O O20 0.500000 0.278997 0.500000
O O21 0.560805 0.500000 0.491106
O O22 0.153079 0.000000 0.825586
#
# Coordination Sequence:
#
# PCOD8107823 Si02
#       8
#     8   8   8   8   8   8   8   8
#     4  11  24  44  67  93 129 166 208 263 317 374
#     4  11  23  38  60  89 122 159 202 249 307 370
#     4  10  21  38  60  88 123 158 197 250 307 367
#     4  10  21  38  57  86 126 160 195 248 305 360
#     4  10  24  44  64  90 123 162 209 261 313 369
#     4  11  23  40  64  93 125 161 204 254 310 371
#     4  11  25  44  65  91 126 166 210 260 312 371
#     4  10  21  38  61  87 118 158 204 250 303 364
#
# _framework density 20.435203000000001
#
# number of rings (size 3 to 8) (size 9 to 14) (size 15 to 20)
#    0.000    1.500    1.250    3.000    1.750    9.750 
#    0.000    1.250    0.000    0.000    0.000    0.000 
#    0.000    0.000    0.000    0.000    0.000    0.000 
#
# Total GULP energy -396909.875591 kJ/mol
# GULP energy per Si atom -12403.433612 kJ/mol
# Density = 2.038869 g / cm^3
# Si number density = 20.435203 Si / 1000 Ang^3
#
#
#
# Elastic Constant Matrix: (Units=GPa)
#
#
# Indices 1 2 3 4 5 6 
#
# 1 96.5958 41.7484 47.5081 0.0000 3.9764 0.0000
# 2 41.7484 64.8919 49.6475 0.0000 3.9793 0.0000
# 3 47.5081 49.6475 123.6578 0.0000 3.3144 0.0000
# 4 0.0000 0.0000 0.0000 31.8965 0.0000 1.8704
# 5 3.9764 3.9793 3.3144 0.0000 36.8345 0.0000
# 6 0.0000 0.0000 0.0000 1.8704 0.0000 30.9540
#
#
#
# Elastic Compliance Matrix: (Units=1/GPa)
#
#
# Indices 1 2 3 4 5 6 
#
# 1 0.014957 -0.007511 -0.002716 0.000000 -0.000559 0.000000
# 2 -0.007511 0.026109 -0.007561 0.000000 -0.001329 0.000000
# 3 -0.002716 -0.007561 0.012166 0.000000 0.000015 0.000000
# 4 0.000000 0.000000 0.000000 0.031463 0.000000 -0.001901
# 5 -0.000559 -0.001329 0.000015 0.000000 0.027351 0.000000
# 6 0.000000 0.000000 0.000000 -0.001901 0.000000 0.032421
#
#
# Mechanical properties :
#
#
# Convention : Reuss Voigt Hill
#
# Bulk Modulus (GPa) = 56.63833 62.55041 59.59437
# Shear Modulus (GPa) = 26.89220 29.68643 28.28931
#
# Velocity S-wave (km/s) = 3.63157 3.81558 3.72471
# Velocity P-wave (km/s) = 6.73503 7.07723 6.90825
#
# Compressibility (1/GPa) = 0.01765589
#
# Stress axis : x y z
#
# Youngs Moduli (GPa) = 66.85717 38.30145 82.19837
#
# Poissons Ratio (x) = 0.28766 0.22325
# Poissons Ratio (y) = 0.50213 0.62153
# Poissons Ratio (z) = 0.18159 0.28961
#
# Static dielectric constant tensor:
#      x y z
#    x 3.761460 0.000000 0.117020 
#    y 0.000000 3.748800 0.000000 
#    z 0.117020 0.000000 3.400660 
# 
# 
# High freq. dielectric constant tensor:
#      x y z
#    x 1.807460 0.000000 0.002150 
#    y 0.000000 1.797640 0.000000 
#    z 0.002150 0.000000 1.808780 
# 
# From -- ./inp_files/249883.got.cif
#   From: 2010.06.25/outbox.cif.g09.slc.cpg/sg12_125_cif.got.tgz:249883.got - 2010.06.28 00:19:55.
