data_PCOD8107475
_publ_section_title
;
Structure prediction by ZEFSAII (Michael W. Deem and Ramdas Pophale) SiO2 
 PCOD8107475
Probable space group: C 2/M
;
_chemical_formula_sum "Si O2"
_cell_formula_units_Z 56
_cell_length_a 26.402560
_cell_length_b 10.186641
_cell_length_c 15.936747
_cell_angle_alpha 90.000000
_cell_angle_beta 42.896305
_cell_angle_gamma 90.000000
_cell_volume 2917.532084
_symmetry_space_group_name_H-M "C 2/M"
_symmetry_group_IT_number 12
_symmetry_cell_setting 'monoclinic'
loop_
_space_group_symop_operation_xyz
x,y,z
-x,y,-z
-x,-y,-z
x,-y,z
1/2+x,1/2+y,z
1/2-x,1/2+y,-z
1/2-x,1/2-y,-z
1/2+x,1/2-y,z
loop_
_atom_site_type_symbol
_atom_site_label
_atom_site_fract_x
_atom_site_fract_y
_atom_site_fract_z
Si Si1 0.829999 0.238962 0.359326
Si Si2 0.913159 0.500000 0.204380
Si Si3 0.368006 0.648454 0.482030
Si Si4 0.983518 0.154698 0.609439
Si Si5 0.247387 0.849880 0.700536
Si Si6 0.835742 0.145167 0.860449
Si Si7 0.200916 0.285823 0.923406
Si Si8 0.410201 0.000000 0.008682
O O1 0.750000 0.250000 0.500000
O O2 0.871999 0.376186 0.295043
O O3 0.875253 0.154621 0.372258
O O4 0.821794 0.164582 0.280442
O O5 0.001490 0.500000 0.119558
O O6 0.899316 0.500000 0.121732
O O7 0.345995 0.500000 0.536445
O O8 0.449437 0.689189 0.411234
O O9 0.310520 0.748452 0.594431
O O10 0.908355 0.219784 0.736430
O O11 0.000000 0.220557 0.500000
O O12 0.971069 0.000000 0.613210
O O13 0.218682 0.816276 0.827897
O O14 0.276693 0.000000 0.663749
O O15 0.775114 0.134809 0.858653
O O16 0.858015 0.000000 0.860622
O O17 0.813669 0.212725 0.972727
O O18 0.130744 0.373881 0.981183
#
# Coordination Sequence:
#
# PCOD8107475 Si02
#       8
#     8   4   8   8   8   8   8   4
#     4  10  23  36  63  88 126 161 209 259 320 379
#     4  11  24  44  64  98 129 167 221 272 314 397
#     4  10  22  36  60  89 124 164 211 259 320 385
#     4   9  18  35  58  87 116 155 200 254 311 369
#     4  11  23  38  61  90 126 164 212 266 324 384
#     4  10  21  37  60  88 122 159 212 263 310 378
#     4  11  22  38  62  88 121 166 214 259 317 372
#     4  11  24  42  68  92 124 177 224 262 324 378
#
# _framework density 19.194305
#
# number of rings (size 3 to 8) (size 9 to 14) (size 15 to 20)
#    0.000    1.714    2.143    1.714   11.000    1.143 
#    0.000    0.000    0.000    2.143    0.000    0.000 
#    0.000    0.000    0.000    0.000    0.000    0.000 
#
# Total GULP energy -346946.080456 kJ/mol
# GULP energy per Si atom -12390.931445 kJ/mol
# Density = 1.915062 g / cm^3
# Si number density = 19.194305 Si / 1000 Ang^3
#
#
#
# Elastic Constant Matrix: (Units=GPa)
#
#
# Indices 1 2 3 4 5 6 
#
# 1 156.8441 38.1599 67.5910 -0.0001 0.9631 0.0000
# 2 38.1599 98.5042 42.5451 -0.0003 -6.1363 0.0000
# 3 67.5910 42.5451 111.3736 -0.0004 -3.4987 0.0000
# 4 -0.0001 -0.0003 -0.0004 19.9277 0.0003 2.1488
# 5 0.9631 -6.1363 -3.4987 0.0003 35.7591 0.0000
# 6 0.0000 0.0000 0.0000 2.1488 0.0000 17.6644
#
#
#
# Elastic Compliance Matrix: (Units=1/GPa)
#
#
# Indices 1 2 3 4 5 6 
#
# 1 0.008806 -0.001376 -0.004848 0.000000 -0.000948 0.000000
# 2 -0.001376 0.012469 -0.003871 0.000000 0.001798 0.000000
# 3 -0.004848 -0.003871 0.013424 0.000000 0.000780 0.000000
# 4 0.000000 0.000000 0.000000 0.050848 0.000000 -0.006185
# 5 -0.000948 0.001798 0.000780 0.000000 0.028375 0.000000
# 6 0.000000 0.000000 0.000000 -0.006185 0.000000 0.057363
#
#
# Mechanical properties :
#
#
# Convention : Reuss Voigt Hill
#
# Bulk Modulus (GPa) = 68.92993 73.70154 71.31574
# Shear Modulus (GPa) = 25.46941 29.23197 27.35069
#
# Velocity S-wave (km/s) = 3.64665 3.90673 3.77893
# Velocity P-wave (km/s) = 7.32942 7.67014 7.50171
#
# Compressibility (1/GPa) = 0.01450749
#
# Stress axis : x y z
#
# Youngs Moduli (GPa) = 113.56314 80.19759 74.49127
#
# Poissons Ratio (x) = 0.11038 0.36114
# Poissons Ratio (y) = 0.15631 0.28839
# Poissons Ratio (z) = 0.55056 0.31048
#
# Static dielectric constant tensor:
#      x y z
#    x 4.127860 0.000000 0.036280 
#    y 0.000000 3.341610 0.000000 
#    z 0.036280 0.000000 3.601220 
# 
# 
# High freq. dielectric constant tensor:
#      x y z
#    x 1.769040 0.000000 0.008100 
#    y 0.000000 1.726520 0.000000 
#    z 0.008100 0.000000 1.744290 
# 
# From -- ./inp_files/292473.got.cif
#   From: 2010.06.25/outbox.cif.g09.slc.cpg/sg12_147_cif.got.tgz:292473.got - 2010.06.28 00:19:55.
