data_PCOD8107941
_publ_section_title
;
Structure prediction by ZEFSAII (Michael W. Deem and Ramdas Pophale) SiO2 
 PCOD8107941
Probable space group: C 2/M
;
_chemical_formula_sum "Si O2"
_cell_formula_units_Z 56
_cell_length_a 8.765566
_cell_length_b 19.265639
_cell_length_c 24.937223
_cell_angle_alpha 90.000000
_cell_angle_beta 134.669126
_cell_angle_gamma 90.000000
_cell_volume 2994.953109
_symmetry_space_group_name_H-M "C 2/M"
_symmetry_group_IT_number 12
_symmetry_cell_setting 'monoclinic'
loop_
_space_group_symop_operation_xyz
x,y,z
-x,y,-z
-x,-y,-z
x,-y,z
1/2+x,1/2+y,z
1/2-x,1/2+y,-z
1/2-x,1/2-y,-z
1/2+x,1/2-y,z
loop_
_atom_site_type_symbol
_atom_site_label
_atom_site_fract_x
_atom_site_fract_y
_atom_site_fract_z
Si Si1 0.320014 0.826496 0.500000
Si Si2 0.742067 0.579904 0.783460
Si Si3 0.108229 0.079904 0.216541
Si Si4 0.924297 0.080019 0.372899
Si Si5 0.067301 0.419981 0.372899
Si Si6 0.511850 0.822445 0.915814
Si Si7 0.848594 0.822445 0.084186
O O1 0.500000 0.818614 0.500000
O O2 0.250000 0.750000 0.500000
O O3 0.416211 0.868875 0.573260
O O4 0.123172 0.868875 0.426740
O O5 0.801720 0.500000 0.804380
O O6 0.528822 0.598698 0.764411
O O7 0.703191 0.600078 0.712292
O O8 0.949624 0.620507 0.856357
O O9 0.354024 0.100078 0.287709
O O10 0.024196 0.120507 0.143643
O O11 0.084201 0.000000 0.195621
O O12 0.771848 0.091337 0.385924
O O13 0.004213 0.000000 0.389825
O O14 0.055087 0.500000 0.389825
O O15 0.329557 0.815936 0.914778
O O16 0.529505 0.750000 0.889752
O O17 0.737308 0.842767 0.000000
#
# Coordination Sequence:
#
# PCOD8107941 Si02
#       7
#     8   8   8   8   8   8   8
#     4  12  25  40  59  83 111 141 177 220 265 314
#     4   9  18  33  53  77 104 136 177 221 263 310
#     4   9  18  33  53  77 104 136 177 221 263 310
#     4  10  21  38  59  82 110 143 178 217 264 318
#     4  10  21  38  59  82 110 143 178 217 264 318
#     4   9  18  32  50  73 102 137 175 216 264 316
#     4   9  18  32  50  73 102 137 175 216 264 316
#
# _framework density 18.698122999999999
#
# number of rings (size 3 to 8) (size 9 to 14) (size 15 to 20)
#    0.000    2.286    0.000    2.571    0.000    6.286 
#    0.000    5.714    0.000    0.000    0.000    8.000 
#    0.000    0.000    0.000    0.000    0.000    0.000 
#
# Total GULP energy -347235.984231 kJ/mol
# GULP energy per Si atom -12401.285151 kJ/mol
# Density = 1.865557 g / cm^3
# Si number density = 18.698123 Si / 1000 Ang^3
#
#
#
# Elastic Constant Matrix: (Units=GPa)
#
#
# Indices 1 2 3 4 5 6 
#
# 1 74.5133 51.2526 47.1075 -0.0002 -1.9116 0.0000
# 2 51.2526 119.8363 92.4095 0.0002 -3.1231 0.0000
# 3 47.1075 92.4095 134.5925 -0.0003 -2.6483 -0.0002
# 4 -0.0002 0.0002 -0.0003 -5.5179 0.0001 2.7765
# 5 -1.9116 -3.1231 -2.6483 0.0001 26.3530 -0.0001
# 6 0.0000 0.0000 -0.0002 2.7765 -0.0001 31.0729
#
#
#
# Elastic Compliance Matrix: (Units=1/GPa)
#
#
# Indices 1 2 3 4 5 6 
#
# 1 0.019352 -0.006480 -0.002316 -0.000001 0.000403 0.000000
# 2 -0.006480 0.019924 -0.011397 0.000002 0.000746 0.000000
# 3 -0.002316 -0.011397 0.016067 -0.000001 0.000096 0.000000
# 4 -0.000001 0.000002 -0.000001 -0.173432 0.000001 0.015497
# 5 0.000403 0.000746 0.000096 0.000001 0.038074 0.000000
# 6 0.000000 0.000000 0.000000 0.015497 0.000000 0.030798
#
#
# Mechanical properties :
#
#
# Convention : Reuss Voigt Hill
#
# Bulk Modulus (GPa) = 66.85712 78.94238 72.89975
# Shear Modulus (GPa) = -1300.64298 19.59309 -640.52495
#
# Velocity S-wave (km/s) = -26.40286 3.24058 -18.52849
# Velocity P-wave (km/s) = 29.89394 7.50419 20.46136
#
# Compressibility (1/GPa) = 0.01495727
#
# Stress axis : x y z
#
# Youngs Moduli (GPa) = 51.67331 50.19025 62.23782
#
# Poissons Ratio (x) = 0.32524 0.14416
# Poissons Ratio (y) = 0.33485 0.70932
# Poissons Ratio (z) = 0.11969 0.57202
#
# Static dielectric constant tensor:
#      x y z
#    x 3.404560 0.000000 -0.020630 
#    y 0.000000 3.461030 0.000000 
#    z -0.020630 0.000000 3.676480 
# 
# 
# High freq. dielectric constant tensor:
#      x y z
#    x 1.723130 0.000000 -0.001040 
#    y 0.000000 1.723270 0.000000 
#    z -0.001040 0.000000 1.736830 
# 
# From -- ./inp_files/257191.got.cif
#   From: 2010.06.25/outbox.cif.g09.slc.cpg/sg12_129_cif.got.tgz:257191.got - 2010.06.28 00:19:55.
