data_PCOD8107293
_publ_section_title
;
Structure prediction by ZEFSAII (Michael W. Deem and Ramdas Pophale) SiO2 
 PCOD8107293
Probable space group: C 2/M
;
_chemical_formula_sum "Si O2"
_cell_formula_units_Z 48
_cell_length_a 19.595611
_cell_length_b 9.141375
_cell_length_c 19.976870
_cell_angle_alpha 90.000000
_cell_angle_beta 136.319764
_cell_angle_gamma 90.000000
_cell_volume 2471.411678
_symmetry_space_group_name_H-M "C 2/M"
_symmetry_group_IT_number 12
_symmetry_cell_setting 'monoclinic'
loop_
_space_group_symop_operation_xyz
x,y,z
-x,y,-z
-x,-y,-z
x,-y,z
1/2+x,1/2+y,z
1/2-x,1/2+y,-z
1/2-x,1/2-y,-z
1/2+x,1/2-y,z
loop_
_atom_site_type_symbol
_atom_site_label
_atom_site_fract_x
_atom_site_fract_y
_atom_site_fract_z
Si Si1 0.682509 0.163447 0.401987
Si Si2 0.008775 0.328551 0.084893
Si Si3 0.853465 0.830905 0.068920
Si Si4 0.008353 0.166777 0.710807
Si Si5 0.428889 0.325435 0.390752
Si Si6 0.781109 0.335719 0.722583
O O1 0.750000 0.250000 0.500000
O O2 0.576269 0.235227 0.317409
O O3 0.735553 0.164175 0.368471
O O4 0.669242 0.000000 0.420032
O O5 0.999929 0.500000 0.097601
O O6 0.115371 0.260745 0.182659
O O7 0.922755 0.242979 0.062336
O O8 0.000000 0.302226 0.000000
O O9 0.897662 0.818403 0.174726
O O10 0.838308 0.000000 0.038046
O O11 0.750000 0.750000 0.000000
O O12 0.031590 0.225708 0.653081
O O13 0.970953 0.000000 0.680252
O O14 0.500000 0.263741 0.500000
O O15 0.422937 0.500000 0.392180
O O16 0.317646 0.259117 0.318276
O O17 0.787421 0.500000 0.755731
#
# Coordination Sequence:
#
# PCOD8107293 Si02
#       6
#     8   8   8   8   8   8
#     4  11  21  35  58  85 116 151 191 237 289 350
#     4  10  21  38  63  89 115 150 199 248 297 361
#     4  11  24  40  61  88 122 157 199 248 301 363
#     4  10  21  37  59  86 115 149 192 243 294 348
#     4   9  17  31  54  83 113 145 189 238 283 336
#     4   9  18  33  55  83 112 147 190 239 287 338
#
# _framework density 19.422097999999998
#
# number of rings (size 3 to 8) (size 9 to 14) (size 15 to 20)
#    0.000    2.000    1.667    2.000    2.333    3.667 
#    0.000    0.000    0.000    5.500    0.000    0.000 
#    0.000    0.000    0.000    0.000    0.000    0.000 
#
# Total GULP energy -297573.855877 kJ/mol
# GULP energy per Si atom -12398.910662 kJ/mol
# Density = 1.937789 g / cm^3
# Si number density = 19.422098 Si / 1000 Ang^3
#
#
#
# Elastic Constant Matrix: (Units=GPa)
#
#
# Indices 1 2 3 4 5 6 
#
# 1 108.6824 35.4497 35.5462 0.0000 9.2336 0.0000
# 2 35.4497 76.3664 35.7071 0.0000 5.1307 0.0000
# 3 35.5462 35.7071 102.7933 0.0000 6.6781 0.0000
# 4 0.0000 0.0000 0.0000 25.8557 0.0000 2.1544
# 5 9.2336 5.1307 6.6781 0.0000 42.4811 0.0000
# 6 0.0000 0.0000 0.0000 2.1544 0.0000 24.4979
#
#
#
# Elastic Compliance Matrix: (Units=1/GPa)
#
#
# Indices 1 2 3 4 5 6 
#
# 1 0.011466 -0.004070 -0.002446 0.000000 -0.001616 0.000000
# 2 -0.004070 0.017125 -0.004510 0.000000 -0.000475 0.000000
# 3 -0.002446 -0.004510 0.012196 0.000000 -0.000841 0.000000
# 4 0.000000 0.000000 0.000000 0.038962 0.000000 -0.003426
# 5 -0.001616 -0.000475 -0.000841 0.000000 0.024081 0.000000
# 6 0.000000 0.000000 0.000000 -0.003426 0.000000 0.041121
#
#
# Mechanical properties :
#
#
# Convention : Reuss Voigt Hill
#
# Bulk Modulus (GPa) = 53.38142 55.69425 54.53783
# Shear Modulus (GPa) = 28.86036 30.64288 29.75162
#
# Velocity S-wave (km/s) = 3.85899 3.97638 3.91812
# Velocity P-wave (km/s) = 6.88479 7.05833 6.97210
#
# Compressibility (1/GPa) = 0.01873311
#
# Stress axis : x y z
#
# Youngs Moduli (GPa) = 87.21353 58.39407 81.99740
#
# Poissons Ratio (x) = 0.23768 0.20058
# Poissons Ratio (y) = 0.35498 0.36984
# Poissons Ratio (z) = 0.21334 0.26338
#
# Static dielectric constant tensor:
#      x y z
#    x 4.244220 0.000000 0.649760 
#    y 0.000000 3.149890 0.000000 
#    z 0.649760 0.000000 4.192200 
# 
# 
# High freq. dielectric constant tensor:
#      x y z
#    x 1.766030 0.000000 0.003330 
#    y 0.000000 1.717350 0.000000 
#    z 0.003330 0.000000 1.771990 
# 
# From -- ./inp_files/230349.got.cif
#   From: 2010.06.25/outbox.cif.g09.slc.cpg/sg12_116_cif.got.tgz:230349.got - 2010.06.28 00:19:55.
