data_PCOD8107589
_publ_section_title
;
Structure prediction by ZEFSAII (Michael W. Deem and Ramdas Pophale) SiO2 
 PCOD8107589
Probable space group: C 2/M
;
_chemical_formula_sum "Si O2"
_cell_formula_units_Z 64
_cell_length_a 32.906692
_cell_length_b 8.632205
_cell_length_c 16.614044
_cell_angle_alpha 90.000000
_cell_angle_beta 42.439043
_cell_angle_gamma 90.000000
_cell_volume 3184.636736
_symmetry_space_group_name_H-M "C 2/M"
_symmetry_group_IT_number 12
_symmetry_cell_setting 'monoclinic'
loop_
_space_group_symop_operation_xyz
x,y,z
-x,y,-z
-x,-y,-z
x,-y,z
1/2+x,1/2+y,z
1/2-x,1/2+y,-z
1/2-x,1/2-y,-z
1/2+x,1/2-y,z
loop_
_atom_site_type_symbol
_atom_site_label
_atom_site_fract_x
_atom_site_fract_y
_atom_site_fract_z
Si Si1 0.661656 0.318023 0.763537
Si Si2 0.508415 0.815907 0.235413
Si Si3 0.393242 0.182141 0.305179
Si Si4 0.633710 0.184369 0.977299
Si Si5 0.155689 0.823957 0.348715
Si Si6 0.028787 0.318571 0.538463
Si Si7 0.744942 0.182167 0.919709
Si Si8 0.710646 0.677230 0.439783
O O1 0.671866 0.500000 0.751474
O O2 0.610314 0.271835 0.774407
O O3 0.640936 0.259528 0.880134
O O4 0.722263 0.236928 0.643133
O O5 0.453044 0.755201 0.262348
O O6 0.501716 0.748491 0.336160
O O7 0.506223 0.000000 0.242060
O O8 0.570840 0.757370 0.106703
O O9 0.335795 0.217258 0.444304
O O10 0.396982 0.000000 0.283051
O O11 0.686156 0.246174 0.959505
O O12 0.636061 0.000000 0.963840
O O13 0.099699 0.710465 0.437447
O O14 0.195019 0.769161 0.215475
O O15 0.198479 0.808977 0.362994
O O16 0.132616 0.000000 0.372442
O O17 0.016944 0.500000 0.554132
O O18 0.000000 0.242222 0.500000
O O19 0.739091 0.000000 0.934402
O O20 0.750000 0.250000 0.000000
O O21 0.705186 0.500000 0.477766
#
# Coordination Sequence:
#
# PCOD8107589 Si02
#       8
#     8   8   8   8   8   8   8   8
#     4  12  25  40  60  89 120 155 199 247 300 357
#     4   9  20  38  61  88 117 155 200 242 292 349
#     4  11  22  39  62  90 121 155 197 245 296 358
#     4  10  21  42  64  84 118 160 201 246 295 351
#     4  10  21  38  60  88 122 158 194 241 300 353
#     4  10  21  37  61  92 121 154 201 247 287 345
#     4  10  22  39  61  89 120 156 198 243 294 350
#     4  11  21  39  63  89 121 158 197 244 301 355
#
# _framework density 20.096482999999999
#
# number of rings (size 3 to 8) (size 9 to 14) (size 15 to 20)
#    0.000    1.625    2.500    2.250    1.750    2.250 
#    0.000    4.375    0.000    0.000    0.000    0.000 
#    0.000    0.000    0.000    0.000    0.000    0.000 
#
# Total GULP energy -396903.153577 kJ/mol
# GULP energy per Si atom -12403.223549 kJ/mol
# Density = 2.005074 g / cm^3
# Si number density = 20.096483 Si / 1000 Ang^3
#
#
#
# Elastic Constant Matrix: (Units=GPa)
#
#
# Indices 1 2 3 4 5 6 
#
# 1 113.4803 21.8552 59.1554 0.0000 11.6477 -0.0001
# 2 21.8552 35.7033 20.3574 0.0026 3.7508 0.0006
# 3 59.1554 20.3574 138.2805 0.0003 7.6409 0.0000
# 4 0.0000 0.0026 0.0003 27.3252 0.0000 0.6628
# 5 11.6477 3.7508 7.6409 0.0000 35.5649 -0.0001
# 6 -0.0001 0.0006 0.0000 0.6628 -0.0001 25.8806
#
#
#
# Elastic Compliance Matrix: (Units=1/GPa)
#
#
# Indices 1 2 3 4 5 6 
#
# 1 0.012292 -0.004734 -0.004419 0.000001 -0.002577 0.000000
# 2 -0.004734 0.032583 -0.002700 -0.000003 -0.001306 -0.000001
# 3 -0.004419 -0.002700 0.009537 0.000000 -0.000317 0.000000
# 4 0.000001 -0.000003 0.000000 0.036619 0.000000 -0.000938
# 5 -0.002577 -0.001306 -0.000317 0.000000 0.029167 0.000000
# 6 0.000000 -0.000001 0.000000 -0.000938 0.000000 0.038663
#
#
# Mechanical properties :
#
#
# Convention : Reuss Voigt Hill
#
# Bulk Modulus (GPa) = 32.56606 54.46668 43.51637
# Shear Modulus (GPa) = 25.93340 30.16056 28.04698
#
# Velocity S-wave (km/s) = 3.59617 3.87820 3.73985
# Velocity P-wave (km/s) = 5.78648 6.87134 6.35211
#
# Compressibility (1/GPa) = 0.03070681
#
# Stress axis : x y z
#
# Youngs Moduli (GPa) = 81.35445 30.69110 104.85403
#
# Poissons Ratio (x) = 0.14529 0.46336
# Poissons Ratio (y) = 0.38512 0.28305
# Poissons Ratio (z) = 0.35951 0.08285
#
# Static dielectric constant tensor:
#      x y z
#    x 3.795880 0.000000 0.063900 
#    y 0.000000 3.406780 0.000000 
#    z 0.063900 0.000000 3.743900 
# 
# 
# High freq. dielectric constant tensor:
#      x y z
#    x 1.797820 0.000000 0.008460 
#    y 0.000000 1.762040 0.000000 
#    z 0.008460 0.000000 1.792470 
# 
# From -- ./inp_files/249837.got.cif
#   From: 2010.06.25/outbox.cif.g09.slc.cpg/sg12_125_cif.got.tgz:249837.got - 2010.06.28 00:19:55.
