data_PCOD8107187
_publ_section_title
;
Structure prediction by ZEFSAII (Michael W. Deem and Ramdas Pophale) SiO2 
 PCOD8107187
Probable space group: C 2/M
;
_chemical_formula_sum "Si O2"
_cell_formula_units_Z 64
_cell_length_a 14.354517
_cell_length_b 18.542364
_cell_length_c 14.815138
_cell_angle_alpha 90.000000
_cell_angle_beta 126.243247
_cell_angle_gamma 90.000000
_cell_volume 3180.324648
_symmetry_space_group_name_H-M "C 2/M"
_symmetry_group_IT_number 12
_symmetry_cell_setting 'monoclinic'
loop_
_space_group_symop_operation_xyz
x,y,z
-x,y,-z
-x,-y,-z
x,-y,z
1/2+x,1/2+y,z
1/2-x,1/2+y,-z
1/2-x,1/2-y,-z
1/2+x,1/2-y,z
loop_
_atom_site_type_symbol
_atom_site_label
_atom_site_fract_x
_atom_site_fract_y
_atom_site_fract_z
Si Si1 0.400234 0.211866 0.877393
Si Si2 0.745221 0.080085 0.172550
Si Si3 0.251232 0.156106 0.163847
Si Si4 0.646951 0.583138 0.261894
Si Si5 0.658588 0.311551 0.431269
Si Si6 0.532685 0.768461 0.776051
Si Si7 0.112500 0.130398 0.906798
Si Si8 0.365128 0.421111 0.425356
O O1 0.360014 0.135749 0.895610
O O2 0.297997 0.269836 0.822217
O O3 0.442432 0.200715 0.798375
O O4 0.500000 0.242012 0.000000
O O5 0.826446 0.079817 0.131423
O O6 0.821462 0.102646 0.302130
O O7 0.693300 0.000000 0.153150
O O8 0.237778 0.094861 0.232597
O O9 0.386691 0.168023 0.217698
O O10 0.182429 0.125955 0.038996
O O11 0.649062 0.500000 0.294305
O O12 0.687323 0.634474 0.366085
O O13 0.519309 0.605243 0.154177
O O14 0.750000 0.250000 0.500000
O O15 0.535268 0.272717 0.343244
O O16 0.666873 0.358394 0.525371
O O17 0.617665 0.712573 0.874752
O O18 0.500000 0.429701 0.500000
O O19 0.312722 0.500000 0.422477
#
# Coordination Sequence:
#
# PCOD8107187 Si02
#       8
#     8   8   8   8   8   8   8   8
#     4  12  21  38  61  87 124 159 207 248 297 373
#     4  11  24  38  58  87 124 163 200 255 314 366
#     4  12  22  39  64  92 126 166 203 247 315 374
#     4  11  24  40  62  95 131 163 205 263 317 371
#     4  11  23  39  64  90 122 161 211 260 310 364
#     4  11  22  36  61  95 119 158 209 264 301 362
#     4  11  20  37  63  93 125 159 208 254 310 374
#     4  10  21  37  58  86 118 153 197 257 320 356
#
# _framework density 20.123732
#
# number of rings (size 3 to 8) (size 9 to 14) (size 15 to 20)
#    0.000    0.875    5.000    4.500    0.000    2.750 
#    0.000    0.625    0.000    2.250    0.000    0.000 
#    0.000    0.000    0.000    0.000    0.000    0.000 
#
# Total GULP energy -396839.721036 kJ/mol
# GULP energy per Si atom -12401.241282 kJ/mol
# Density = 2.007793 g / cm^3
# Si number density = 20.123732 Si / 1000 Ang^3
#
#
#
# Elastic Constant Matrix: (Units=GPa)
#
#
# Indices 1 2 3 4 5 6 
#
# 1 106.6441 38.6833 33.4010 0.0000 -17.5745 0.0000
# 2 38.6833 103.6600 41.1316 0.0000 -10.2286 0.0000
# 3 33.4010 41.1316 88.0118 0.0000 -16.3318 0.0000
# 4 0.0000 0.0000 0.0000 20.6130 0.0000 1.1405
# 5 -17.5745 -10.2286 -16.3318 0.0000 24.9166 0.0000
# 6 0.0000 0.0000 0.0000 1.1405 0.0000 30.8041
#
#
#
# Elastic Compliance Matrix: (Units=1/GPa)
#
#
# Indices 1 2 3 4 5 6 
#
# 1 0.012129 -0.003132 -0.002038 0.000000 0.005933 0.000000
# 2 -0.003132 0.012695 -0.004767 0.000000 -0.000122 0.000000
# 3 -0.002038 -0.004767 0.015635 0.000000 0.006854 0.000000
# 4 0.000000 0.000000 0.000000 0.048613 0.000000 -0.001800
# 5 0.005933 -0.000122 0.006854 0.000000 0.048761 0.000000
# 6 0.000000 0.000000 0.000000 -0.001800 0.000000 0.032530
#
#
# Mechanical properties :
#
#
# Convention : Reuss Voigt Hill
#
# Bulk Modulus (GPa) = 48.57937 58.30528 53.44232
# Shear Modulus (GPa) = 25.36784 27.60673 26.48728
#
# Velocity S-wave (km/s) = 3.55433 3.70787 3.63191
# Velocity P-wave (km/s) = 6.40602 6.88239 6.64848
#
# Compressibility (1/GPa) = 0.02058487
#
# Stress axis : x y z
#
# Youngs Moduli (GPa) = 82.44493 78.76987 63.95780
#
# Poissons Ratio (x) = 0.24671 0.13037
# Poissons Ratio (y) = 0.25822 0.30489
# Poissons Ratio (z) = 0.16805 0.37550
#
# Static dielectric constant tensor:
#      x y z
#    x 3.648550 0.000000 -0.164890 
#    y 0.000000 5.588860 0.000000 
#    z -0.164890 0.000000 3.536840 
# 
# 
# High freq. dielectric constant tensor:
#      x y z
#    x 1.777300 0.000000 -0.015970 
#    y 0.000000 1.782580 0.000000 
#    z -0.015970 0.000000 1.779700 
# 
# From -- ./inp_files/216767.got.cif
#   From: 2010.06.25/outbox.cif.g09.slc.cpg/sg12_109_cif.got.tgz:216767.got - 2010.06.28 00:19:55.
