data_PCOD8107572
_publ_section_title
;
Structure prediction by ZEFSAII (Michael W. Deem and Ramdas Pophale) SiO2 
 PCOD8107572
Probable space group: C 2/M
;
_chemical_formula_sum "Si O2"
_cell_formula_units_Z 56
_cell_length_a 21.642538
_cell_length_b 12.884145
_cell_length_c 19.282354
_cell_angle_alpha 90.000000
_cell_angle_beta 29.385119
_cell_angle_gamma 90.000000
_cell_volume 2638.274353
_symmetry_space_group_name_H-M "C 2/M"
_symmetry_group_IT_number 12
_symmetry_cell_setting 'monoclinic'
loop_
_space_group_symop_operation_xyz
x,y,z
-x,y,-z
-x,-y,-z
x,-y,z
1/2+x,1/2+y,z
1/2-x,1/2+y,-z
1/2-x,1/2-y,-z
1/2+x,1/2-y,z
loop_
_atom_site_type_symbol
_atom_site_label
_atom_site_fract_x
_atom_site_fract_y
_atom_site_fract_z
Si Si1 0.524588 0.256983 0.627442
Si Si2 0.857091 0.752590 0.133447
Si Si3 0.880899 0.619182 0.667255
Si Si4 0.142034 0.883732 0.109997
Si Si5 0.365560 0.806518 0.973359
Si Si6 0.893278 0.383267 0.337036
Si Si7 0.730912 0.618606 0.368439
O O1 0.411503 0.189292 0.704834
O O2 0.468897 0.342691 0.732893
O O3 0.616223 0.182520 0.582968
O O4 0.601120 0.315816 0.491716
O O5 0.750092 0.842428 0.239584
O O6 0.833817 0.672403 0.218699
O O7 0.846749 0.685376 0.073674
O O8 0.000000 0.798893 0.000000
O O9 0.861977 0.500000 0.708505
O O10 0.000000 0.629164 0.500000
O O11 0.156654 0.813395 0.027322
O O12 0.110546 0.000000 0.116451
O O13 0.270106 0.883272 0.028429
O O14 0.502529 0.842313 0.817660
O O15 0.921789 0.500000 0.332722
O O16 0.767075 0.377372 0.414628
O O17 0.711027 0.500000 0.363259
#
# Coordination Sequence:
#
# PCOD8107572 Si02
#       7
#     8   8   8   8   8   8   8
#     4  11  21  41  65  93 124 163 213 271 319 374
#     4  12  24  44  66  92 133 173 212 264 319 384
#     4  11  24  44  68  94 127 172 220 265 317 382
#     4  10  21  37  61  90 122 156 203 264 323 372
#     4  10  21  38  59  91 121 164 206 254 315 383
#     4  10  21  38  63  92 124 166 211 261 318 382
#     4  11  24  40  63  94 130 168 213 262 321 384
#
# _framework density 21.225995999999999
#
# number of rings (size 3 to 8) (size 9 to 14) (size 15 to 20)
#    0.000    1.286    4.286    1.714    0.000    2.286 
#    0.000    0.714    0.000    0.857    0.000    0.000 
#    0.000    0.000    0.000    0.000    0.000    0.000 
#
# Total GULP energy -347199.432303 kJ/mol
# GULP energy per Si atom -12399.979725 kJ/mol
# Density = 2.117768 g / cm^3
# Si number density = 21.225996 Si / 1000 Ang^3
#
#
#
# Elastic Constant Matrix: (Units=GPa)
#
#
# Indices 1 2 3 4 5 6 
#
# 1 74.3134 36.9831 23.9425 0.0001 -5.3093 0.0000
# 2 36.9831 146.2374 39.2884 0.0000 -9.8653 0.0000
# 3 23.9425 39.2884 93.1240 0.0001 -7.3158 -0.0001
# 4 0.0001 0.0000 0.0001 21.5334 -0.0001 -0.0630
# 5 -5.3093 -9.8653 -7.3158 -0.0001 32.3806 0.0001
# 6 0.0000 0.0000 -0.0001 -0.0630 0.0001 22.6612
#
#
#
# Elastic Compliance Matrix: (Units=1/GPa)
#
#
# Indices 1 2 3 4 5 6 
#
# 1 0.016012 -0.003266 -0.002658 0.000000 0.001030 0.000000
# 2 -0.003266 0.008465 -0.002618 0.000000 0.001452 0.000000
# 3 -0.002658 -0.002618 0.012654 0.000000 0.001626 0.000000
# 4 0.000000 0.000000 0.000000 0.046440 0.000000 0.000129
# 5 0.001030 0.001452 0.001626 0.000000 0.031861 0.000000
# 6 0.000000 0.000000 0.000000 0.000129 0.000000 0.044129
#
#
# Mechanical properties :
#
#
# Convention : Reuss Voigt Hill
#
# Bulk Modulus (GPa) = 49.88032 57.12252 53.50142
# Shear Modulus (GPa) = 27.27376 29.54575 28.40976
#
# Velocity S-wave (km/s) = 3.58847 3.73495 3.66244
# Velocity P-wave (km/s) = 6.38123 6.75054 6.56848
#
# Compressibility (1/GPa) = 0.02004799
#
# Stress axis : x y z
#
# Youngs Moduli (GPa) = 62.45431 118.12849 79.02731
#
# Poissons Ratio (x) = 0.38578 0.21005
# Poissons Ratio (y) = 0.20396 0.20687
# Poissons Ratio (z) = 0.16600 0.30923
#
# Static dielectric constant tensor:
#      x y z
#    x 3.753840 0.000000 -0.076170 
#    y 0.000000 3.738810 0.000000 
#    z -0.076170 0.000000 3.742530 
# 
# 
# High freq. dielectric constant tensor:
#      x y z
#    x 1.825460 0.000000 -0.002110 
#    y 0.000000 1.826750 0.000000 
#    z -0.002110 0.000000 1.837340 
# 
# From -- ./inp_files/325133.got.cif
#   From: 2010.06.25/outbox.cif.g09.slc.cpg/sg12_163_cif.got.tgz:325133.got - 2010.06.28 00:19:55.
