data_PCOD8107828
_publ_section_title
;
Structure prediction by ZEFSAII (Michael W. Deem and Ramdas Pophale) SiO2 
 PCOD8107828
Probable space group: C 2/M
;
_chemical_formula_sum "Si O2"
_cell_formula_units_Z 64
_cell_length_a 17.084736
_cell_length_b 21.260591
_cell_length_c 17.582124
_cell_angle_alpha 90.000000
_cell_angle_beta 149.017286
_cell_angle_gamma 90.000000
_cell_volume 3287.578579
_symmetry_space_group_name_H-M "C 2/M"
_symmetry_group_IT_number 12
_symmetry_cell_setting 'monoclinic'
loop_
_space_group_symop_operation_xyz
x,y,z
-x,y,-z
-x,-y,-z
x,-y,z
1/2+x,1/2+y,z
1/2-x,1/2+y,-z
1/2-x,1/2-y,-z
1/2+x,1/2-y,z
loop_
_atom_site_type_symbol
_atom_site_label
_atom_site_fract_x
_atom_site_fract_y
_atom_site_fract_z
Si Si1 0.823770 0.752985 0.347990
Si Si2 0.318725 0.196614 0.503264
Si Si3 0.831993 0.719611 0.185693
Si Si4 0.841469 0.629861 0.832477
Si Si5 0.734092 0.654496 0.962376
Si Si6 0.901324 0.928803 0.257703
Si Si7 0.987478 0.568247 0.825878
Si Si8 0.227140 0.069845 0.491471
O O1 0.784988 0.708762 0.386482
O O2 0.778945 0.720852 0.229497
O O3 0.723509 0.815016 0.274624
O O4 0.000000 0.772027 0.500000
O O5 0.250000 0.250000 0.500000
O O6 0.495842 0.195253 0.671678
O O7 0.237661 0.128861 0.443812
O O8 0.811209 0.787409 0.129578
O O9 0.731035 0.671878 0.049578
O O10 0.709425 0.612171 0.781902
O O11 0.879875 0.571046 0.810578
O O12 0.000000 0.653713 0.000000
O O13 0.616858 0.598329 0.844080
O O14 0.900109 0.627428 0.078969
O O15 0.080642 0.921578 0.425665
O O16 0.846063 0.000000 0.216928
O O17 0.071392 0.500000 0.897448
O O18 0.883007 0.571864 0.665945
O O19 0.211517 0.000000 0.438805
#
# Coordination Sequence:
#
# PCOD8107828 Si02
#       8
#     8   8   8   8   8   8   8   8
#     4  10  23  39  60  85 120 152 196 248 300 356
#     4  11  21  37  65  90 115 158 207 245 301 359
#     4  10  21  38  57  88 117 151 192 257 297 343
#     4  12  23  36  53  85 124 155 193 242 296 358
#     4  11  20  36  61  81 121 152 196 241 295 351
#     4  11  23  38  57  83 118 159 197 237 294 362
#     4  11  22  36  57  84 116 161 202 238 288 361
#     4  10  23  41  58  84 118 154 204 253 297 356
#
# _framework density 19.467214999999999
#
# number of rings (size 3 to 8) (size 9 to 14) (size 15 to 20)
#    0.000    1.250    3.750    2.250    3.500    0.500 
#    2.250    1.875    0.000    4.875    0.000    1.750 
#    0.000    0.000    0.000    0.000    0.000    0.000 
#
# Total GULP energy -396421.382799 kJ/mol
# GULP energy per Si atom -12388.168212 kJ/mol
# Density = 1.942291 g / cm^3
# Si number density = 19.467215 Si / 1000 Ang^3
#
#
#
# Elastic Constant Matrix: (Units=GPa)
#
#
# Indices 1 2 3 4 5 6 
#
# 1 78.1049 41.0780 31.5725 0.0071 -12.6182 0.0019
# 2 41.0780 108.6085 41.2240 0.0043 1.5070 0.0022
# 3 31.5725 41.2240 63.8127 0.0260 -5.7725 0.0085
# 4 0.0071 0.0043 0.0260 29.8465 0.0091 1.9274
# 5 -12.6182 1.5070 -5.7725 0.0091 36.3128 0.0021
# 6 0.0019 0.0022 0.0085 1.9274 0.0021 27.0591
#
#
#
# Elastic Compliance Matrix: (Units=1/GPa)
#
#
# Indices 1 2 3 4 5 6 
#
# 1 0.018587 -0.005060 -0.005402 -0.000001 0.005810 0.000000
# 2 -0.005060 0.013691 -0.006647 0.000006 -0.003383 0.000001
# 3 -0.005402 -0.006647 0.022821 -0.000018 0.002027 -0.000005
# 4 -0.000001 0.000006 -0.000018 0.033660 -0.000012 -0.002397
# 5 0.005810 -0.003383 0.002027 -0.000012 0.030020 -0.000002
# 6 0.000000 0.000001 -0.000005 -0.002397 -0.000002 0.037127
#
#
# Mechanical properties :
#
#
# Convention : Reuss Voigt Hill
#
# Bulk Modulus (GPa) = 47.89052 53.14167 50.51609
# Shear Modulus (GPa) = 25.36992 27.75378 26.56185
#
# Velocity S-wave (km/s) = 3.61392 3.77990 3.69784
# Velocity P-wave (km/s) = 6.48598 6.81230 6.65114
#
# Compressibility (1/GPa) = 0.02088096
#
# Stress axis : x y z
#
# Youngs Moduli (GPa) = 53.80167 73.03917 43.81947
#
# Poissons Ratio (x) = 0.36960 0.23669
# Poissons Ratio (y) = 0.27225 0.29128
# Poissons Ratio (z) = 0.29061 0.48550
#
# Static dielectric constant tensor:
#      x y z
#    x 3.440680 0.000000 -0.061560 
#    y 0.000000 3.755490 -0.000010 
#    z -0.061560 -0.000010 3.872610 
# 
# 
# High freq. dielectric constant tensor:
#      x y z
#    x 1.727550 0.000000 0.002300 
#    y 0.000000 1.755830 0.000000 
#    z 0.002300 0.000000 1.777410 
# 
# From -- ./inp_files/99151.got.cif
#   From: 2010.06.25/outbox.cif.g09.slc.cpg/sg12_50_cif.got.tgz:99151.got - 2010.06.28 00:19:55.
