data_PCOD8107870
_publ_section_title
;
Structure prediction by ZEFSAII (Michael W. Deem and Ramdas Pophale) SiO2 
 PCOD8107870
Probable space group: C 2/M
;
_chemical_formula_sum "Si O2"
_cell_formula_units_Z 56
_cell_length_a 9.418792
_cell_length_b 16.777770
_cell_length_c 23.721807
_cell_angle_alpha 90.000000
_cell_angle_beta 49.170982
_cell_angle_gamma 90.000000
_cell_volume 2836.483742
_symmetry_space_group_name_H-M "C 2/M"
_symmetry_group_IT_number 12
_symmetry_cell_setting 'monoclinic'
loop_
_space_group_symop_operation_xyz
x,y,z
-x,y,-z
-x,-y,-z
x,-y,z
1/2+x,1/2+y,z
1/2-x,1/2+y,-z
1/2-x,1/2-y,-z
1/2+x,1/2-y,z
loop_
_atom_site_type_symbol
_atom_site_label
_atom_site_fract_x
_atom_site_fract_y
_atom_site_fract_z
Si Si1 0.953777 0.090048 0.703188
Si Si2 0.206451 0.320031 0.594240
Si Si3 0.091995 0.409130 0.252687
Si Si4 0.965946 0.853058 0.201611
Si Si5 0.424546 0.662548 0.431819
Si Si6 0.888023 0.593533 0.083881
Si Si7 0.062966 0.668230 0.812290
O O1 0.062480 0.138638 0.723599
O O2 0.761607 0.135369 0.740535
O O3 0.061482 0.088876 0.615462
O O4 0.917821 0.000000 0.733341
O O5 0.375481 0.312125 0.594493
O O6 0.280399 0.364287 0.518180
O O7 0.146510 0.233291 0.589612
O O8 0.033702 0.366314 0.667036
O O9 0.022960 0.500000 0.265175
O O10 0.309379 0.407428 0.213245
O O11 0.085685 0.365893 0.193761
O O12 0.170852 0.884629 0.131648
O O13 0.939150 0.763127 0.188575
O O14 0.911734 0.500000 0.088014
O O15 0.979652 0.639133 0.113253
O O16 0.000000 0.622366 0.000000
#
# Coordination Sequence:
#
# PCOD8107870 Si02
#       7
#     8   8   8   8   8   8   8
#     4  11  22  38  59  85 118 161 204 246 297 356
#     4  10  22  37  57  85 117 159 202 251 303 353
#     4  12  23  36  57  90 122 149 193 253 302 341
#     4  11  23  40  61  88 120 157 196 241 291 350
#     4  10  21  38  58  82 117 159 206 250 300 357
#     4  10  22  43  67  90 121 160 195 231 288 359
#     4  11  21  38  63  88 118 155 199 241 284 348
#
# _framework density 19.742754999999999
#
# number of rings (size 3 to 8) (size 9 to 14) (size 15 to 20)
#    0.000    1.286    1.429    6.857    2.000    1.143 
#    0.000    2.143    0.000    4.286    0.000    0.000 
#    0.000    0.000    0.000    0.000    0.000    0.000 
#
# Total GULP energy -347157.610808 kJ/mol
# GULP energy per Si atom -12398.486100 kJ/mol
# Density = 1.969782 g / cm^3
# Si number density = 19.742755 Si / 1000 Ang^3
#
#
#
# Elastic Constant Matrix: (Units=GPa)
#
#
# Indices 1 2 3 4 5 6 
#
# 1 107.2600 16.5905 52.3591 0.0003 7.8495 0.0002
# 2 16.5905 87.9756 33.5728 -0.0007 12.5971 0.0005
# 3 52.3591 33.5728 142.5461 -0.0019 24.4670 0.0031
# 4 0.0003 -0.0007 -0.0019 26.4546 -0.0008 5.6208
# 5 7.8495 12.5971 24.4670 -0.0008 27.2551 0.0001
# 6 0.0002 0.0005 0.0031 5.6208 0.0001 26.3455
#
#
#
# Elastic Compliance Matrix: (Units=1/GPa)
#
#
# Indices 1 2 3 4 5 6 
#
# 1 0.011402 -0.000671 -0.004161 -0.000001 0.000762 0.000001
# 2 -0.000671 0.012853 -0.002121 0.000000 -0.003843 0.000000
# 3 -0.004161 -0.002121 0.010248 0.000001 -0.007021 -0.000001
# 4 -0.000001 0.000000 0.000001 0.039596 0.000001 -0.008448
# 5 0.000762 -0.003843 -0.007021 0.000001 0.044550 0.000001
# 6 0.000001 0.000000 -0.000001 -0.008448 0.000001 0.039759
#
#
# Mechanical properties :
#
#
# Convention : Reuss Voigt Hill
#
# Bulk Modulus (GPa) = 48.54989 60.31406 54.43198
# Shear Modulus (GPa) = 27.90470 31.69499 29.79984
#
# Velocity S-wave (km/s) = 3.76362 4.01109 3.88932
# Velocity P-wave (km/s) = 6.59781 7.21582 6.91372
#
# Compressibility (1/GPa) = 0.02059737
#
# Stress axis : x y z
#
# Youngs Moduli (GPa) = 87.70099 77.80225 97.57741
#
# Poissons Ratio (x) = 0.05224 0.40600
# Poissons Ratio (y) = 0.05889 0.20695
# Poissons Ratio (z) = 0.36491 0.16501
#
# Static dielectric constant tensor:
#      x y z
#    x 3.702580 0.000000 0.162260 
#    y 0.000000 3.466600 0.000000 
#    z 0.162260 0.000000 3.760050 
# 
# 
# High freq. dielectric constant tensor:
#      x y z
#    x 1.778840 0.000000 0.016080 
#    y 0.000000 1.767040 0.000000 
#    z 0.016080 0.000000 1.767350 
# 
# From -- ./inp_files/332865.got.cif
#   From: 2010.06.25/outbox.cif.g09.slc.cpg/sg12_167_cif.got.tgz:332865.got - 2010.06.28 00:19:55.
