data_PCOD8107522
_publ_section_title
;
Structure prediction by ZEFSAII (Michael W. Deem and Ramdas Pophale) SiO2 
 PCOD8107522
Probable space group: C 2/M
;
_chemical_formula_sum "Si O2"
_cell_formula_units_Z 48
_cell_length_a 9.394684
_cell_length_b 18.792811
_cell_length_c 18.374922
_cell_angle_alpha 90.000000
_cell_angle_beta 44.948652
_cell_angle_gamma 90.000000
_cell_volume 2291.895802
_symmetry_space_group_name_H-M "C 2/M"
_symmetry_group_IT_number 12
_symmetry_cell_setting 'monoclinic'
loop_
_space_group_symop_operation_xyz
x,y,z
-x,y,-z
-x,-y,-z
x,-y,z
1/2+x,1/2+y,z
1/2-x,1/2+y,-z
1/2-x,1/2-y,-z
1/2+x,1/2-y,z
loop_
_atom_site_type_symbol
_atom_site_label
_atom_site_fract_x
_atom_site_fract_y
_atom_site_fract_z
Si Si1 0.436803 0.321045 0.205119
Si Si2 0.542203 0.084061 0.814638
Si Si3 0.145709 0.924120 0.882117
Si Si4 0.463161 0.416333 0.592627
Si Si5 0.730187 0.082929 0.394591
Si Si6 0.865608 0.298518 0.117012
O O1 0.484198 0.376320 0.124363
O O2 0.269303 0.360852 0.315291
O O3 0.635344 0.305041 0.178011
O O4 0.363719 0.250368 0.190021
O O5 0.354700 0.111481 0.833790
O O6 0.742798 0.105828 0.699053
O O7 0.544629 0.125078 0.891067
O O8 0.525675 0.000000 0.837075
O O9 0.200054 0.000000 0.825206
O O10 0.000000 0.939605 0.000000
O O11 0.500000 0.380849 0.500000
O O12 0.479399 0.500000 0.578922
O O13 0.632086 0.390851 0.588241
O O14 0.500000 0.090349 0.500000
O O15 0.778780 0.000000 0.355701
O O16 0.000000 0.269678 0.000000
#
# Coordination Sequence:
#
# PCOD8107522 Si02
#       6
#     8   8   8   8   8   8
#     4  12  24  42  62  90 128 170 218 263 315 383
#     4  10  21  39  63  94 126 162 212 266 322 379
#     4  10  21  37  60  91 125 163 209 261 316 375
#     4   9  18  35  61  92 123 155 196 252 315 377
#     4  10  22  41  67  99 128 162 209 262 322 381
#     4  12  25  42  65  90 127 175 218 266 318 379
#
# _framework density 20.943359999999998
#
# number of rings (size 3 to 8) (size 9 to 14) (size 15 to 20)
#    0.000    1.500    1.667    3.500    2.333    1.000 
#    0.000    1.667    0.000    0.000    0.000    0.000 
#    0.000    0.000    0.000    0.000    0.000    0.000 
#
# Total GULP energy -297461.983613 kJ/mol
# GULP energy per Si atom -12394.249317 kJ/mol
# Density = 2.089569 g / cm^3
# Si number density = 20.943360 Si / 1000 Ang^3
#
#
#
# Elastic Constant Matrix: (Units=GPa)
#
#
# Indices 1 2 3 4 5 6 
#
# 1 133.0698 53.2690 34.8074 0.0006 -8.3302 -0.0007
# 2 53.2690 86.0352 37.2926 0.0002 9.6056 -0.0006
# 3 34.8074 37.2926 92.5499 0.0003 1.2064 0.0002
# 4 0.0006 0.0002 0.0003 34.7055 -0.0007 14.4865
# 5 -8.3302 9.6056 1.2064 -0.0007 38.4952 0.0002
# 6 -0.0007 -0.0006 0.0002 14.4865 0.0002 27.0171
#
#
#
# Elastic Compliance Matrix: (Units=1/GPa)
#
#
# Indices 1 2 3 4 5 6 
#
# 1 0.010733 -0.006443 -0.001493 0.000000 0.003977 0.000000
# 2 -0.006443 0.018392 -0.004912 0.000000 -0.005830 0.000000
# 3 -0.001493 -0.004912 0.013339 0.000000 0.000485 0.000000
# 4 0.000000 0.000000 0.000000 0.037122 0.000001 -0.019905
# 5 0.003977 -0.005830 0.000485 0.000001 0.028277 -0.000001
# 6 0.000000 0.000000 0.000000 -0.019905 -0.000001 0.047686
#
#
# Mechanical properties :
#
#
# Convention : Reuss Voigt Hill
#
# Bulk Modulus (GPa) = 59.62908 62.48811 61.05859
# Shear Modulus (GPa) = 26.76155 32.46263 29.61209
#
# Velocity S-wave (km/s) = 3.57852 3.94130 3.76428
# Velocity P-wave (km/s) = 6.75335 7.11430 6.93618
#
# Compressibility (1/GPa) = 0.01677034
#
# Stress axis : x y z
#
# Youngs Moduli (GPa) = 93.16838 54.37109 74.96656
#
# Poissons Ratio (x) = 0.35029 0.11189
# Poissons Ratio (y) = 0.60025 0.36824
# Poissons Ratio (z) = 0.13906 0.26707
#
# Static dielectric constant tensor:
#      x y z
#    x 1.250940 -0.000010 0.349600 
#    y -0.000010 3.788420 0.000000 
#    z 0.349600 0.000000 3.734830 
# 
# 
# High freq. dielectric constant tensor:
#      x y z
#    x 1.835890 0.000000 -0.000370 
#    y 0.000000 1.808630 0.000000 
#    z -0.000370 0.000000 1.812450 
# 
# From -- ./inp_files/196912.got.cif
#   From: 2010.06.25/outbox.cif.g09.slc.cpg/sg12_99_cif.got.tgz:196912.got - 2010.06.28 00:19:55.
