data_PCOD8107780
_publ_section_title
;
Structure prediction by ZEFSAII (Michael W. Deem and Ramdas Pophale) SiO2 
 PCOD8107780
Probable space group: C 2/M
;
_chemical_formula_sum "Si O2"
_cell_formula_units_Z 56
_cell_length_a 18.028920
_cell_length_b 8.956845
_cell_length_c 18.646900
_cell_angle_alpha 90.000000
_cell_angle_beta 104.528577
_cell_angle_gamma 90.000000
_cell_volume 2914.854806
_symmetry_space_group_name_H-M "C 2/M"
_symmetry_group_IT_number 12
_symmetry_cell_setting 'monoclinic'
loop_
_space_group_symop_operation_xyz
x,y,z
-x,y,-z
-x,-y,-z
x,-y,z
1/2+x,1/2+y,z
1/2-x,1/2+y,-z
1/2-x,1/2-y,-z
1/2+x,1/2-y,z
loop_
_atom_site_type_symbol
_atom_site_label
_atom_site_fract_x
_atom_site_fract_y
_atom_site_fract_z
Si Si1 0.669749 0.673761 0.494539
Si Si2 0.504581 0.824583 0.201713
Si Si3 0.289953 0.326490 0.343055
Si Si4 0.851340 0.827567 0.209244
Si Si5 0.435819 0.675136 0.926374
Si Si6 0.875203 0.324842 0.648593
Si Si7 0.718837 0.171814 0.062650
O O1 0.675181 0.500000 0.478631
O O2 0.750000 0.750000 0.500000
O O3 0.652662 0.700442 0.575190
O O4 0.608590 0.747970 0.425244
O O5 0.418503 0.772305 0.193574
O O6 0.539375 0.738672 0.143510
O O7 0.554869 0.782940 0.283219
O O8 0.506532 0.000000 0.186205
O O9 0.278255 0.500000 0.324277
O O10 0.328320 0.257932 0.281169
O O11 0.204646 0.261115 0.337411
O O12 0.778677 0.811115 0.140979
O O13 0.878414 0.000000 0.220708
O O14 0.421930 0.500000 0.915894
O O15 0.358664 0.751559 0.932441
O O16 0.500000 0.713229 0.000000
O O17 0.868277 0.500000 0.633449
O O18 0.702560 0.000000 0.040824
O O19 0.750000 0.250000 0.000000
#
# Coordination Sequence:
#
# PCOD8107780 Si02
#       7
#     8   8   8   8   8   8   8
#     4   9  16  28  50  79 107 138 179 227 278 331
#     4  11  23  38  57  82 112 147 187 231 278 328
#     4   8  15  31  54  76 101 137 180 223 269 325
#     4  10  21  38  57  78 109 148 186 226 276 330
#     4  11  24  41  61  86 115 147 184 227 276 332
#     4   9  18  34  54  77 107 142 182 228 277 331
#     4  11  23  39  61  87 115 149 186 227 276 328
#
# _framework density 19.211933999999999
#
# number of rings (size 3 to 8) (size 9 to 14) (size 15 to 20)
#    0.000    2.143    0.000    4.286    0.000    9.143 
#    0.000    4.286    0.000    4.286    0.000    0.000 
#    0.000    0.000    0.000    0.000    0.000    0.000 
#
# Total GULP energy -347145.356414 kJ/mol
# GULP energy per Si atom -12398.048443 kJ/mol
# Density = 1.916821 g / cm^3
# Si number density = 19.211934 Si / 1000 Ang^3
#
#
#
# Elastic Constant Matrix: (Units=GPa)
#
#
# Indices 1 2 3 4 5 6 
#
# 1 109.5874 39.3313 50.2322 0.0000 -2.7741 0.0000
# 2 39.3313 67.8967 61.7611 0.0000 9.9915 0.0000
# 3 50.2322 61.7611 134.3043 0.0000 -6.2540 0.0000
# 4 0.0000 0.0000 0.0000 39.0021 0.0000 -6.7666
# 5 -2.7741 9.9915 -6.2540 0.0000 31.0197 0.0000
# 6 0.0000 0.0000 0.0000 -6.7666 0.0000 46.6236
#
#
#
# Elastic Compliance Matrix: (Units=1/GPa)
#
#
# Indices 1 2 3 4 5 6 
#
# 1 0.012064 -0.005805 -0.001721 0.000000 0.002602 0.000000
# 2 -0.005805 0.032113 -0.013226 0.000000 -0.013530 0.000000
# 3 -0.001721 -0.013226 0.014499 0.000000 0.007029 0.000000
# 4 0.000000 0.000000 0.000000 0.026302 0.000000 0.003817
# 5 0.002602 -0.013530 0.007029 0.000000 0.038245 0.000000
# 6 0.000000 0.000000 0.000000 0.003817 0.000000 0.022002
#
#
# Mechanical properties :
#
#
# Convention : Reuss Voigt Hill
#
# Bulk Modulus (GPa) = 58.24058 68.27086 63.25572
# Shear Modulus (GPa) = 25.98016 34.02667 30.00341
#
# Velocity S-wave (km/s) = 3.68134 4.21303 3.95613
# Velocity P-wave (km/s) = 6.96063 7.69929 7.33926
#
# Compressibility (1/GPa) = 0.01717016
#
# Stress axis : x y z
#
# Youngs Moduli (GPa) = 82.89457 31.13979 68.96998
#
# Poissons Ratio (x) = 0.18078 0.11871
# Poissons Ratio (y) = 0.48124 0.91221
# Poissons Ratio (z) = 0.14267 0.41186
#
# Static dielectric constant tensor:
#      x y z
#    x 6.299140 0.000000 -0.855800 
#    y 0.000000 3.563070 0.000000 
#    z -0.855800 0.000000 4.241770 
# 
# 
# High freq. dielectric constant tensor:
#      x y z
#    x 1.731080 0.000000 -0.002410 
#    y 0.000000 1.741010 0.000000 
#    z -0.002410 0.000000 1.771540 
# 
# From -- ./inp_files/275604.got.cif
#   From: 2010.06.25/outbox.cif.g09.slc.cpg/sg12_138_cif.got.tgz:275604.got - 2010.06.28 00:19:55.
