data_PCOD8107122
_publ_section_title
;
Structure prediction by ZEFSAII (Michael W. Deem and Ramdas Pophale) SiO2 
 PCOD8107122
Probable space group: C 2/M
;
_chemical_formula_sum "Si O2"
_cell_formula_units_Z 64
_cell_length_a 20.504378
_cell_length_b 8.658981
_cell_length_c 20.456181
_cell_angle_alpha 90.000000
_cell_angle_beta 60.085226
_cell_angle_gamma 90.000000
_cell_volume 3148.044804
_symmetry_space_group_name_H-M "C 2/M"
_symmetry_group_IT_number 12
_symmetry_cell_setting 'monoclinic'
loop_
_space_group_symop_operation_xyz
x,y,z
-x,y,-z
-x,-y,-z
x,-y,z
1/2+x,1/2+y,z
1/2-x,1/2+y,-z
1/2-x,1/2-y,-z
1/2+x,1/2-y,z
loop_
_atom_site_type_symbol
_atom_site_label
_atom_site_fract_x
_atom_site_fract_y
_atom_site_fract_z
Si Si1 0.179681 0.182040 0.295666
Si Si2 0.413050 0.819086 0.041531
Si Si3 0.668618 0.681982 0.550827
Si Si4 0.168390 0.318523 0.048653
Si Si5 0.156564 0.180722 0.797670
Si Si6 0.081515 0.319521 0.712613
Si Si7 0.091728 0.681946 0.219882
Si Si8 0.583253 0.683431 0.467064
O O1 0.257465 0.272239 0.255303
O O2 0.128235 0.222082 0.259756
O O3 0.136446 0.239628 0.381835
O O4 0.195819 0.000000 0.288784
O O5 0.367201 0.722033 0.117243
O O6 0.400219 0.000000 0.061596
O O7 0.500000 0.774377 0.000000
O O8 0.383265 0.767068 0.985848
O O9 0.674676 0.500000 0.544487
O O10 0.750000 0.750000 0.500000
O O11 0.636357 0.730668 0.636510
O O12 0.615319 0.745685 0.519651
O O13 0.175938 0.500000 0.047102
O O14 0.130189 0.258795 0.134091
O O15 0.250000 0.250000 0.000000
O O16 0.101511 0.270667 0.776091
O O17 0.148074 0.000000 0.789614
O O18 0.095811 0.500000 0.697632
O O19 0.995915 0.275603 0.739848
O O20 0.104335 0.500000 0.224550
O O21 0.500000 0.754538 0.500000
O O22 0.578907 0.500000 0.469033
#
# Coordination Sequence:
#
# PCOD8107122 Si02
#       8
#     8   8   8   8   8   8   8   8
#     4  11  22  38  62  89 119 158 201 244 298 362
#     4  10  21  40  64  87 114 153 199 245 299 360
#     4  11  22  38  61  88 119 156 199 248 301 358
#     4  10  21  37  58  84 114 151 192 236 291 354
#     4  12  25  40  60  88 122 158 201 251 299 355
#     4  11  23  41  63  87 119 159 202 250 305 361
#     4  10  22  40  61  87 120 156 196 246 302 358
#     4   9  19  36  58  84 114 149 191 239 290 347
#
# _framework density 20.330079000000001
#
# number of rings (size 3 to 8) (size 9 to 14) (size 15 to 20)
#    0.000    1.500    0.000    5.250    0.000    8.250 
#    0.000    3.125    0.000    4.500    0.000    0.000 
#    0.000    0.000    0.000    0.000    0.000    0.000 
#
# Total GULP energy -396986.587820 kJ/mol
# GULP energy per Si atom -12405.830869 kJ/mol
# Density = 2.028381 g / cm^3
# Si number density = 20.330079 Si / 1000 Ang^3
#
#
#
# Elastic Constant Matrix: (Units=GPa)
#
#
# Indices 1 2 3 4 5 6 
#
# 1 97.0232 27.5301 4.9774 -0.0006 -4.6467 0.0004
# 2 27.5301 40.6789 18.8213 -0.0004 -4.7801 0.0002
# 3 4.9774 18.8213 96.1498 -0.0003 -6.9068 0.0002
# 4 -0.0006 -0.0004 -0.0003 14.9888 0.0000 5.2779
# 5 -4.6467 -4.7801 -6.9068 0.0000 43.6423 -0.0002
# 6 0.0004 0.0002 0.0002 5.2779 -0.0002 33.4172
#
#
#
# Elastic Compliance Matrix: (Units=1/GPa)
#
#
# Indices 1 2 3 4 5 6 
#
# 1 0.012882 -0.009196 0.001173 0.000000 0.000550 0.000000
# 2 -0.009196 0.033796 -0.006012 0.000000 0.001771 0.000000
# 3 0.001173 -0.006012 0.011610 0.000000 0.001304 0.000000
# 4 0.000000 0.000000 0.000000 0.070645 0.000000 -0.011158
# 5 0.000550 0.001771 0.001304 0.000000 0.023372 0.000000
# 6 0.000000 0.000000 0.000000 -0.011158 0.000000 0.031687
#
#
# Mechanical properties :
#
#
# Convention : Reuss Voigt Hill
#
# Bulk Modulus (GPa) = 33.09364 37.38997 35.24180
# Shear Modulus (GPa) = 22.50851 30.57789 26.54320
#
# Velocity S-wave (km/s) = 3.33100 3.88244 3.61725
# Velocity P-wave (km/s) = 5.57742 6.20719 5.90071
#
# Compressibility (1/GPa) = 0.03021729
#
# Stress axis : x y z
#
# Youngs Moduli (GPa) = 77.62511 29.58891 86.13043
#
# Poissons Ratio (x) = 0.27211 -0.10101
# Poissons Ratio (y) = 0.71387 0.51785
# Poissons Ratio (z) = -0.09104 0.17790
#
# Static dielectric constant tensor:
#      x y z
#    x 3.907400 0.000000 0.072200 
#    y 0.000000 3.469640 0.000000 
#    z 0.072200 0.000000 3.865870 
# 
# 
# High freq. dielectric constant tensor:
#      x y z
#    x 1.814160 0.000000 0.000760 
#    y 0.000000 1.780140 0.000000 
#    z 0.000760 0.000000 1.812140 
# 
# From -- ./inp_files/319943.got.cif
#   From: 2010.06.25/outbox.cif.g09.slc.cpg/sg12_160_cif.got.tgz:319943.got - 2010.06.28 00:19:55.
