data_PCOD8107433
_publ_section_title
;
Structure prediction by ZEFSAII (Michael W. Deem and Ramdas Pophale) SiO2 
 PCOD8107433
Probable space group: C 2/M
;
_chemical_formula_sum "Si O2"
_cell_formula_units_Z 56
_cell_length_a 13.931473
_cell_length_b 17.182436
_cell_length_c 12.344201
_cell_angle_alpha 90.000000
_cell_angle_beta 112.673887
_cell_angle_gamma 90.000000
_cell_volume 2726.539587
_symmetry_space_group_name_H-M "C 2/M"
_symmetry_group_IT_number 12
_symmetry_cell_setting 'monoclinic'
loop_
_space_group_symop_operation_xyz
x,y,z
-x,y,-z
-x,-y,-z
x,-y,z
1/2+x,1/2+y,z
1/2-x,1/2+y,-z
1/2-x,1/2-y,-z
1/2+x,1/2-y,z
loop_
_atom_site_type_symbol
_atom_site_label
_atom_site_fract_x
_atom_site_fract_y
_atom_site_fract_z
Si Si1 0.026425 0.150781 0.389545
Si Si2 0.245277 0.657188 0.593829
Si Si3 0.157793 0.908979 0.824807
Si Si4 0.056501 0.322794 0.352021
Si Si5 0.789783 0.820648 0.950051
Si Si6 0.643802 0.913343 0.743412
Si Si7 0.811671 0.287303 0.776114
O O1 0.954167 0.100382 0.278717
O O2 0.000000 0.125348 0.500000
O O3 0.146032 0.132800 0.413285
O O4 0.002442 0.241806 0.361860
O O5 0.158833 0.659889 0.464687
O O6 0.216574 0.592042 0.669345
O O7 0.248189 0.742275 0.652855
O O8 0.243161 0.855698 0.799916
O O9 0.190816 0.000000 0.836145
O O10 0.146563 0.880316 0.945650
O O11 0.086944 0.323767 0.237431
O O12 0.972634 0.388751 0.338481
O O13 0.687033 0.862023 0.859910
O O14 0.852390 0.779848 0.877750
O O15 0.750000 0.750000 0.000000
O O16 0.642281 0.000000 0.786237
#
# Coordination Sequence:
#
# PCOD8107433 Si02
#       7
#     8   8   8   8   8   8   8
#     4  11  21  38  62  87 115 150 198 246 287 339
#     4  10  21  37  60  86 116 155 198 241 280 337
#     4  11  22  37  59  87 120 154 187 235 301 359
#     4  11  20  36  62  87 115 155 199 240 285 340
#     4   9  19  40  63  82 109 150 199 245 285 336
#     4  11  23  38  57  86 123 156 189 237 295 352
#     4   9  19  37  60  86 114 150 198 246 285 334
#
# _framework density 20.538854000000001
#
# number of rings (size 3 to 8) (size 9 to 14) (size 15 to 20)
#    0.000    1.714    0.000    7.714    0.000    2.571 
#    0.000   17.857    0.000   12.857    0.000    0.000 
#    0.000    0.000    0.000    0.000    0.000    0.000 
#
# Total GULP energy -347083.772511 kJ/mol
# GULP energy per Si atom -12395.849018 kJ/mol
# Density = 2.049211 g / cm^3
# Si number density = 20.538854 Si / 1000 Ang^3
#
#
#
# Elastic Constant Matrix: (Units=GPa)
#
#
# Indices 1 2 3 4 5 6 
#
# 1 121.9773 48.1786 60.9210 0.0000 -12.3879 0.0000
# 2 48.1786 108.5439 50.5237 0.0000 2.0770 0.0000
# 3 60.9210 50.5237 134.8649 0.0000 -7.4599 0.0000
# 4 0.0000 0.0000 0.0000 15.9681 0.0000 -1.4847
# 5 -12.3879 2.0770 -7.4599 0.0000 16.7242 0.0000
# 6 0.0000 0.0000 0.0000 -1.4847 0.0000 13.8433
#
#
#
# Elastic Compliance Matrix: (Units=1/GPa)
#
#
# Indices 1 2 3 4 5 6 
#
# 1 0.012415 -0.003950 -0.003683 0.000000 0.008044 0.000000
# 2 -0.003950 0.012600 -0.003265 0.000000 -0.005947 0.000000
# 3 -0.003683 -0.003265 0.010431 0.000000 0.002330 0.000000
# 4 0.000000 0.000000 0.000000 0.063256 0.000000 0.006784
# 5 0.008044 -0.005947 0.002330 0.000000 0.067529 0.000000
# 6 0.000000 0.000000 0.000000 0.006784 0.000000 0.072965
#
#
# Mechanical properties :
#
#
# Convention : Reuss Voigt Hill
#
# Bulk Modulus (GPa) = 73.26616 76.07032 74.66824
# Shear Modulus (GPa) = 18.82953 23.02465 20.92709
#
# Velocity S-wave (km/s) = 3.03112 3.35181 3.19549
# Velocity P-wave (km/s) = 6.92818 7.21784 7.07449
#
# Compressibility (1/GPa) = 0.01364887
#
# Stress axis : x y z
#
# Youngs Moduli (GPa) = 80.54796 79.36802 95.87160
#
# Poissons Ratio (x) = 0.31350 0.35313
# Poissons Ratio (y) = 0.31816 0.31300
# Poissons Ratio (z) = 0.29669 0.25912
#
# Static dielectric constant tensor:
#      x y z
#    x 3.854620 0.000000 -0.452680 
#    y 0.000000 3.751000 0.000000 
#    z -0.452680 0.000000 4.358610 
# 
# 
# High freq. dielectric constant tensor:
#      x y z
#    x 1.793350 0.000000 -0.013780 
#    y 0.000000 1.787420 0.000000 
#    z -0.013780 0.000000 1.814730 
# 
# From -- ./inp_files/146250.got.cif
#   From: 2010.06.25/outbox.cif.g09.slc.cpg/sg12_74_cif.got.tgz:146250.got - 2010.06.28 00:19:55.
