data_PCOD8107040
_publ_section_title
;
Structure prediction by ZEFSAII (Michael W. Deem and Ramdas Pophale) SiO2 
 PCOD8107040
Probable space group: C 2/M
;
_chemical_formula_sum "Si O2"
_cell_formula_units_Z 64
_cell_length_a 17.255927
_cell_length_b 17.826831
_cell_length_c 15.191233
_cell_angle_alpha 90.000000
_cell_angle_beta 135.662703
_cell_angle_gamma 90.000000
_cell_volume 3265.943853
_symmetry_space_group_name_H-M "C 2/M"
_symmetry_group_IT_number 12
_symmetry_cell_setting 'monoclinic'
loop_
_space_group_symop_operation_xyz
x,y,z
-x,y,-z
-x,-y,-z
x,-y,z
1/2+x,1/2+y,z
1/2-x,1/2+y,-z
1/2-x,1/2-y,-z
1/2+x,1/2-y,z
loop_
_atom_site_type_symbol
_atom_site_label
_atom_site_fract_x
_atom_site_fract_y
_atom_site_fract_z
Si Si1 0.762978 0.586420 0.985513
Si Si2 0.166852 0.720970 0.644397
Si Si3 0.852993 0.414853 0.247154
Si Si4 0.949867 0.318726 0.624122
Si Si5 0.922743 0.916312 0.522197
Si Si6 0.002363 0.417516 0.898782
Si Si7 0.696969 0.171584 0.339295
Si Si8 0.588081 0.314789 0.742364
O O1 0.732435 0.500000 0.934276
O O2 0.675808 0.646740 0.878373
O O3 0.770901 0.593585 0.097393
O O4 0.878697 0.610668 0.036624
O O5 0.188352 0.641890 0.710437
O O6 0.070211 0.710932 0.491920
O O7 0.277303 0.746401 0.680997
O O8 0.139938 0.787923 0.691156
O O9 0.850081 0.500000 0.280751
O O10 0.980861 0.396384 0.323639
O O11 0.833895 0.325186 0.581855
O O12 0.032046 0.259240 0.739723
O O13 0.804322 0.878749 0.409134
O O14 0.000000 0.916035 0.500000
O O15 0.988829 0.873855 0.651676
O O16 0.898726 0.000000 0.535151
O O17 0.978547 0.500000 0.838627
O O18 0.910241 0.359805 0.794967
O O19 0.000000 0.422553 0.000000
#
# Coordination Sequence:
#
# PCOD8107040 Si02
#       8
#     8   8   8   8   8   8   8   8
#     4  10  21  39  64  91 123 161 204 256 302 360
#     4  11  23  38  61  88 123 165 196 254 308 361
#     4  10  22  42  64  89 118 158 215 259 303 364
#     4  11  23  38  64  88 127 157 201 262 315 356
#     4  11  22  35  58  88 119 162 200 239 300 373
#     4  10  21  37  57  88 126 162 196 249 314 369
#     4  12  22  40  59  89 128 161 202 259 307 370
#     4  11  20  39  60  90 122 155 203 244 302 374
#
# _framework density 19.596173
#
# number of rings (size 3 to 8) (size 9 to 14) (size 15 to 20)
#    0.000    1.250    3.750    3.375    0.000    3.500 
#    2.250    0.000    0.000    0.000    0.000    1.750 
#    0.000    0.000    0.000    0.000    0.000    0.000 
#
# Total GULP energy -396618.323242 kJ/mol
# GULP energy per Si atom -12394.322601 kJ/mol
# Density = 1.955157 g / cm^3
# Si number density = 19.596173 Si / 1000 Ang^3
#
#
#
# Elastic Constant Matrix: (Units=GPa)
#
#
# Indices 1 2 3 4 5 6 
#
# 1 66.3706 43.1709 14.7615 0.0000 -3.3694 -0.0001
# 2 43.1709 133.0196 57.4161 0.0000 2.6451 0.0000
# 3 14.7615 57.4161 93.2751 0.0000 3.5953 -0.0001
# 4 0.0000 0.0000 0.0000 32.6961 0.0000 -1.1715
# 5 -3.3694 2.6451 3.5953 0.0000 25.7529 -0.0001
# 6 -0.0001 0.0000 -0.0001 -1.1715 -0.0001 12.8814
#
#
#
# Elastic Compliance Matrix: (Units=1/GPa)
#
#
# Indices 1 2 3 4 5 6 
#
# 1 0.019422 -0.006791 0.000987 0.000000 0.003101 0.000000
# 2 -0.006791 0.012613 -0.006641 0.000000 -0.001257 0.000000
# 3 0.000987 -0.006641 0.014700 0.000000 -0.001241 0.000000
# 4 0.000000 0.000000 0.000000 0.030685 0.000000 0.002791
# 5 0.003101 -0.001257 -0.001241 0.000000 0.039539 0.000000
# 6 0.000000 0.000000 0.000000 0.002791 0.000000 0.077885
#
#
# Mechanical properties :
#
#
# Convention : Reuss Voigt Hill
#
# Bulk Modulus (GPa) = 45.77529 58.15139 51.96334
# Shear Modulus (GPa) = 22.02488 26.08719 24.05603
#
# Velocity S-wave (km/s) = 3.35616 3.65257 3.50750
# Velocity P-wave (km/s) = 6.19906 6.89403 6.55576
#
# Compressibility (1/GPa) = 0.02184585
#
# Stress axis : x y z
#
# Youngs Moduli (GPa) = 51.48784 79.28227 68.02507
#
# Poissons Ratio (x) = 0.53841 -0.06715
# Poissons Ratio (y) = 0.34966 0.45175
# Poissons Ratio (z) = -0.05082 0.52651
#
# Static dielectric constant tensor:
#      x y z
#    x 3.439110 0.000000 -0.044720 
#    y 0.000000 3.850870 0.000000 
#    z -0.044720 0.000000 3.437030 
# 
# 
# High freq. dielectric constant tensor:
#      x y z
#    x 1.751870 0.000000 -0.001440 
#    y 0.000000 1.770740 0.000000 
#    z -0.001440 0.000000 1.754820 
# 
# From -- ./inp_files/226884.got.cif
#   From: 2010.06.25/outbox.cif.g09.slc.cpg/sg12_114_cif.got.tgz:226884.got - 2010.06.28 00:19:55.
