data_PCOD8107923
_publ_section_title
;
Structure prediction by ZEFSAII (Michael W. Deem and Ramdas Pophale) SiO2 
 PCOD8107923
Probable space group: C 2/M
;
_chemical_formula_sum "Si O2"
_cell_formula_units_Z 64
_cell_length_a 17.497377
_cell_length_b 14.537533
_cell_length_c 15.138977
_cell_angle_alpha 90.000000
_cell_angle_beta 54.174023
_cell_angle_gamma 90.000000
_cell_volume 3122.289309
_symmetry_space_group_name_H-M "C 2/M"
_symmetry_group_IT_number 12
_symmetry_cell_setting 'monoclinic'
loop_
_space_group_symop_operation_xyz
x,y,z
-x,y,-z
-x,-y,-z
x,-y,z
1/2+x,1/2+y,z
1/2-x,1/2+y,-z
1/2-x,1/2-y,-z
1/2+x,1/2-y,z
loop_
_atom_site_type_symbol
_atom_site_label
_atom_site_fract_x
_atom_site_fract_y
_atom_site_fract_z
Si Si1 0.219596 0.853037 0.530395
Si Si2 0.106739 0.896758 0.091921
Si Si3 0.790355 0.204794 0.127628
Si Si4 0.112065 0.390505 0.320042
Si Si5 0.907441 0.601023 0.471421
Si Si6 0.891659 0.893228 0.216970
Si Si7 0.783171 0.895049 0.806749
Si Si8 0.103367 0.105915 0.436198
O O1 0.250000 0.750000 0.500000
O O2 0.321394 0.903484 0.460129
O O3 0.167584 0.873066 0.656074
O O4 0.150906 0.882759 0.499080
O O5 0.136850 0.893699 0.173122
O O6 0.998868 0.865194 0.161312
O O7 0.117621 0.000000 0.046411
O O8 0.171170 0.828788 0.992138
O O9 0.684177 0.166117 0.210484
O O10 0.856462 0.168722 0.160745
O O11 0.794907 0.316741 0.120521
O O12 0.132665 0.500000 0.294032
O O13 0.125566 0.354422 0.412857
O O14 0.005075 0.358898 0.364370
O O15 0.939089 0.500000 0.478368
O O16 0.879935 0.000000 0.199292
O O17 0.828510 0.856326 0.685600
O O18 0.740950 0.000000 0.827218
O O19 0.000000 0.154157 0.500000
O O20 0.088704 0.000000 0.423825
#
# Coordination Sequence:
#
# PCOD8107923 Si02
#       8
#     8   8   8   8   8   8   8   8
#     4  12  23  35  54  89 122 161 204 241 298 363
#     4  10  22  40  64  91 121 155 199 255 313 366
#     4  12  21  36  62  94 121 156 200 253 307 366
#     4   9  18  32  55  86 120 155 192 235 299 368
#     4   9  18  34  52  78 120 163 191 233 296 362
#     4  11  22  38  62  94 128 155 190 255 322 367
#     4  10  23  42  58  81 118 162 205 247 297 354
#     4  10  21  38  59  80 110 157 206 247 289 347
#
# _framework density 20.497781
#
# number of rings (size 3 to 8) (size 9 to 14) (size 15 to 20)
#    0.000    1.625    1.250    5.250    0.000    5.000 
#    0.000    0.000    0.000    1.500    0.000    3.500 
#    0.000    0.000    0.000    0.000    0.000    0.000 
#
# Total GULP energy -396588.682299 kJ/mol
# GULP energy per Si atom -12393.396322 kJ/mol
# Density = 2.045113 g / cm^3
# Si number density = 20.497781 Si / 1000 Ang^3
#
#
#
# Elastic Constant Matrix: (Units=GPa)
#
#
# Indices 1 2 3 4 5 6 
#
# 1 108.6034 10.9851 7.1617 0.0000 -6.3205 0.0000
# 2 10.9851 91.0528 11.7267 0.0000 -10.7754 0.0000
# 3 7.1617 11.7267 33.3161 0.0000 -6.9143 0.0000
# 4 0.0000 0.0000 0.0000 18.2617 0.0000 9.1584
# 5 -6.3205 -10.7754 -6.9143 0.0000 33.0183 0.0000
# 6 0.0000 0.0000 0.0000 9.1584 0.0000 8.9538
#
#
#
# Elastic Compliance Matrix: (Units=1/GPa)
#
#
# Indices 1 2 3 4 5 6 
#
# 1 0.009459 -0.000803 -0.001494 0.000000 0.001236 0.000000
# 2 -0.000803 0.011871 -0.003381 0.000000 0.003013 0.000000
# 3 -0.001494 -0.003381 0.032658 0.000000 0.005449 0.000000
# 4 0.000000 0.000000 0.000000 0.112434 0.000000 -0.115004
# 5 0.001236 0.003013 0.005449 0.000000 0.032647 0.000000
# 6 0.000000 0.000000 0.000000 -0.115004 0.000000 0.229316
#
#
# Mechanical properties :
#
#
# Convention : Reuss Voigt Hill
#
# Bulk Modulus (GPa) = 23.45600 32.52438 27.99019
# Shear Modulus (GPa) = 11.01436 25.58667 18.30052
#
# Velocity S-wave (km/s) = 2.32058 3.53691 2.99123
# Velocity P-wave (km/s) = 4.31835 5.70801 5.06110
#
# Compressibility (1/GPa) = 0.04263301
#
# Stress axis : x y z
#
# Youngs Moduli (GPa) = 105.71424 84.23610 30.62062
#
# Poissons Ratio (x) = 0.06760 0.04576
# Poissons Ratio (y) = 0.08484 0.10352
# Poissons Ratio (z) = 0.15799 0.28479
#
# Static dielectric constant tensor:
#      x y z
#    x 3.641290 0.000000 -0.141770 
#    y 0.000000 3.789780 0.000000 
#    z -0.141770 0.000000 3.667400 
# 
# 
# High freq. dielectric constant tensor:
#      x y z
#    x 1.802120 0.000000 -0.004920 
#    y 0.000000 1.801410 0.000000 
#    z -0.004920 0.000000 1.791340 
# 
# From -- ./inp_files/225708.got.cif
#   From: 2010.06.25/outbox.cif.g09.slc.cpg/sg12_113_cif.got.tgz:225708.got - 2010.06.28 00:19:55.
