data_PCOD8107343
_publ_section_title
;
Structure prediction by ZEFSAII (Michael W. Deem and Ramdas Pophale) SiO2 
 PCOD8107343
Probable space group: C 2/M
;
_chemical_formula_sum "Si O2"
_cell_formula_units_Z 64
_cell_length_a 22.595486
_cell_length_b 20.723836
_cell_length_c 9.422655
_cell_angle_alpha 90.000000
_cell_angle_beta 131.507490
_cell_angle_gamma 90.000000
_cell_volume 3304.235790
_symmetry_space_group_name_H-M "C 2/M"
_symmetry_group_IT_number 12
_symmetry_cell_setting 'monoclinic'
loop_
_space_group_symop_operation_xyz
x,y,z
-x,y,-z
-x,-y,-z
x,-y,z
1/2+x,1/2+y,z
1/2-x,1/2+y,-z
1/2-x,1/2-y,-z
1/2+x,1/2-y,z
loop_
_atom_site_type_symbol
_atom_site_label
_atom_site_fract_x
_atom_site_fract_y
_atom_site_fract_z
Si Si1 0.489225 0.886264 0.642330
Si Si2 0.709652 0.843264 0.417813
Si Si3 0.511383 0.264641 0.674950
Si Si4 0.370270 0.928431 0.933198
Si Si5 0.241926 0.072609 0.966099
Si Si6 0.316057 0.072794 0.380000
Si Si7 0.326804 0.290581 0.159834
Si Si8 0.354228 0.720557 0.525724
O O1 0.500000 0.913610 0.500000
O O2 0.488573 0.809833 0.642174
O O3 0.405972 0.912393 0.563498
O O4 0.553732 0.911795 0.853605
O O5 0.643980 0.878554 0.216845
O O6 0.736347 0.884263 0.597204
O O7 0.667943 0.777927 0.402761
O O8 0.791962 0.835597 0.462489
O O9 0.500000 0.295049 0.500000
O O10 0.605355 0.274462 0.851592
O O11 0.448975 0.297754 0.688444
O O12 0.381158 0.000000 0.885962
O O13 0.294042 0.926809 0.910125
O O14 0.297395 0.089725 0.187937
O O15 0.203353 0.000000 0.922089
O O16 0.180180 0.131359 0.852917
O O17 0.294326 0.000000 0.379830
O O18 0.347813 0.262264 0.348383
O O19 0.250000 0.250000 0.000000
#
# Coordination Sequence:
#
# PCOD8107343 Si02
#       8
#     8   8   8   8   8   8   8   8
#     4  11  20  35  56  84 119 156 196 244 295 351
#     4  11  22  38  57  80 120 155 199 237 297 354
#     4   9  20  35  58  85 113 145 194 247 292 346
#     4  11  22  36  56  84 117 159 201 243 290 355
#     4  10  21  37  59  88 117 150 203 255 297 348
#     4  11  22  37  58  83 117 162 199 235 294 366
#     4  11  20  35  65  93 115 152 204 252 304 351
#     4  10  21  39  58  81 116 157 190 251 298 352
#
# _framework density 19.369077999999998
#
# number of rings (size 3 to 8) (size 9 to 14) (size 15 to 20)
#    0.000    1.500    3.750    2.250    1.750    1.000 
#    0.000    1.250    0.000    4.875    0.000    1.750 
#    0.000    0.000    0.000    0.000    0.000    0.000 
#
# Total GULP energy -396488.720840 kJ/mol
# GULP energy per Si atom -12390.272526 kJ/mol
# Density = 1.932499 g / cm^3
# Si number density = 19.369078 Si / 1000 Ang^3
#
#
#
# Elastic Constant Matrix: (Units=GPa)
#
#
# Indices 1 2 3 4 5 6 
#
# 1 125.4375 25.5066 25.3019 0.0000 17.1799 0.0000
# 2 25.5066 73.5295 34.8763 0.0000 0.6937 0.0000
# 3 25.3019 34.8763 70.9100 0.0000 1.6204 0.0000
# 4 0.0000 0.0000 0.0000 30.8782 0.0000 -1.4813
# 5 17.1799 0.6937 1.6204 0.0000 29.3867 0.0000
# 6 0.0000 0.0000 0.0000 -1.4813 0.0000 21.1927
#
#
#
# Elastic Compliance Matrix: (Units=1/GPa)
#
#
# Indices 1 2 3 4 5 6 
#
# 1 0.009619 -0.002239 -0.002207 0.000000 -0.005449 0.000000
# 2 -0.002239 0.018259 -0.008212 0.000000 0.001331 0.000000
# 3 -0.002207 -0.008212 0.018919 0.000000 0.000441 0.000000
# 4 0.000000 0.000000 0.000000 0.032494 0.000000 0.002271
# 5 -0.005449 0.001331 0.000441 0.000000 0.037159 0.000000
# 6 0.000000 0.000000 0.000000 0.002271 0.000000 0.047345
#
#
# Mechanical properties :
#
#
# Convention : Reuss Voigt Hill
#
# Bulk Modulus (GPa) = 46.55097 49.02741 47.78919
# Shear Modulus (GPa) = 25.47519 28.57101 27.02310
#
# Velocity S-wave (km/s) = 3.63057 3.84485 3.73925
# Velocity P-wave (km/s) = 6.45450 6.71399 6.58552
#
# Compressibility (1/GPa) = 0.02148183
#
# Stress axis : x y z
#
# Youngs Moduli (GPa) = 103.96493 54.76710 52.85775
#
# Poissons Ratio (x) = 0.12260 0.11663
# Poissons Ratio (y) = 0.23273 0.43408
# Poissons Ratio (z) = 0.22940 0.44976
#
# Static dielectric constant tensor:
#      x y z
#    x 3.918790 0.000000 0.014940 
#    y 0.000000 3.690890 0.000000 
#    z 0.014940 0.000000 3.511220 
# 
# 
# High freq. dielectric constant tensor:
#      x y z
#    x 1.756350 0.000000 -0.007950 
#    y 0.000000 1.745290 0.000000 
#    z -0.007950 0.000000 1.736760 
# 
# From -- ./inp_files/99150.got.cif
#   From: 2010.06.25/outbox.cif.g09.slc.cpg/sg12_50_cif.got.tgz:99150.got - 2010.06.28 00:19:55.
