data_PCOD8107663
_publ_section_title
;
Structure prediction by ZEFSAII (Michael W. Deem and Ramdas Pophale) SiO2 
 PCOD8107663
Probable space group: C 2/M
;
_chemical_formula_sum "Si O2"
_cell_formula_units_Z 48
_cell_length_a 11.377219
_cell_length_b 17.116740
_cell_length_c 11.473070
_cell_angle_alpha 90.000000
_cell_angle_beta 101.990505
_cell_angle_gamma 90.000000
_cell_volume 2185.528634
_symmetry_space_group_name_H-M "C 2/M"
_symmetry_group_IT_number 12
_symmetry_cell_setting 'monoclinic'
loop_
_space_group_symop_operation_xyz
x,y,z
-x,y,-z
-x,-y,-z
x,-y,z
1/2+x,1/2+y,z
1/2-x,1/2+y,-z
1/2-x,1/2-y,-z
1/2+x,1/2-y,z
loop_
_atom_site_type_symbol
_atom_site_label
_atom_site_fract_x
_atom_site_fract_y
_atom_site_fract_z
Si Si1 0.513340 0.910827 0.637626
Si Si2 0.212817 0.698319 0.701324
Si Si3 0.135949 0.087624 0.406685
Si Si4 0.880033 0.131652 0.340319
Si Si5 0.134459 0.257865 0.063391
Si Si6 0.152586 0.585986 0.186462
O O1 0.500000 0.882480 0.500000
O O2 0.605209 0.855544 0.728982
O O3 0.392261 0.902248 0.688805
O O4 0.559566 0.000000 0.647189
O O5 0.258135 0.647006 0.602330
O O6 0.155827 0.778615 0.645121
O O7 0.321348 0.710732 0.814238
O O8 0.128710 0.082664 0.543643
O O9 0.015837 0.123327 0.323439
O O10 0.161007 0.000000 0.364422
O O11 0.796586 0.093524 0.224352
O O12 0.107755 0.348614 0.087398
O O13 0.250000 0.250000 0.000000
O O14 0.000000 0.225052 0.000000
O O15 0.116308 0.500000 0.131361
#
# Coordination Sequence:
#
# PCOD8107663 Si02
#       6
#     8   8   8   8   8   8
#     4  10  21  37  63 101 140 170 202 253 321 403
#     4  11  24  37  66  89 126 164 217 266 321 387
#     4  11  22  38  59  90 132 171 203 249 314 392
#     4  10  22  35  60  91 129 168 206 245 302 395
#     4  11  26  46  68  92 123 167 227 289 338 380
#     4  10  21  39  66  92 125 164 209 262 326 395
#
# _framework density 21.962651000000001
#
# number of rings (size 3 to 8) (size 9 to 14) (size 15 to 20)
#    0.000    1.500    0.000    5.000   11.667    1.667 
#    0.000    1.667    0.000    2.500    0.000    0.000 
#    0.000    0.000    0.000    0.000    0.000    0.000 
#
# Total GULP energy -297369.110121 kJ/mol
# GULP energy per Si atom -12390.379588 kJ/mol
# Density = 2.191266 g / cm^3
# Si number density = 21.962651 Si / 1000 Ang^3
#
#
#
# Elastic Constant Matrix: (Units=GPa)
#
#
# Indices 1 2 3 4 5 6 
#
# 1 91.4506 39.2124 11.5431 0.0000 10.6797 0.0000
# 2 39.2124 147.2929 30.0335 0.0000 1.8529 0.0000
# 3 11.5431 30.0335 52.7719 0.0000 9.7751 0.0000
# 4 0.0000 0.0000 0.0000 37.9967 0.0000 9.7759
# 5 10.6797 1.8529 9.7751 0.0000 43.6989 0.0000
# 6 0.0000 0.0000 0.0000 9.7759 0.0000 41.6206
#
#
#
# Elastic Compliance Matrix: (Units=1/GPa)
#
#
# Indices 1 2 3 4 5 6 
#
# 1 0.012724 -0.003272 -0.000387 0.000000 -0.002884 0.000000
# 2 -0.003272 0.008541 -0.004409 0.000000 0.001424 0.000000
# 3 -0.000387 -0.004409 0.022420 0.000000 -0.004734 0.000000
# 4 0.000000 0.000000 0.000000 0.028011 0.000000 -0.006579
# 5 -0.002884 0.001424 -0.004734 0.000000 0.024587 0.000000
# 6 0.000000 0.000000 0.000000 -0.006579 0.000000 0.025572
#
#
# Mechanical properties :
#
#
# Convention : Reuss Voigt Hill
#
# Bulk Modulus (GPa) = 36.29828 50.34373 43.32101
# Shear Modulus (GPa) = 33.97338 38.71165 36.34252
#
# Velocity S-wave (km/s) = 3.93729 4.20290 4.07226
# Velocity P-wave (km/s) = 6.10187 6.82090 6.47138
#
# Compressibility (1/GPa) = 0.02754951
#
# Stress axis : x y z
#
# Youngs Moduli (GPa) = 78.59450 117.07645 44.60267
#
# Poissons Ratio (x) = 0.38309 0.01724
# Poissons Ratio (y) = 0.25717 0.19666
# Poissons Ratio (z) = 0.03038 0.51620
#
# Static dielectric constant tensor:
#      x y z
#    x 4.337110 0.000000 0.162300 
#    y 0.000000 4.035110 0.000000 
#    z 0.162300 0.000000 3.576140 
# 
# 
# High freq. dielectric constant tensor:
#      x y z
#    x 1.878960 0.000000 0.016860 
#    y 0.000000 1.870290 0.000000 
#    z 0.016860 0.000000 1.826870 
# 
# From -- ./inp_files/131745.got.cif
#   From: 2010.06.25/outbox.cif.g09.slc.cpg/sg12_66_cif.got.tgz:131745.got - 2010.06.28 00:19:55.
