data_PCOD8107736
_publ_section_title
;
Structure prediction by ZEFSAII (Michael W. Deem and Ramdas Pophale) SiO2 
 PCOD8107736
Probable space group: C 2/M
;
_chemical_formula_sum "Si O2"
_cell_formula_units_Z 64
_cell_length_a 27.728068
_cell_length_b 29.655903
_cell_length_c 10.918370
_cell_angle_alpha 90.000000
_cell_angle_beta 22.500558
_cell_angle_gamma 90.000000
_cell_volume 3435.883596
_symmetry_space_group_name_H-M "C 2/M"
_symmetry_group_IT_number 12
_symmetry_cell_setting 'monoclinic'
loop_
_space_group_symop_operation_xyz
x,y,z
-x,y,-z
-x,-y,-z
x,-y,z
1/2+x,1/2+y,z
1/2-x,1/2+y,-z
1/2-x,1/2-y,-z
1/2+x,1/2-y,z
loop_
_atom_site_type_symbol
_atom_site_label
_atom_site_fract_x
_atom_site_fract_y
_atom_site_fract_z
Si Si1 0.455499 0.196701 0.893861
Si Si2 0.507277 0.449367 0.182983
Si Si3 0.295970 0.449572 0.498693
Si Si4 0.499475 0.295684 0.860458
Si Si5 0.726555 0.789835 0.894007
Si Si6 0.127520 0.385701 0.756893
Si Si7 0.854052 0.869836 0.051739
Si Si8 0.732639 0.811148 0.149907
O O1 0.437962 0.246649 0.988638
O O2 0.600454 0.185092 0.529978
O O3 0.381713 0.191697 0.939824
O O4 0.399245 0.164050 0.128544
O O5 0.505329 0.500000 0.244089
O O6 0.369353 0.436605 0.452211
O O7 0.606117 0.446969 0.841398
O O8 0.550449 0.412599 0.183107
O O9 0.241458 0.500000 0.638280
O O10 0.179241 0.416239 0.747686
O O11 0.639084 0.297775 0.481097
O O12 0.500000 0.309869 0.000000
O O13 0.413169 0.331110 0.995209
O O14 0.702284 0.737136 0.978012
O O15 0.717046 0.818295 0.041654
O O16 0.224552 0.384681 0.418032
O O17 0.000000 0.407032 0.000000
O O18 0.824856 0.850129 0.985375
#
# Coordination Sequence:
#
# PCOD8107736 Si02
#       8
#     8   8   8   8   8   8   8   8
#     4  11  21  36  52  73 110 146 183 222 267 318
#     4   8  16  31  52  76 106 142 175 224 279 323
#     4   8  16  31  50  75 109 144 180 219 271 329
#     4  11  24  34  53  79 109 143 179 224 272 322
#     4  10  22  37  55  73 101 145 191 225 264 310
#     4  11  21  31  51  77 114 148 175 222 273 326
#     4  11  21  34  52  80 110 140 184 226 270 331
#     4  10  21  38  53  74 102 144 190 231 260 306
#
# _framework density 18.626940000000001
#
# number of rings (size 3 to 8) (size 9 to 14) (size 15 to 20)
#    0.000    2.000    2.500    2.250    7.000    1.750 
#    0.000    0.000    0.000    0.000    0.000    2.625 
#    0.000    2.000    0.000    0.000    0.000    0.000 
#
# Total GULP energy -396797.308442 kJ/mol
# GULP energy per Si atom -12399.915889 kJ/mol
# Density = 1.858454 g / cm^3
# Si number density = 18.626940 Si / 1000 Ang^3
#
#
#
# Elastic Constant Matrix: (Units=GPa)
#
#
# Indices 1 2 3 4 5 6 
#
# 1 111.5381 47.1233 17.4923 0.0033 -22.9913 0.0072
# 2 47.1233 94.4719 26.7031 0.0046 -23.9259 0.0018
# 3 17.4923 26.7031 26.4174 -0.0261 -9.6774 -0.0191
# 4 0.0033 0.0046 -0.0261 12.5725 0.0068 -6.2183
# 5 -22.9913 -23.9259 -9.6774 0.0068 29.6081 0.0050
# 6 0.0072 0.0018 -0.0191 -6.2183 0.0050 37.6653
#
#
#
# Elastic Compliance Matrix: (Units=1/GPa)
#
#
# Indices 1 2 3 4 5 6 
#
# 1 0.012134 -0.004147 -0.001838 -0.000011 0.005470 -0.000006
# 2 -0.004147 0.018139 -0.012950 -0.000044 0.007205 -0.000015
# 3 -0.001838 -0.012950 0.054307 0.000140 0.005858 0.000051
# 4 -0.000011 -0.000044 0.000140 0.086611 -0.000020 0.014299
# 5 0.005470 0.007205 0.005858 -0.000020 0.045759 -0.000008
# 6 -0.000006 -0.000015 0.000051 0.014299 -0.000008 0.028910
#
#
# Mechanical properties :
#
#
# Convention : Reuss Voigt Hill
#
# Bulk Modulus (GPa) = 21.40929 46.11832 33.76381
# Shear Modulus (GPa) = 16.70567 25.37643 21.04105
#
# Velocity S-wave (km/s) = 2.99800 3.69501 3.36460
# Velocity P-wave (km/s) = 4.84796 6.55872 5.76713
#
# Compressibility (1/GPa) = 0.04670868
#
# Stress axis : x y z
#
# Youngs Moduli (GPa) = 82.41621 55.13015 18.41384
#
# Poissons Ratio (x) = 0.22865 0.03385
# Poissons Ratio (y) = 0.34182 0.23845
# Poissons Ratio (z) = 0.15150 0.71391
#
# Static dielectric constant tensor:
#      x y z
#    x 3.628400 0.000000 -0.275260 
#    y 0.000000 3.567290 0.000050 
#    z -0.275260 0.000050 3.158060 
# 
# 
# High freq. dielectric constant tensor:
#      x y z
#    x 1.729530 0.000000 -0.023110 
#    y 0.000000 1.709690 0.000000 
#    z -0.023110 0.000000 1.695040 
# 
# From -- ./inp_files/100202.got.cif
#   From: 2010.06.25/outbox.cif.g09.slc.cpg/sg12_51_cif.got.tgz:100202.got - 2010.06.28 00:19:55.
