data_PCOD8107843
_publ_section_title
;
Structure prediction by ZEFSAII (Michael W. Deem and Ramdas Pophale) SiO2 
 PCOD8107843
Probable space group: C 2/M
;
_chemical_formula_sum "Si O2"
_cell_formula_units_Z 48
_cell_length_a 27.088683
_cell_length_b 8.682349
_cell_length_c 15.320029
_cell_angle_alpha 90.000000
_cell_angle_beta 41.192427
_cell_angle_gamma 90.000000
_cell_volume 2373.011553
_symmetry_space_group_name_H-M "C 2/M"
_symmetry_group_IT_number 12
_symmetry_cell_setting 'monoclinic'
loop_
_space_group_symop_operation_xyz
x,y,z
-x,y,-z
-x,-y,-z
x,-y,z
1/2+x,1/2+y,z
1/2-x,1/2+y,-z
1/2-x,1/2-y,-z
1/2+x,1/2-y,z
loop_
_atom_site_type_symbol
_atom_site_label
_atom_site_fract_x
_atom_site_fract_y
_atom_site_fract_z
Si Si1 0.331717 0.821204 0.728990
Si Si2 0.416012 0.683758 0.103677
Si Si3 0.409789 0.822655 0.444976
Si Si4 0.831552 0.181001 0.386048
Si Si5 0.430415 0.319013 0.743429
Si Si6 0.837985 0.182713 0.033728
O O1 0.352426 0.796995 0.600605
O O2 0.386020 0.717158 0.714503
O O3 0.340276 0.000000 0.744604
O O4 0.247534 0.759059 0.855710
O O5 0.416601 0.500000 0.100993
O O6 0.369878 0.746205 0.247631
O O7 0.500000 0.748452 0.000000
O O8 0.378789 0.750360 0.065075
O O9 0.382537 0.722647 0.400277
O O10 0.491939 0.770774 0.364158
O O11 0.411384 0.000000 0.414705
O O12 0.750000 0.250000 0.500000
O O13 0.823959 0.000000 0.390560
O O14 0.446341 0.500000 0.729094
O O15 0.382026 0.258677 0.889974
O O16 0.838076 0.000000 0.038203
#
# Coordination Sequence:
#
# PCOD8107843 Si02
#       6
#     8   8   8   8   8   8
#     4  10  21  38  58  79 109 151 193 230 274 333
#     4   9  17  32  56  83 110 145 189 229 268 324
#     4  11  23  39  59  82 112 151 190 228 274 331
#     4  11  22  37  60  87 115 148 186 231 279 327
#     4  11  22  36  58  86 113 142 181 234 288 333
#     4   9  18  34  56  82 111 145 187 230 275 331
#
# _framework density 20.227461999999999
#
# number of rings (size 3 to 8) (size 9 to 14) (size 15 to 20)
#    0.000    1.833    0.000    4.500    0.000    8.667 
#    0.000    0.833    0.000   13.000    0.000    0.000 
#    0.000    0.000    0.000    0.000    0.000    0.000 
#
# Total GULP energy -297709.028604 kJ/mol
# GULP energy per Si atom -12404.542859 kJ/mol
# Density = 2.018142 g / cm^3
# Si number density = 20.227462 Si / 1000 Ang^3
#
#
#
# Elastic Constant Matrix: (Units=GPa)
#
#
# Indices 1 2 3 4 5 6 
#
# 1 102.8028 10.1921 16.0843 -0.0021 -3.8751 0.0017
# 2 10.1921 35.9499 29.2541 -0.0021 3.2912 0.0001
# 3 16.0843 29.2541 107.2025 -0.0029 -7.5414 0.0018
# 4 -0.0021 -0.0021 -0.0029 24.2091 -0.0009 0.7614
# 5 -3.8751 3.2912 -7.5414 -0.0009 44.0220 0.0004
# 6 0.0017 0.0001 0.0018 0.7614 0.0004 30.4868
#
#
#
# Elastic Compliance Matrix: (Units=1/GPa)
#
#
# Indices 1 2 3 4 5 6 
#
# 1 0.010118 -0.002275 -0.000833 0.000001 0.000918 -0.000001
# 2 -0.002275 0.037130 -0.010122 0.000002 -0.004710 0.000001
# 3 -0.000833 -0.010122 0.012413 0.000001 0.002810 -0.000001
# 4 0.000001 0.000002 0.000001 0.041339 0.000001 -0.001032
# 5 0.000918 -0.004710 0.002810 0.000001 0.023630 -0.000001
# 6 -0.000001 0.000001 -0.000001 -0.001032 -0.000001 0.032827
#
#
# Mechanical properties :
#
#
# Convention : Reuss Voigt Hill
#
# Bulk Modulus (GPa) = 30.11983 39.66847 34.89415
# Shear Modulus (GPa) = 25.64323 32.43854 29.04089
#
# Velocity S-wave (km/s) = 3.56440 4.00895 3.79319
# Velocity P-wave (km/s) = 5.64472 6.40958 6.03927
#
# Compressibility (1/GPa) = 0.03320072
#
# Stress axis : x y z
#
# Youngs Moduli (GPa) = 98.83581 26.93273 80.56105
#
# Poissons Ratio (x) = 0.06127 0.06708
# Poissons Ratio (y) = 0.22485 0.81545
# Poissons Ratio (z) = 0.08230 0.27262
#
# Static dielectric constant tensor:
#      x y z
#    x 3.521810 0.000000 -0.118690 
#    y 0.000000 3.332690 0.000000 
#    z -0.118690 0.000000 3.979500 
# 
# 
# High freq. dielectric constant tensor:
#      x y z
#    x 1.805480 0.000000 -0.001550 
#    y 0.000000 1.757120 0.000000 
#    z -0.001550 0.000000 1.810050 
# 
# From -- ./inp_files/244636.got.cif
#   From: 2010.06.25/outbox.cif.g09.slc.cpg/sg12_123_cif.got.tgz:244636.got - 2010.06.28 00:19:55.
