data_PCOD8107049
_publ_section_title
;
Structure prediction by ZEFSAII (Michael W. Deem and Ramdas Pophale) SiO2 
 PCOD8107049
Probable space group: C 2/M
;
_chemical_formula_sum "Si O2"
_cell_formula_units_Z 40
_cell_length_a 14.563562
_cell_length_b 21.449407
_cell_length_c 9.419073
_cell_angle_alpha 90.000000
_cell_angle_beta 136.598803
_cell_angle_gamma 90.000000
_cell_volume 2021.681377
_symmetry_space_group_name_H-M "C 2/M"
_symmetry_group_IT_number 12
_symmetry_cell_setting 'monoclinic'
loop_
_space_group_symop_operation_xyz
x,y,z
-x,y,-z
-x,-y,-z
x,-y,z
1/2+x,1/2+y,z
1/2-x,1/2+y,-z
1/2-x,1/2-y,-z
1/2+x,1/2-y,z
loop_
_atom_site_type_symbol
_atom_site_label
_atom_site_fract_x
_atom_site_fract_y
_atom_site_fract_z
Si Si1 0.039987 0.240906 0.694186
Si Si2 0.184791 0.321745 0.061009
Si Si3 0.675765 0.071361 0.548351
Si Si4 0.776802 0.818095 0.468098
Si Si5 0.637582 0.069133 0.824733
O O1 0.185874 0.215095 0.839021
O O2 0.000000 0.275389 0.500000
O O3 0.934207 0.184997 0.603933
O O4 0.051632 0.290349 0.838266
O O5 0.176749 0.326504 0.222006
O O6 0.204153 0.390443 0.021682
O O7 0.756544 0.123705 0.550853
O O8 0.691737 0.089676 0.731276
O O9 0.520937 0.073845 0.337761
O O10 0.728227 0.000000 0.578401
O O11 0.750000 0.750000 0.500000
O O12 0.687000 0.000000 0.910687
#
# Coordination Sequence:
#
# PCOD8107049 Si02
#       5
#     8   8   8   8   8
#     4   9  21  37  55  80 113 148 185 227 282 333
#     4  10  21  37  58  81 109 152 185 230 279 331
#     4   9  20  37  57  82 117 150 182 234 287 329
#     4  11  23  36  55  88 117 145 186 236 282 334
#     4   9  19  36  59  82 107 150 194 225 275 342
#
# _framework density 19.785511
#
# number of rings (size 3 to 8) (size 9 to 14) (size 15 to 20)
#    0.000    2.400    0.000    2.400   11.200    4.000 
#    0.000    3.000    0.000    6.000    0.000    0.000 
#    0.000    0.000    0.000    0.000    0.000    0.000 
#
# Total GULP energy -247794.570240 kJ/mol
# GULP energy per Si atom -12389.728512 kJ/mol
# Density = 1.974048 g / cm^3
# Si number density = 19.785511 Si / 1000 Ang^3
#
#
#
# Elastic Constant Matrix: (Units=GPa)
#
#
# Indices 1 2 3 4 5 6 
#
# 1 63.6129 37.4949 35.5020 0.0000 -23.4413 0.0000
# 2 37.4949 120.8102 62.3239 0.0000 -26.8782 0.0000
# 3 35.5020 62.3239 128.8388 0.0000 -27.4076 0.0000
# 4 0.0000 0.0000 0.0000 6.3560 0.0000 -28.8559
# 5 -23.4413 -26.8782 -27.4076 0.0000 24.2839 0.0000
# 6 0.0000 0.0000 0.0000 -28.8559 0.0000 23.4430
#
#
#
# Elastic Compliance Matrix: (Units=1/GPa)
#
#
# Indices 1 2 3 4 5 6 
#
# 1 0.025489 -0.002717 -0.001467 0.000000 0.019941 0.000000
# 2 -0.002717 0.012695 -0.003897 0.000000 0.007030 0.000000
# 3 -0.001467 -0.003897 0.011623 0.000000 0.007388 0.000000
# 4 0.000000 0.000000 0.000000 -0.034290 0.000000 -0.042208
# 5 0.019941 0.007030 0.007388 0.000000 0.076549 0.000000
# 6 0.000000 0.000000 0.000000 -0.042208 0.000000 -0.009297
#
#
# Mechanical properties :
#
#
# Convention : Reuss Voigt Hill
#
# Bulk Modulus (GPa) = 29.72288 64.87817 47.30052
# Shear Modulus (GPa) = 45.39474 22.67934 34.03704
#
# Velocity S-wave (km/s) = 4.79513 3.38932 4.15215
# Velocity P-wave (km/s) = 6.76112 6.94108 6.85169
#
# Compressibility (1/GPa) = 0.03364412
#
# Stress axis : x y z
#
# Youngs Moduli (GPa) = 39.23304 78.76953 86.03913
#
# Poissons Ratio (x) = 0.21405 0.12622
# Poissons Ratio (y) = 0.10661 0.33528
# Poissons Ratio (z) = 0.05756 0.30695
#
# Static dielectric constant tensor:
#      x y z
#    x 3.691290 0.000000 -0.135380 
#    y 0.000000 4.072930 0.000000 
#    z -0.135380 0.000000 4.138140 
# 
# 
# High freq. dielectric constant tensor:
#      x y z
#    x 1.761100 0.000000 -0.012430 
#    y 0.000000 1.768210 0.000000 
#    z -0.012430 0.000000 1.769920 
# 
# From -- ./inp_files/50967.got.cif
#   From: 2010.06.25/outbox.cif.g09.slc.cpg/sg12_26_cif.got.tgz:50967.got - 2010.06.28 00:19:55.
