data_PCOD8107878
_publ_section_title
;
Structure prediction by ZEFSAII (Michael W. Deem and Ramdas Pophale) SiO2 
 PCOD8107878
Probable space group: C 2/M
;
_chemical_formula_sum "Si O2"
_cell_formula_units_Z 56
_cell_length_a 19.498823
_cell_length_b 8.741623
_cell_length_c 29.306328
_cell_angle_alpha 90.000000
_cell_angle_beta 146.556649
_cell_angle_gamma 90.000000
_cell_volume 2752.972891
_symmetry_space_group_name_H-M "C 2/M"
_symmetry_group_IT_number 12
_symmetry_cell_setting 'monoclinic'
loop_
_space_group_symop_operation_xyz
x,y,z
-x,y,-z
-x,-y,-z
x,-y,z
1/2+x,1/2+y,z
1/2-x,1/2+y,-z
1/2-x,1/2-y,-z
1/2+x,1/2-y,z
loop_
_atom_site_type_symbol
_atom_site_label
_atom_site_fract_x
_atom_site_fract_y
_atom_site_fract_z
Si Si1 0.346355 0.182073 0.633205
Si Si2 0.959402 0.682021 0.183905
Si Si3 0.991550 0.818354 0.633756
Si Si4 0.080789 0.680563 0.500383
Si Si5 0.691170 0.679334 0.062828
Si Si6 0.258714 0.174689 0.817522
Si Si7 0.988341 0.324627 0.886577
O O1 0.446773 0.243201 0.725534
O O2 0.378380 0.257122 0.602048
O O3 0.212981 0.235653 0.576967
O O4 0.347362 0.000000 0.628281
O O5 0.962833 0.500000 0.186392
O O6 0.821713 0.746686 0.116960
O O7 0.999909 0.747283 0.157229
O O8 0.120886 0.767971 0.728939
O O9 0.990227 0.740042 0.583728
O O10 0.980439 0.000000 0.621613
O O11 0.101766 0.500000 0.508717
O O12 0.000000 0.724485 0.500000
O O13 0.689985 0.500000 0.057455
O O14 0.678497 0.724064 0.108494
O O15 0.576612 0.741427 0.971003
O O16 0.344686 0.193634 0.820786
O O17 0.255857 0.000000 0.832789
O O18 0.030717 0.500000 0.909575
#
# Coordination Sequence:
#
# PCOD8107878 Si02
#       7
#     8   8   8   8   8   8   8
#     4  11  22  41  68  93 123 164 206 251 302 362
#     4   9  20  37  60  87 118 156 199 250 300 352
#     4  11  23  41  66  94 123 161 209 253 300 364
#     4  11  26  45  65  94 130 161 194 247 307 364
#     4  11  21  37  58  86 120 156 201 249 303 359
#     4  10  22  38  60  87 118 157 202 250 297 355
#     4  10  21  38  58  83 118 159 203 250 301 354
#
# _framework density 20.341645
#
# number of rings (size 3 to 8) (size 9 to 14) (size 15 to 20)
#    0.000    1.571    1.429    3.000    2.000    4.000 
#    0.000    2.143    0.000    0.000    0.000    0.000 
#    0.000    0.000    0.000    0.000    0.000    0.000 
#
# Total GULP energy -347306.332692 kJ/mol
# GULP energy per Si atom -12403.797596 kJ/mol
# Density = 2.029535 g / cm^3
# Si number density = 20.341645 Si / 1000 Ang^3
#
#
#
# Elastic Constant Matrix: (Units=GPa)
#
#
# Indices 1 2 3 4 5 6 
#
# 1 134.8227 30.4470 42.3253 0.0000 -7.3612 0.0000
# 2 30.4470 52.4673 23.4203 -0.0001 -0.7526 0.0001
# 3 42.3253 23.4203 100.6544 0.0000 -1.8362 0.0000
# 4 0.0000 -0.0001 0.0000 23.7526 0.0000 1.4715
# 5 -7.3612 -0.7526 -1.8362 0.0000 33.2822 0.0000
# 6 0.0000 0.0001 0.0000 1.4715 0.0000 29.6146
#
#
#
# Elastic Compliance Matrix: (Units=1/GPa)
#
#
# Indices 1 2 3 4 5 6 
#
# 1 0.009368 -0.004091 -0.002954 0.000000 0.001816 0.000000
# 2 -0.004091 0.023057 -0.003655 0.000000 -0.000585 0.000000
# 3 -0.002954 -0.003655 0.012026 0.000000 -0.000072 0.000000
# 4 0.000000 0.000000 0.000000 0.042231 0.000000 -0.002098
# 5 0.001816 -0.000585 -0.000072 0.000000 0.030431 0.000000
# 6 0.000000 0.000000 0.000000 -0.002098 0.000000 0.033871
#
#
# Mechanical properties :
#
#
# Convention : Reuss Voigt Hill
#
# Bulk Modulus (GPa) = 43.38430 53.36995 48.37712
# Shear Modulus (GPa) = 27.76731 30.11334 28.94033
#
# Velocity S-wave (km/s) = 3.69866 3.85174 3.77598
# Velocity P-wave (km/s) = 6.29399 6.78786 6.54558
#
# Compressibility (1/GPa) = 0.02304981
#
# Stress axis : x y z
#
# Youngs Moduli (GPa) = 106.75049 43.37090 83.15125
#
# Poissons Ratio (x) = 0.17745 0.24563
# Poissons Ratio (y) = 0.43676 0.30393
# Poissons Ratio (z) = 0.31534 0.15853
#
# Static dielectric constant tensor:
#      x y z
#    x 3.868350 0.000000 0.004300 
#    y 0.000000 3.523590 0.000000 
#    z 0.004300 0.000000 3.784510 
# 
# 
# High freq. dielectric constant tensor:
#      x y z
#    x 1.809370 0.000000 0.001520 
#    y 0.000000 1.782160 0.000000 
#    z 0.001520 0.000000 1.803880 
# 
# From -- ./inp_files/363175.got.cif
#   From: 2010.06.25/outbox.cif.g09.slc.cpg/sg12_182_cif.got.tgz:363175.got - 2010.06.28 00:19:55.
