data_PCOD8107590
_publ_section_title
;
Structure prediction by ZEFSAII (Michael W. Deem and Ramdas Pophale) SiO2 
 PCOD8107590
Probable space group: C 2/M
;
_chemical_formula_sum "Si O2"
_cell_formula_units_Z 56
_cell_length_a 10.125821
_cell_length_b 21.956411
_cell_length_c 13.135796
_cell_angle_alpha 90.000000
_cell_angle_beta 78.933639
_cell_angle_gamma 90.000000
_cell_volume 2866.134007
_symmetry_space_group_name_H-M "C 2/M"
_symmetry_group_IT_number 12
_symmetry_cell_setting 'monoclinic'
loop_
_space_group_symop_operation_xyz
x,y,z
-x,y,-z
-x,-y,-z
x,-y,z
1/2+x,1/2+y,z
1/2-x,1/2+y,-z
1/2-x,1/2-y,-z
1/2+x,1/2-y,z
loop_
_atom_site_type_symbol
_atom_site_label
_atom_site_fract_x
_atom_site_fract_y
_atom_site_fract_z
Si Si1 0.051770 0.687583 0.384142
Si Si2 0.358915 0.679566 0.069196
Si Si3 0.314170 0.374869 0.288498
Si Si4 0.688834 0.000000 0.378713
Si Si5 0.047914 0.829154 0.384245
Si Si6 0.166781 0.373910 0.713230
Si Si7 0.859874 0.319436 0.069962
Si Si8 0.375667 0.000000 0.378127
O O1 0.972537 0.653385 0.307129
O O2 0.000000 0.661951 0.500000
O O3 0.210093 0.673828 0.351903
O O4 0.019644 0.758017 0.377131
O O5 0.322671 0.634421 0.166303
O O6 0.360403 0.749418 0.109105
O O7 0.500000 0.660836 0.000000
O O8 0.251420 0.670133 0.997743
O O9 0.265083 0.442176 0.321831
O O10 0.463039 0.364188 0.311104
O O11 0.536039 0.000000 0.363571
O O12 0.694036 0.000000 0.500606
O O13 0.206101 0.839494 0.352659
O O14 0.000000 0.853819 0.500000
O O15 0.169376 0.365499 0.833900
O O16 0.176309 0.443807 0.680471
O O17 0.000000 0.337603 0.000000
#
# Coordination Sequence:
#
# PCOD8107590 Si02
#       8
#     8   8   8   4   8   8   8   4
#     4  11  21  36  60  90 125 161 201 253 315 385
#     4  10  21  39  61  89 125 160 201 253 313 373
#     4  12  23  40  64  89 123 169 210 250 305 376
#     4  11  24  43  65  89 120 171 221 249 298 379
#     4  11  23  36  58  94 126 155 198 260 324 374
#     4  12  23  40  62  90 127 165 208 258 312 362
#     4  10  21  37  61  92 122 157 204 258 311 364
#     4  11  24  43  65  88 124 170 213 257 302 369
#
# _framework density 19.538515
#
# number of rings (size 3 to 8) (size 9 to 14) (size 15 to 20)
#    0.000    1.000    1.429    6.857    0.000    5.143 
#    0.000    2.857    0.000    0.000    0.000    0.000 
#    0.000    0.000    0.000    0.000    0.000    0.000 
#
# Total GULP energy -347372.707009 kJ/mol
# GULP energy per Si atom -12406.168107 kJ/mol
# Density = 1.949404 g / cm^3
# Si number density = 19.538515 Si / 1000 Ang^3
#
#
#
# Elastic Constant Matrix: (Units=GPa)
#
#
# Indices 1 2 3 4 5 6 
#
# 1 87.3000 22.1951 28.0790 0.0000 -11.3114 0.0000
# 2 22.1951 92.4178 65.6609 0.0000 -2.9134 0.0000
# 3 28.0790 65.6609 139.1311 0.0000 -6.7011 0.0000
# 4 0.0000 0.0000 0.0000 71.1318 0.0000 -43.2433
# 5 -11.3114 -2.9134 -6.7011 0.0000 21.6375 0.0000
# 6 0.0000 0.0000 0.0000 -43.2433 0.0000 74.9215
#
#
#
# Elastic Compliance Matrix: (Units=1/GPa)
#
#
# Indices 1 2 3 4 5 6 
#
# 1 0.013220 -0.001950 -0.001449 0.000000 0.006200 0.000000
# 2 -0.001950 0.016567 -0.007478 0.000000 -0.001105 0.000000
# 3 -0.001449 -0.007478 0.011090 0.000000 0.001670 0.000000
# 4 0.000000 0.000000 0.000000 0.021658 0.000000 0.012501
# 5 0.006200 -0.001105 0.001670 0.000000 0.049825 0.000000
# 6 0.000000 0.000000 0.000000 0.012501 0.000000 0.020562
#
#
# Mechanical properties :
#
#
# Convention : Reuss Voigt Hill
#
# Bulk Modulus (GPa) = 52.29594 61.19099 56.74346
# Shear Modulus (GPa) = 31.04610 47.06575 39.05592
#
# Velocity S-wave (km/s) = 3.99051 4.91335 4.47578
# Velocity P-wave (km/s) = 6.93224 7.97334 7.47095
#
# Compressibility (1/GPa) = 0.01912194
#
# Stress axis : x y z
#
# Youngs Moduli (GPa) = 75.64368 60.36089 90.17439
#
# Poissons Ratio (x) = 0.11769 0.13068
# Poissons Ratio (y) = 0.14749 0.67435
# Poissons Ratio (z) = 0.10962 0.45139
#
# Static dielectric constant tensor:
#      x y z
#    x 3.662290 0.000000 -0.050870 
#    y 0.000000 3.528290 0.000000 
#    z -0.050870 0.000000 3.629720 
# 
# 
# High freq. dielectric constant tensor:
#      x y z
#    x 1.777380 0.000000 -0.001550 
#    y 0.000000 1.743040 0.000000 
#    z -0.001550 0.000000 1.767810 
# 
# From -- ./inp_files/133906.got.cif
#   From: 2010.06.25/outbox.cif.g09.slc.cpg/sg12_67_cif.got.tgz:133906.got - 2010.06.28 00:19:55.
