data_PCOD8107569
_publ_section_title
;
Structure prediction by ZEFSAII (Michael W. Deem and Ramdas Pophale) SiO2 
 PCOD8107569
Probable space group: C 2/M
;
_chemical_formula_sum "Si O2"
_cell_formula_units_Z 56
_cell_length_a 29.074025
_cell_length_b 8.896767
_cell_length_c 10.855544
_cell_angle_alpha 90.000000
_cell_angle_beta 70.546299
_cell_angle_gamma 90.000000
_cell_volume 2647.644275
_symmetry_space_group_name_H-M "C 2/M"
_symmetry_group_IT_number 12
_symmetry_cell_setting 'monoclinic'
loop_
_space_group_symop_operation_xyz
x,y,z
-x,y,-z
-x,-y,-z
x,-y,z
1/2+x,1/2+y,z
1/2-x,1/2+y,-z
1/2-x,1/2-y,-z
1/2+x,1/2-y,z
loop_
_atom_site_type_symbol
_atom_site_label
_atom_site_fract_x
_atom_site_fract_y
_atom_site_fract_z
Si Si1 0.045607 0.667582 0.390985
Si Si2 0.624562 0.329865 0.947089
Si Si3 0.530303 0.168233 0.119867
Si Si4 0.618186 0.677303 0.478226
Si Si5 0.067489 0.828210 0.768053
Si Si6 0.728059 0.678516 0.396565
Si Si7 0.275975 0.822540 0.095264
O O1 0.054379 0.500000 0.435451
O O2 0.031776 0.663049 0.263415
O O3 0.094489 0.762926 0.373002
O O4 0.000000 0.745600 0.500000
O O5 0.636669 0.500000 0.977719
O O6 0.616618 0.319741 0.806968
O O7 0.667238 0.222197 0.956366
O O8 0.572737 0.281388 0.046560
O O9 0.476304 0.230191 0.131240
O O10 0.537264 0.000000 0.058480
O O11 0.619814 0.500000 0.474886
O O12 0.584605 0.736054 0.621043
O O13 0.672881 0.738654 0.438614
O O14 0.048873 0.000000 0.774278
O O15 0.731887 0.500000 0.405379
O O16 0.750000 0.750000 0.500000
O O17 0.753782 0.732596 0.246164
O O18 0.270911 0.000000 0.085895
O O19 0.250000 0.750000 0.000000
#
# Coordination Sequence:
#
# PCOD8107569 Si02
#       7
#     8   8   8   8   8   8   8
#     4  10  21  38  56  83 121 159 199 246 302 361
#     4  11  24  42  64  88 121 162 207 256 311 372
#     4  11  23  38  59  88 123 160 204 252 303 368
#     4  10  21  37  61  90 120 155 200 249 301 363
#     4  10  21  38  60  89 123 161 201 246 305 369
#     4  10  23  43  67  97 128 163 212 265 318 379
#     4  11  25  45  67  95 130 169 217 268 323 382
#
# _framework density 21.150877999999999
#
# number of rings (size 3 to 8) (size 9 to 14) (size 15 to 20)
#    0.000    1.571    1.429    2.571    2.000    7.143 
#    0.000    0.000    0.000    0.000    0.000    0.000 
#    0.000    0.000    0.000    0.000    0.000    0.000 
#
# Total GULP energy -347171.564905 kJ/mol
# GULP energy per Si atom -12398.984461 kJ/mol
# Density = 2.110274 g / cm^3
# Si number density = 21.150878 Si / 1000 Ang^3
#
#
#
# Elastic Constant Matrix: (Units=GPa)
#
#
# Indices 1 2 3 4 5 6 
#
# 1 149.6468 30.7381 34.6271 0.0000 0.2954 0.0000
# 2 30.7381 58.6256 25.9164 0.0000 0.9542 0.0000
# 3 34.6271 25.9164 77.7334 0.0000 1.9355 0.0000
# 4 0.0000 0.0000 0.0000 24.5054 0.0000 0.4150
# 5 0.2954 0.9542 1.9355 0.0000 32.5597 0.0000
# 6 0.0000 0.0000 0.0000 0.4150 0.0000 37.7771
#
#
#
# Elastic Compliance Matrix: (Units=1/GPa)
#
#
# Indices 1 2 3 4 5 6 
#
# 1 0.007884 -0.003028 -0.002507 0.000000 0.000166 0.000000
# 2 -0.003028 0.021170 -0.005703 0.000000 -0.000254 0.000000
# 3 -0.002507 -0.005703 0.015901 0.000000 -0.000755 0.000000
# 4 0.000000 0.000000 0.000000 0.040815 0.000000 -0.000448
# 5 0.000166 -0.000254 -0.000755 0.000000 0.030764 0.000000
# 6 0.000000 0.000000 0.000000 -0.000448 0.000000 0.026476
#
#
# Mechanical properties :
#
#
# Convention : Reuss Voigt Hill
#
# Bulk Modulus (GPa) = 44.48377 52.06322 48.27350
# Shear Modulus (GPa) = 28.90522 31.95006 30.42764
#
# Velocity S-wave (km/s) = 3.70079 3.89083 3.79700
# Velocity P-wave (km/s) = 6.27204 6.69727 6.48814
#
# Compressibility (1/GPa) = 0.02248011
#
# Stress axis : x y z
#
# Youngs Moduli (GPa) = 126.83738 47.23580 62.88835
#
# Poissons Ratio (x) = 0.14305 0.15763
# Poissons Ratio (y) = 0.38411 0.35864
# Poissons Ratio (z) = 0.31792 0.26938
#
# Static dielectric constant tensor:
#      x y z
#    x 3.961090 0.000000 0.131610 
#    y 0.000000 3.859480 0.000000 
#    z 0.131610 0.000000 4.088380 
# 
# 
# High freq. dielectric constant tensor:
#      x y z
#    x 1.840130 0.000000 0.009060 
#    y 0.000000 1.820900 0.000000 
#    z 0.009060 0.000000 1.837400 
# 
# From -- ./inp_files/180747.got.cif
#   From: 2010.06.25/outbox.cif.g09.slc.cpg/sg12_91_cif.got.tgz:180747.got - 2010.06.28 00:19:55.
