data_PCOD8107492
_publ_section_title
;
Structure prediction by ZEFSAII (Michael W. Deem and Ramdas Pophale) SiO2 
 PCOD8107492
Probable space group: C 2/M
;
_chemical_formula_sum "Si O2"
_cell_formula_units_Z 48
_cell_length_a 19.998980
_cell_length_b 8.445579
_cell_length_c 13.973486
_cell_angle_alpha 90.000000
_cell_angle_beta 90.157889
_cell_angle_gamma 90.000000
_cell_volume 2360.154263
_symmetry_space_group_name_H-M "C 2/M"
_symmetry_group_IT_number 12
_symmetry_cell_setting 'monoclinic'
loop_
_space_group_symop_operation_xyz
x,y,z
-x,y,-z
-x,-y,-z
x,-y,z
1/2+x,1/2+y,z
1/2-x,1/2+y,-z
1/2-x,1/2-y,-z
1/2+x,1/2-y,z
loop_
_atom_site_type_symbol
_atom_site_label
_atom_site_fract_x
_atom_site_fract_y
_atom_site_fract_z
Si Si1 0.757239 0.184421 0.894065
Si Si2 0.067781 0.683366 0.602071
Si Si3 0.363499 0.682496 0.221773
Si Si4 0.076546 0.185533 0.400220
Si Si5 0.119159 0.682958 0.208752
Si Si6 0.005012 0.816943 0.890346
O O1 0.707301 0.270757 0.821760
O O2 0.831905 0.214939 0.857400
O O3 0.741253 0.000000 0.895382
O O4 0.750000 0.250000 0.000000
O O5 0.047762 0.500000 0.601012
O O6 0.123149 0.716791 0.682590
O O7 0.097620 0.732152 0.499496
O O8 0.001417 0.784691 0.624007
O O9 0.362334 0.500000 0.251454
O O10 0.419737 0.717458 0.142660
O O11 0.123420 0.258462 0.318182
O O12 0.089516 0.000000 0.407344
O O13 0.139185 0.500000 0.202992
O O14 0.044049 0.707912 0.171158
O O15 0.984938 0.000000 0.875029
O O16 0.000000 0.766166 0.000000
#
# Coordination Sequence:
#
# PCOD8107492 Si02
#       6
#     8   8   8   8   8   8
#     4  12  26  45  66  90 125 168 213 258 312 374
#     4  11  21  36  60  93 128 163 206 256 311 370
#     4  11  22  39  63  92 127 165 208 256 313 372
#     4  11  21  37  61  91 126 165 207 255 314 370
#     4  12  24  40  63  92 125 162 209 258 312 372
#     4  10  21  37  60  89 122 158 202 256 312 367
#
# _framework density 20.337654000000001
#
# number of rings (size 3 to 8) (size 9 to 14) (size 15 to 20)
#    0.000    0.833    1.667    8.500    0.000    2.333 
#    0.000    0.833    0.000    0.000    0.000    0.000 
#    0.000    0.000    0.000    0.000    0.000    0.000 
#
# Total GULP energy -297797.615361 kJ/mol
# GULP energy per Si atom -12408.233973 kJ/mol
# Density = 2.029137 g / cm^3
# Si number density = 20.337654 Si / 1000 Ang^3
#
#
#
# Elastic Constant Matrix: (Units=GPa)
#
#
# Indices 1 2 3 4 5 6 
#
# 1 50.2359 10.6833 16.5551 0.0000 -0.1667 0.0000
# 2 10.6833 97.6956 31.0479 0.0000 -1.8523 0.0000
# 3 16.5551 31.0479 132.4288 0.0000 -3.7759 0.0000
# 4 0.0000 0.0000 0.0000 35.9502 0.0000 1.1796
# 5 -0.1667 -1.8523 -3.7759 0.0000 38.5407 0.0000
# 6 0.0000 0.0000 0.0000 1.1796 0.0000 30.9286
#
#
#
# Elastic Compliance Matrix: (Units=1/GPa)
#
#
# Indices 1 2 3 4 5 6 
#
# 1 0.020986 -0.001581 -0.002259 0.000000 -0.000206 0.000000
# 2 -0.001581 0.011182 -0.002416 0.000000 0.000294 0.000000
# 3 -0.002259 -0.002416 0.008420 0.000000 0.000699 0.000000
# 4 0.000000 0.000000 0.000000 0.027851 0.000000 -0.001062
# 5 -0.000206 0.000294 0.000699 0.000000 0.026028 0.000000
# 6 0.000000 0.000000 0.000000 -0.001062 0.000000 0.032373
#
#
# Mechanical properties :
#
#
# Convention : Reuss Voigt Hill
#
# Bulk Modulus (GPa) = 35.61600 44.10366 39.85983
# Shear Modulus (GPa) = 33.62250 35.88884 34.75567
#
# Velocity S-wave (km/s) = 4.07038 4.20533 4.13841
# Velocity P-wave (km/s) = 6.29612 6.73146 6.51742
#
# Compressibility (1/GPa) = 0.02807727
#
# Stress axis : x y z
#
# Youngs Moduli (GPa) = 47.65090 89.42928 118.76682
#
# Poissons Ratio (x) = 0.14139 0.26826
# Poissons Ratio (y) = 0.07533 0.28689
# Poissons Ratio (z) = 0.10763 0.21603
#
# Static dielectric constant tensor:
#      x y z
#    x 3.433740 0.000000 -0.054070 
#    y 0.000000 3.690460 0.000000 
#    z -0.054070 0.000000 3.909450 
# 
# 
# High freq. dielectric constant tensor:
#      x y z
#    x 1.770600 0.000000 -0.002880 
#    y 0.000000 1.806290 0.000000 
#    z -0.002880 0.000000 1.813460 
# 
# From -- ./inp_files/229270.got.cif
#   From: 2010.06.25/outbox.cif.g09.slc.cpg/sg12_115_cif.got.tgz:229270.got - 2010.06.28 00:19:55.
