data_PCOD8107355
_publ_section_title
;
Structure prediction by ZEFSAII (Michael W. Deem and Ramdas Pophale) SiO2 
 PCOD8107355
Probable space group: C 2/M
;
_chemical_formula_sum "Si O2"
_cell_formula_units_Z 56
_cell_length_a 20.671537
_cell_length_b 8.843305
_cell_length_c 28.814927
_cell_angle_alpha 90.000000
_cell_angle_beta 149.979984
_cell_angle_gamma 90.000000
_cell_volume 2635.345616
_symmetry_space_group_name_H-M "C 2/M"
_symmetry_group_IT_number 12
_symmetry_cell_setting 'monoclinic'
loop_
_space_group_symop_operation_xyz
x,y,z
-x,y,-z
-x,-y,-z
x,-y,z
1/2+x,1/2+y,z
1/2-x,1/2+y,-z
1/2-x,1/2-y,-z
1/2+x,1/2-y,z
loop_
_atom_site_type_symbol
_atom_site_label
_atom_site_fract_x
_atom_site_fract_y
_atom_site_fract_z
Si Si1 0.348170 0.324282 0.678460
Si Si2 0.652262 0.328343 0.093180
Si Si3 0.381218 0.179303 0.601578
Si Si4 0.725455 0.170769 0.049996
Si Si5 0.133794 0.325404 0.699632
Si Si6 0.642288 0.667036 0.606464
Si Si7 0.948714 0.329951 0.138718
O O1 0.345751 0.500000 0.664997
O O2 0.399908 0.235659 0.665739
O O3 0.208001 0.271865 0.608235
O O4 0.439929 0.288107 0.779272
O O5 0.677868 0.500000 0.092186
O O6 0.709476 0.206792 0.093620
O O7 0.730433 0.299714 0.189266
O O8 0.500000 0.297669 0.000000
O O9 0.250000 0.250000 0.500000
O O10 0.508187 0.229490 0.651248
O O11 0.366433 0.000000 0.592191
O O12 0.821577 0.293880 0.089134
O O13 0.780108 0.000000 0.078332
O O14 0.587179 0.186336 0.937916
O O15 0.114938 0.500000 0.675090
O O16 0.145985 0.233345 0.660139
O O17 0.500000 0.651327 0.500000
O O18 0.707261 0.500000 0.648421
O O19 0.993600 0.500000 0.178445
#
# Coordination Sequence:
#
# PCOD8107355 Si02
#       7
#     8   8   8   8   8   8   8
#     4  12  25  40  64  94 126 164 211 261 316 381
#     4  10  22  39  60  87 123 167 212 257 310 374
#     4  11  23  41  66  95 130 167 212 266 326 389
#     4  10  21  37  59  88 121 159 205 256 309 365
#     4  10  23  42  64  93 128 170 212 261 322 382
#     4  11  25  44  66  93 127 167 211 264 324 385
#     4  10  21  38  60  88 122 159 201 254 311 369
#
# _framework density 21.249583999999999
#
# number of rings (size 3 to 8) (size 9 to 14) (size 15 to 20)
#    0.000    1.429    0.000    4.714    2.000    8.286 
#    0.000    0.000    0.000    0.000    0.000    0.000 
#    0.000    0.000    0.000    0.000    0.000    0.000 
#
# Total GULP energy -347188.231853 kJ/mol
# GULP energy per Si atom -12399.579709 kJ/mol
# Density = 2.120122 g / cm^3
# Si number density = 21.249584 Si / 1000 Ang^3
#
#
#
# Elastic Constant Matrix: (Units=GPa)
#
#
# Indices 1 2 3 4 5 6 
#
# 1 85.9962 31.4690 16.6655 0.0001 -9.2108 0.0000
# 2 31.4690 86.9467 27.6856 -0.0001 -6.8339 0.0001
# 3 16.6655 27.6856 97.2017 0.0002 1.8120 0.0001
# 4 0.0001 -0.0001 0.0002 31.4604 0.0001 -3.0940
# 5 -9.2108 -6.8339 1.8120 0.0001 32.9331 0.0000
# 6 0.0000 0.0001 0.0001 -3.0940 0.0000 34.6475
#
#
#
# Elastic Compliance Matrix: (Units=1/GPa)
#
#
# Indices 1 2 3 4 5 6 
#
# 1 0.013780 -0.004378 -0.001172 0.000000 0.003010 0.000000
# 2 -0.004378 0.014307 -0.003361 0.000000 0.001929 0.000000
# 3 -0.001172 -0.003361 0.011477 0.000000 -0.001657 0.000000
# 4 0.000000 0.000000 0.000000 0.032068 0.000000 0.002864
# 5 0.003010 0.001929 -0.001657 0.000000 0.031698 0.000000
# 6 0.000000 0.000000 0.000000 0.002864 0.000000 0.029118
#
#
# Mechanical properties :
#
#
# Convention : Reuss Voigt Hill
#
# Bulk Modulus (GPa) = 45.98959 46.86498 46.42728
# Shear Modulus (GPa) = 31.74288 32.76318 32.25303
#
# Velocity S-wave (km/s) = 3.86918 3.93087 3.90015
# Velocity P-wave (km/s) = 6.45370 6.53489 6.49442
#
# Compressibility (1/GPa) = 0.02174405
#
# Stress axis : x y z
#
# Youngs Moduli (GPa) = 72.56973 69.89366 87.13192
#
# Poissons Ratio (x) = 0.30597 0.10210
# Poissons Ratio (y) = 0.31769 0.29281
# Poissons Ratio (z) = 0.08504 0.23488
#
# Static dielectric constant tensor:
#      x y z
#    x 3.957350 0.000000 -0.052410 
#    y 0.000000 3.977210 0.000000 
#    z -0.052410 0.000000 4.049210 
# 
# 
# High freq. dielectric constant tensor:
#      x y z
#    x 1.827120 0.000000 -0.003900 
#    y 0.000000 1.838660 0.000000 
#    z -0.003900 0.000000 1.847810 
# 
# From -- ./inp_files/380709.got.cif
#   From: 2010.06.25/outbox.cif.g09.slc.cpg/sg12_191_cif.got.tgz:380709.got - 2010.06.28 00:19:55.
