data_PCOD8107755
_publ_section_title
;
Structure prediction by ZEFSAII (Michael W. Deem and Ramdas Pophale) SiO2 
 PCOD8107755
Probable space group: C 2/M
;
_chemical_formula_sum "Si O2"
_cell_formula_units_Z 64
_cell_length_a 19.255120
_cell_length_b 9.362740
_cell_length_c 19.392235
_cell_angle_alpha 90.000000
_cell_angle_beta 85.666158
_cell_angle_gamma 90.000000
_cell_volume 3486.049019
_symmetry_space_group_name_H-M "C 2/M"
_symmetry_group_IT_number 12
_symmetry_cell_setting 'monoclinic'
loop_
_space_group_symop_operation_xyz
x,y,z
-x,y,-z
-x,-y,-z
x,-y,z
1/2+x,1/2+y,z
1/2-x,1/2+y,-z
1/2-x,1/2-y,-z
1/2+x,1/2-y,z
loop_
_atom_site_type_symbol
_atom_site_label
_atom_site_fract_x
_atom_site_fract_y
_atom_site_fract_z
Si Si1 0.477254 0.835308 0.193430
Si Si2 0.363077 0.835473 0.842188
Si Si3 0.770709 0.330435 0.722603
Si Si4 0.185576 0.342343 0.424751
Si Si5 0.818025 0.836461 0.975743
Si Si6 0.345525 0.343201 0.453289
Si Si7 0.554219 0.662263 0.938536
Si Si8 0.117569 0.830521 0.699499
O O1 0.559974 0.819950 0.193923
O O2 0.448871 0.765985 0.125774
O O3 0.445105 0.754258 0.260928
O O4 0.454208 0.000000 0.195650
O O5 0.308703 0.778967 0.789029
O O6 0.356724 0.735339 0.908657
O O7 0.347125 0.000000 0.863693
O O8 0.772818 0.500000 0.714988
O O9 0.811378 0.270258 0.651832
O O10 0.690232 0.281124 0.729738
O O11 0.152392 0.500000 0.423698
O O12 0.263556 0.351778 0.446969
O O13 0.137676 0.253410 0.481343
O O14 0.799276 0.000000 0.958780
O O15 0.750000 0.750000 0.000000
O O16 0.868028 0.830915 0.037919
O O17 0.374677 0.500000 0.468112
O O18 0.382358 0.285588 0.381027
O O19 0.535265 0.500000 0.917644
O O20 0.500000 0.716761 0.000000
O O21 0.106964 0.000000 0.709193
#
# Coordination Sequence:
#
# PCOD8107755 Si02
#       8
#     8   8   8   8   8   8   8   8
#     4  11  23  35  53  80 108 135 170 223 267 297
#     4  10  21  38  56  76 106 141 174 212 261 312
#     4   8  16  32  53  75 100 135 176 209 251 313
#     4   8  13  24  45  71  97 128 165 207 251 301
#     4  11  24  40  59  82 107 135 170 214 260 309
#     4   8  14  25  43  70 101 130 163 207 256 302
#     4  10  21  40  61  77  99 138 180 209 247 315
#     4   9  18  33  53  75 102 138 177 212 252 315
#
# _framework density 18.358892000000001
#
# number of rings (size 3 to 8) (size 9 to 14) (size 15 to 20)
#    0.000    2.625    1.250    2.250    1.750    2.250 
#    0.000    2.500    0.000    0.750    0.000    5.250 
#    0.000    0.000    0.000    0.000    0.000    0.000 
#
# Total GULP energy -396719.169290 kJ/mol
# GULP energy per Si atom -12397.474040 kJ/mol
# Density = 1.831711 g / cm^3
# Si number density = 18.358892 Si / 1000 Ang^3
#
#
#
# Elastic Constant Matrix: (Units=GPa)
#
#
# Indices 1 2 3 4 5 6 
#
# 1 58.5603 28.2378 17.3166 0.0000 -14.0430 0.0000
# 2 28.2378 81.2363 38.0261 0.0000 -17.0570 0.0000
# 3 17.3166 38.0261 68.0131 0.0000 -23.7762 0.0000
# 4 0.0000 0.0000 0.0000 32.4758 0.0000 -6.9955
# 5 -14.0430 -17.0570 -23.7762 0.0000 28.5251 0.0000
# 6 0.0000 0.0000 0.0000 -6.9955 0.0000 24.5191
#
#
#
# Elastic Compliance Matrix: (Units=1/GPa)
#
#
# Indices 1 2 3 4 5 6 
#
# 1 0.021702 -0.006249 0.000560 0.000000 0.007414 0.000000
# 2 -0.006249 0.018670 -0.008495 0.000000 0.001006 0.000000
# 3 0.000560 -0.008495 0.024881 0.000000 0.015934 0.000000
# 4 0.000000 0.000000 0.000000 0.032808 0.000000 0.009360
# 5 0.007414 0.001006 0.015934 0.000000 0.052590 0.000000
# 6 0.000000 0.000000 0.000000 0.009360 0.000000 0.043455
#
#
# Mechanical properties :
#
#
# Convention : Reuss Voigt Hill
#
# Bulk Modulus (GPa) = 27.11216 41.66344 34.38780
# Shear Modulus (GPa) = 21.29748 25.38596 23.34172
#
# Velocity S-wave (km/s) = 3.40967 3.72258 3.56956
# Velocity P-wave (km/s) = 5.50464 6.42028 5.98001
#
# Compressibility (1/GPa) = 0.03688382
#
# Stress axis : x y z
#
# Youngs Moduli (GPa) = 46.07866 53.56200 40.19205
#
# Poissons Ratio (x) = 0.33472 -0.02252
# Poissons Ratio (y) = 0.28795 0.34145
# Poissons Ratio (z) = -0.02582 0.45503
#
# Static dielectric constant tensor:
#      x y z
#    x 3.176040 0.000000 -0.046190 
#    y 0.000000 3.484750 0.000000 
#    z -0.046190 0.000000 3.566610 
# 
# 
# High freq. dielectric constant tensor:
#      x y z
#    x 1.686570 0.000000 -0.010520 
#    y 0.000000 1.698670 0.000000 
#    z -0.010520 0.000000 1.718620 
# 
# From -- ./inp_files/281351.got.cif
#   From: 2010.06.25/outbox.cif.g09.slc.cpg/sg12_141_cif.got.tgz:281351.got - 2010.06.28 00:19:55.
