data_PCOD8107443
_publ_section_title
;
Structure prediction by ZEFSAII (Michael W. Deem and Ramdas Pophale) SiO2 
 PCOD8107443
Probable space group: C 2/M
;
_chemical_formula_sum "Si O2"
_cell_formula_units_Z 44
_cell_length_a 14.767227
_cell_length_b 20.197912
_cell_length_c 14.983228
_cell_angle_alpha 90.000000
_cell_angle_beta 27.552093
_cell_angle_gamma 90.000000
_cell_volume 2067.159982
_symmetry_space_group_name_H-M "C 2/M"
_symmetry_group_IT_number 12
_symmetry_cell_setting 'monoclinic'
loop_
_space_group_symop_operation_xyz
x,y,z
-x,y,-z
-x,-y,-z
x,-y,z
1/2+x,1/2+y,z
1/2-x,1/2+y,-z
1/2-x,1/2-y,-z
1/2+x,1/2-y,z
loop_
_atom_site_type_symbol
_atom_site_label
_atom_site_fract_x
_atom_site_fract_y
_atom_site_fract_z
Si Si1 0.000000 0.682542 0.000000
Si Si2 0.871455 0.073010 0.035222
Si Si3 0.234263 0.424437 0.881784
Si Si4 0.406893 0.393322 0.323797
Si Si5 0.007558 0.615789 0.256655
Si Si6 0.475766 0.750949 0.832434
O O1 0.819926 0.630174 0.145877
O O2 0.988809 0.730981 0.094652
O O3 0.678267 0.115906 0.182531
O O4 0.803089 0.000000 0.126329
O O5 0.000000 0.108356 0.000000
O O6 0.009436 0.063034 0.829338
O O7 0.214295 0.500000 0.863591
O O8 0.458834 0.407801 0.707864
O O9 0.093347 0.416854 0.091811
O O10 0.417351 0.316902 0.283511
O O11 0.188137 0.419489 0.536219
O O12 0.931355 0.690182 0.306696
O O13 0.250000 0.750000 0.000000
#
# Coordination Sequence:
#
# PCOD8107443 Si02
#       6
#     4   8   8   8   8   8
#     4  10  21  38  64  86 121 164 196 250 302 356
#     4  10  22  38  56  84 120 155 199 246 294 356
#     4  10  21  39  62  88 119 157 200 246 302 366
#     4  11  21  37  62  87 116 156 200 247 305 352
#     4  10  21  37  60  87 117 156 198 249 301 358
#     4  11  20  39  62  86 120 157 199 247 300 358
#
# _framework density 21.285240999999999
#
# number of rings (size 3 to 8) (size 9 to 14) (size 15 to 20)
#    0.000    1.636    5.455    3.000    1.273    3.636 
#    0.000    5.455    0.000    5.455    0.000    0.000 
#    0.000    0.000    0.000    0.000    0.000    0.000 
#
# Total GULP energy -272584.973789 kJ/mol
# GULP energy per Si atom -12390.226081 kJ/mol
# Density = 2.123680 g / cm^3
# Si number density = 21.285241 Si / 1000 Ang^3
#
#
#
# Elastic Constant Matrix: (Units=GPa)
#
#
# Indices 1 2 3 4 5 6 
#
# 1 148.2556 17.3944 38.9161 0.0115 -19.3871 0.0311
# 2 17.3944 103.7998 -3.1046 -0.2029 4.8740 0.7774
# 3 38.9161 -3.1046 113.0606 -0.1377 -27.5754 0.6312
# 4 0.0115 -0.2029 -0.1377 28.7250 0.0218 -44.5486
# 5 -19.3871 4.8740 -27.5754 0.0218 16.9080 -0.1568
# 6 0.0311 0.7774 0.6312 -44.5486 -0.1568 181.0783
#
#
#
# Elastic Compliance Matrix: (Units=1/GPa)
#
#
# Indices 1 2 3 4 5 6 
#
# 1 0.008313 -0.001830 -0.000761 -0.000001 0.008818 0.000016
# 2 -0.001830 0.010202 -0.000530 0.000004 -0.005903 -0.000046
# 3 -0.000761 -0.000530 0.014806 0.000008 0.023428 -0.000027
# 4 -0.000001 0.000004 0.000008 0.056290 0.000067 0.013848
# 5 0.008818 -0.005903 0.023428 0.000067 0.109165 0.000053
# 6 0.000016 -0.000046 -0.000027 0.013848 0.000053 0.008930
#
#
# Mechanical properties :
#
#
# Convention : Reuss Voigt Hill
#
# Bulk Modulus (GPa) = 36.92666 52.39198 44.65932
# Shear Modulus (GPa) = 22.42415 66.13627 44.28021
#
# Velocity S-wave (km/s) = 3.24930 5.58022 4.56601
# Velocity P-wave (km/s) = 5.60922 8.13549 6.98747
#
# Compressibility (1/GPa) = 0.02708071
#
# Stress axis : x y z
#
# Youngs Moduli (GPa) = 120.29828 98.01725 67.53873
#
# Poissons Ratio (x) = 0.17937 0.05139
# Poissons Ratio (y) = 0.22014 0.03576
# Poissons Ratio (z) = 0.09153 0.05190
#
# Static dielectric constant tensor:
#      x y z
#    x 4.089270 -0.000350 -0.185440 
#    y -0.000350 4.130140 0.000620 
#    z -0.185440 0.000620 3.521960 
# 
# 
# High freq. dielectric constant tensor:
#      x y z
#    x 1.839140 -0.000010 -0.017550 
#    y -0.000010 1.848920 0.000020 
#    z -0.017550 0.000020 1.798250 
# 
# From -- ./inp_files/217585.got.cif
#   From: 2010.06.25/outbox.cif.g09.slc.cpg/sg12_109_cif.got.tgz:217585.got - 2010.06.28 00:19:55.
