data_PCOD8107450
_publ_section_title
;
Structure prediction by ZEFSAII (Michael W. Deem and Ramdas Pophale) SiO2 
 PCOD8107450
Probable space group: C 2/M
;
_chemical_formula_sum "Si O2"
_cell_formula_units_Z 56
_cell_length_a 18.726723
_cell_length_b 8.816695
_cell_length_c 29.183610
_cell_angle_alpha 90.000000
_cell_angle_beta 36.552695
_cell_angle_gamma 90.000000
_cell_volume 2869.680074
_symmetry_space_group_name_H-M "C 2/M"
_symmetry_group_IT_number 12
_symmetry_cell_setting 'monoclinic'
loop_
_space_group_symop_operation_xyz
x,y,z
-x,y,-z
-x,-y,-z
x,-y,z
1/2+x,1/2+y,z
1/2-x,1/2+y,-z
1/2-x,1/2-y,-z
1/2+x,1/2-y,z
loop_
_atom_site_type_symbol
_atom_site_label
_atom_site_fract_x
_atom_site_fract_y
_atom_site_fract_z
Si Si1 0.199971 0.823571 0.197439
Si Si2 0.879835 0.178158 0.929999
Si Si3 0.913202 0.675521 0.502741
Si Si4 0.447850 0.823642 0.802950
Si Si5 0.050863 0.177193 0.924541
Si Si6 0.483668 0.676463 0.374787
Si Si7 0.663459 0.176482 0.625717
O O1 0.162514 0.733374 0.171138
O O2 0.329466 0.770856 0.147458
O O3 0.108785 0.787138 0.285546
O O4 0.199719 0.000000 0.185290
O O5 0.951311 0.237449 0.849151
O O6 0.953614 0.224802 0.936974
O O7 0.864684 0.000000 0.934062
O O8 0.750000 0.250000 0.000000
O O9 0.878002 0.500000 0.516487
O O10 0.794864 0.773541 0.573050
O O11 0.000000 0.706666 0.500000
O O12 0.982611 0.728840 0.421780
O O13 0.573781 0.788373 0.713669
O O14 0.427445 0.000000 0.822714
O O15 0.081859 0.000000 0.906280
O O16 0.000000 0.224319 0.000000
O O17 0.467817 0.500000 0.394151
O O18 0.373436 0.728283 0.399869
O O19 0.661257 0.000000 0.613905
#
# Coordination Sequence:
#
# PCOD8107450 Si02
#       7
#     8   8   8   8   8   8   8
#     4  10  21  37  60  88 114 145 187 234 281 332
#     4  11  23  38  59  86 116 151 190 234 282 333
#     4  11  24  39  56  81 114 151 190 234 283 334
#     4  10  21  38  60  85 115 150 187 230 282 338
#     4  10  22  39  58  82 114 151 188 229 280 335
#     4  10  21  38  60  85 114 147 186 232 281 337
#     4  10  21  38  61  85 111 148 190 232 280 335
#
# _framework density 19.514371000000001
#
# number of rings (size 3 to 8) (size 9 to 14) (size 15 to 20)
#    0.000    1.714    0.000    3.857    0.000    8.286 
#    0.000    5.714    0.000    0.000    0.000    0.000 
#    0.000    0.000    0.000    0.000    0.000    0.000 
#
# Total GULP energy -347399.138868 kJ/mol
# GULP energy per Si atom -12407.112102 kJ/mol
# Density = 1.946996 g / cm^3
# Si number density = 19.514371 Si / 1000 Ang^3
#
#
#
# Elastic Constant Matrix: (Units=GPa)
#
#
# Indices 1 2 3 4 5 6 
#
# 1 136.2674 53.5692 73.9244 -0.0004 6.4106 -0.0009
# 2 53.5692 60.3484 43.1618 0.0005 -1.7939 -0.0031
# 3 73.9244 43.1618 107.4098 -0.0003 1.0077 0.0002
# 4 -0.0004 0.0005 -0.0003 35.5874 0.0001 -1.6858
# 5 6.4106 -1.7939 1.0077 0.0001 36.5459 -0.0001
# 6 -0.0009 -0.0031 0.0002 -1.6858 -0.0001 34.6576
#
#
#
# Elastic Compliance Matrix: (Units=1/GPa)
#
#
# Indices 1 2 3 4 5 6 
#
# 1 0.014119 -0.007972 -0.006489 0.000000 -0.002689 0.000000
# 2 -0.007972 0.027827 -0.005723 0.000000 0.002922 0.000002
# 3 -0.006489 -0.005723 0.016072 0.000000 0.000414 -0.000001
# 4 0.000000 0.000000 0.000000 0.028165 0.000000 0.001370
# 5 -0.002689 0.002922 0.000414 0.000000 0.027967 0.000000
# 6 0.000000 0.000002 -0.000001 0.001370 0.000000 0.028920
#
#
# Mechanical properties :
#
#
# Convention : Reuss Voigt Hill
#
# Bulk Modulus (GPa) = 56.65495 71.70403 64.17949
# Shear Modulus (GPa) = 26.41039 30.24952 28.32995
#
# Velocity S-wave (km/s) = 3.68282 3.94142 3.81431
# Velocity P-wave (km/s) = 6.86875 7.58532 7.23591
#
# Compressibility (1/GPa) = 0.01765071
#
# Stress axis : x y z
#
# Youngs Moduli (GPa) = 70.82620 35.93653 62.22168
#
# Poissons Ratio (x) = 0.28649 0.40373
# Poissons Ratio (y) = 0.56464 0.35607
# Poissons Ratio (z) = 0.45956 0.20565
#
# Static dielectric constant tensor:
#      x y z
#    x 3.541320 0.000000 0.072470 
#    y 0.000000 3.641040 0.000000 
#    z 0.072470 0.000000 3.637110 
# 
# 
# High freq. dielectric constant tensor:
#      x y z
#    x 1.758900 0.000000 0.000560 
#    y 0.000000 1.772350 0.000000 
#    z 0.000560 0.000000 1.771280 
# 
# From -- ./inp_files/275220.got.cif
#   From: 2010.06.25/outbox.cif.g09.slc.cpg/sg12_138_cif.got.tgz:275220.got - 2010.06.28 00:19:55.
