data_PCOD8107017
_publ_section_title
;
Structure prediction by ZEFSAII (Michael W. Deem and Ramdas Pophale) SiO2 
 PCOD8107017
Probable space group: C 2/M
;
_chemical_formula_sum "Si O2"
_cell_formula_units_Z 40
_cell_length_a 26.885655
_cell_length_b 8.538191
_cell_length_c 8.636514
_cell_angle_alpha 90.000000
_cell_angle_beta 84.208466
_cell_angle_gamma 90.000000
_cell_volume 1972.434053
_symmetry_space_group_name_H-M "C 2/M"
_symmetry_group_IT_number 12
_symmetry_cell_setting 'monoclinic'
loop_
_space_group_symop_operation_xyz
x,y,z
-x,y,-z
-x,-y,-z
x,-y,z
1/2+x,1/2+y,z
1/2-x,1/2+y,-z
1/2-x,1/2-y,-z
1/2+x,1/2-y,z
loop_
_atom_site_type_symbol
_atom_site_label
_atom_site_fract_x
_atom_site_fract_y
_atom_site_fract_z
Si Si1 0.934630 0.500000 0.962830
Si Si2 0.156773 0.500000 0.518088
Si Si3 0.750868 0.500000 0.298560
Si Si4 0.829265 0.750781 0.732740
Si Si5 0.317883 0.000000 0.976990
Si Si6 0.000000 0.255671 0.500000
Si Si7 0.564869 0.668664 0.208434
Si Si8 0.554528 0.000000 0.690802
O O1 0.875640 0.500000 0.009168
O O2 0.949157 0.336047 0.869868
O O3 0.037884 0.500000 0.877921
O O4 0.212307 0.500000 0.568200
O O5 0.148197 0.649390 0.413365
O O6 0.114897 0.500000 0.664813
O O7 0.715459 0.351210 0.321820
O O8 0.782068 0.500000 0.132930
O O9 0.805191 0.650596 0.878283
O O10 0.875748 0.846311 0.786011
O O11 0.037457 0.156009 0.382850
O O12 0.033405 0.350704 0.610660
O O13 0.551070 0.500000 0.126869
#
# Coordination Sequence:
#
# PCOD8107017 Si02
#       8
#     4   4   4   8   4   4   8   4
#     4  10  22  41  65  93 128 169 203 258 322 364
#     4  11  21  38  58  87 123 157 205 257 307 364
#     4  12  20  35  60  88 118 162 201 244 311 364
#     4  10  21  37  57  85 122 159 202 250 305 368
#     4   9  20  35  59  85 117 159 200 246 301 372
#     4  11  23  38  70  93 115 170 209 255 322 375
#     4  11  22  42  65  94 128 164 211 261 311 372
#     4  11  21  40  66  93 122 162 217 259 310 381
#
# _framework density 20.279510999999999
#
# number of rings (size 3 to 8) (size 9 to 14) (size 15 to 20)
#    0.000    1.400    4.000    3.300    0.000    1.600 
#    0.000    3.000    2.200    0.000    0.000    0.000 
#    0.000    0.000    0.000    0.000    0.000    0.000 
#
# Total GULP energy -247803.697800 kJ/mol
# GULP energy per Si atom -12390.184890 kJ/mol
# Density = 2.023335 g / cm^3
# Si number density = 20.279511 Si / 1000 Ang^3
#
#
#
# Elastic Constant Matrix: (Units=GPa)
#
#
# Indices 1 2 3 4 5 6 
#
# 1 67.0914 24.4837 14.5061 0.0000 3.3325 0.0000
# 2 24.4837 151.1156 41.7610 0.0000 2.4340 0.0000
# 3 14.5061 41.7610 102.2492 0.0000 -4.8229 0.0000
# 4 0.0000 0.0000 0.0000 39.1962 0.0000 75.9561
# 5 3.3325 2.4340 -4.8229 0.0000 42.0484 0.0000
# 6 0.0000 0.0000 0.0000 75.9561 0.0000 205.8998
#
#
#
# Elastic Compliance Matrix: (Units=1/GPa)
#
#
# Indices 1 2 3 4 5 6 
#
# 1 0.016081 -0.002183 -0.001452 0.000000 -0.001315 0.000000
# 2 -0.002183 0.007782 -0.002897 0.000000 -0.000610 0.000000
# 3 -0.001452 -0.002897 0.011243 0.000000 0.001572 0.000000
# 4 0.000000 0.000000 0.000000 0.089477 0.000000 -0.033008
# 5 -0.001315 -0.000610 0.001572 0.000000 0.024102 0.000000
# 6 0.000000 0.000000 0.000000 -0.033008 0.000000 0.017033
#
#
# Mechanical properties :
#
#
# Convention : Reuss Voigt Hill
#
# Bulk Modulus (GPa) = 45.36832 53.55086 49.45959
# Shear Modulus (GPa) = 26.86302 73.40923 50.13613
#
# Velocity S-wave (km/s) = 3.64351 6.02306 4.97757
# Velocity P-wave (km/s) = 6.33406 8.65063 7.58135
#
# Compressibility (1/GPa) = 0.02204181
#
# Stress axis : x y z
#
# Youngs Moduli (GPa) = 62.18556 128.50776 88.94048
#
# Poissons Ratio (x) = 0.28054 0.12912
# Poissons Ratio (y) = 0.13575 0.25768
# Poissons Ratio (z) = 0.09028 0.37232
#
# Static dielectric constant tensor:
#      x y z
#    x 3.674930 0.000000 -0.063510 
#    y 0.000000 3.724570 0.000000 
#    z -0.063510 0.000000 3.558340 
# 
# 
# High freq. dielectric constant tensor:
#      x y z
#    x 1.803010 0.000000 -0.011870 
#    y 0.000000 1.793660 0.000000 
#    z -0.011870 0.000000 1.782880 
# 
# From -- ./inp_files/101079.got.cif
#   From: 2010.06.25/outbox.cif.g09.slc.cpg/sg12_51_cif.got.tgz:101079.got - 2010.06.28 00:19:55.
