data_PCOD8107127
_publ_section_title
;
Structure prediction by ZEFSAII (Michael W. Deem and Ramdas Pophale) SiO2 
 PCOD8107127
Probable space group: C 2/M
;
_chemical_formula_sum "Si O2"
_cell_formula_units_Z 40
_cell_length_a 20.396224
_cell_length_b 9.671492
_cell_length_c 10.242584
_cell_angle_alpha 90.000000
_cell_angle_beta 98.294696
_cell_angle_gamma 90.000000
_cell_volume 1999.335902
_symmetry_space_group_name_H-M "C 2/M"
_symmetry_group_IT_number 12
_symmetry_cell_setting 'monoclinic'
loop_
_space_group_symop_operation_xyz
x,y,z
-x,y,-z
-x,-y,-z
x,-y,z
1/2+x,1/2+y,z
1/2-x,1/2+y,-z
1/2-x,1/2-y,-z
1/2+x,1/2-y,z
loop_
_atom_site_type_symbol
_atom_site_label
_atom_site_fract_x
_atom_site_fract_y
_atom_site_fract_z
Si Si1 0.334037 0.655569 0.954888
Si Si2 0.956396 0.338848 0.611804
Si Si3 0.189425 0.659472 0.826424
Si Si4 0.312275 0.161041 0.470807
Si Si5 0.465904 0.342398 0.857394
O O1 0.330326 0.500000 0.008221
O O2 0.265879 0.701637 0.868540
O O3 0.387304 0.668785 0.855628
O O4 0.353618 0.750932 0.084265
O O5 0.966197 0.500000 0.645052
O O6 0.878756 0.303483 0.569715
O O7 0.985481 0.253745 0.741921
O O8 0.000000 0.295387 0.500000
O O9 0.175808 0.500000 0.853840
O O10 0.170035 0.696559 0.673698
O O11 0.250000 0.250000 0.500000
O O12 0.292817 0.000000 0.478953
O O13 0.487978 0.500000 0.833510
O O14 0.500000 0.289497 0.000000
#
# Coordination Sequence:
#
# PCOD8107127 Si02
#       5
#     8   8   8   8   8
#     4   9  18  33  52  78 111 141 180 232 282 334
#     4  10  23  41  60  87 122 157 197 243 293 354
#     4   9  18  32  53  79 107 142 182 229 283 336
#     4  10  21  37  58  84 115 152 195 240 291 349
#     4  10  22  39  59  84 115 152 196 241 288 346
#
# _framework density 20.006641999999999
#
# number of rings (size 3 to 8) (size 9 to 14) (size 15 to 20)
#    0.000    2.400    0.000    1.200    2.800    4.800 
#    0.000    4.000    0.000    0.000    0.000    0.000 
#    0.000    0.000    0.000    0.000    0.000    0.000 
#
# Total GULP energy -248009.675660 kJ/mol
# GULP energy per Si atom -12400.483783 kJ/mol
# Density = 1.996111 g / cm^3
# Si number density = 20.006642 Si / 1000 Ang^3
#
#
#
# Elastic Constant Matrix: (Units=GPa)
#
#
# Indices 1 2 3 4 5 6 
#
# 1 59.9873 29.4406 26.2826 0.0000 -4.3715 0.0000
# 2 29.4406 79.2421 71.9988 0.0000 -7.1729 0.0000
# 3 26.2826 71.9988 142.0165 0.0000 -1.0603 0.0000
# 4 0.0000 0.0000 0.0000 41.6763 0.0000 -5.1374
# 5 -4.3715 -7.1729 -1.0603 0.0000 26.3577 0.0000
# 6 0.0000 0.0000 0.0000 -5.1374 0.0000 24.1374
#
#
#
# Elastic Compliance Matrix: (Units=1/GPa)
#
#
# Indices 1 2 3 4 5 6 
#
# 1 0.020435 -0.007496 0.000028 0.000000 0.001350 0.000000
# 2 -0.007496 0.027098 -0.012309 0.000000 0.005636 0.000000
# 3 0.000028 -0.012309 0.013255 0.000000 -0.002812 0.000000
# 4 0.000000 0.000000 0.000000 0.024641 0.000000 0.005245
# 5 0.001350 0.005636 -0.002812 0.000000 0.039584 0.000000
# 6 0.000000 0.000000 0.000000 0.005245 0.000000 0.042546
#
#
# Mechanical properties :
#
#
# Convention : Reuss Voigt Hill
#
# Bulk Modulus (GPa) = 47.08903 59.63222 53.36062
# Shear Modulus (GPa) = 23.34368 28.66922 26.00645
#
# Velocity S-wave (km/s) = 3.41955 3.78959 3.60931
# Velocity P-wave (km/s) = 6.25930 7.00135 6.64070
#
# Compressibility (1/GPa) = 0.02123637
#
# Stress axis : x y z
#
# Youngs Moduli (GPa) = 48.93594 36.90266 75.44040
#
# Poissons Ratio (x) = 0.27661 -0.00214
# Poissons Ratio (y) = 0.36681 0.92859
# Poissons Ratio (z) = -0.00139 0.45423
#
# Static dielectric constant tensor:
#      x y z
#    x 3.623250 0.000000 0.049020 
#    y 0.000000 3.560700 0.000000 
#    z 0.049020 0.000000 3.612370 
# 
# 
# High freq. dielectric constant tensor:
#      x y z
#    x 1.781880 0.000000 0.004430 
#    y 0.000000 1.771050 0.000000 
#    z 0.004430 0.000000 1.781430 
# 
# From -- ./inp_files/71200.got.cif
#   From: 2010.06.25/outbox.cif.g09.slc.cpg/sg12_36_cif.got.tgz:71200.got - 2010.06.28 00:19:55.
