data_PCOD8107440
_publ_section_title
;
Structure prediction by ZEFSAII (Michael W. Deem and Ramdas Pophale) SiO2 
 PCOD8107440
Probable space group: C 2/M
;
_chemical_formula_sum "Si O2"
_cell_formula_units_Z 64
_cell_length_a 17.628736
_cell_length_b 14.352879
_cell_length_c 14.544287
_cell_angle_alpha 90.000000
_cell_angle_beta 55.840133
_cell_angle_gamma 90.000000
_cell_volume 3045.138390
_symmetry_space_group_name_H-M "C 2/M"
_symmetry_group_IT_number 12
_symmetry_cell_setting 'monoclinic'
loop_
_space_group_symop_operation_xyz
x,y,z
-x,y,-z
-x,-y,-z
x,-y,z
1/2+x,1/2+y,z
1/2-x,1/2+y,-z
1/2-x,1/2-y,-z
1/2+x,1/2-y,z
loop_
_atom_site_type_symbol
_atom_site_label
_atom_site_fract_x
_atom_site_fract_y
_atom_site_fract_z
Si Si1 0.669540 0.176380 0.550036
Si Si2 0.784831 0.603735 0.292564
Si Si3 0.106105 0.706815 0.931499
Si Si4 0.464576 0.778762 0.692474
Si Si5 0.854193 0.393110 0.913742
Si Si6 0.647496 0.894604 0.364130
Si Si7 0.804922 0.895937 0.114416
Si Si8 0.582081 0.606307 0.373866
O O1 0.750000 0.250000 0.500000
O O2 0.684917 0.103883 0.622000
O O3 0.573111 0.227712 0.628181
O O4 0.670990 0.121646 0.453720
O O5 0.801536 0.500000 0.241909
O O6 0.845358 0.677775 0.195935
O O7 0.677540 0.630450 0.359230
O O8 0.116390 0.817765 0.940806
O O9 0.154197 0.647171 0.978555
O O10 0.000000 0.681135 0.000000
O O11 0.424813 0.829681 0.808816
O O12 0.435276 0.831898 0.618545
O O13 0.427855 0.672581 0.708698
O O14 0.889949 0.500000 0.890011
O O15 0.753203 0.388252 0.939607
O O16 0.739352 0.874037 0.244781
O O17 0.615072 0.000000 0.370411
O O18 0.848128 0.000000 0.093266
O O19 0.500000 0.627720 0.500000
O O20 0.578838 0.500000 0.341283
#
# Coordination Sequence:
#
# PCOD8107440 Si02
#       8
#     8   8   8   8   8   8   8   8
#     4  12  23  35  55  84 122 160 193 233 291 359
#     4  11  24  40  60  87 120 157 198 244 295 353
#     4  12  24  39  61  87 120 160 198 243 296 350
#     4  11  21  37  60  85 116 153 196 247 292 345
#     4  10  22  40  63  88 115 151 197 250 301 344
#     4  10  21  37  60  87 115 150 192 242 298 350
#     4   9  20  40  62  85 114 149 194 244 291 347
#     4  10  21  40  64  88 118 157 200 245 293 349
#
# _framework density 21.017109000000001
#
# number of rings (size 3 to 8) (size 9 to 14) (size 15 to 20)
#    0.000    1.375    0.000    7.875    0.000    4.750 
#    0.000    2.500    0.000    2.250    0.000    0.000 
#    0.000    0.000    0.000    0.000    0.000    0.000 
#
# Total GULP energy -396902.620462 kJ/mol
# GULP energy per Si atom -12403.206889 kJ/mol
# Density = 2.096927 g / cm^3
# Si number density = 21.017109 Si / 1000 Ang^3
#
#
#
# Elastic Constant Matrix: (Units=GPa)
#
#
# Indices 1 2 3 4 5 6 
#
# 1 98.4333 36.7083 40.9826 0.0000 -3.6176 0.0000
# 2 36.7083 119.8506 30.1318 0.0000 -3.6231 0.0000
# 3 40.9826 30.1318 71.4368 0.0000 7.9143 0.0000
# 4 0.0000 0.0000 0.0000 33.7264 0.0000 1.0743
# 5 -3.6176 -3.6231 7.9143 0.0000 35.6461 0.0000
# 6 0.0000 0.0000 0.0000 1.0743 0.0000 22.4477
#
#
#
# Elastic Compliance Matrix: (Units=1/GPa)
#
#
# Indices 1 2 3 4 5 6 
#
# 1 0.014283 -0.002403 -0.007498 0.000000 0.002870 0.000000
# 2 -0.002403 0.009861 -0.002937 0.000000 0.001411 0.000000
# 3 -0.007498 -0.002937 0.020152 0.000000 -0.005534 0.000000
# 4 0.000000 0.000000 0.000000 0.029696 0.000000 -0.001421
# 5 0.002870 0.001411 -0.005534 0.000000 0.029717 0.000000
# 6 0.000000 0.000000 0.000000 -0.001421 0.000000 0.044616
#
#
# Mechanical properties :
#
#
# Convention : Reuss Voigt Hill
#
# Bulk Modulus (GPa) = 53.70807 56.15181 54.92994
# Shear Modulus (GPa) = 27.74600 30.49058 29.11829
#
# Velocity S-wave (km/s) = 3.63735 3.81300 3.72621
# Velocity P-wave (km/s) = 6.57650 6.79415 6.68621
#
# Compressibility (1/GPa) = 0.01861918
#
# Stress axis : x y z
#
# Youngs Moduli (GPa) = 70.01554 101.41305 49.62278
#
# Poissons Ratio (x) = 0.24365 0.37209
# Poissons Ratio (y) = 0.16822 0.14575
# Poissons Ratio (z) = 0.52500 0.29786
#
# Static dielectric constant tensor:
#      x y z
#    x 4.149810 0.000000 0.362170 
#    y 0.000000 4.008370 0.000000 
#    z 0.362170 0.000000 3.842370 
# 
# 
# High freq. dielectric constant tensor:
#      x y z
#    x 1.820330 0.000000 0.003230 
#    y 0.000000 1.835580 0.000000 
#    z 0.003230 0.000000 1.814180 
# 
# From -- ./inp_files/225689.got.cif
#   From: 2010.06.25/outbox.cif.g09.slc.cpg/sg12_113_cif.got.tgz:225689.got - 2010.06.28 00:19:55.
