data_PCOD8107628
_publ_section_title
;
Structure prediction by ZEFSAII (Michael W. Deem and Ramdas Pophale) SiO2 
 PCOD8107628
Probable space group: C 2/M
;
_chemical_formula_sum "Si O2"
_cell_formula_units_Z 56
_cell_length_a 30.398356
_cell_length_b 9.267532
_cell_length_c 11.678477
_cell_angle_alpha 90.000000
_cell_angle_beta 118.086663
_cell_angle_gamma 90.000000
_cell_volume 2902.588119
_symmetry_space_group_name_H-M "C 2/M"
_symmetry_group_IT_number 12
_symmetry_cell_setting 'monoclinic'
loop_
_space_group_symop_operation_xyz
x,y,z
-x,y,-z
-x,-y,-z
x,-y,z
1/2+x,1/2+y,z
1/2-x,1/2+y,-z
1/2-x,1/2-y,-z
1/2+x,1/2-y,z
loop_
_atom_site_type_symbol
_atom_site_label
_atom_site_fract_x
_atom_site_fract_y
_atom_site_fract_z
Si Si1 0.078014 0.666225 0.851224
Si Si2 0.101516 0.832658 0.346313
Si Si3 0.007177 0.167382 0.377286
Si Si4 0.325854 0.665026 0.059915
Si Si5 0.287218 0.330289 0.462468
Si Si6 0.750749 0.336086 0.830610
Si Si7 0.055608 0.665553 0.081242
O O1 0.079232 0.500000 0.814382
O O2 0.026825 0.735575 0.745661
O O3 0.123610 0.750667 0.849925
O O4 0.083309 0.681255 0.994263
O O5 0.156131 0.777627 0.449491
O O6 0.086072 0.751449 0.212736
O O7 0.063946 0.804221 0.406346
O O8 0.102460 0.000000 0.315935
O O9 0.000000 0.215443 0.500000
O O10 0.992257 0.000000 0.344024
O O11 0.338170 0.500000 0.045001
O O12 0.292982 0.680320 0.131984
O O13 0.297392 0.734687 0.917240
O O14 0.282306 0.500000 0.476777
O O15 0.250000 0.250000 0.500000
O O16 0.271916 0.285596 0.316430
O O17 0.770646 0.500000 0.851121
O O18 0.052380 0.500000 0.117774
O O19 0.000000 0.729658 0.000000
#
# Coordination Sequence:
#
# PCOD8107628 Si02
#       7
#     8   8   8   8   8   8   8
#     4  11  23  38  59  87 120 154 194 239 289 346
#     4  10  22  39  61  88 116 150 195 246 290 342
#     4  10  22  39  62  89 120 156 196 238 291 353
#     4  10  21  37  62  89 116 150 193 242 293 348
#     4  10  23  41  60  85 117 154 196 240 291 347
#     4   9  20  40  62  83 116 154 191 240 297 350
#     4  10  21  39  59  81 115 154 191 233 285 342
#
# _framework density 19.293126000000001
#
# number of rings (size 3 to 8) (size 9 to 14) (size 15 to 20)
#    0.000    2.000    1.429    0.857    4.000    3.429 
#    0.000    0.000    0.000    0.000    0.000    0.000 
#    0.000    0.000    0.000    0.000    0.000    0.000 
#
# Total GULP energy -347307.481334 kJ/mol
# GULP energy per Si atom -12403.838619 kJ/mol
# Density = 1.924921 g / cm^3
# Si number density = 19.293126 Si / 1000 Ang^3
#
#
#
# Elastic Constant Matrix: (Units=GPa)
#
#
# Indices 1 2 3 4 5 6 
#
# 1 101.7742 51.7900 57.3804 0.0000 18.3829 0.0000
# 2 51.7900 86.5598 55.8648 0.0000 7.2611 0.0000
# 3 57.3804 55.8648 138.3338 0.0000 3.4248 0.0000
# 4 0.0000 0.0000 0.0000 27.1063 0.0000 2.9453
# 5 18.3829 7.2611 3.4248 0.0000 31.0352 0.0000
# 6 0.0000 0.0000 0.0000 2.9453 0.0000 33.5633
#
#
#
# Elastic Compliance Matrix: (Units=1/GPa)
#
#
# Indices 1 2 3 4 5 6 
#
# 1 0.017117 -0.006913 -0.004109 0.000000 -0.008068 0.000000
# 2 -0.006913 0.018694 -0.004688 0.000000 0.000238 0.000000
# 3 -0.004109 -0.004688 0.010768 0.000000 0.002342 0.000000
# 4 0.000000 0.000000 0.000000 0.037247 0.000000 -0.003269
# 5 -0.008068 0.000238 0.002342 0.000000 0.036686 0.000000
# 6 0.000000 0.000000 0.000000 -0.003269 0.000000 0.030081
#
#
# Mechanical properties :
#
#
# Convention : Reuss Voigt Hill
#
# Bulk Modulus (GPa) = 65.95987 72.97093 69.46540
# Shear Modulus (GPa) = 26.72831 29.11647 27.92239
#
# Velocity S-wave (km/s) = 3.72611 3.88901 3.80843
# Velocity P-wave (km/s) = 7.26459 7.62038 7.44461
#
# Compressibility (1/GPa) = 0.01516073
#
# Stress axis : x y z
#
# Youngs Moduli (GPa) = 58.42036 53.49180 92.86462
#
# Poissons Ratio (x) = 0.36979 0.38155
# Poissons Ratio (y) = 0.40386 0.43535
# Poissons Ratio (z) = 0.24003 0.25077
#
# Static dielectric constant tensor:
#      x y z
#    x 3.620310 0.000000 0.053140 
#    y 0.000000 3.547150 0.000000 
#    z 0.053140 0.000000 3.520010 
# 
# 
# High freq. dielectric constant tensor:
#      x y z
#    x 1.760220 0.000000 0.002280 
#    y 0.000000 1.748300 0.000000 
#    z 0.002280 0.000000 1.752180 
# 
# From -- ./inp_files/187708.got.cif
#   From: 2010.06.25/outbox.cif.g09.slc.cpg/sg12_94_cif.got.tgz:187708.got - 2010.06.28 00:19:55.
