data_PCOD8107608
_publ_section_title
;
Structure prediction by ZEFSAII (Michael W. Deem and Ramdas Pophale) SiO2 
 PCOD8107608
Probable space group: C 2/M
;
_chemical_formula_sum "Si O2"
_cell_formula_units_Z 52
_cell_length_a 5.092784
_cell_length_b 24.514816
_cell_length_c 20.106254
_cell_angle_alpha 90.000000
_cell_angle_beta 84.862760
_cell_angle_gamma 90.000000
_cell_volume 2500.155488
_symmetry_space_group_name_H-M "C 2/M"
_symmetry_group_IT_number 12
_symmetry_cell_setting 'monoclinic'
loop_
_space_group_symop_operation_xyz
x,y,z
-x,y,-z
-x,-y,-z
x,-y,z
1/2+x,1/2+y,z
1/2-x,1/2+y,-z
1/2-x,1/2-y,-z
1/2+x,1/2-y,z
loop_
_atom_site_type_symbol
_atom_site_label
_atom_site_fract_x
_atom_site_fract_y
_atom_site_fract_z
Si Si1 0.328122 0.563242 0.771906
Si Si2 0.203880 0.404514 0.151479
Si Si3 0.400151 0.215987 0.676759
Si Si4 0.266361 0.000000 0.953764
Si Si5 0.561061 0.120935 0.425755
Si Si6 0.084943 0.062978 0.381181
Si Si7 0.117708 0.285473 0.168733
O O1 0.390037 0.500000 0.782023
O O2 0.518511 0.596804 0.816112
O O3 0.385230 0.581408 0.695753
O O4 0.024748 0.575539 0.793938
O O5 0.217042 0.444888 0.089101
O O6 0.152258 0.342404 0.128029
O O7 0.611043 0.264237 0.661928
O O8 0.484426 0.166721 0.628273
O O9 0.403148 0.197424 0.753398
O O10 0.500000 0.000000 0.000000
O O11 0.000000 0.000000 0.000000
O O12 0.500000 0.145278 0.500000
O O13 0.357038 0.072461 0.414057
O O14 0.856193 0.098348 0.419412
O O15 0.009269 0.000000 0.388290
O O16 0.355766 0.244194 0.149372
#
# Coordination Sequence:
#
# PCOD8107608 Si02
#       7
#     8   8   8   4   8   8   8
#     4  11  20  36  61  95 121 153 208 263 335 370
#     4  12  22  40  67  94 135 169 207 259 299 379
#     4  10  21  38  60  86 116 150 198 262 324 370
#     4  12  26  44  66 100 142 180 211 238 295 356
#     4  12  25  40  57  81 115 164 215 253 311 392
#     4  11  24  39  59  85 118 155 201 267 319 379
#     4  10  21  37  61  94 123 159 207 265 326 366
#
# _framework density 20.798705999999999
#
# number of rings (size 3 to 8) (size 9 to 14) (size 15 to 20)
#    0.000    0.923    1.538    6.462    0.000    7.385 
#    0.000    0.000    0.000    2.769    0.000    0.000 
#    0.000    0.000    0.000    0.000    0.000    0.000 
#
# Total GULP energy -322568.645852 kJ/mol
# GULP energy per Si atom -12406.486379 kJ/mol
# Density = 2.075137 g / cm^3
# Si number density = 20.798706 Si / 1000 Ang^3
#
#
#
# Elastic Constant Matrix: (Units=GPa)
#
#
# Indices 1 2 3 4 5 6 
#
# 1 103.9216 18.5980 27.0322 0.0000 -8.8854 0.0000
# 2 18.5980 107.2066 53.1420 0.0000 -13.6125 0.0000
# 3 27.0322 53.1420 67.7365 0.0000 -6.7220 0.0000
# 4 0.0000 0.0000 0.0000 27.5883 0.0000 -3.5142
# 5 -8.8854 -13.6125 -6.7220 0.0000 30.7527 0.0000
# 6 0.0000 0.0000 0.0000 -3.5142 0.0000 29.4500
#
#
#
# Elastic Compliance Matrix: (Units=1/GPa)
#
#
# Indices 1 2 3 4 5 6 
#
# 1 0.010922 0.000748 -0.004702 0.000000 0.002459 0.000000
# 2 0.000748 0.015873 -0.012300 0.000000 0.004554 0.000000
# 3 -0.004702 -0.012300 0.026182 0.000000 -0.001080 0.000000
# 4 0.000000 0.000000 0.000000 0.036807 0.000000 0.004392
# 5 0.002459 0.004554 -0.001080 0.000000 0.035008 0.000000
# 6 0.000000 0.000000 0.000000 0.004392 0.000000 0.034480
#
#
# Mechanical properties :
#
#
# Convention : Reuss Voigt Hill
#
# Bulk Modulus (GPa) = 48.85081 52.93434 50.89258
# Shear Modulus (GPa) = 25.17605 29.56438 27.37021
#
# Velocity S-wave (km/s) = 3.48294 3.77431 3.63155
# Velocity P-wave (km/s) = 6.30182 6.67082 6.48895
#
# Compressibility (1/GPa) = 0.02047049
#
# Stress axis : x y z
#
# Youngs Moduli (GPa) = 91.55828 62.99931 38.19433
#
# Poissons Ratio (x) = -0.04713 0.17957
# Poissons Ratio (y) = -0.06849 0.46978
# Poissons Ratio (z) = 0.43047 0.77488
#
# Static dielectric constant tensor:
#      x y z
#    x 3.870170 0.000000 -0.108760 
#    y 0.000000 3.747270 0.000000 
#    z -0.108760 0.000000 3.610030 
# 
# 
# High freq. dielectric constant tensor:
#      x y z
#    x 1.835310 0.000000 -0.007020 
#    y 0.000000 1.818840 0.000000 
#    z -0.007020 0.000000 1.787290 
# 
# From -- ./inp_files/297825.got.cif
#   From: 2010.06.25/outbox.cif.g09.slc.cpg/sg12_149_cif.got.tgz:297825.got - 2010.06.28 00:19:55.
