data_PCOD8107989
_publ_section_title
;
Structure prediction by ZEFSAII (Michael W. Deem and Ramdas Pophale) SiO2 
 PCOD8107989
Probable space group: C 2/M
;
_chemical_formula_sum "Si O2"
_cell_formula_units_Z 56
_cell_length_a 10.067059
_cell_length_b 8.894877
_cell_length_c 31.563811
_cell_angle_alpha 90.000000
_cell_angle_beta 103.438912
_cell_angle_gamma 90.000000
_cell_volume 2748.997948
_symmetry_space_group_name_H-M "C 2/M"
_symmetry_group_IT_number 12
_symmetry_cell_setting 'monoclinic'
loop_
_space_group_symop_operation_xyz
x,y,z
-x,y,-z
-x,-y,-z
x,-y,z
1/2+x,1/2+y,z
1/2-x,1/2+y,-z
1/2-x,1/2-y,-z
1/2+x,1/2-y,z
loop_
_atom_site_type_symbol
_atom_site_label
_atom_site_fract_x
_atom_site_fract_y
_atom_site_fract_z
Si Si1 0.480614 0.325088 0.827184
Si Si2 0.464140 0.324961 0.403724
Si Si3 0.391640 0.174699 0.736851
Si Si4 0.752191 0.674560 0.123143
Si Si5 0.734209 0.824936 0.453644
Si Si6 0.876702 0.674747 0.313105
Si Si7 0.146806 0.176758 0.024126
O O1 0.491627 0.500000 0.816421
O O2 0.472943 0.228296 0.784038
O O3 0.348322 0.291648 0.845521
O O4 0.614098 0.275895 0.862673
O O5 0.494083 0.500000 0.400348
O O6 0.607078 0.240632 0.418570
O O7 0.372126 0.293598 0.438011
O O8 0.383742 0.266311 0.357039
O O9 0.253297 0.269105 0.722817
O O10 0.486493 0.204022 0.703299
O O11 0.354989 0.000000 0.738574
O O12 0.794539 0.500000 0.125202
O O13 0.677637 0.723976 0.074552
O O14 0.750000 0.750000 0.500000
O O15 0.708663 0.000000 0.458300
O O16 0.857890 0.500000 0.322048
O O17 0.154400 0.000000 0.018846
O O18 0.250000 0.250000 0.000000
O O19 0.000000 0.240039 0.000000
#
# Coordination Sequence:
#
# PCOD8107989 Si02
#       7
#     8   8   8   8   8   8   8
#     4  11  23  39  61  87 115 152 196 238 287 347
#     4  11  24  41  62  90 122 156 198 246 294 347
#     4  11  24  41  61  88 121 154 193 242 292 345
#     4  10  22  39  58  84 118 152 190 239 290 342
#     4  11  24  41  62  90 122 157 199 245 294 350
#     4  11  24  41  62  89 120 156 198 241 290 349
#     4  10  21  38  59  84 116 152 191 238 289 342
#
# _framework density 20.371058999999999
#
# number of rings (size 3 to 8) (size 9 to 14) (size 15 to 20)
#    0.000    1.286    0.000    5.143    0.000   16.286 
#    0.000    0.000    0.000    0.000    0.000    0.000 
#    0.000    0.000    0.000    0.000    0.000    0.000 
#
# Total GULP energy -347420.631108 kJ/mol
# GULP energy per Si atom -12407.879682 kJ/mol
# Density = 2.032469 g / cm^3
# Si number density = 20.371059 Si / 1000 Ang^3
#
#
#
# Elastic Constant Matrix: (Units=GPa)
#
#
# Indices 1 2 3 4 5 6 
#
# 1 89.9565 51.3867 14.7996 0.0000 10.9165 0.0000
# 2 51.3867 80.7425 34.1033 0.0000 -13.4535 0.0000
# 3 14.7996 34.1033 103.6159 0.0000 0.2947 0.0000
# 4 0.0000 0.0000 0.0000 37.8182 0.0000 5.1840
# 5 10.9165 -13.4535 0.2947 0.0000 37.1864 0.0000
# 6 0.0000 0.0000 0.0000 5.1840 0.0000 37.5672
#
#
#
# Elastic Compliance Matrix: (Units=1/GPa)
#
#
# Indices 1 2 3 4 5 6 
#
# 1 0.022121 -0.017290 0.002568 0.000000 -0.012769 0.000000
# 2 -0.017290 0.028999 -0.007119 0.000000 0.015624 0.000000
# 3 0.002568 -0.007119 0.011637 0.000000 -0.003422 0.000000
# 4 0.000000 0.000000 0.000000 0.026952 0.000000 -0.003719
# 5 -0.012769 0.015624 -0.003422 0.000000 0.036320 0.000000
# 6 0.000000 0.000000 0.000000 -0.003719 0.000000 0.027132
#
#
# Mechanical properties :
#
#
# Convention : Reuss Voigt Hill
#
# Bulk Modulus (GPa) = 52.43039 52.76601 52.59820
# Shear Modulus (GPa) = 24.60595 34.11605 29.36100
#
# Velocity S-wave (km/s) = 3.47924 4.09679 3.80058
# Velocity P-wave (km/s) = 6.47562 6.95247 6.71828
#
# Compressibility (1/GPa) = 0.01907291
#
# Stress axis : x y z
#
# Youngs Moduli (GPa) = 45.20685 34.48361 85.93088
#
# Poissons Ratio (x) = 0.59623 -0.22063
# Poissons Ratio (y) = 0.78164 0.61178
# Poissons Ratio (z) = -0.11607 0.24550
#
# Static dielectric constant tensor:
#      x y z
#    x 3.747190 0.000000 0.039880 
#    y 0.000000 3.734810 0.000000 
#    z 0.039880 0.000000 3.768960 
# 
# 
# High freq. dielectric constant tensor:
#      x y z
#    x 1.808530 0.000000 0.001760 
#    y 0.000000 1.803070 0.000000 
#    z 0.001760 0.000000 1.812000 
# 
# From -- ./inp_files/357536.got.cif
#   From: 2010.06.25/outbox.cif.g09.slc.cpg/sg12_179_cif.got.tgz:357536.got - 2010.06.28 00:19:55.
