data_PCOD8107179
_publ_section_title
;
Structure prediction by ZEFSAII (Michael W. Deem and Ramdas Pophale) SiO2 
 PCOD8107179
Probable space group: C 2/M
;
_chemical_formula_sum "Si O2"
_cell_formula_units_Z 64
_cell_length_a 29.137318
_cell_length_b 8.996609
_cell_length_c 14.011808
_cell_angle_alpha 90.000000
_cell_angle_beta 59.354692
_cell_angle_gamma 90.000000
_cell_volume 3160.038106
_symmetry_space_group_name_H-M "C 2/M"
_symmetry_group_IT_number 12
_symmetry_cell_setting 'monoclinic'
loop_
_space_group_symop_operation_xyz
x,y,z
-x,y,-z
-x,-y,-z
x,-y,z
1/2+x,1/2+y,z
1/2-x,1/2+y,-z
1/2-x,1/2-y,-z
1/2+x,1/2-y,z
loop_
_atom_site_type_symbol
_atom_site_label
_atom_site_fract_x
_atom_site_fract_y
_atom_site_fract_z
Si Si1 0.362914 0.675141 0.613815
Si Si2 0.258440 0.170453 0.257344
Si Si3 0.333094 0.832861 0.016028
Si Si4 0.078329 0.828349 0.970519
Si Si5 0.612310 0.167997 0.223041
Si Si6 0.514743 0.827994 0.185619
Si Si7 0.649439 0.324239 0.725292
Si Si8 0.596676 0.823373 0.613162
O O1 0.368528 0.500000 0.593463
O O2 0.301696 0.728584 0.670401
O O3 0.385962 0.717295 0.692494
O O4 0.397429 0.760707 0.499148
O O5 0.296059 0.268080 0.284823
O O6 0.262972 0.000000 0.286115
O O7 0.275477 0.185631 0.127126
O O8 0.371037 0.706780 0.017606
O O9 0.334067 0.814500 0.899844
O O10 0.355818 0.000000 0.015379
O O11 0.026639 0.745579 0.069037
O O12 0.064371 0.000000 0.989439
O O13 0.096928 0.781212 0.844125
O O14 0.561402 0.206748 0.211609
O O15 0.608182 0.000000 0.267621
O O16 0.460092 0.765750 0.287521
O O17 0.508835 0.000000 0.171113
O O18 0.654256 0.500000 0.706401
O O19 0.643171 0.244785 0.630109
O O20 0.601199 0.000000 0.606446
#
# Coordination Sequence:
#
# PCOD8107179 Si02
#       8
#     8   8   8   8   8   8   8   8
#     4  11  24  39  55  80 112 144 185 234 277 321
#     4   9  19  37  59  82 111 148 185 221 267 325
#     4   8  15  31  55  81 110 144 181 219 261 321
#     4   9  17  30  53  85 116 142 170 215 275 331
#     4   9  18  35  58  82 110 143 179 223 273 324
#     4   9  20  38  59  82 109 145 186 225 266 322
#     4  10  21  37  58  86 116 143 176 223 277 327
#     4  11  24  41  59  78 104 145 194 233 269 321
#
# _framework density 20.252918999999999
#
# number of rings (size 3 to 8) (size 9 to 14) (size 15 to 20)
#    0.000    2.500    0.000    2.250    0.000    7.500 
#    0.000    5.000    0.000    0.000    0.000    0.000 
#    0.000    0.000    0.000    0.000    0.000    0.000 
#
# Total GULP energy -396643.524666 kJ/mol
# GULP energy per Si atom -12395.110146 kJ/mol
# Density = 2.020682 g / cm^3
# Si number density = 20.252919 Si / 1000 Ang^3
#
#
#
# Elastic Constant Matrix: (Units=GPa)
#
#
# Indices 1 2 3 4 5 6 
#
# 1 38.7543 18.8193 14.0791 0.0000 6.5606 0.0000
# 2 18.8193 60.0427 27.5032 0.0000 6.4377 0.0000
# 3 14.0791 27.5032 84.0259 0.0000 4.4325 0.0000
# 4 0.0000 0.0000 0.0000 33.2958 0.0000 2.9714
# 5 6.5606 6.4377 4.4325 0.0000 33.3284 0.0000
# 6 0.0000 0.0000 0.0000 2.9714 0.0000 24.6869
#
#
#
# Elastic Compliance Matrix: (Units=1/GPa)
#
#
# Indices 1 2 3 4 5 6 
#
# 1 0.031410 -0.008329 -0.002312 0.000000 -0.004267 0.000000
# 2 -0.008329 0.022093 -0.005738 0.000000 -0.001865 0.000000
# 3 -0.002312 -0.005738 0.014184 0.000000 -0.000323 0.000000
# 4 0.000000 0.000000 0.000000 0.030360 0.000000 -0.003654
# 5 -0.004267 -0.001865 -0.000323 0.000000 0.031248 0.000000
# 6 0.000000 0.000000 0.000000 -0.003654 0.000000 0.040947
#
#
# Mechanical properties :
#
#
# Convention : Reuss Voigt Hill
#
# Bulk Modulus (GPa) = 28.62781 33.73621 31.18201
# Shear Modulus (GPa) = 23.29468 26.42366 24.85917
#
# Velocity S-wave (km/s) = 3.39512 3.61596 3.50728
# Velocity P-wave (km/s) = 5.43461 5.84185 5.64190
#
# Compressibility (1/GPa) = 0.03493107
#
# Stress axis : x y z
#
# Youngs Moduli (GPa) = 31.83686 45.26240 70.50426
#
# Poissons Ratio (x) = 0.37697 0.16299
# Poissons Ratio (y) = 0.26515 0.40453
# Poissons Ratio (z) = 0.07360 0.25970
#
# Static dielectric constant tensor:
#      x y z
#    x 3.331550 0.000000 -0.073730 
#    y 0.000000 3.545060 0.000000 
#    z -0.073730 0.000000 3.978440 
# 
# 
# High freq. dielectric constant tensor:
#      x y z
#    x 1.764640 0.000000 -0.000160 
#    y 0.000000 1.787840 0.000000 
#    z -0.000160 0.000000 1.803090 
# 
# From -- ./inp_files/249709.got.cif
#   From: 2010.06.25/outbox.cif.g09.slc.cpg/sg12_125_cif.got.tgz:249709.got - 2010.06.28 00:19:55.
