data_PCOD8107141
_publ_section_title
;
Structure prediction by ZEFSAII (Michael W. Deem and Ramdas Pophale) SiO2 
 PCOD8107141
Probable space group: C 2/M
;
_chemical_formula_sum "Si O2"
_cell_formula_units_Z 64
_cell_length_a 12.589050
_cell_length_b 19.618017
_cell_length_c 22.633194
_cell_angle_alpha 90.000000
_cell_angle_beta 35.420403
_cell_angle_gamma 90.000000
_cell_volume 3239.670632
_symmetry_space_group_name_H-M "C 2/M"
_symmetry_group_IT_number 12
_symmetry_cell_setting 'monoclinic'
loop_
_space_group_symop_operation_xyz
x,y,z
-x,y,-z
-x,-y,-z
x,-y,z
1/2+x,1/2+y,z
1/2-x,1/2+y,-z
1/2-x,1/2-y,-z
1/2+x,1/2-y,z
loop_
_atom_site_type_symbol
_atom_site_label
_atom_site_fract_x
_atom_site_fract_y
_atom_site_fract_z
Si Si1 0.597844 0.812316 0.134256
Si Si2 0.670362 0.802299 0.238224
Si Si3 0.048833 0.075013 0.543049
Si Si4 0.921267 0.077947 0.801632
Si Si5 0.232820 0.146350 0.241666
Si Si6 0.564228 0.665468 0.094509
Si Si7 0.199522 0.578253 0.427435
Si Si8 0.187072 0.673133 0.539374
O O1 0.591530 0.813897 0.208189
O O2 0.438932 0.856916 0.174881
O O3 0.576789 0.734788 0.124866
O O4 0.794491 0.839665 0.023674
O O5 0.680248 0.723931 0.252135
O O6 0.527252 0.833932 0.349915
O O7 0.861482 0.841972 0.158831
O O8 0.891030 0.109513 0.653852
O O9 0.000000 0.054997 0.500000
O O10 0.203729 0.132946 0.459520
O O11 0.102727 0.000000 0.547562
O O12 0.789059 0.109895 0.811734
O O13 0.881491 0.106892 0.884312
O O14 0.140210 0.088676 0.692881
O O15 0.867011 0.000000 0.827340
O O16 0.181509 0.500000 0.455214
O O17 0.259941 0.626433 0.452875
O O18 0.000000 0.606211 0.500000
O O19 0.250000 0.750000 0.500000
#
# Coordination Sequence:
#
# PCOD8107141 Si02
#       8
#     8   8   8   8   8   8   8   8
#     4  10  22  39  63  89 123 158 207 259 316 378
#     4  11  21  39  62  91 128 160 204 261 313 375
#     4  11  23  40  59  84 124 170 208 245 302 377
#     4  11  21  39  64  90 127 162 205 259 310 370
#     4  11  21  39  61  90 125 162 207 261 315 368
#     4  10  22  39  63  92 120 161 203 260 318 370
#     4  10  21  37  58  84 118 160 200 243 297 364
#     4  12  22  35  56  90 121 158 198 249 299 360
#
# _framework density 19.755095000000001
#
# number of rings (size 3 to 8) (size 9 to 14) (size 15 to 20)
#    0.000    1.250    3.750    2.625    0.000    1.000 
#    0.000    2.500    0.000    4.500    0.000    0.000 
#    0.000    0.000    0.000    0.000    0.000    0.000 
#
# Total GULP energy -396505.660570 kJ/mol
# GULP energy per Si atom -12390.801893 kJ/mol
# Density = 1.971013 g / cm^3
# Si number density = 19.755095 Si / 1000 Ang^3
#
#
#
# Elastic Constant Matrix: (Units=GPa)
#
#
# Indices 1 2 3 4 5 6 
#
# 1 91.9961 31.1316 29.0892 -0.0032 -10.8101 0.0000
# 2 31.1316 104.2890 35.4179 0.0245 -6.6891 0.0066
# 3 29.0892 35.4179 86.2042 0.0485 -13.0382 0.0148
# 4 -0.0032 0.0245 0.0485 15.2375 -0.0078 -5.1340
# 5 -10.8101 -6.6891 -13.0382 -0.0078 38.8555 -0.0065
# 6 0.0000 0.0066 0.0148 -5.1340 -0.0065 20.0521
#
#
#
# Elastic Compliance Matrix: (Units=1/GPa)
#
#
# Indices 1 2 3 4 5 6 
#
# 1 0.012976 -0.002742 -0.002926 0.000021 0.002156 0.000009
# 2 -0.002742 0.011729 -0.003902 -0.000008 -0.000053 -0.000003
# 3 -0.002926 -0.003902 0.014713 -0.000046 0.003451 -0.000020
# 4 0.000021 -0.000008 -0.000046 0.071824 0.000006 0.018389
# 5 0.002156 -0.000053 0.003451 0.000006 0.027485 0.000008
# 6 0.000009 -0.000003 -0.000020 0.018389 0.000008 0.054578
#
#
# Mechanical properties :
#
#
# Convention : Reuss Voigt Hill
#
# Bulk Modulus (GPa) = 49.31224 52.64074 50.97649
# Shear Modulus (GPa) = 22.80973 27.28571 25.04772
#
# Velocity S-wave (km/s) = 3.40166 3.72048 3.56464
# Velocity P-wave (km/s) = 6.35959 6.72015 6.54236
#
# Compressibility (1/GPa) = 0.02027894
#
# Stress axis : x y z
#
# Youngs Moduli (GPa) = 77.06267 85.26004 67.96737
#
# Poissons Ratio (x) = 0.23374 0.19890
# Poissons Ratio (y) = 0.21127 0.26519
# Poissons Ratio (z) = 0.22551 0.33267
#
# Static dielectric constant tensor:
#      x y z
#    x 3.861990 -0.000020 -0.163300 
#    y -0.000020 3.458740 0.000060 
#    z -0.163300 0.000060 3.572800 
# 
# 
# High freq. dielectric constant tensor:
#      x y z
#    x 1.778890 0.000000 -0.003850 
#    y 0.000000 1.765540 0.000000 
#    z -0.003850 0.000000 1.768060 
# 
# From -- ./inp_files/306790.got.cif
#   From: 2010.06.25/outbox.cif.g09.slc.cpg/sg12_154_cif.got.tgz:306790.got - 2010.06.28 00:19:55.
