data_PCOD8107679
_publ_section_title
;
Structure prediction by ZEFSAII (Michael W. Deem and Ramdas Pophale) SiO2 
 PCOD8107679
Probable space group: C 2/M
;
_chemical_formula_sum "Si O2"
_cell_formula_units_Z 44
_cell_length_a 21.295237
_cell_length_b 16.144146
_cell_length_c 17.712249
_cell_angle_alpha 90.000000
_cell_angle_beta 19.907181
_cell_angle_gamma 90.000000
_cell_volume 2073.409375
_symmetry_space_group_name_H-M "C 2/M"
_symmetry_group_IT_number 12
_symmetry_cell_setting 'monoclinic'
loop_
_space_group_symop_operation_xyz
x,y,z
-x,y,-z
-x,-y,-z
x,-y,z
1/2+x,1/2+y,z
1/2-x,1/2+y,-z
1/2-x,1/2-y,-z
1/2+x,1/2-y,z
loop_
_atom_site_type_symbol
_atom_site_label
_atom_site_fract_x
_atom_site_fract_y
_atom_site_fract_z
Si Si1 0.695260 0.591662 0.740275
Si Si2 0.096987 0.801823 0.713980
Si Si3 0.006101 0.096148 0.308695
Si Si4 0.500000 0.162258 0.500000
Si Si5 0.287902 0.094587 0.232868
Si Si6 0.227549 0.792457 0.164039
O O1 0.726586 0.500000 0.670891
O O2 0.699966 0.659188 0.669245
O O3 0.848132 0.606484 0.631138
O O4 0.500000 0.598766 0.000000
O O5 0.250000 0.750000 0.500000
O O6 0.023187 0.875510 0.744071
O O7 0.935167 0.739264 0.920403
O O8 0.817525 0.109744 0.569163
O O9 0.170190 0.152778 0.156668
O O10 0.066503 0.000000 0.241074
O O11 0.592734 0.214997 0.327955
O O12 0.198593 0.151345 0.270526
O O13 0.267383 0.000000 0.229354
O O14 0.500000 0.119964 0.000000
#
# Coordination Sequence:
#
# PCOD8107679 Si02
#       6
#     8   8   8   4   8   8
#     4  11  25  47  71  98 132 178 227 278 331 396
#     4  12  26  43  67  96 136 178 220 273 338 397
#     4  11  23  42  63  96 138 176 214 268 339 403
#     4  12  23  42  73 104 128 164 232 284 329 382
#     4  10  21  37  63  93 128 174 220 267 322 387
#     4  12  23  40  67  98 133 168 228 272 328 387
#
# _framework density 21.221087000000001
#
# number of rings (size 3 to 8) (size 9 to 14) (size 15 to 20)
#    0.000    0.727    3.636    4.091    2.545    1.455 
#    0.000    4.545    0.000    0.000    0.000    0.000 
#    0.000    0.000    0.000    0.000    0.000    0.000 
#
# Total GULP energy -272910.175983 kJ/mol
# GULP energy per Si atom -12405.007999 kJ/mol
# Density = 2.117279 g / cm^3
# Si number density = 21.221087 Si / 1000 Ang^3
#
#
#
# Elastic Constant Matrix: (Units=GPa)
#
#
# Indices 1 2 3 4 5 6 
#
# 1 118.4844 49.9338 25.8205 -0.1830 -16.4453 0.0987
# 2 49.9338 112.0062 45.3976 -0.3800 -6.9627 0.2225
# 3 25.8205 45.3976 99.3588 -0.0911 -15.5646 0.0242
# 4 -0.1830 -0.3800 -0.0911 -107.5345 0.0511 91.2726
# 5 -16.4453 -6.9627 -15.5646 0.0511 31.3229 0.0035
# 6 0.0987 0.2225 0.0242 91.2726 0.0035 -20.5199
#
#
#
# Elastic Compliance Matrix: (Units=1/GPa)
#
#
# Indices 1 2 3 4 5 6 
#
# 1 0.011054 -0.004627 -0.000011 -0.000001 0.004770 -0.000001
# 2 -0.004627 0.012894 -0.005010 -0.000022 -0.002053 0.000015
# 3 -0.000011 -0.005010 0.013210 0.000008 0.005444 -0.000001
# 4 -0.000001 -0.000022 0.000008 0.003351 -0.000008 0.014904
# 5 0.004770 -0.002053 0.005444 -0.000008 0.036679 -0.000024
# 6 -0.000001 0.000015 -0.000001 0.014904 -0.000024 0.017559
#
#
# Mechanical properties :
#
#
# Convention : Reuss Voigt Hill
#
# Bulk Modulus (GPa) = 55.99072 63.57256 59.78164
# Shear Modulus (GPa) = 41.66727 -5.43313 18.11707
#
# Velocity S-wave (km/s) = 4.43593 -1.60181 2.92504
# Velocity P-wave (km/s) = 7.25799 5.15764 6.29601
#
# Compressibility (1/GPa) = 0.01786010
#
# Stress axis : x y z
#
# Youngs Moduli (GPa) = 90.46117 77.55545 75.70213
#
# Poissons Ratio (x) = 0.35886 0.00086
# Poissons Ratio (y) = 0.41857 0.37931
# Poissons Ratio (z) = 0.00103 0.38859
#
# Static dielectric constant tensor:
#      x y z
#    x 3.780480 -0.000120 0.117530 
#    y -0.000120 4.028800 0.000210 
#    z 0.117530 0.000210 3.678600 
# 
# 
# High freq. dielectric constant tensor:
#      x y z
#    x 1.831300 -0.000010 -0.006530 
#    y -0.000010 1.845770 0.000010 
#    z -0.006530 0.000010 1.835880 
# 
# From -- ./inp_files/285118.got.cif
#   From: 2010.06.25/outbox.cif.g09.slc.cpg/sg12_143_cif.got.tgz:285118.got - 2010.06.28 00:19:55.
