data_PCOD8107129
_publ_section_title
;
Structure prediction by ZEFSAII (Michael W. Deem and Ramdas Pophale) SiO2 
 PCOD8107129
Probable space group: C 2/M
;
_chemical_formula_sum "Si O2"
_cell_formula_units_Z 48
_cell_length_a 17.755876
_cell_length_b 8.824955
_cell_length_c 15.471875
_cell_angle_alpha 90.000000
_cell_angle_beta 90.462250
_cell_angle_gamma 90.000000
_cell_volume 2424.283563
_symmetry_space_group_name_H-M "C 2/M"
_symmetry_group_IT_number 12
_symmetry_cell_setting 'monoclinic'
loop_
_space_group_symop_operation_xyz
x,y,z
-x,y,-z
-x,-y,-z
x,-y,z
1/2+x,1/2+y,z
1/2-x,1/2+y,-z
1/2-x,1/2-y,-z
1/2+x,1/2-y,z
loop_
_atom_site_type_symbol
_atom_site_label
_atom_site_fract_x
_atom_site_fract_y
_atom_site_fract_z
Si Si1 0.958952 0.819830 0.914182
Si Si2 0.793658 0.679116 0.256775
Si Si3 0.962449 0.326811 0.588665
Si Si4 0.956251 0.178451 0.255392
Si Si5 0.211532 0.820589 0.082386
Si Si6 0.285405 0.174079 0.583462
O O1 0.873640 0.758233 0.910432
O O2 0.003946 0.760230 0.831159
O O3 0.958424 0.000000 0.914775
O O4 0.000000 0.755786 0.000000
O O5 0.794712 0.500000 0.264825
O O6 0.877448 0.739541 0.266505
O O7 0.758100 0.733153 0.166135
O O8 0.741856 0.743164 0.331336
O O9 0.985119 0.500000 0.610512
O O10 0.874134 0.308017 0.577512
O O11 0.000000 0.273439 0.500000
O O12 0.990349 0.216958 0.664156
O O13 0.942652 0.000000 0.250802
O O14 0.211775 0.000000 0.072621
O O15 0.250000 0.750000 0.000000
O O16 0.250000 0.250000 0.500000
O O17 0.260094 0.000000 0.586842
#
# Coordination Sequence:
#
# PCOD8107129 Si02
#       6
#     8   8   8   8   8   8
#     4   9  18  34  56  82 113 147 185 233 287 343
#     4  11  23  39  58  83 120 159 196 243 295 347
#     4  10  22  40  60  84 117 153 186 231 293 348
#     4  11  22  37  61  88 113 149 197 243 290 348
#     4  10  21  37  58  84 115 153 194 240 295 350
#     4  11  23  39  62  90 120 156 196 239 289 348
#
# _framework density 19.799664
#
# number of rings (size 3 to 8) (size 9 to 14) (size 15 to 20)
#    0.000    1.667    0.000    4.500    0.000    7.000 
#    0.000    1.667    0.000    4.500    0.000    0.000 
#    0.000    0.000    0.000    0.000    0.000    0.000 
#
# Total GULP energy -297727.832194 kJ/mol
# GULP energy per Si atom -12405.326341 kJ/mol
# Density = 1.975460 g / cm^3
# Si number density = 19.799664 Si / 1000 Ang^3
#
#
#
# Elastic Constant Matrix: (Units=GPa)
#
#
# Indices 1 2 3 4 5 6 
#
# 1 94.3433 29.0706 45.7366 0.0000 -4.4418 0.0000
# 2 29.0706 61.6109 46.9128 0.0000 1.8095 0.0000
# 3 45.7366 46.9128 167.0986 0.0000 -6.8211 0.0000
# 4 0.0000 0.0000 0.0000 33.2255 0.0000 -5.0303
# 5 -4.4418 1.8095 -6.8211 0.0000 45.7163 0.0000
# 6 0.0000 0.0000 0.0000 -5.0303 0.0000 22.9565
#
#
#
# Elastic Compliance Matrix: (Units=1/GPa)
#
#
# Indices 1 2 3 4 5 6 
#
# 1 0.013147 -0.004491 -0.002292 0.000000 0.001113 0.000000
# 2 -0.004491 0.022309 -0.005119 0.000000 -0.002083 0.000000
# 3 -0.002292 -0.005119 0.008098 0.000000 0.001188 0.000000
# 4 0.000000 0.000000 0.000000 0.031130 0.000000 0.006821
# 5 0.001113 -0.002083 0.001188 0.000000 0.022242 0.000000
# 6 0.000000 0.000000 0.000000 0.006821 0.000000 0.045055
#
#
# Mechanical properties :
#
#
# Convention : Reuss Voigt Hill
#
# Bulk Modulus (GPa) = 50.63431 62.94366 56.78899
# Shear Modulus (GPa) = 29.00774 33.80185 31.40480
#
# Velocity S-wave (km/s) = 3.83177 4.13630 3.98694
# Velocity P-wave (km/s) = 6.72350 7.39400 7.06671
#
# Compressibility (1/GPa) = 0.01974945
#
# Stress axis : x y z
#
# Youngs Moduli (GPa) = 76.06306 44.82538 123.49332
#
# Poissons Ratio (x) = 0.20129 0.28309
# Poissons Ratio (y) = 0.34156 0.63217
# Poissons Ratio (z) = 0.17436 0.22947
#
# Static dielectric constant tensor:
#      x y z
#    x 3.849280 0.000000 -0.028090 
#    y 0.000000 3.520920 0.000000 
#    z -0.028090 0.000000 3.782360 
# 
# 
# High freq. dielectric constant tensor:
#      x y z
#    x 1.791870 0.000000 -0.001680 
#    y 0.000000 1.757800 0.000000 
#    z -0.001680 0.000000 1.791290 
# 
# From -- ./inp_files/221651.got.cif
#   From: 2010.06.25/outbox.cif.g09.slc.cpg/sg12_111_cif.got.tgz:221651.got - 2010.06.28 00:19:55.
