data_PCOD8107908
_publ_section_title
;
Structure prediction by ZEFSAII (Michael W. Deem and Ramdas Pophale) SiO2 
 PCOD8107908
Probable space group: C 2/M
;
_chemical_formula_sum "Si O2"
_cell_formula_units_Z 52
_cell_length_a 21.659874
_cell_length_b 14.304247
_cell_length_c 10.865815
_cell_angle_alpha 90.000000
_cell_angle_beta 127.429306
_cell_angle_gamma 90.000000
_cell_volume 2673.379023
_symmetry_space_group_name_H-M "C 2/M"
_symmetry_group_IT_number 12
_symmetry_cell_setting 'monoclinic'
loop_
_space_group_symop_operation_xyz
x,y,z
-x,y,-z
-x,-y,-z
x,-y,z
1/2+x,1/2+y,z
1/2-x,1/2+y,-z
1/2-x,1/2-y,-z
1/2+x,1/2-y,z
loop_
_atom_site_type_symbol
_atom_site_label
_atom_site_fract_x
_atom_site_fract_y
_atom_site_fract_z
Si Si1 0.791677 0.892379 0.320248
Si Si2 0.000000 0.333623 0.000000
Si Si3 0.562277 0.761378 0.831864
Si Si4 0.895473 0.271984 0.520582
Si Si5 0.853125 0.395935 0.691676
Si Si6 0.648587 0.108930 0.767022
Si Si7 0.813338 0.893405 0.065974
O O1 0.859211 0.830009 0.460096
O O2 0.710393 0.865641 0.285043
O O3 0.782785 0.870138 0.165506
O O4 0.814206 0.000000 0.371151
O O5 0.062815 0.398607 0.142503
O O6 0.958282 0.267792 0.049490
O O7 0.485538 0.754098 0.655710
O O8 0.609322 0.852909 0.844471
O O9 0.613179 0.668825 0.878275
O O10 0.851091 0.323357 0.577756
O O11 0.886534 0.335254 0.389494
O O12 0.836140 0.500000 0.619942
O O13 0.627951 0.000000 0.729719
O O14 0.741464 0.125370 0.886636
O O15 0.841472 0.000000 0.090265
#
# Coordination Sequence:
#
# PCOD8107908 Si02
#       7
#     8   4   8   8   8   8   8
#     4  10  21  38  61  87 115 155 203 243 286 346
#     4  10  23  36  61  86 114 158 195 240 297 348
#     4  11  23  40  59  87 120 155 197 246 296 353
#     4  11  23  37  59  88 124 159 191 241 302 350
#     4  10  21  38  58  87 121 154 195 240 291 354
#     4  11  23  38  61  91 120 155 195 243 301 357
#     4  10  22  40  64  88 115 157 204 246 291 346
#
# _framework density 19.451039999999999
#
# number of rings (size 3 to 8) (size 9 to 14) (size 15 to 20)
#    0.000    1.538    1.538    3.000    2.154    6.154 
#    0.000    1.923    0.000    0.000    0.000    0.000 
#    0.000    0.000    0.000    0.000    0.000    0.000 
#
# Total GULP energy -322486.973627 kJ/mol
# GULP energy per Si atom -12403.345140 kJ/mol
# Density = 1.940677 g / cm^3
# Si number density = 19.451040 Si / 1000 Ang^3
#
#
#
# Elastic Constant Matrix: (Units=GPa)
#
#
# Indices 1 2 3 4 5 6 
#
# 1 127.3373 54.7248 36.4186 0.0000 -6.7977 0.0000
# 2 54.7248 83.8035 35.2090 0.0000 0.0264 0.0000
# 3 36.4186 35.2090 83.1778 0.0000 -4.4216 0.0000
# 4 0.0000 0.0000 0.0000 25.7513 0.0000 3.1543
# 5 -6.7977 0.0264 -4.4216 0.0000 33.1861 0.0000
# 6 0.0000 0.0000 0.0000 3.1543 0.0000 24.7545
#
#
#
# Elastic Compliance Matrix: (Units=1/GPa)
#
#
# Indices 1 2 3 4 5 6 
#
# 1 0.011378 -0.006548 -0.002101 0.000000 0.002056 0.000000
# 2 -0.006548 0.018305 -0.004989 0.000000 -0.002021 0.000000
# 3 -0.002101 -0.004989 0.015139 0.000000 0.001591 0.000000
# 4 0.000000 0.000000 0.000000 0.039449 0.000000 -0.005027
# 5 0.002056 -0.002021 0.001591 0.000000 0.030768 0.000000
# 6 0.000000 0.000000 0.000000 -0.005027 0.000000 0.041037
#
#
# Mechanical properties :
#
#
# Convention : Reuss Voigt Hill
#
# Bulk Modulus (GPa) = 56.99169 60.78039 58.88604
# Shear Modulus (GPa) = 26.42714 27.93611 27.18163
#
# Velocity S-wave (km/s) = 3.68998 3.79387 3.74229
# Velocity P-wave (km/s) = 6.89335 7.10683 7.00090
#
# Compressibility (1/GPa) = 0.01754642
#
# Stress axis : x y z
#
# Youngs Moduli (GPa) = 87.89092 54.62910 66.05633
#
# Poissons Ratio (x) = 0.35771 0.13876
# Poissons Ratio (y) = 0.57550 0.32956
# Poissons Ratio (z) = 0.18463 0.27255
#
# Static dielectric constant tensor:
#      x y z
#    x 3.647930 0.000000 -0.040030 
#    y 0.000000 3.537190 0.000000 
#    z -0.040030 0.000000 3.558480 
# 
# 
# High freq. dielectric constant tensor:
#      x y z
#    x 1.763230 0.000000 0.001260 
#    y 0.000000 1.758920 0.000000 
#    z 0.001260 0.000000 1.760800 
# 
# From -- ./inp_files/167367.got.cif
#   From: 2010.06.25/outbox.cif.g09.slc.cpg/sg12_84_cif.got.tgz:167367.got - 2010.06.28 00:19:55.
