data_PCOD8107305
_publ_section_title
;
Structure prediction by ZEFSAII (Michael W. Deem and Ramdas Pophale) SiO2 
 PCOD8107305
Probable space group: C 2/M
;
_chemical_formula_sum "Si O2"
_cell_formula_units_Z 48
_cell_length_a 29.689626
_cell_length_b 8.644260
_cell_length_c 9.457858
_cell_angle_alpha 90.000000
_cell_angle_beta 82.455492
_cell_angle_gamma 90.000000
_cell_volume 2406.297695
_symmetry_space_group_name_H-M "C 2/M"
_symmetry_group_IT_number 12
_symmetry_cell_setting 'monoclinic'
loop_
_space_group_symop_operation_xyz
x,y,z
-x,y,-z
-x,-y,-z
x,-y,z
1/2+x,1/2+y,z
1/2-x,1/2+y,-z
1/2-x,1/2-y,-z
1/2+x,1/2-y,z
loop_
_atom_site_type_symbol
_atom_site_label
_atom_site_fract_x
_atom_site_fract_y
_atom_site_fract_z
Si Si1 0.035132 0.831128 0.607933
Si Si2 0.708365 0.183897 0.604280
Si Si3 0.628226 0.684649 0.455263
Si Si4 0.026821 0.819588 0.130984
Si Si5 0.876352 0.682255 0.850209
Si Si6 0.791383 0.682365 0.071166
O O1 0.080061 0.746889 0.530979
O O2 0.000000 0.855199 0.500000
O O3 0.007714 0.741293 0.741587
O O4 0.050196 0.000000 0.660931
O O5 0.750000 0.250000 0.500000
O O6 0.663713 0.250208 0.551212
O O7 0.710303 0.241939 0.766087
O O8 0.708499 0.000000 0.596047
O O9 0.629268 0.500000 0.451141
O O10 0.637102 0.742437 0.293358
O O11 0.074985 0.735076 0.111244
O O12 0.035878 0.000000 0.162433
O O13 0.000000 0.793975 0.000000
O O14 0.876554 0.500000 0.829230
O O15 0.838813 0.734746 0.980451
O O16 0.786537 0.500000 0.070138
O O17 0.750000 0.750000 0.000000
#
# Coordination Sequence:
#
# PCOD8107305 Si02
#       6
#     8   8   8   8   8   8
#     4   9  17  34  57  84 118 154 197 246 291 340
#     4  11  24  43  64  91 122 153 195 245 299 357
#     4  11  22  38  63  91 121 158 201 248 297 350
#     4  10  21  37  59  86 118 158 205 250 293 349
#     4  11  23  40  60  87 123 161 199 244 299 355
#     4  10  24  43  63  87 120 156 194 241 294 355
#
# _framework density 19.947657
#
# number of rings (size 3 to 8) (size 9 to 14) (size 15 to 20)
#    0.000    1.667    1.667    2.500    2.333    5.667 
#    0.000    2.500    0.000    0.000    0.000    0.000 
#    0.000    0.000    0.000    0.000    0.000    0.000 
#
# Total GULP energy -297514.136463 kJ/mol
# GULP energy per Si atom -12396.422353 kJ/mol
# Density = 1.990226 g / cm^3
# Si number density = 19.947657 Si / 1000 Ang^3
#
#
#
# Elastic Constant Matrix: (Units=GPa)
#
#
# Indices 1 2 3 4 5 6 
#
# 1 169.7078 44.3237 98.7857 0.0000 -11.1915 0.0000
# 2 44.3237 59.4270 44.2355 0.0000 -3.2675 0.0000
# 3 98.7857 44.2355 181.0252 0.0000 -14.9508 0.0000
# 4 0.0000 0.0000 0.0000 29.9912 0.0000 6.8245
# 5 -11.1915 -3.2675 -14.9508 0.0000 45.0662 0.0000
# 6 0.0000 0.0000 0.0000 6.8245 0.0000 40.0931
#
#
#
# Elastic Compliance Matrix: (Units=1/GPa)
#
#
# Indices 1 2 3 4 5 6 
#
# 1 0.009329 -0.003879 -0.004087 0.000000 0.000680 0.000000
# 2 -0.003879 0.022183 -0.003342 0.000000 -0.000464 0.000000
# 3 -0.004087 -0.003342 0.008706 0.000000 0.001631 0.000000
# 4 0.000000 0.000000 0.000000 0.034687 0.000000 -0.005904
# 5 0.000680 -0.000464 0.001631 0.000000 0.022866 0.000000
# 6 0.000000 0.000000 0.000000 -0.005904 0.000000 0.025947
#
#
# Mechanical properties :
#
#
# Convention : Reuss Voigt Hill
#
# Bulk Modulus (GPa) = 56.81247 87.20555 72.00901
# Shear Modulus (GPa) = 32.85135 37.88443 35.36789
#
# Velocity S-wave (km/s) = 4.06258 4.36270 4.21531
# Velocity P-wave (km/s) = 7.10976 8.31803 7.73751
#
# Compressibility (1/GPa) = 0.01760177
#
# Stress axis : x y z
#
# Youngs Moduli (GPa) = 107.18782 45.08027 114.86494
#
# Poissons Ratio (x) = 0.17485 0.46947
# Poissons Ratio (y) = 0.41574 0.38391
# Poissons Ratio (z) = 0.43809 0.15067
#
# Static dielectric constant tensor:
#      x y z
#    x 3.808070 0.000000 -0.195180 
#    y 0.000000 3.530220 0.000000 
#    z -0.195180 0.000000 3.917900 
# 
# 
# High freq. dielectric constant tensor:
#      x y z
#    x 1.796180 0.000000 -0.007220 
#    y 0.000000 1.756850 0.000000 
#    z -0.007220 0.000000 1.796570 
# 
# From -- ./inp_files/108727.got.cif
#   From: 2010.06.25/outbox.cif.g09.slc.cpg/sg12_55_cif.got.tgz:108727.got - 2010.06.28 00:19:55.
