data_PCOD8107479
_publ_section_title
;
Structure prediction by ZEFSAII (Michael W. Deem and Ramdas Pophale) SiO2 
 PCOD8107479
Probable space group: C 2/M
;
_chemical_formula_sum "Si O2"
_cell_formula_units_Z 64
_cell_length_a 24.601099
_cell_length_b 8.855678
_cell_length_c 14.855215
_cell_angle_alpha 90.000000
_cell_angle_beta 91.826028
_cell_angle_gamma 90.000000
_cell_volume 3234.704937
_symmetry_space_group_name_H-M "C 2/M"
_symmetry_group_IT_number 12
_symmetry_cell_setting 'monoclinic'
loop_
_space_group_symop_operation_xyz
x,y,z
-x,y,-z
-x,-y,-z
x,-y,z
1/2+x,1/2+y,z
1/2-x,1/2+y,-z
1/2-x,1/2-y,-z
1/2+x,1/2-y,z
loop_
_atom_site_type_symbol
_atom_site_label
_atom_site_fract_x
_atom_site_fract_y
_atom_site_fract_z
Si Si1 0.759688 0.676481 0.633660
Si Si2 0.558874 0.676273 0.764496
Si Si3 0.730506 0.325521 0.182032
Si Si4 0.371754 0.676419 0.942522
Si Si5 0.849932 0.677174 0.128655
Si Si6 0.521642 0.823091 0.100260
Si Si7 0.447713 0.324119 0.442560
Si Si8 0.666061 0.177266 0.528138
O O1 0.748820 0.500000 0.631661
O O2 0.782110 0.726893 0.731186
O O3 0.701812 0.755593 0.611545
O O4 0.805215 0.724310 0.563758
O O5 0.569177 0.500000 0.781674
O O6 0.614605 0.767463 0.784937
O O7 0.511926 0.733870 0.827234
O O8 0.541409 0.709657 0.661507
O O9 0.729764 0.500000 0.210618
O O10 0.686140 0.287805 0.104643
O O11 0.787831 0.279238 0.142299
O O12 0.385713 0.500000 0.942201
O O13 0.416633 0.766417 0.887912
O O14 0.372075 0.734625 0.043931
O O15 0.858385 0.500000 0.113065
O O16 0.517659 0.000000 0.120405
O O17 0.500000 0.783148 0.000000
O O18 0.500000 0.263840 0.500000
O O19 0.438436 0.500000 0.460435
O O20 0.394578 0.240124 0.475805
O O21 0.663635 0.000000 0.541643
#
# Coordination Sequence:
#
# PCOD8107479 Si02
#       8
#     8   8   8   8   8   8   8   8
#     4  10  21  37  60  89 118 154 198 242 292 352
#     4  11  23  39  63  91 117 154 201 246 296 354
#     4  10  23  39  57  86 122 157 194 239 295 352
#     4  11  23  39  60  86 117 156 198 242 293 351
#     4  11  22  38  59  85 119 155 195 243 293 349
#     4  11  23  40  62  87 117 154 197 247 298 348
#     4  10  23  42  62  88 122 158 198 246 300 357
#     4  10  21  38  61  88 118 154 197 245 296 349
#
# _framework density 19.785420999999999
#
# number of rings (size 3 to 8) (size 9 to 14) (size 15 to 20)
#    0.000    1.500    1.250    3.375    0.000    8.250 
#    0.000    3.750    0.000    0.000    0.000    0.000 
#    0.000    0.000    0.000    0.000    0.000    0.000 
#
# Total GULP energy -397010.528813 kJ/mol
# GULP energy per Si atom -12406.579025 kJ/mol
# Density = 1.974039 g / cm^3
# Si number density = 19.785421 Si / 1000 Ang^3
#
#
#
# Elastic Constant Matrix: (Units=GPa)
#
#
# Indices 1 2 3 4 5 6 
#
# 1 131.7345 33.9163 45.6717 0.0000 -2.0704 0.0000
# 2 33.9163 40.0603 32.0816 0.0000 -2.5614 0.0000
# 3 45.6717 32.0816 88.2392 0.0000 6.5104 0.0000
# 4 0.0000 0.0000 0.0000 31.8336 0.0000 -0.8577
# 5 -2.0704 -2.5614 6.5104 0.0000 28.8784 0.0000
# 6 0.0000 0.0000 0.0000 -0.8577 0.0000 37.0503
#
#
#
# Elastic Compliance Matrix: (Units=1/GPa)
#
#
# Indices 1 2 3 4 5 6 
#
# 1 0.010275 -0.006106 -0.003165 0.000000 0.000909 0.000000
# 2 -0.006106 0.039938 -0.011785 0.000000 0.005762 0.000000
# 3 -0.003165 -0.011785 0.017643 0.000000 -0.005250 0.000000
# 4 0.000000 0.000000 0.000000 0.031433 0.000000 0.000728
# 5 0.000909 0.005762 -0.005250 0.000000 0.036388 0.000000
# 6 0.000000 0.000000 0.000000 0.000728 0.000000 0.027007
#
#
# Mechanical properties :
#
#
# Convention : Reuss Voigt Hill
#
# Bulk Modulus (GPa) = 38.84485 53.70811 46.27648
# Shear Modulus (GPa) = 23.43260 29.44343 26.43802
#
# Velocity S-wave (km/s) = 3.44515 3.86182 3.65942
# Velocity P-wave (km/s) = 5.95828 6.86215 6.42613
#
# Compressibility (1/GPa) = 0.02574344
#
# Stress axis : x y z
#
# Youngs Moduli (GPa) = 97.32651 25.03859 56.67906
#
# Poissons Ratio (x) = 0.15289 0.17939
# Poissons Ratio (y) = 0.59428 0.66798
# Poissons Ratio (z) = 0.30805 0.29509
#
# Static dielectric constant tensor:
#      x y z
#    x 3.742030 0.000000 0.026440 
#    y 0.000000 3.621620 0.000000 
#    z 0.026440 0.000000 3.601630 
# 
# 
# High freq. dielectric constant tensor:
#      x y z
#    x 1.781000 0.000000 -0.003630 
#    y 0.000000 1.778950 0.000000 
#    z -0.003630 0.000000 1.772610 
# 
# From -- ./inp_files/238774.got.cif
#   From: 2010.06.25/outbox.cif.g09.slc.cpg/sg12_120_cif.got.tgz:238774.got - 2010.06.28 00:19:55.
