data_PCOD8107154
_publ_section_title
;
Structure prediction by ZEFSAII (Michael W. Deem and Ramdas Pophale) SiO2 
 PCOD8107154
Probable space group: C 2/M
;
_chemical_formula_sum "Si O2"
_cell_formula_units_Z 48
_cell_length_a 14.640209
_cell_length_b 18.056643
_cell_length_c 14.187379
_cell_angle_alpha 90.000000
_cell_angle_beta 137.622579
_cell_angle_gamma 90.000000
_cell_volume 2527.863700
_symmetry_space_group_name_H-M "C 2/M"
_symmetry_group_IT_number 12
_symmetry_cell_setting 'monoclinic'
loop_
_space_group_symop_operation_xyz
x,y,z
-x,y,-z
-x,-y,-z
x,-y,z
1/2+x,1/2+y,z
1/2-x,1/2+y,-z
1/2-x,1/2-y,-z
1/2+x,1/2-y,z
loop_
_atom_site_type_symbol
_atom_site_label
_atom_site_fract_x
_atom_site_fract_y
_atom_site_fract_z
Si Si1 0.849431 0.914963 0.913104
Si Si2 0.053614 0.782720 0.332136
Si Si3 0.607203 0.183593 0.655659
Si Si4 0.352842 0.914629 0.862980
Si Si5 0.757430 0.297833 0.649593
Si Si6 0.861997 0.916198 0.140676
O O1 0.729262 0.872554 0.768086
O O2 0.840178 0.000000 0.873710
O O3 0.818465 0.905358 0.999638
O O4 0.000000 0.884592 0.000000
O O5 0.112891 0.752113 0.278915
O O6 0.172616 0.811917 0.490499
O O7 0.968120 0.713421 0.308400
O O8 0.974223 0.857028 0.250766
O O9 0.500000 0.146684 0.500000
O O10 0.665316 0.257710 0.655210
O O11 0.298410 0.874997 0.727963
O O12 0.264988 0.900859 0.889197
O O13 0.359621 0.000000 0.839746
O O14 0.500000 0.882576 0.000000
O O15 0.917921 0.000000 0.198607
#
# Coordination Sequence:
#
# PCOD8107154 Si02
#       6
#     8   8   8   8   8   8
#     4  10  22  39  59  84 116 152 193 242 291 341
#     4  10  21  37  58  85 115 148 191 235 287 345
#     4  10  21  38  58  84 115 149 193 239 288 345
#     4  10  22  38  57  84 118 152 191 237 288 347
#     4  10  21  38  57  82 117 151 185 239 290 339
#     4  10  21  38  60  85 114 149 191 238 285 343
#
# _framework density 18.988365999999999
#
# number of rings (size 3 to 8) (size 9 to 14) (size 15 to 20)
#    0.000    2.000    1.667    1.000    2.333    3.667 
#    0.000    1.667    0.000    6.000    0.000    0.000 
#    0.000    0.000    0.000    0.000    0.000    0.000 
#
# Total GULP energy -297554.644098 kJ/mol
# GULP energy per Si atom -12398.110171 kJ/mol
# Density = 1.894515 g / cm^3
# Si number density = 18.988366 Si / 1000 Ang^3
#
#
#
# Elastic Constant Matrix: (Units=GPa)
#
#
# Indices 1 2 3 4 5 6 
#
# 1 97.7214 31.1064 38.9999 0.0000 6.7156 -0.0001
# 2 31.1064 80.8318 66.7472 0.0000 7.5578 0.0000
# 3 38.9999 66.7472 115.2372 -0.0001 13.1947 -0.0001
# 4 0.0000 0.0000 -0.0001 29.5913 -0.0001 5.9800
# 5 6.7156 7.5578 13.1947 -0.0001 30.1738 -0.0001
# 6 -0.0001 0.0000 -0.0001 5.9800 -0.0001 22.4837
#
#
#
# Elastic Compliance Matrix: (Units=1/GPa)
#
#
# Indices 1 2 3 4 5 6 
#
# 1 0.012103 -0.002446 -0.002570 0.000000 -0.000957 0.000000
# 2 -0.002446 0.024208 -0.013224 0.000000 0.000264 0.000000
# 3 -0.002570 -0.013224 0.017646 0.000000 -0.003832 0.000000
# 4 0.000000 0.000000 0.000000 0.035713 0.000000 -0.009499
# 5 -0.000957 0.000264 -0.003832 0.000000 0.034964 0.000000
# 6 0.000000 0.000000 0.000000 -0.009499 0.000000 0.047003
#
#
# Mechanical properties :
#
#
# Convention : Reuss Voigt Hill
#
# Bulk Modulus (GPa) = 57.21743 63.05527 60.13635
# Shear Modulus (GPa) = 23.37084 26.91222 25.14153
#
# Velocity S-wave (km/s) = 3.51208 3.76879 3.64270
# Velocity P-wave (km/s) = 6.82968 7.22619 7.03073
#
# Compressibility (1/GPa) = 0.01747719
#
# Stress axis : x y z
#
# Youngs Moduli (GPa) = 82.62314 41.30913 56.67151
#
# Poissons Ratio (x) = 0.10106 0.14562
# Poissons Ratio (y) = 0.20212 0.74941
# Poissons Ratio (z) = 0.21230 0.54626
#
# Static dielectric constant tensor:
#      x y z
#    x 3.754130 0.000000 0.088940 
#    y 0.000000 3.332580 0.000000 
#    z 0.088940 0.000000 3.527290 
# 
# 
# High freq. dielectric constant tensor:
#      x y z
#    x 1.758900 0.000000 0.004100 
#    y 0.000000 1.728140 0.000000 
#    z 0.004100 0.000000 1.732710 
# 
# From -- ./inp_files/106593.got.cif
#   From: 2010.06.25/outbox.cif.g09.slc.cpg/sg12_54_cif.got.tgz:106593.got - 2010.06.28 00:19:55.
