data_PCOD8107193
_publ_section_title
;
Structure prediction by ZEFSAII (Michael W. Deem and Ramdas Pophale) SiO2 
 PCOD8107193
Probable space group: C 2/M
;
_chemical_formula_sum "Si O2"
_cell_formula_units_Z 56
_cell_length_a 20.728499
_cell_length_b 8.831172
_cell_length_c 29.551056
_cell_angle_alpha 90.000000
_cell_angle_beta 150.514439
_cell_angle_gamma 90.000000
_cell_volume 2662.591402
_symmetry_space_group_name_H-M "C 2/M"
_symmetry_group_IT_number 12
_symmetry_cell_setting 'monoclinic'
loop_
_space_group_symop_operation_xyz
x,y,z
-x,y,-z
-x,-y,-z
x,-y,z
1/2+x,1/2+y,z
1/2-x,1/2+y,-z
1/2-x,1/2-y,-z
1/2+x,1/2-y,z
loop_
_atom_site_type_symbol
_atom_site_label
_atom_site_fract_x
_atom_site_fract_y
_atom_site_fract_z
Si Si1 0.375813 0.823302 0.693220
Si Si2 0.653524 0.322050 0.095459
Si Si3 0.380544 0.321673 0.599952
Si Si4 0.670882 0.166862 0.015929
Si Si5 0.148713 0.179900 0.715612
Si Si6 0.369485 0.320571 0.397965
Si Si7 0.937377 0.166617 0.127587
O O1 0.395799 0.724781 0.661022
O O2 0.245635 0.769023 0.639217
O O3 0.493620 0.789514 0.798888
O O4 0.372213 0.000000 0.678349
O O5 0.676373 0.500000 0.109009
O O6 0.718120 0.249657 0.090282
O O7 0.726693 0.253432 0.183469
O O8 0.500000 0.278902 0.000000
O O9 0.366259 0.500000 0.586967
O O10 0.250000 0.250000 0.500000
O O11 0.510406 0.266561 0.652693
O O12 0.791486 0.146268 0.056186
O O13 0.613037 0.000000 0.991948
O O14 0.562194 0.268114 0.923445
O O15 0.151778 0.240455 0.665881
O O16 0.163013 0.000000 0.727640
O O17 0.500000 0.251277 0.500000
O O18 0.379658 0.500000 0.401391
O O19 0.005831 0.000000 0.169134
#
# Coordination Sequence:
#
# PCOD8107193 Si02
#       7
#     8   8   8   8   8   8   8
#     4  11  22  36  60  91 120 154 200 248 302 367
#     4  11  25  41  58  86 124 164 204 255 315 367
#     4  11  23  40  64  93 124 160 204 257 317 374
#     4  10  21  38  60  84 113 155 203 245 293 356
#     4  10  22  41  65  91 121 164 214 258 304 369
#     4   9  19  38  62  88 119 156 201 251 299 356
#     4  10  21  37  58  86 120 153 191 247 304 357
#
# _framework density 21.032140999999999
#
# number of rings (size 3 to 8) (size 9 to 14) (size 15 to 20)
#    0.000    1.714    0.000    3.857    2.000    9.714 
#    0.000    0.714    0.000    3.000    0.000    0.000 
#    0.000    0.000    0.000    0.000    0.000    0.000 
#
# Total GULP energy -347224.718119 kJ/mol
# GULP energy per Si atom -12400.882790 kJ/mol
# Density = 2.098427 g / cm^3
# Si number density = 21.032141 Si / 1000 Ang^3
#
#
#
# Elastic Constant Matrix: (Units=GPa)
#
#
# Indices 1 2 3 4 5 6 
#
# 1 68.4820 26.5865 14.2256 -0.0001 -9.6841 0.0001
# 2 26.5865 70.9803 32.1105 -0.0001 3.2897 0.0004
# 3 14.2256 32.1105 106.3669 -0.0001 -14.2613 -0.0002
# 4 -0.0001 -0.0001 -0.0001 36.0689 0.0000 -3.8726
# 5 -9.6841 3.2897 -14.2613 0.0000 38.7273 0.0000
# 6 0.0001 0.0004 -0.0002 -3.8726 0.0000 27.4758
#
#
#
# Elastic Compliance Matrix: (Units=1/GPa)
#
#
# Indices 1 2 3 4 5 6 
#
# 1 0.018059 -0.007226 0.000478 0.000000 0.005305 0.000000
# 2 -0.007226 0.019636 -0.005709 0.000000 -0.005577 0.000000
# 3 0.000478 -0.005709 0.011721 0.000000 0.004921 0.000000
# 4 0.000000 0.000000 0.000000 0.028151 0.000000 0.003968
# 5 0.005305 -0.005577 0.004921 0.000000 0.029434 0.000000
# 6 0.000000 0.000000 0.000000 0.003968 0.000000 0.036955
#
#
# Mechanical properties :
#
#
# Convention : Reuss Voigt Hill
#
# Bulk Modulus (GPa) = 40.81566 43.51936 42.16751
# Shear Modulus (GPa) = 28.24256 31.98150 30.11203
#
# Velocity S-wave (km/s) = 3.66844 3.90372 3.78791
# Velocity P-wave (km/s) = 6.11488 6.40745 6.26287
#
# Compressibility (1/GPa) = 0.02450040
#
# Stress axis : x y z
#
# Youngs Moduli (GPa) = 55.37477 50.92612 85.31827
#
# Poissons Ratio (x) = 0.36799 -0.04075
# Poissons Ratio (y) = 0.40014 0.48710
# Poissons Ratio (z) = -0.02645 0.29075
#
# Static dielectric constant tensor:
#      x y z
#    x 3.989270 0.000000 -0.098000 
#    y 0.000000 3.907080 0.000000 
#    z -0.098000 0.000000 3.902850 
# 
# 
# High freq. dielectric constant tensor:
#      x y z
#    x 1.829520 0.000000 -0.010240 
#    y 0.000000 1.816120 0.000000 
#    z -0.010240 0.000000 1.830520 
# 
# From -- ./inp_files/380712.got.cif
#   From: 2010.06.25/outbox.cif.g09.slc.cpg/sg12_191_cif.got.tgz:380712.got - 2010.06.28 00:19:55.
