data_PCOD8107298
_publ_section_title
;
Structure prediction by ZEFSAII (Michael W. Deem and Ramdas Pophale) SiO2 
 PCOD8107298
Probable space group: C 2/M
;
_chemical_formula_sum "Si O2"
_cell_formula_units_Z 64
_cell_length_a 20.110663
_cell_length_b 8.542500
_cell_length_c 21.138561
_cell_angle_alpha 90.000000
_cell_angle_beta 115.907662
_cell_angle_gamma 90.000000
_cell_volume 3266.537539
_symmetry_space_group_name_H-M "C 2/M"
_symmetry_group_IT_number 12
_symmetry_cell_setting 'monoclinic'
loop_
_space_group_symop_operation_xyz
x,y,z
-x,y,-z
-x,-y,-z
x,-y,z
1/2+x,1/2+y,z
1/2-x,1/2+y,-z
1/2-x,1/2-y,-z
1/2+x,1/2-y,z
loop_
_atom_site_type_symbol
_atom_site_label
_atom_site_fract_x
_atom_site_fract_y
_atom_site_fract_z
Si Si1 0.999270 0.318018 0.725052
Si Si2 0.076827 0.315065 0.058283
Si Si3 0.168996 0.318386 0.790330
Si Si4 0.391899 0.814128 0.789630
Si Si5 0.230539 0.182693 0.690766
Si Si6 0.892331 0.682057 0.436660
Si Si7 0.729149 0.185043 0.059258
Si Si8 0.473201 0.318064 0.581461
O O1 0.984627 0.500000 0.705813
O O2 0.956011 0.258809 0.769004
O O3 0.967512 0.224052 0.652405
O O4 0.084702 0.283534 0.773963
O O5 0.068537 0.500000 0.061100
O O6 0.092595 0.243074 0.134349
O O7 0.143887 0.272630 0.038954
O O8 0.000000 0.243161 0.000000
O O9 0.180766 0.500000 0.778037
O O10 0.187985 0.212935 0.738292
O O11 0.219185 0.271763 0.869704
O O12 0.313587 0.751083 0.731254
O O13 0.387873 0.000000 0.793232
O O14 0.191219 0.272077 0.616296
O O15 0.229479 0.000000 0.675111
O O16 0.905935 0.500000 0.431831
O O17 0.909225 0.727406 0.516120
O O18 0.946514 0.773034 0.411623
O O19 0.742593 0.000000 0.068686
O O20 0.750000 0.250000 0.000000
O O21 0.459756 0.500000 0.565913
#
# Coordination Sequence:
#
# PCOD8107298 Si02
#       8
#     8   8   8   8   8   8   8   8
#     4  10  21  37  59  86 117 153 197 241 288 343
#     4   9  18  34  59  85 110 147 195 238 280 338
#     4  11  22  36  59  87 117 153 194 239 289 343
#     4   9  19  36  58  84 114 153 195 240 286 341
#     4  11  20  36  60  87 116 150 196 242 290 341
#     4  11  21  35  57  85 117 153 195 239 292 348
#     4  11  23  39  60  87 118 149 190 242 295 345
#     4  11  21  35  56  85 119 153 193 241 294 343
#
# _framework density 19.592611000000002
#
# number of rings (size 3 to 8) (size 9 to 14) (size 15 to 20)
#    0.000    1.625    2.500    4.125    1.750    0.500 
#    0.000    1.875    0.000    1.500    0.000    0.000 
#    0.000    0.000    0.000    0.000    0.000    0.000 
#
# Total GULP energy -396883.916357 kJ/mol
# GULP energy per Si atom -12402.622386 kJ/mol
# Density = 1.954802 g / cm^3
# Si number density = 19.592611 Si / 1000 Ang^3
#
#
#
# Elastic Constant Matrix: (Units=GPa)
#
#
# Indices 1 2 3 4 5 6 
#
# 1 124.2824 17.9995 52.5310 0.0000 11.4587 0.0000
# 2 17.9995 39.3854 15.2929 0.0000 1.6627 0.0000
# 3 52.5310 15.2929 127.0228 0.0000 21.7657 0.0000
# 4 0.0000 0.0000 0.0000 29.2573 0.0000 -1.4949
# 5 11.4587 1.6627 21.7657 0.0000 35.7864 0.0000
# 6 0.0000 0.0000 0.0000 -1.4949 0.0000 19.1726
#
#
#
# Elastic Compliance Matrix: (Units=1/GPa)
#
#
# Indices 1 2 3 4 5 6 
#
# 1 0.010133 -0.003173 -0.003659 0.000000 -0.000872 0.000000
# 2 -0.003173 0.027649 -0.002200 0.000000 0.001069 0.000000
# 3 -0.003659 -0.002200 0.010530 0.000000 -0.005131 0.000000
# 4 0.000000 0.000000 0.000000 0.034316 0.000000 0.002676
# 5 -0.000872 0.001069 -0.005131 0.000000 0.031293 0.000000
# 6 0.000000 0.000000 0.000000 0.002676 0.000000 0.052366
#
#
# Mechanical properties :
#
#
# Convention : Reuss Voigt Hill
#
# Bulk Modulus (GPa) = 33.06032 51.37081 42.21556
# Shear Modulus (GPa) = 25.71561 30.50108 28.10835
#
# Velocity S-wave (km/s) = 3.62680 3.94987 3.79177
# Velocity P-wave (km/s) = 5.86930 6.86136 6.38463
#
# Compressibility (1/GPa) = 0.03024774
#
# Stress axis : x y z
#
# Youngs Moduli (GPa) = 98.69038 36.16730 94.96864
#
# Poissons Ratio (x) = 0.11477 0.34750
# Poissons Ratio (y) = 0.31316 0.20891
# Poissons Ratio (z) = 0.36111 0.07956
#
# Static dielectric constant tensor:
#      x y z
#    x 3.588320 0.000000 0.115980 
#    y 0.000000 3.396160 0.000000 
#    z 0.115980 0.000000 3.858430 
# 
# 
# High freq. dielectric constant tensor:
#      x y z
#    x 1.752640 0.000000 0.009750 
#    y 0.000000 1.745970 0.000000 
#    z 0.009750 0.000000 1.778610 
# 
# From -- ./inp_files/320139.got.cif
#   From: 2010.06.25/outbox.cif.g09.slc.cpg/sg12_161_cif.got.tgz:320139.got - 2010.06.28 00:19:55.
