data_PCOD8107168
_publ_section_title
;
Structure prediction by ZEFSAII (Michael W. Deem and Ramdas Pophale) SiO2 
 PCOD8107168
Probable space group: C 2/M
;
_chemical_formula_sum "Si O2"
_cell_formula_units_Z 56
_cell_length_a 18.838262
_cell_length_b 9.427150
_cell_length_c 18.671577
_cell_angle_alpha 90.000000
_cell_angle_beta 60.062812
_cell_angle_gamma 90.000000
_cell_volume 2873.474942
_symmetry_space_group_name_H-M "C 2/M"
_symmetry_group_IT_number 12
_symmetry_cell_setting 'monoclinic'
loop_
_space_group_symop_operation_xyz
x,y,z
-x,y,-z
-x,-y,-z
x,-y,z
1/2+x,1/2+y,z
1/2-x,1/2+y,-z
1/2-x,1/2-y,-z
1/2+x,1/2-y,z
loop_
_atom_site_type_symbol
_atom_site_label
_atom_site_fract_x
_atom_site_fract_y
_atom_site_fract_z
Si Si1 0.802699 0.837732 0.685664
Si Si2 0.952723 0.661374 0.303670
Si Si3 0.820939 0.834622 0.004867
Si Si4 0.539205 0.162520 0.406013
Si Si5 0.724815 0.840903 0.579174
Si Si6 0.835548 0.165245 0.164169
Si Si7 0.992996 0.165689 0.851953
O O1 0.886001 0.756341 0.660067
O O2 0.794217 0.833160 0.604215
O O3 0.726577 0.761493 0.760675
O O4 0.807520 0.000000 0.710833
O O5 0.964500 0.500000 0.271884
O O6 0.859298 0.713758 0.342884
O O7 0.972845 0.677547 0.377162
O O8 0.007334 0.757772 0.224701
O O9 0.910274 0.785923 0.932945
O O10 0.806329 0.000000 0.997132
O O11 0.750000 0.750000 0.000000
O O12 0.819300 0.800942 0.089615
O O13 0.500000 0.219208 0.500000
O O14 0.568607 0.000000 0.401285
O O15 0.750000 0.750000 0.500000
O O16 0.711130 0.000000 0.557644
O O17 0.928611 0.207140 0.138721
O O18 0.819262 0.000000 0.189345
O O19 0.992435 0.000000 0.836802
#
# Coordination Sequence:
#
# PCOD8107168 Si02
#       7
#     8   8   8   8   8   8   8
#     4  11  23  38  59  88 122 154 194 250 299 345
#     4  10  21  38  59  85 118 154 196 243 291 348
#     4  10  23  41  62  91 122 154 195 240 290 349
#     4  10  22  40  61  83 115 162 205 243 294 356
#     4  10  21  37  58  85 116 152 194 243 292 343
#     4  10  21  40  64  87 117 159 200 238 289 355
#     4  10  21  39  63  89 117 154 197 242 289 344
#
# _framework density 19.488599000000001
#
# number of rings (size 3 to 8) (size 9 to 14) (size 15 to 20)
#    0.000    1.857    1.429    1.714    2.000    6.571 
#    0.000    0.000    0.000    2.571    0.000    0.000 
#    0.000    0.000    0.000    0.000    0.000    0.000 
#
# Total GULP energy -347246.643504 kJ/mol
# GULP energy per Si atom -12401.665839 kJ/mol
# Density = 1.944424 g / cm^3
# Si number density = 19.488599 Si / 1000 Ang^3
#
#
#
# Elastic Constant Matrix: (Units=GPa)
#
#
# Indices 1 2 3 4 5 6 
#
# 1 98.5840 41.9988 34.5405 0.0000 -6.0320 -0.0001
# 2 41.9988 74.9579 52.1954 -0.0002 -9.6191 -0.0002
# 3 34.5405 52.1954 104.8936 0.0000 -1.3858 0.0000
# 4 0.0000 -0.0002 0.0000 35.0045 0.0000 0.7068
# 5 -6.0320 -9.6191 -1.3858 0.0000 34.3147 0.0000
# 6 -0.0001 -0.0002 0.0000 0.7068 0.0000 30.3987
#
#
#
# Elastic Compliance Matrix: (Units=1/GPa)
#
#
# Indices 1 2 3 4 5 6 
#
# 1 0.013403 -0.006710 -0.001069 0.000000 0.000432 0.000000
# 2 -0.006710 0.024791 -0.010056 0.000000 0.005364 0.000000
# 3 -0.001069 -0.010056 0.014857 0.000000 -0.002407 0.000000
# 4 0.000000 0.000000 0.000000 0.028581 0.000000 -0.000665
# 5 0.000432 0.005364 -0.002407 0.000000 0.030624 0.000000
# 6 0.000000 0.000000 0.000000 -0.000665 0.000000 0.032912
#
#
# Mechanical properties :
#
#
# Convention : Reuss Voigt Hill
#
# Bulk Modulus (GPa) = 57.52983 59.54497 58.53740
# Shear Modulus (GPa) = 26.79077 29.92361 28.35719
#
# Velocity S-wave (km/s) = 3.71170 3.92272 3.81867
# Velocity P-wave (km/s) = 6.92480 7.15102 7.03882
#
# Compressibility (1/GPa) = 0.01738229
#
# Stress axis : x y z
#
# Youngs Moduli (GPa) = 74.60907 40.33765 67.30696
#
# Poissons Ratio (x) = 0.27067 0.07194
# Poissons Ratio (y) = 0.50063 0.67681
# Poissons Ratio (z) = 0.07975 0.40562
#
# Static dielectric constant tensor:
#      x y z
#    x 3.628090 0.000000 -0.062970 
#    y 0.000000 3.534340 0.000000 
#    z -0.062970 0.000000 3.308140 
# 
# 
# High freq. dielectric constant tensor:
#      x y z
#    x 1.768000 0.000000 0.001180 
#    y 0.000000 1.752770 0.000000 
#    z 0.001180 0.000000 1.763580 
# 
# From -- ./inp_files/275210.got.cif
#   From: 2010.06.25/outbox.cif.g09.slc.cpg/sg12_138_cif.got.tgz:275210.got - 2010.06.28 00:19:55.
