data_PCOD8107871
_publ_section_title
;
Structure prediction by ZEFSAII (Michael W. Deem and Ramdas Pophale) SiO2 
 PCOD8107871
Probable space group: C 2/M
;
_chemical_formula_sum "Si O2"
_cell_formula_units_Z 48
_cell_length_a 22.159089
_cell_length_b 9.216386
_cell_length_c 12.129968
_cell_angle_alpha 90.000000
_cell_angle_beta 108.591516
_cell_angle_gamma 90.000000
_cell_volume 2347.989110
_symmetry_space_group_name_H-M "C 2/M"
_symmetry_group_IT_number 12
_symmetry_cell_setting 'monoclinic'
loop_
_space_group_symop_operation_xyz
x,y,z
-x,y,-z
-x,-y,-z
x,-y,z
1/2+x,1/2+y,z
1/2-x,1/2+y,-z
1/2-x,1/2-y,-z
1/2+x,1/2-y,z
loop_
_atom_site_type_symbol
_atom_site_label
_atom_site_fract_x
_atom_site_fract_y
_atom_site_fract_z
Si Si1 0.158154 0.835390 0.468786
Si Si2 0.745032 0.832760 0.671022
Si Si3 0.953480 0.167555 0.740330
Si Si4 0.093445 0.834708 0.871426
Si Si5 0.770958 0.831908 0.121640
Si Si6 0.074086 0.661577 0.068593
O O1 0.197186 0.809979 0.379019
O O2 0.180308 0.727184 0.577194
O O3 0.083736 0.805212 0.396596
O O4 0.168245 0.000000 0.516909
O O5 0.760962 0.743030 0.790822
O O6 0.734279 0.000000 0.696029
O O7 0.915480 0.255541 0.811329
O O8 0.027657 0.215460 0.773230
O O9 0.948215 0.000000 0.771077
O O10 0.152118 0.817904 0.821516
O O11 0.086223 0.000000 0.907593
O O12 0.109829 0.740591 0.989137
O O13 0.750048 0.000000 0.103603
O O14 0.750000 0.750000 0.000000
O O15 0.102194 0.500000 0.095568
O O16 0.000000 0.659948 0.000000
#
# Coordination Sequence:
#
# PCOD8107871 Si02
#       6
#     8   8   8   8   8   8
#     4   9  19  36  60  85 109 140 182 229 275 324
#     4  10  21  38  58  83 113 144 182 227 274 327
#     4   9  17  32  55  80 106 140 182 228 273 320
#     4   9  19  35  53  75 106 144 185 225 269 324
#     4  11  24  40  58  80 110 149 189 227 273 330
#     4   9  17  28  45  74 110 142 174 218 270 320
#
# _framework density 20.443024000000001
#
# number of rings (size 3 to 8) (size 9 to 14) (size 15 to 20)
#    0.000    2.500    0.000    1.500    2.333    4.667 
#    0.000    0.833    0.000    5.000    0.000    0.000 
#    0.000    0.000    0.000    0.000    0.000    0.000 
#
# Total GULP energy -297560.508631 kJ/mol
# GULP energy per Si atom -12398.354526 kJ/mol
# Density = 2.039649 g / cm^3
# Si number density = 20.443024 Si / 1000 Ang^3
#
#
#
# Elastic Constant Matrix: (Units=GPa)
#
#
# Indices 1 2 3 4 5 6 
#
# 1 44.3561 13.9395 8.3071 0.0000 5.4595 0.0000
# 2 13.9395 113.7847 47.9263 0.0000 -0.9022 0.0000
# 3 8.3071 47.9263 88.3486 0.0000 7.5337 0.0000
# 4 0.0000 0.0000 0.0000 38.6657 0.0000 -1.5717
# 5 5.4595 -0.9022 7.5337 0.0000 27.8968 0.0000
# 6 0.0000 0.0000 0.0000 -1.5717 0.0000 20.4651
#
#
#
# Elastic Compliance Matrix: (Units=1/GPa)
#
#
# Indices 1 2 3 4 5 6 
#
# 1 0.024082 -0.002856 -0.000312 0.000000 -0.004721 0.000000
# 2 -0.002856 0.011850 -0.006387 0.000000 0.002667 0.000000
# 3 -0.000312 -0.006387 0.015175 0.000000 -0.004243 0.000000
# 4 0.000000 0.000000 0.000000 0.025944 0.000000 0.001992
# 5 -0.004721 0.002667 -0.004243 0.000000 0.038003 0.000000
# 6 0.000000 0.000000 0.000000 0.001992 0.000000 0.049017
#
#
# Mechanical properties :
#
#
# Convention : Reuss Voigt Hill
#
# Bulk Modulus (GPa) = 31.25441 42.98168 37.11805
# Shear Modulus (GPa) = 25.79372 29.15994 27.47683
#
# Velocity S-wave (km/s) = 3.55595 3.78087 3.67013
# Velocity P-wave (km/s) = 5.67287 6.33488 6.01299
#
# Compressibility (1/GPa) = 0.03199548
#
# Stress axis : x y z
#
# Youngs Moduli (GPa) = 41.52487 84.38974 65.89883
#
# Poissons Ratio (x) = 0.24102 0.02059
# Poissons Ratio (y) = 0.11860 0.42090
# Poissons Ratio (z) = 0.01297 0.53900
#
# Static dielectric constant tensor:
#      x y z
#    x 3.735830 0.000000 0.225670 
#    y 0.000000 3.828670 0.000000 
#    z 0.225670 0.000000 3.548350 
# 
# 
# High freq. dielectric constant tensor:
#      x y z
#    x 1.791080 0.000000 0.020120 
#    y 0.000000 1.799390 0.000000 
#    z 0.020120 0.000000 1.783110 
# 
# From -- ./inp_files/172930.got.cif
#   From: 2010.06.25/outbox.cif.g09.slc.cpg/sg12_87_cif.got.tgz:172930.got - 2010.06.28 00:19:55.
