data_PCOD8107979
_publ_section_title
;
Structure prediction by ZEFSAII (Michael W. Deem and Ramdas Pophale) SiO2 
 PCOD8107979
Probable space group: C 2/M
;
_chemical_formula_sum "Si O2"
_cell_formula_units_Z 48
_cell_length_a 25.084455
_cell_length_b 8.485524
_cell_length_c 11.732154
_cell_angle_alpha 90.000000
_cell_angle_beta 89.404821
_cell_angle_gamma 90.000000
_cell_volume 2497.109913
_symmetry_space_group_name_H-M "C 2/M"
_symmetry_group_IT_number 12
_symmetry_cell_setting 'monoclinic'
loop_
_space_group_symop_operation_xyz
x,y,z
-x,y,-z
-x,-y,-z
x,-y,z
1/2+x,1/2+y,z
1/2-x,1/2+y,-z
1/2-x,1/2-y,-z
1/2+x,1/2-y,z
loop_
_atom_site_type_symbol
_atom_site_label
_atom_site_fract_x
_atom_site_fract_y
_atom_site_fract_z
Si Si1 0.440420 0.313696 0.001893
Si Si2 0.900589 0.816371 0.759875
Si Si3 0.403995 0.683109 0.244531
Si Si4 0.696235 0.817419 0.359139
Si Si5 0.692928 0.182618 0.618980
Si Si6 0.502125 0.182474 0.368517
O O1 0.445795 0.500000 0.008794
O O2 0.408055 0.256514 0.113924
O O3 0.500000 0.239589 0.000000
O O4 0.408753 0.260133 0.890036
O O5 0.839928 0.783134 0.725974
O O6 0.938615 0.715843 0.677164
O O7 0.914174 0.000000 0.746576
O O8 0.388579 0.500000 0.253105
O O9 0.359462 0.786064 0.306994
O O10 0.461018 0.708685 0.301686
O O11 0.682396 0.765904 0.488759
O O12 0.757864 0.780600 0.330434
O O13 0.684640 0.000000 0.338490
O O14 0.708212 0.000000 0.623340
O O15 0.500000 0.230063 0.500000
O O16 0.487244 0.000000 0.351284
#
# Coordination Sequence:
#
# PCOD8107979 Si02
#       6
#     8   8   8   8   8   8
#     4   9  18  36  57  80 111 148 187 231 278 324
#     4  11  21  36  59  83 110 146 189 231 278 333
#     4  11  21  36  59  83 110 146 189 231 278 333
#     4  10  21  38  59  84 115 148 184 229 280 333
#     4  10  21  38  59  84 115 148 184 229 280 333
#     4  11  23  36  51  78 116 149 180 227 282 333
#
# _framework density 19.222221999999999
#
# number of rings (size 3 to 8) (size 9 to 14) (size 15 to 20)
#    0.000    1.667    1.667    3.500    0.000    7.333 
#    0.000    5.000    0.000    0.000    0.000    0.000 
#    0.000    0.000    0.000    0.000    0.000    0.000 
#
# Total GULP energy -297721.137054 kJ/mol
# GULP energy per Si atom -12405.047377 kJ/mol
# Density = 1.917847 g / cm^3
# Si number density = 19.222222 Si / 1000 Ang^3
#
#
#
# Elastic Constant Matrix: (Units=GPa)
#
#
# Indices 1 2 3 4 5 6 
#
# 1 89.9634 12.6604 34.5922 0.0000 18.2858 0.0000
# 2 12.6604 40.3654 31.4077 0.0000 1.5769 0.0000
# 3 34.5922 31.4077 104.0177 0.0000 24.5512 0.0000
# 4 0.0000 0.0000 0.0000 18.7427 0.0000 0.9447
# 5 18.2858 1.5769 24.5512 0.0000 25.3230 0.0000
# 6 0.0000 0.0000 0.0000 0.9447 0.0000 35.1382
#
#
#
# Elastic Compliance Matrix: (Units=1/GPa)
#
#
# Indices 1 2 3 4 5 6 
#
# 1 0.013837 -0.002488 -0.001982 0.000000 -0.007915 0.000000
# 2 -0.002488 0.034767 -0.012427 0.000000 0.011680 0.000000
# 3 -0.001982 -0.012427 0.017512 0.000000 -0.014773 0.000000
# 4 0.000000 0.000000 0.000000 0.053427 0.000000 -0.001436
# 5 -0.007915 0.011680 -0.014773 0.000000 0.058801 0.000000
# 6 0.000000 0.000000 0.000000 -0.001436 0.000000 0.028498
#
#
# Mechanical properties :
#
#
# Convention : Reuss Voigt Hill
#
# Bulk Modulus (GPa) = 30.93973 43.51858 37.22915
# Shear Modulus (GPa) = 19.88779 26.21985 23.05382
#
# Velocity S-wave (km/s) = 3.22005 3.69730 3.46689
# Velocity P-wave (km/s) = 5.47318 6.39652 5.95278
#
# Compressibility (1/GPa) = 0.03232090
#
# Stress axis : x y z
#
# Youngs Moduli (GPa) = 72.27144 28.76267 57.10308
#
# Poissons Ratio (x) = 0.07157 0.11318
# Poissons Ratio (y) = 0.17984 0.70963
# Poissons Ratio (z) = 0.14324 0.35744
#
# Static dielectric constant tensor:
#      x y z
#    x 3.360480 0.000000 0.002750 
#    y 0.000000 3.312650 0.000000 
#    z 0.002750 0.000000 3.654240 
# 
# 
# High freq. dielectric constant tensor:
#      x y z
#    x 1.745620 0.000000 0.002290 
#    y 0.000000 1.741580 0.000000 
#    z 0.002290 0.000000 1.747480 
# 
# From -- ./inp_files/172332.got.cif
#   From: 2010.06.25/outbox.cif.g09.slc.cpg/sg12_87_cif.got.tgz:172332.got - 2010.06.28 00:19:55.
