data_PCOD8107655
_publ_section_title
;
Structure prediction by ZEFSAII (Michael W. Deem and Ramdas Pophale) SiO2 
 PCOD8107655
Probable space group: C 2/M
;
_chemical_formula_sum "Si O2"
_cell_formula_units_Z 64
_cell_length_a 26.251635
_cell_length_b 19.858491
_cell_length_c 10.994112
_cell_angle_alpha 90.000000
_cell_angle_beta 148.806363
_cell_angle_gamma 90.000000
_cell_volume 2968.489480
_symmetry_space_group_name_H-M "C 2/M"
_symmetry_group_IT_number 12
_symmetry_cell_setting 'monoclinic'
loop_
_space_group_symop_operation_xyz
x,y,z
-x,y,-z
-x,-y,-z
x,-y,z
1/2+x,1/2+y,z
1/2-x,1/2+y,-z
1/2-x,1/2-y,-z
1/2+x,1/2-y,z
loop_
_atom_site_type_symbol
_atom_site_label
_atom_site_fract_x
_atom_site_fract_y
_atom_site_fract_z
Si Si1 0.724473 0.578158 0.837376
Si Si2 0.442557 0.685886 0.505381
Si Si3 0.372041 0.688339 0.946709
Si Si4 0.667019 0.805848 0.606392
Si Si5 0.613216 0.804855 0.220609
Si Si6 0.284980 0.074998 0.700951
Si Si7 0.097283 0.578143 0.620416
Si Si8 0.396728 0.574883 0.826777
O O1 0.693996 0.500000 0.770409
O O2 0.622583 0.618647 0.641996
O O3 0.784516 0.599131 0.839228
O O4 0.801932 0.592557 0.101913
O O5 0.500000 0.700194 0.500000
O O6 0.370522 0.747509 0.382856
O O7 0.520979 0.683749 0.774966
O O8 0.285281 0.693794 0.869576
O O9 0.363354 0.745837 0.826362
O O10 0.347915 0.617598 0.833481
O O11 0.654290 0.787908 0.438040
O O12 0.608560 0.874530 0.524075
O O13 0.654831 0.875148 0.259356
O O14 0.500000 0.816866 0.000000
O O15 0.171250 0.074086 0.430103
O O16 0.330933 0.000000 0.781802
O O17 0.089427 0.500000 0.563875
O O18 0.000000 0.597468 0.500000
O O19 0.414851 0.500000 0.915289
O O20 0.500000 0.608950 0.000000
#
# Coordination Sequence:
#
# PCOD8107655 Si02
#       8
#     8   8   8   8   8   8   8   8
#     4  10  23  45  71 100 135 174 217 270 330 391
#     4  12  27  44  67  97 131 174 225 274 326 390
#     4  12  25  42  67  95 132 176 216 272 331 395
#     4  12  26  43  67  96 133 173 221 276 327 389
#     4  12  25  42  66  96 132 175 218 269 332 392
#     4  10  22  40  65  98 132 168 213 268 328 393
#     4  10  24  46  72  99 132 175 222 272 328 388
#     4  10  21  37  62  95 130 170 214 262 321 392
#
# _framework density 21.559785999999999
#
# number of rings (size 3 to 8) (size 9 to 14) (size 15 to 20)
#    0.000    1.000    2.500    3.375    3.500    7.000 
#    0.000    0.000    0.000    0.000    0.000    0.000 
#    0.000    0.000    0.000    0.000    0.000    0.000 
#
# Total GULP energy -396805.504106 kJ/mol
# GULP energy per Si atom -12400.172003 kJ/mol
# Density = 2.151072 g / cm^3
# Si number density = 21.559786 Si / 1000 Ang^3
#
#
#
# Elastic Constant Matrix: (Units=GPa)
#
#
# Indices 1 2 3 4 5 6 
#
# 1 118.7205 59.6120 35.1753 0.0000 13.6384 0.0000
# 2 59.6120 103.5835 41.1118 0.0000 9.9049 0.0000
# 3 35.1753 41.1118 78.7601 0.0000 20.6503 0.0000
# 4 0.0000 0.0000 0.0000 31.1539 0.0000 4.0065
# 5 13.6384 9.9049 20.6503 0.0000 41.6707 0.0000
# 6 0.0000 0.0000 0.0000 4.0065 0.0000 40.6597
#
#
#
# Elastic Compliance Matrix: (Units=1/GPa)
#
#
# Indices 1 2 3 4 5 6 
#
# 1 0.012249 -0.006170 -0.001820 0.000000 -0.001641 0.000000
# 2 -0.006170 0.015288 -0.005518 0.000000 0.001120 0.000000
# 3 -0.001820 -0.005518 0.018263 0.000000 -0.007143 0.000000
# 4 0.000000 0.000000 0.000000 0.032511 0.000000 -0.003204
# 5 -0.001641 0.001120 -0.007143 0.000000 0.027808 0.000000
# 6 0.000000 0.000000 0.000000 -0.003204 0.000000 0.024910
#
#
# Mechanical properties :
#
#
# Convention : Reuss Voigt Hill
#
# Bulk Modulus (GPa) = 53.23750 63.65135 58.44442
# Shear Modulus (GPa) = 30.43110 33.70786 32.06948
#
# Velocity S-wave (km/s) = 3.76104 3.95835 3.86095
# Velocity P-wave (km/s) = 6.60357 7.10483 6.85878
#
# Compressibility (1/GPa) = 0.01878375
#
# Stress axis : x y z
#
# Youngs Moduli (GPa) = 81.64008 65.41101 54.75634
#
# Poissons Ratio (x) = 0.40359 0.09964
# Poissons Ratio (y) = 0.50373 0.30215
# Poissons Ratio (z) = 0.14856 0.36095
#
# Static dielectric constant tensor:
#      x y z
#    x 3.924460 0.000000 0.361670 
#    y 0.000000 4.060690 0.000000 
#    z 0.361670 0.000000 5.329260 
# 
# 
# High freq. dielectric constant tensor:
#      x y z
#    x 1.845430 0.000000 0.008120 
#    y 0.000000 1.854380 0.000000 
#    z 0.008120 0.000000 1.855900 
# 
# From -- ./inp_files/184739.got.cif
#   From: 2010.06.25/outbox.cif.g09.slc.cpg/sg12_93_cif.got.tgz:184739.got - 2010.06.28 00:19:55.
