data_PCOD8107704
_publ_section_title
;
Structure prediction by ZEFSAII (Michael W. Deem and Ramdas Pophale) SiO2 
 PCOD8107704
Probable space group: C 2/M
;
_chemical_formula_sum "Si O2"
_cell_formula_units_Z 40
_cell_length_a 12.539051
_cell_length_b 20.528049
_cell_length_c 11.959994
_cell_angle_alpha 90.000000
_cell_angle_beta 143.730917
_cell_angle_gamma 90.000000
_cell_volume 1821.190918
_symmetry_space_group_name_H-M "C 2/M"
_symmetry_group_IT_number 12
_symmetry_cell_setting 'monoclinic'
loop_
_space_group_symop_operation_xyz
x,y,z
-x,y,-z
-x,-y,-z
x,-y,z
1/2+x,1/2+y,z
1/2-x,1/2+y,-z
1/2-x,1/2-y,-z
1/2+x,1/2-y,z
loop_
_atom_site_type_symbol
_atom_site_label
_atom_site_fract_x
_atom_site_fract_y
_atom_site_fract_z
Si Si1 0.822971 0.425570 0.472327
Si Si2 0.668110 0.235608 0.220511
Si Si3 0.394317 0.306939 0.123896
Si Si4 0.410041 0.374043 0.529873
Si Si5 0.304656 0.859430 0.234934
O O1 0.886490 0.500000 0.519352
O O2 0.683062 0.419777 0.456715
O O3 0.735576 0.404680 0.279329
O O4 0.996275 0.379575 0.637143
O O5 0.589552 0.280175 0.253947
O O6 0.763129 0.174262 0.354765
O O7 0.807109 0.282638 0.271695
O O8 0.500000 0.213368 0.000000
O O9 0.420764 0.336507 0.269690
O O10 0.250000 0.250000 0.000000
O O11 0.331084 0.364575 0.985074
O O12 0.500000 0.412529 0.500000
#
# Coordination Sequence:
#
# PCOD8107704 Si02
#       5
#     8   8   8   8   8
#     4  11  25  44  67  90 126 178 227 268 312 374
#     4  10  21  37  64 102 132 158 202 271 337 391
#     4  11  22  36  61  99 140 167 199 260 338 402
#     4  12  25  39  63  95 134 175 211 260 326 395
#     4  10  21  40  67  94 125 159 218 273 329 370
#
# _framework density 21.963650000000001
#
# number of rings (size 3 to 8) (size 9 to 14) (size 15 to 20)
#    0.000    1.200    2.000    5.400    8.400    0.400 
#    0.000    3.000    0.000    4.200    0.000    0.000 
#    0.000    0.000    0.000    0.000    0.000    0.000 
#
# Total GULP energy -247864.084123 kJ/mol
# GULP energy per Si atom -12393.204206 kJ/mol
# Density = 2.191366 g / cm^3
# Si number density = 21.963650 Si / 1000 Ang^3
#
#
#
# Elastic Constant Matrix: (Units=GPa)
#
#
# Indices 1 2 3 4 5 6 
#
# 1 152.7208 19.7212 38.1960 0.0000 -12.3612 0.0000
# 2 19.7212 70.5428 39.1908 0.0000 4.7427 0.0000
# 3 38.1960 39.1908 110.0506 0.0000 -11.6937 0.0000
# 4 0.0000 0.0000 0.0000 13.2061 0.0000 0.0646
# 5 -12.3612 4.7427 -11.6937 0.0000 38.3495 0.0000
# 6 0.0000 0.0000 0.0000 0.0646 0.0000 22.4140
#
#
#
# Elastic Compliance Matrix: (Units=1/GPa)
#
#
# Indices 1 2 3 4 5 6 
#
# 1 0.007332 -0.001092 -0.001953 0.000000 0.001903 0.000000
# 2 -0.001092 0.018529 -0.006718 0.000000 -0.004692 0.000000
# 3 -0.001953 -0.006718 0.012586 0.000000 0.004039 0.000000
# 4 0.000000 0.000000 0.000000 0.075724 0.000000 -0.000218
# 5 0.001903 -0.004692 0.004039 0.000000 0.028501 0.000000
# 6 0.000000 0.000000 0.000000 -0.000218 0.000000 0.044616
#
#
# Mechanical properties :
#
#
# Convention : Reuss Voigt Hill
#
# Bulk Modulus (GPa) = 52.85592 58.61446 55.73519
# Shear Modulus (GPa) = 23.46090 30.54099 27.00094
#
# Velocity S-wave (km/s) = 3.27183 3.73302 3.51001
# Velocity P-wave (km/s) = 6.19601 6.73242 6.46978
#
# Compressibility (1/GPa) = 0.01891936
#
# Stress axis : x y z
#
# Youngs Moduli (GPa) = 136.39758 53.97021 79.45195
#
# Poissons Ratio (x) = 0.05895 0.15521
# Poissons Ratio (y) = 0.14898 0.53374
# Poissons Ratio (z) = 0.26645 0.36256
#
# Static dielectric constant tensor:
#      x y z
#    x 4.519020 0.000000 -0.362350 
#    y 0.000000 3.481060 0.000000 
#    z -0.362350 0.000000 4.147650 
# 
# 
# High freq. dielectric constant tensor:
#      x y z
#    x 1.889800 0.000000 -0.010640 
#    y 0.000000 1.810740 0.000000 
#    z -0.010640 0.000000 1.867750 
# 
# From -- ./inp_files/134161.got.cif
#   From: 2010.06.25/outbox.cif.g09.slc.cpg/sg12_68_cif.got.tgz:134161.got - 2010.06.28 00:19:55.
