data_PCOD8107811
_publ_section_title
;
Structure prediction by ZEFSAII (Michael W. Deem and Ramdas Pophale) SiO2 
 PCOD8107811
Probable space group: C 2/M
;
_chemical_formula_sum "Si O2"
_cell_formula_units_Z 60
_cell_length_a 18.380906
_cell_length_b 18.595150
_cell_length_c 10.945955
_cell_angle_alpha 90.000000
_cell_angle_beta 122.445580
_cell_angle_gamma 90.000000
_cell_volume 3157.271753
_symmetry_space_group_name_H-M "C 2/M"
_symmetry_group_IT_number 12
_symmetry_cell_setting 'monoclinic'
loop_
_space_group_symop_operation_xyz
x,y,z
-x,y,-z
-x,-y,-z
x,-y,z
1/2+x,1/2+y,z
1/2-x,1/2+y,-z
1/2-x,1/2-y,-z
1/2+x,1/2-y,z
loop_
_atom_site_type_symbol
_atom_site_label
_atom_site_fract_x
_atom_site_fract_y
_atom_site_fract_z
Si Si1 0.310916 0.582623 0.108316
Si Si2 0.821869 0.579289 0.368196
Si Si3 0.518196 0.217322 0.789801
Si Si4 0.621875 0.082528 0.850062
Si Si5 0.500000 0.306983 0.000000
Si Si6 0.370028 0.420836 0.894948
Si Si7 0.910123 0.808563 0.361694
Si Si8 0.837755 0.723087 0.518060
O O1 0.311516 0.500000 0.149888
O O2 0.353502 0.627008 0.256454
O O3 0.212569 0.606761 0.992401
O O4 0.367697 0.593769 0.038149
O O5 0.843578 0.500000 0.442188
O O6 0.876987 0.591229 0.295355
O O7 0.723066 0.583620 0.245031
O O8 0.839408 0.639035 0.485002
O O9 0.546003 0.134129 0.830945
O O10 0.543510 0.258559 0.935630
O O11 0.570750 0.249235 0.723598
O O12 0.416020 0.229016 0.683584
O O13 0.600824 0.000000 0.866225
O O14 0.427043 0.360313 0.879897
O O15 0.409212 0.500000 0.905267
O O16 0.852009 0.771416 0.411881
O O17 0.000000 0.837924 0.500000
O O18 0.750000 0.750000 0.500000
#
# Coordination Sequence:
#
# PCOD8107811 Si02
#       8
#     8   8   8   8   4   8   8   8
#     4   9  18  35  58  83 113 150 189 230 284 340
#     4   9  18  35  59  83 107 144 192 235 281 334
#     4  11  23  37  56  87 114 149 192 235 285 337
#     4   9  19  36  59  86 112 143 191 243 282 331
#     4  12  21  34  55  82 116 148 188 228 283 338
#     4   9  18  32  53  83 114 144 185 237 282 325
#     4  10  21  38  57  82 118 153 191 233 279 343
#     4  11  23  39  57  81 119 153 187 237 287 335
#
# _framework density 19.00375
#
# number of rings (size 3 to 8) (size 9 to 14) (size 15 to 20)
#    0.000    2.133    2.667    2.600    0.000    3.467 
#    0.000    2.333    0.000    0.000    0.000    0.000 
#    0.000    0.000    0.000    0.000    0.000    0.000 
#
# Total GULP energy -371929.989353 kJ/mol
# GULP energy per Si atom -12397.666312 kJ/mol
# Density = 1.896050 g / cm^3
# Si number density = 19.003750 Si / 1000 Ang^3
#
#
#
# Elastic Constant Matrix: (Units=GPa)
#
#
# Indices 1 2 3 4 5 6 
#
# 1 93.0602 43.0774 17.1378 0.0000 1.0796 0.0000
# 2 43.0774 118.0618 34.8221 0.0000 2.0642 0.0000
# 3 17.1378 34.8221 57.7396 0.0000 -1.1427 0.0000
# 4 0.0000 0.0000 0.0000 37.2232 0.0000 4.7075
# 5 1.0796 2.0642 -1.1427 0.0000 15.5754 0.0000
# 6 0.0000 0.0000 0.0000 4.7075 0.0000 34.5382
#
#
#
# Elastic Compliance Matrix: (Units=1/GPa)
#
#
# Indices 1 2 3 4 5 6 
#
# 1 0.013002 -0.004374 -0.001229 0.000000 -0.000412 0.000000
# 2 -0.004374 0.011826 -0.005868 0.000000 -0.001695 0.000000
# 3 -0.001229 -0.005868 0.021271 0.000000 0.002423 0.000000
# 4 0.000000 0.000000 0.000000 0.027336 0.000000 -0.003726
# 5 -0.000412 -0.001695 0.002423 0.000000 0.064635 0.000000
# 6 0.000000 0.000000 0.000000 -0.003726 0.000000 0.029461
#
#
# Mechanical properties :
#
#
# Convention : Reuss Voigt Hill
#
# Bulk Modulus (GPa) = 43.18393 50.99290 47.08842
# Shear Modulus (GPa) = 25.22810 29.05565 27.14188
#
# Velocity S-wave (km/s) = 3.64749 3.91441 3.78330
# Velocity P-wave (km/s) = 6.36491 6.87906 6.62697
#
# Compressibility (1/GPa) = 0.02315676
#
# Stress axis : x y z
#
# Youngs Moduli (GPa) = 76.91314 84.55647 47.01327
#
# Poissons Ratio (x) = 0.36987 0.05779
# Poissons Ratio (y) = 0.33643 0.27585
# Poissons Ratio (z) = 0.09454 0.49614
#
# Static dielectric constant tensor:
#      x y z
#    x 3.365530 0.000000 0.056560 
#    y 0.000000 3.715140 0.000000 
#    z 0.056560 0.000000 3.390200 
# 
# 
# High freq. dielectric constant tensor:
#      x y z
#    x 1.727260 0.000000 0.014530 
#    y 0.000000 1.748500 0.000000 
#    z 0.014530 0.000000 1.721950 
# 
# From -- ./inp_files/78057.got.cif
#   From: 2010.06.25/outbox.cif.g09.slc.cpg/sg12_40_cif.got.tgz:78057.got - 2010.06.28 00:19:55.
