data_PCOD8107255
_publ_section_title
;
Structure prediction by ZEFSAII (Michael W. Deem and Ramdas Pophale) SiO2 
 PCOD8107255
Probable space group: C 2/M
;
_chemical_formula_sum "Si O2"
_cell_formula_units_Z 56
_cell_length_a 21.572078
_cell_length_b 14.081804
_cell_length_c 9.440318
_cell_angle_alpha 90.000000
_cell_angle_beta 92.057683
_cell_angle_gamma 90.000000
_cell_volume 2865.871880
_symmetry_space_group_name_H-M "C 2/M"
_symmetry_group_IT_number 12
_symmetry_cell_setting 'monoclinic'
loop_
_space_group_symop_operation_xyz
x,y,z
-x,y,-z
-x,-y,-z
x,-y,z
1/2+x,1/2+y,z
1/2-x,1/2+y,-z
1/2-x,1/2-y,-z
1/2+x,1/2-y,z
loop_
_atom_site_type_symbol
_atom_site_label
_atom_site_fract_x
_atom_site_fract_y
_atom_site_fract_z
Si Si1 0.485241 0.392353 0.835721
Si Si2 0.778474 0.608148 0.267513
Si Si3 0.878333 0.608987 0.053378
Si Si4 0.639619 0.213687 0.512480
Si Si5 0.463532 0.212361 0.271810
Si Si6 0.907209 0.389700 0.741221
Si Si7 0.641547 0.607904 0.324751
O O1 0.502509 0.500000 0.798365
O O2 0.528862 0.325615 0.744681
O O3 0.413385 0.369948 0.791262
O O4 0.500000 0.370711 0.000000
O O5 0.793882 0.500000 0.319056
O O6 0.811050 0.627372 0.118461
O O7 0.802631 0.685181 0.383714
O O8 0.705158 0.622340 0.242433
O O9 0.898744 0.500000 0.072936
O O10 0.930523 0.671668 0.130842
O O11 0.877151 0.637873 0.889154
O O12 0.575785 0.193467 0.590849
O O13 0.642816 0.144049 0.377962
O O14 0.641564 0.323117 0.461568
O O15 0.530131 0.165143 0.288641
O O16 0.921044 0.500000 0.729399
O O17 0.636224 0.500000 0.382172
#
# Coordination Sequence:
#
# PCOD8107255 Si02
#       7
#     8   8   8   8   8   8   8
#     4  10  21  37  59  84 111 145 189 240 286 327
#     4   9  19  38  61  83 113 150 188 229 277 334
#     4   9  19  35  57  84 112 148 187 227 282 342
#     4  11  22  35  55  85 116 150 187 228 276 333
#     4  11  21  34  55  80 115 151 185 229 278 339
#     4  11  21  33  53  83 116 148 184 231 282 335
#     4  10  21  38  61  82 109 151 192 232 281 331
#
# _framework density 19.540300999999999
#
# number of rings (size 3 to 8) (size 9 to 14) (size 15 to 20)
#    0.000    1.857    1.429    3.000    0.000    4.000 
#    0.000    2.143    3.143    0.000    0.000    0.000 
#    0.000    0.000    0.000    0.000    0.000    0.000 
#
# Total GULP energy -347180.980850 kJ/mol
# GULP energy per Si atom -12399.320745 kJ/mol
# Density = 1.949583 g / cm^3
# Si number density = 19.540301 Si / 1000 Ang^3
#
#
#
# Elastic Constant Matrix: (Units=GPa)
#
#
# Indices 1 2 3 4 5 6 
#
# 1 80.1775 27.9225 45.4426 0.0000 3.7031 0.0000
# 2 27.9225 94.0504 46.9893 0.0000 1.9175 0.0000
# 3 45.4426 46.9893 113.6911 0.0000 2.2796 0.0000
# 4 0.0000 0.0000 0.0000 13.1162 0.0000 -12.2891
# 5 3.7031 1.9175 2.2796 0.0000 18.1480 0.0000
# 6 0.0000 0.0000 0.0000 -12.2891 0.0000 20.8564
#
#
#
# Elastic Compliance Matrix: (Units=1/GPa)
#
#
# Indices 1 2 3 4 5 6 
#
# 1 0.016529 -0.001993 -0.005734 0.000000 -0.002442 0.000000
# 2 -0.001993 0.013649 -0.004836 0.000000 -0.000428 0.000000
# 3 -0.005734 -0.004836 0.013086 0.000000 0.000037 0.000000
# 4 0.000000 0.000000 0.000000 0.170207 0.000000 0.100290
# 5 -0.002442 -0.000428 0.000037 0.000000 0.055641 0.000000
# 6 0.000000 0.000000 0.000000 0.100290 0.000000 0.107040
#
#
# Mechanical properties :
#
#
# Convention : Reuss Voigt Hill
#
# Bulk Modulus (GPa) = 55.13295 58.73643 56.93469
# Shear Modulus (GPa) = 12.27523 21.59510 16.93516
#
# Velocity S-wave (km/s) = 2.50911 3.32800 2.94713
# Velocity P-wave (km/s) = 6.05561 6.70013 6.38601
#
# Compressibility (1/GPa) = 0.01813797
#
# Stress axis : x y z
#
# Youngs Moduli (GPa) = 60.49953 73.26441 76.41844
#
# Poissons Ratio (x) = 0.14599 0.43820
# Poissons Ratio (y) = 0.12055 0.36958
# Poissons Ratio (z) = 0.34692 0.35433
#
# Static dielectric constant tensor:
#      x y z
#    x 3.541530 0.000000 -0.037380 
#    y 0.000000 3.778090 0.000000 
#    z -0.037380 0.000000 3.521800 
# 
# 
# High freq. dielectric constant tensor:
#      x y z
#    x 1.752540 0.000000 -0.002150 
#    y 0.000000 1.772240 0.000000 
#    z -0.002150 0.000000 1.754380 
# 
# From -- ./inp_files/86325.got.cif
#   From: 2010.06.25/outbox.cif.g09.slc.cpg/sg12_44_cif.got.tgz:86325.got - 2010.06.28 00:19:55.
