data_PCOD8107957
_publ_section_title
;
Structure prediction by ZEFSAII (Michael W. Deem and Ramdas Pophale) SiO2 
 PCOD8107957
Probable space group: C 2/M
;
_chemical_formula_sum "Si O2"
_cell_formula_units_Z 48
_cell_length_a 30.405752
_cell_length_b 8.838306
_cell_length_c 17.835275
_cell_angle_alpha 90.000000
_cell_angle_beta 31.566000
_cell_angle_gamma 90.000000
_cell_volume 2509.025117
_symmetry_space_group_name_H-M "C 2/M"
_symmetry_group_IT_number 12
_symmetry_cell_setting 'monoclinic'
loop_
_space_group_symop_operation_xyz
x,y,z
-x,y,-z
-x,-y,-z
x,-y,z
1/2+x,1/2+y,z
1/2-x,1/2+y,-z
1/2-x,1/2-y,-z
1/2+x,1/2-y,z
loop_
_atom_site_type_symbol
_atom_site_label
_atom_site_fract_x
_atom_site_fract_y
_atom_site_fract_z
Si Si1 0.330992 0.322136 0.419944
Si Si2 0.000054 0.175028 0.086656
Si Si3 0.753838 0.168917 0.916458
Si Si4 0.915153 0.172232 0.586955
Si Si5 0.834729 0.679424 0.100621
Si Si6 0.682236 0.820841 0.402656
O O1 0.316723 0.500000 0.450437
O O2 0.250000 0.250000 0.500000
O O3 0.409934 0.286631 0.252130
O O4 0.348587 0.247184 0.474311
O O5 0.023975 0.000000 0.063120
O O6 0.000000 0.220138 0.000000
O O7 0.069146 0.277052 0.027223
O O8 0.848352 0.177346 0.750302
O O9 0.692236 0.239338 0.942715
O O10 0.723976 0.000000 0.975356
O O11 0.750000 0.250000 0.000000
O O12 0.886743 0.275197 0.558891
O O13 0.000000 0.238029 0.500000
O O14 0.927513 0.000000 0.540002
O O15 0.820605 0.500000 0.127224
O O16 0.774732 0.756971 0.249375
O O17 0.688162 0.000000 0.400327
#
# Coordination Sequence:
#
# PCOD8107957 Si02
#       6
#     8   8   8   8   8   8
#     4  11  23  39  60  86 117 150 186 231 282 335
#     4  10  22  39  59  85 114 144 182 228 278 334
#     4   9  19  34  53  79 109 142 180 224 274 328
#     4   9  19  37  58  80 109 146 189 236 285 333
#     4  10  21  38  59  83 112 147 189 234 281 333
#     4  11  22  37  58  83 114 151 192 235 280 335
#
# _framework density 19.130935000000001
#
# number of rings (size 3 to 8) (size 9 to 14) (size 15 to 20)
#    0.000    2.000    0.000    4.500    0.000    8.000 
#    0.000    5.000    0.000    0.000    0.000    0.000 
#    0.000    0.000    0.000    0.000    0.000    0.000 
#
# Total GULP energy -297657.945222 kJ/mol
# GULP energy per Si atom -12402.414384 kJ/mol
# Density = 1.908739 g / cm^3
# Si number density = 19.130935 Si / 1000 Ang^3
#
#
#
# Elastic Constant Matrix: (Units=GPa)
#
#
# Indices 1 2 3 4 5 6 
#
# 1 125.8223 53.8435 79.9303 0.0023 0.8220 -0.0009
# 2 53.8435 102.2101 56.3971 0.0022 3.9060 -0.0010
# 3 79.9303 56.3971 110.2338 -0.0005 0.7702 0.0006
# 4 0.0023 0.0022 -0.0005 31.2197 -0.0012 -0.5744
# 5 0.8220 3.9060 0.7702 -0.0012 44.4353 0.0006
# 6 -0.0009 -0.0010 0.0006 -0.5744 0.0006 35.9324
#
#
#
# Elastic Compliance Matrix: (Units=1/GPa)
#
#
# Indices 1 2 3 4 5 6 
#
# 1 0.015249 -0.002698 -0.009678 -0.000001 0.000123 0.000000
# 2 -0.002698 0.014161 -0.005281 -0.000001 -0.001103 0.000000
# 3 -0.009678 -0.005281 0.018789 0.000001 0.000318 -0.000001
# 4 -0.000001 -0.000001 0.000001 0.032040 0.000001 0.000512
# 5 0.000123 -0.001103 0.000318 0.000001 0.022594 0.000000
# 6 0.000000 0.000000 -0.000001 0.000512 0.000000 0.027838
#
#
# Mechanical properties :
#
#
# Convention : Reuss Voigt Hill
#
# Bulk Modulus (GPa) = 77.60663 79.84535 78.72599
# Shear Modulus (GPa) = 29.36325 32.19049 30.77687
#
# Velocity S-wave (km/s) = 3.92198 4.10645 4.01527
# Velocity P-wave (km/s) = 7.82070 8.01940 7.92067
#
# Compressibility (1/GPa) = 0.01288550
#
# Stress axis : x y z
#
# Youngs Moduli (GPa) = 65.57593 70.61573 53.22351
#
# Poissons Ratio (x) = 0.19052 0.51509
# Poissons Ratio (y) = 0.17692 0.28107
# Poissons Ratio (z) = 0.63464 0.37292
#
# Static dielectric constant tensor:
#      x y z
#    x 3.683350 0.000000 0.222710 
#    y 0.000000 3.501330 0.000010 
#    z 0.222710 0.000010 3.293190 
# 
# 
# High freq. dielectric constant tensor:
#      x y z
#    x 1.756110 0.000000 -0.000680 
#    y 0.000000 1.743640 0.000000 
#    z -0.000680 0.000000 1.743200 
# 
# From -- ./inp_files/274124.got.cif
#   From: 2010.06.25/outbox.cif.g09.slc.cpg/sg12_138_cif.got.tgz:274124.got - 2010.06.28 00:19:55.
