data_PCOD8107802
_publ_section_title
;
Structure prediction by ZEFSAII (Michael W. Deem and Ramdas Pophale) SiO2 
 PCOD8107802
Probable space group: C 2/M
;
_chemical_formula_sum "Si O2"
_cell_formula_units_Z 52
_cell_length_a 28.023523
_cell_length_b 11.218656
_cell_length_c 9.376694
_cell_angle_alpha 90.000000
_cell_angle_beta 87.699127
_cell_angle_gamma 90.000000
_cell_volume 2945.527151
_symmetry_space_group_name_H-M "C 2/M"
_symmetry_group_IT_number 12
_symmetry_cell_setting 'monoclinic'
loop_
_space_group_symop_operation_xyz
x,y,z
-x,y,-z
-x,-y,-z
x,-y,z
1/2+x,1/2+y,z
1/2-x,1/2+y,-z
1/2-x,1/2-y,-z
1/2+x,1/2-y,z
loop_
_atom_site_type_symbol
_atom_site_label
_atom_site_fract_x
_atom_site_fract_y
_atom_site_fract_z
Si Si1 0.445679 0.808356 0.531531
Si Si2 0.541856 0.000000 0.238043
Si Si3 0.567097 0.000000 0.700880
Si Si4 0.774340 0.132635 0.151753
Si Si5 0.173760 0.273027 0.086884
Si Si6 0.871676 0.865186 0.656197
Si Si7 0.280370 0.631771 0.470863
Si Si8 0.883396 0.500000 0.009665
O O1 0.500000 0.768559 0.500000
O O2 0.441672 0.885426 0.675183
O O3 0.414365 0.691322 0.559175
O O4 0.426264 0.883092 0.398368
O O5 0.485178 0.000000 0.222292
O O6 0.566831 0.000000 0.081686
O O7 0.605946 0.000000 0.822374
O O8 0.723248 0.198383 0.161495
O O9 0.796968 0.134744 0.305595
O O10 0.765162 0.000000 0.095654
O O11 0.814038 0.190538 0.047785
O O12 0.137977 0.205868 0.197180
O O13 0.147936 0.387366 0.027663
O O14 0.825453 0.860578 0.565143
O O15 0.886002 0.000000 0.693531
O O16 0.254891 0.500000 0.501033
O O17 0.250000 0.750000 0.500000
#
# Coordination Sequence:
#
# PCOD8107802 Si02
#       8
#     8   4   4   8   8   8   8   4
#     4   9  19  38  60  84 113 146 180 228 288 342
#     4   9  17  37  61  83 113 145 173 231 289 338
#     4   9  21  35  57  89 119 137 175 231 291 332
#     4  10  21  39  53  72 111 152 184 229 276 325
#     4  11  22  35  56  80 110 145 193 224 272 334
#     4  11  22  37  58  83 109 148 193 235 280 331
#     4  10  21  38  57  81 112 149 192 239 290 332
#     4  12  21  34  56  92 108 148 186 228 273 346
#
# _framework density 17.653884999999999
#
# number of rings (size 3 to 8) (size 9 to 14) (size 15 to 20)
#    0.000    1.846    3.846    1.615    2.154    0.308 
#    4.154    0.000    0.000    0.000    0.000    2.154 
#    0.000    0.000    0.000    0.000    0.000    0.000 
#
# Total GULP energy -322307.966272 kJ/mol
# GULP energy per Si atom -12396.460241 kJ/mol
# Density = 1.761370 g / cm^3
# Si number density = 17.653885 Si / 1000 Ang^3
#
#
#
# Elastic Constant Matrix: (Units=GPa)
#
#
# Indices 1 2 3 4 5 6 
#
# 1 54.8769 44.4701 38.8000 0.0000 -8.0647 0.0000
# 2 44.4701 136.0446 54.0523 0.0000 -11.9382 0.0000
# 3 38.8000 54.0523 104.3796 0.0000 -1.8523 0.0000
# 4 0.0000 0.0000 0.0000 20.8160 0.0000 -8.4216
# 5 -8.0647 -11.9382 -1.8523 0.0000 33.1253 0.0000
# 6 0.0000 0.0000 0.0000 -8.4216 0.0000 43.4876
#
#
#
# Elastic Compliance Matrix: (Units=1/GPa)
#
#
# Indices 1 2 3 4 5 6 
#
# 1 0.029237 -0.006141 -0.007608 0.000000 0.004479 0.000000
# 2 -0.006141 0.010867 -0.003305 0.000000 0.002237 0.000000
# 3 -0.007608 -0.003305 0.014080 0.000000 -0.002256 0.000000
# 4 0.000000 0.000000 0.000000 0.052124 0.000000 0.010094
# 5 0.004479 0.002237 -0.002256 0.000000 0.031959 0.000000
# 6 0.000000 0.000000 0.000000 0.010094 0.000000 0.024950
#
#
# Mechanical properties :
#
#
# Convention : Reuss Voigt Hill
#
# Bulk Modulus (GPa) = 49.81260 63.32732 56.56996
# Shear Modulus (GPa) = 24.50779 30.01771 27.26275
#
# Velocity S-wave (km/s) = 3.72995 4.12800 3.93401
# Velocity P-wave (km/s) = 6.84306 7.65963 7.26283
#
# Compressibility (1/GPa) = 0.02007524
#
# Stress axis : x y z
#
# Youngs Moduli (GPa) = 34.20375 92.01899 71.02213
#
# Poissons Ratio (x) = 0.56508 0.54036
# Poissons Ratio (y) = 0.21004 0.23474
# Poissons Ratio (z) = 0.26023 0.30414
#
# Static dielectric constant tensor:
#      x y z
#    x 3.108890 0.000000 -0.027460 
#    y 0.000000 3.574480 0.000000 
#    z -0.027460 0.000000 3.291860 
# 
# 
# High freq. dielectric constant tensor:
#      x y z
#    x 1.665340 0.000000 -0.000930 
#    y 0.000000 1.690240 0.000000 
#    z -0.000930 0.000000 1.690340 
# 
# From -- ./inp_files/102586.got.cif
#   From: 2010.06.25/outbox.cif.g09.slc.cpg/sg12_52_cif.got.tgz:102586.got - 2010.06.28 00:19:55.
