data_PCOD8107928
_publ_section_title
;
Structure prediction by ZEFSAII (Michael W. Deem and Ramdas Pophale) SiO2 
 PCOD8107928
Probable space group: C 2/M
;
_chemical_formula_sum "Si O2"
_cell_formula_units_Z 64
_cell_length_a 14.837481
_cell_length_b 8.632606
_cell_length_c 27.249271
_cell_angle_alpha 90.000000
_cell_angle_beta 106.747603
_cell_angle_gamma 90.000000
_cell_volume 3342.208968
_symmetry_space_group_name_H-M "C 2/M"
_symmetry_group_IT_number 12
_symmetry_cell_setting 'monoclinic'
loop_
_space_group_symop_operation_xyz
x,y,z
-x,y,-z
-x,-y,-z
x,-y,z
1/2+x,1/2+y,z
1/2-x,1/2+y,-z
1/2-x,1/2-y,-z
1/2+x,1/2-y,z
loop_
_atom_site_type_symbol
_atom_site_label
_atom_site_fract_x
_atom_site_fract_y
_atom_site_fract_z
Si Si1 0.998446 0.182811 0.265344
Si Si2 0.042314 0.317036 0.080142
Si Si3 0.391717 0.681717 0.624546
Si Si4 0.510890 0.317835 0.555686
Si Si5 0.350270 0.181463 0.999803
Si Si6 0.113029 0.817708 0.190745
Si Si7 0.807719 0.679840 0.369658
Si Si8 0.706827 0.318224 0.738232
O O1 0.889754 0.231365 0.250533
O O2 0.052693 0.256744 0.320622
O O3 0.043366 0.246101 0.222151
O O4 0.010584 0.000000 0.268299
O O5 0.048510 0.500000 0.090933
O O6 0.117327 0.268423 0.049785
O O7 0.067411 0.220537 0.131821
O O8 0.935451 0.269042 0.049270
O O9 0.412660 0.500000 0.628827
O O10 0.430935 0.751232 0.579485
O O11 0.281783 0.717252 0.610443
O O12 0.500000 0.240613 0.500000
O O13 0.498881 0.500000 0.548607
O O14 0.610698 0.283723 0.595545
O O15 0.337568 0.000000 0.999606
O O16 0.250000 0.250000 0.000000
O O17 0.211587 0.728789 0.211445
O O18 0.130762 0.000000 0.198059
O O19 0.835465 0.500000 0.376049
O O20 0.781839 0.724493 0.310281
O O21 0.708902 0.500000 0.726815
#
# Coordination Sequence:
#
# PCOD8107928 Si02
#       8
#     8   8   8   8   8   8   8   8
#     4   9  18  34  55  76 106 146 182 216 273 335
#     4   9  20  39  57  81 117 155 186 228 283 335
#     4   9  17  34  56  77 107 144 174 216 278 333
#     4  10  21  38  59  81 106 141 186 229 273 334
#     4   9  19  37  62  85 113 151 194 234 280 333
#     4  11  22  37  56  83 115 147 186 233 277 327
#     4  11  21  35  57  81 109 142 178 224 278 332
#     4  11  21  36  58  81 108 147 188 226 272 332
#
# _framework density 19.149013
#
# number of rings (size 3 to 8) (size 9 to 14) (size 15 to 20)
#    0.000    2.125    2.500    1.875    0.000    2.750 
#    0.000   10.000    0.000    0.000    0.000    0.000 
#    0.000    0.000    0.000    0.000    0.000    0.000 
#
# Total GULP energy -396748.280460 kJ/mol
# GULP energy per Si atom -12398.383764 kJ/mol
# Density = 1.910543 g / cm^3
# Si number density = 19.149013 Si / 1000 Ang^3
#
#
#
# Elastic Constant Matrix: (Units=GPa)
#
#
# Indices 1 2 3 4 5 6 
#
# 1 120.4083 18.4004 24.7093 0.0000 -8.4916 0.0000
# 2 18.4004 20.5788 4.0322 0.0000 -4.1832 0.0000
# 3 24.7093 4.0322 79.6320 0.0000 -13.5642 0.0000
# 4 0.0000 0.0000 0.0000 25.8926 0.0000 2.4434
# 5 -8.4916 -4.1832 -13.5642 0.0000 28.3676 0.0000
# 6 0.0000 0.0000 0.0000 2.4434 0.0000 24.4310
#
#
#
# Elastic Compliance Matrix: (Units=1/GPa)
#
#
# Indices 1 2 3 4 5 6 
#
# 1 0.010180 -0.008476 -0.002638 0.000000 0.000536 0.000000
# 2 -0.008476 0.057295 0.000801 0.000000 0.006295 0.000000
# 3 -0.002638 0.000801 0.014394 0.000000 0.006211 0.000000
# 4 0.000000 0.000000 0.000000 0.038989 0.000000 -0.003899
# 5 0.000536 0.006295 0.006211 0.000000 0.039310 0.000000
# 6 0.000000 0.000000 0.000000 -0.003899 0.000000 0.041322
#
#
# Mechanical properties :
#
#
# Convention : Reuss Voigt Hill
#
# Bulk Modulus (GPa) = 16.32867 34.98923 25.65895
# Shear Modulus (GPa) = 20.61605 27.30337 23.95971
#
# Velocity S-wave (km/s) = 3.28474 3.78012 3.54110
# Velocity P-wave (km/s) = 4.78870 6.11262 5.49071
#
# Compressibility (1/GPa) = 0.06124198
#
# Stress axis : x y z
#
# Youngs Moduli (GPa) = 98.23614 17.45351 69.47449
#
# Poissons Ratio (x) = 0.14794 0.18329
# Poissons Ratio (y) = 0.83266 -0.05566
# Poissons Ratio (z) = 0.25917 -0.01398
#
# Static dielectric constant tensor:
#      x y z
#    x 4.000850 0.000000 -0.142660 
#    y 0.000000 3.179690 0.000000 
#    z -0.142660 0.000000 3.570160 
# 
# 
# High freq. dielectric constant tensor:
#      x y z
#    x 1.759820 0.000000 -0.002060 
#    y 0.000000 1.717850 0.000000 
#    z -0.002060 0.000000 1.744510 
# 
# From -- ./inp_files/375079.got.cif
#   From: 2010.06.25/outbox.cif.g09.slc.cpg/sg12_188_cif.got.tgz:375079.got - 2010.06.28 00:19:55.
