data_PCOD8107025
_publ_section_title
;
Structure prediction by ZEFSAII (Michael W. Deem and Ramdas Pophale) SiO2 
 PCOD8107025
Probable space group: C 2/M
;
_chemical_formula_sum "Si O2"
_cell_formula_units_Z 64
_cell_length_a 32.047841
_cell_length_b 8.776035
_cell_length_c 24.290004
_cell_angle_alpha 90.000000
_cell_angle_beta 153.360745
_cell_angle_gamma 90.000000
_cell_volume 3063.111463
_symmetry_space_group_name_H-M "C 2/M"
_symmetry_group_IT_number 12
_symmetry_cell_setting 'monoclinic'
loop_
_space_group_symop_operation_xyz
x,y,z
-x,y,-z
-x,-y,-z
x,-y,z
1/2+x,1/2+y,z
1/2-x,1/2+y,-z
1/2-x,1/2-y,-z
1/2+x,1/2-y,z
loop_
_atom_site_type_symbol
_atom_site_label
_atom_site_fract_x
_atom_site_fract_y
_atom_site_fract_z
Si Si1 0.191454 0.674746 0.270472
Si Si2 0.675280 0.671867 0.949454
Si Si3 0.114544 0.321070 0.490831
Si Si4 0.726697 0.173717 0.821580
Si Si5 0.051751 0.821820 0.186714
Si Si6 0.031440 0.819958 0.289339
Si Si7 0.531453 0.320539 0.598010
Si Si8 0.126882 0.674589 0.075208
O O1 0.222866 0.500000 0.315594
O O2 0.281649 0.778850 0.368838
O O3 0.133322 0.727281 0.254500
O O4 0.125368 0.691633 0.139301
O O5 0.672388 0.500000 0.925815
O O6 0.572671 0.742271 0.820993
O O7 0.750000 0.750000 0.000000
O O8 0.700984 0.683984 0.043411
O O9 0.099047 0.500000 0.478167
O O10 0.100789 0.268203 0.411590
O O11 0.042866 0.235807 0.445729
O O12 0.629471 0.242837 0.726558
O O13 0.771031 0.271286 0.824445
O O14 0.711803 0.000000 0.784682
O O15 0.057851 0.779966 0.258052
O O16 0.067557 0.000000 0.195141
O O17 0.951812 0.779396 0.044038
O O18 0.038298 0.000000 0.307616
O O19 0.500000 0.272810 0.500000
O O20 0.543023 0.500000 0.617685
O O21 0.110097 0.500000 0.037808
#
# Coordination Sequence:
#
# PCOD8107025 Si02
#       8
#     8   8   8   8   8   8   8   8
#     4  11  25  44  65  92 127 169 213 262 321 384
#     4  10  21  37  57  86 120 157 200 248 303 365
#     4  12  26  43  65  95 126 166 218 267 316 373
#     4  11  22  38  61  92 125 160 209 260 309 369
#     4  11  23  42  68  97 127 165 212 264 321 376
#     4  10  22  43  65  88 127 170 207 257 318 380
#     4  11  24  42  63  90 127 171 214 258 316 381
#     4  11  23  40  64  95 131 169 210 257 319 387
#
# _framework density 20.893787
#
# number of rings (size 3 to 8) (size 9 to 14) (size 15 to 20)
#    0.000    1.125    1.250    4.875    0.000   12.500 
#    0.000    0.000    0.000    0.000    0.000    0.000 
#    0.000    0.000    0.000    0.000    0.000    0.000 
#
# Total GULP energy -396998.080118 kJ/mol
# GULP energy per Si atom -12406.190004 kJ/mol
# Density = 2.084623 g / cm^3
# Si number density = 20.893787 Si / 1000 Ang^3
#
#
#
# Elastic Constant Matrix: (Units=GPa)
#
#
# Indices 1 2 3 4 5 6 
#
# 1 101.9004 24.4842 12.7512 0.0000 0.9670 0.0000
# 2 24.4842 68.9368 13.8641 0.0000 -13.6643 0.0000
# 3 12.7512 13.8641 71.9427 0.0000 -2.4392 0.0000
# 4 0.0000 0.0000 0.0000 35.7800 0.0000 3.2262
# 5 0.9670 -13.6643 -2.4392 0.0000 36.1594 0.0000
# 6 0.0000 0.0000 0.0000 3.2262 0.0000 37.4362
#
#
#
# Elastic Compliance Matrix: (Units=1/GPa)
#
#
# Indices 1 2 3 4 5 6 
#
# 1 0.010951 -0.004017 -0.001231 0.000000 -0.001894 0.000000
# 2 -0.004017 0.017750 -0.002483 0.000000 0.006647 0.000000
# 3 -0.001231 -0.002483 0.014599 0.000000 0.000079 0.000000
# 4 0.000000 0.000000 0.000000 0.028167 0.000000 -0.002427
# 5 -0.001894 0.006647 0.000079 0.000000 0.030223 0.000000
# 6 0.000000 0.000000 0.000000 -0.002427 0.000000 0.026921
#
#
# Mechanical properties :
#
#
# Convention : Reuss Voigt Hill
#
# Bulk Modulus (GPa) = 35.92313 38.33097 37.12705
# Shear Modulus (GPa) = 32.60431 34.65380 33.62906
#
# Velocity S-wave (km/s) = 3.95458 4.07697 4.01624
# Velocity P-wave (km/s) = 6.17107 6.36771 6.27016
#
# Compressibility (1/GPa) = 0.02783722
#
# Stress axis : x y z
#
# Youngs Moduli (GPa) = 91.31790 56.33846 68.49616
#
# Poissons Ratio (x) = 0.22632 0.08432
# Poissons Ratio (y) = 0.36684 0.17009
# Poissons Ratio (z) = 0.11241 0.13990
#
# Static dielectric constant tensor:
#      x y z
#    x 3.837800 0.000000 0.030400 
#    y 0.000000 3.808390 0.000000 
#    z 0.030400 0.000000 3.752190 
# 
# 
# High freq. dielectric constant tensor:
#      x y z
#    x 1.830880 0.000000 0.000680 
#    y 0.000000 1.822180 0.000000 
#    z 0.000680 0.000000 1.822510 
# 
# From -- ./inp_files/353528.got.cif
#   From: 2010.06.25/outbox.cif.g09.slc.cpg/sg12_177_cif.got.tgz:353528.got - 2010.06.28 00:19:55.
