data_PCOD8107012
_publ_section_title
;
Structure prediction by ZEFSAII (Michael W. Deem and Ramdas Pophale) SiO2 
 PCOD8107012
Probable space group: C 2/M
;
_chemical_formula_sum "Si O2"
_cell_formula_units_Z 56
_cell_length_a 21.875494
_cell_length_b 8.969142
_cell_length_c 14.822706
_cell_angle_alpha 90.000000
_cell_angle_beta 66.792007
_cell_angle_gamma 90.000000
_cell_volume 2672.943359
_symmetry_space_group_name_H-M "C 2/M"
_symmetry_group_IT_number 12
_symmetry_cell_setting 'monoclinic'
loop_
_space_group_symop_operation_xyz
x,y,z
-x,y,-z
-x,-y,-z
x,-y,z
1/2+x,1/2+y,z
1/2-x,1/2+y,-z
1/2-x,1/2-y,-z
1/2+x,1/2-y,z
loop_
_atom_site_type_symbol
_atom_site_label
_atom_site_fract_x
_atom_site_fract_y
_atom_site_fract_z
Si Si1 0.740077 0.836238 0.416051
Si Si2 0.177267 0.677226 0.052625
Si Si3 0.924357 0.323999 0.043928
Si Si4 0.599216 0.330179 0.251430
Si Si5 0.091076 0.667527 0.441306
Si Si6 0.135457 0.173235 0.751022
Si Si7 0.045388 0.830985 0.638217
O O1 0.750000 0.750000 0.500000
O O2 0.664538 0.834701 0.435401
O O3 0.786810 0.781524 0.305859
O O4 0.767094 0.000000 0.422244
O O5 0.185932 0.500000 0.044191
O O6 0.147596 0.724059 0.166552
O O7 0.250000 0.750000 0.000000
O O8 0.124074 0.735496 0.008349
O O9 0.927745 0.500000 0.033865
O O10 0.892302 0.278530 0.156186
O O11 0.000000 0.258558 0.000000
O O12 0.625435 0.500000 0.229212
O O13 0.594664 0.281179 0.357382
O O14 0.522645 0.316590 0.263858
O O15 0.068552 0.500000 0.426569
O O16 0.043334 0.725829 0.550101
O O17 0.102602 0.215945 0.674210
O O18 0.123371 0.000000 0.784075
O O19 0.055361 0.000000 0.597978
#
# Coordination Sequence:
#
# PCOD8107012 Si02
#       7
#     8   8   8   8   8   8   8
#     4  10  21  37  57  85 119 157 199 245 298 356
#     4  11  25  45  67  93 126 164 208 260 314 371
#     4  10  23  43  66  94 125 158 203 258 314 369
#     4  11  24  41  63  89 119 160 206 251 303 361
#     4  11  23  37  58  90 124 161 203 246 299 362
#     4  10  21  37  61  90 121 157 198 247 302 359
#     4  10  21  39  61  89 124 161 202 247 298 361
#
# _framework density 20.950686999999999
#
# number of rings (size 3 to 8) (size 9 to 14) (size 15 to 20)
#    0.000    1.571    1.429    2.571    2.000    6.000 
#    0.000    0.000    0.000    0.000    0.000    0.000 
#    0.000    0.000    0.000    0.000    0.000    0.000 
#
# Total GULP energy -347101.301725 kJ/mol
# GULP energy per Si atom -12396.475062 kJ/mol
# Density = 2.090300 g / cm^3
# Si number density = 20.950687 Si / 1000 Ang^3
#
#
#
# Elastic Constant Matrix: (Units=GPa)
#
#
# Indices 1 2 3 4 5 6 
#
# 1 82.0199 30.0558 39.9499 0.0000 -10.9534 0.0000
# 2 30.0558 59.4171 25.4709 0.0000 -5.6495 0.0000
# 3 39.9499 25.4709 122.3245 0.0000 -19.8558 0.0000
# 4 0.0000 0.0000 0.0000 42.8634 0.0000 -0.1136
# 5 -10.9534 -5.6495 -19.8558 0.0000 35.8059 0.0000
# 6 0.0000 0.0000 0.0000 -0.1136 0.0000 27.7616
#
#
#
# Elastic Compliance Matrix: (Units=1/GPa)
#
#
# Indices 1 2 3 4 5 6 
#
# 1 0.016727 -0.006664 -0.003753 0.000000 0.001984 0.000000
# 2 -0.006664 0.021158 -0.002218 0.000000 0.000070 0.000000
# 3 -0.003753 -0.002218 0.010571 0.000000 0.004364 0.000000
# 4 0.000000 0.000000 0.000000 0.023330 0.000000 0.000096
# 5 0.001984 0.000070 0.004364 0.000000 0.030966 0.000000
# 6 0.000000 0.000000 0.000000 0.000096 0.000000 0.036021
#
#
# Mechanical properties :
#
#
# Convention : Reuss Voigt Hill
#
# Bulk Modulus (GPa) = 43.12859 50.52385 46.82622
# Shear Modulus (GPa) = 29.10810 32.50517 30.80664
#
# Velocity S-wave (km/s) = 3.73146 3.94319 3.83879
# Velocity P-wave (km/s) = 6.26063 6.70072 6.48441
#
# Compressibility (1/GPa) = 0.02318647
#
# Stress axis : x y z
#
# Youngs Moduli (GPa) = 59.78296 47.26237 94.59877
#
# Poissons Ratio (x) = 0.31494 0.35506
# Poissons Ratio (y) = 0.39838 0.20983
# Poissons Ratio (z) = 0.22438 0.10483
#
# Static dielectric constant tensor:
#      x y z
#    x 4.079770 0.000000 -0.249100 
#    y 0.000000 3.958190 0.000000 
#    z -0.249100 0.000000 3.721820 
# 
# 
# High freq. dielectric constant tensor:
#      x y z
#    x 1.838990 0.000000 -0.015810 
#    y 0.000000 1.814180 0.000000 
#    z -0.015810 0.000000 1.822670 
# 
# From -- ./inp_files/238367.got.cif
#   From: 2010.06.25/outbox.cif.g09.slc.cpg/sg12_120_cif.got.tgz:238367.got - 2010.06.28 00:19:55.
