data_PCOD8107144
_publ_section_title
;
Structure prediction by ZEFSAII (Michael W. Deem and Ramdas Pophale) SiO2 
 PCOD8107144
Probable space group: C 2/M
;
_chemical_formula_sum "Si O2"
_cell_formula_units_Z 56
_cell_length_a 23.238455
_cell_length_b 14.600953
_cell_length_c 9.503141
_cell_angle_alpha 90.000000
_cell_angle_beta 57.342916
_cell_angle_gamma 90.000000
_cell_volume 2714.713340
_symmetry_space_group_name_H-M "C 2/M"
_symmetry_group_IT_number 12
_symmetry_cell_setting 'monoclinic'
loop_
_space_group_symop_operation_xyz
x,y,z
-x,y,-z
-x,-y,-z
x,-y,z
1/2+x,1/2+y,z
1/2-x,1/2+y,-z
1/2-x,1/2-y,-z
1/2+x,1/2-y,z
loop_
_atom_site_type_symbol
_atom_site_label
_atom_site_fract_x
_atom_site_fract_y
_atom_site_fract_z
Si Si1 0.437105 0.715309 0.478707
Si Si2 0.262522 0.649835 0.428170
Si Si3 0.865003 0.604906 0.599774
Si Si4 0.274077 0.107417 0.964005
Si Si5 0.344791 0.608258 0.067020
Si Si6 0.994768 0.104412 0.841471
Si Si7 0.197356 0.898456 0.326224
O O1 0.500000 0.693367 0.500000
O O2 0.425343 0.824864 0.477602
O O3 0.454295 0.673026 0.304050
O O4 0.365546 0.669774 0.619946
O O5 0.250000 0.750000 0.500000
O O6 0.198447 0.610872 0.424892
O O7 0.329941 0.649756 0.241416
O O8 0.277442 0.591092 0.547462
O O9 0.892620 0.500000 0.560519
O O10 0.842480 0.636926 0.789000
O O11 0.208887 0.151206 0.971127
O O12 0.271163 0.000000 0.944995
O O13 0.263358 0.133776 0.142751
O O14 0.339344 0.500000 0.093661
O O15 0.417841 0.634960 0.906871
O O16 0.010889 0.000000 0.772675
O O17 0.000000 0.114540 0.000000
O O18 0.174246 0.000000 0.306292
#
# Coordination Sequence:
#
# PCOD8107144 Si02
#       7
#     8   8   8   8   8   8   8
#     4  12  25  39  57  90 120 161 208 245 288 344
#     4  11  20  36  60  95 118 148 192 247 304 354
#     4  10  22  43  63  82 117 161 206 248 295 354
#     4   8  17  34  57  83 111 147 187 235 299 358
#     4   9  17  33  55  79 113 155 188 226 291 359
#     4  10  21  37  58  84 120 160 194 237 294 361
#     4  11  21  36  60  92 125 148 183 247 313 363
#
# _framework density 20.628328
#
# number of rings (size 3 to 8) (size 9 to 14) (size 15 to 20)
#    0.000    1.857    1.429    4.286    0.000    4.286 
#    2.571    0.000    0.000    0.429    0.000    0.000 
#    0.000    0.000    0.000    0.000    0.000    0.000 
#
# Total GULP energy -346924.116874 kJ/mol
# GULP energy per Si atom -12390.147031 kJ/mol
# Density = 2.058138 g / cm^3
# Si number density = 20.628328 Si / 1000 Ang^3
#
#
#
# Elastic Constant Matrix: (Units=GPa)
#
#
# Indices 1 2 3 4 5 6 
#
# 1 48.2825 6.2596 20.7687 0.0000 5.3245 0.0000
# 2 6.2596 98.5160 43.2160 0.0000 -16.0664 0.0000
# 3 20.7687 43.2160 130.9064 0.0000 0.4634 0.0000
# 4 0.0000 0.0000 0.0000 28.9972 0.0000 -9.4083
# 5 5.3245 -16.0664 0.4634 0.0000 25.3095 0.0000
# 6 0.0000 0.0000 0.0000 -9.4083 0.0000 23.1168
#
#
#
# Elastic Compliance Matrix: (Units=1/GPa)
#
#
# Indices 1 2 3 4 5 6 
#
# 1 0.022834 -0.000856 -0.003321 0.000000 -0.005286 0.000000
# 2 -0.000856 0.013572 -0.004376 0.000000 0.008876 0.000000
# 3 -0.003321 -0.004376 0.009619 0.000000 -0.002255 0.000000
# 4 0.000000 0.000000 0.000000 0.039733 0.000000 0.016171
# 5 -0.005286 0.008876 -0.002255 0.000000 0.046299 0.000000
# 6 0.000000 0.000000 0.000000 0.016171 0.000000 0.049840
#
#
# Mechanical properties :
#
#
# Convention : Reuss Voigt Hill
#
# Bulk Modulus (GPa) = 34.58071 46.46593 40.52332
# Shear Modulus (GPa) = 23.96443 29.31543 26.63993
#
# Velocity S-wave (km/s) = 3.41211 3.77387 3.59754
# Velocity P-wave (km/s) = 5.68536 6.44699 6.07812
#
# Compressibility (1/GPa) = 0.02891786
#
# Stress axis : x y z
#
# Youngs Moduli (GPa) = 43.79424 73.67981 103.96425
#
# Poissons Ratio (x) = 0.06307 0.34531
# Poissons Ratio (y) = 0.03749 0.45497
# Poissons Ratio (z) = 0.14546 0.32244
#
# Static dielectric constant tensor:
#      x y z
#    x 3.965380 0.000000 0.073620 
#    y 0.000000 -1.196350 0.000000 
#    z 0.073620 0.000000 4.340360 
# 
# 
# High freq. dielectric constant tensor:
#      x y z
#    x 1.779540 0.000000 0.008830 
#    y 0.000000 1.799040 0.000000 
#    z 0.008830 0.000000 1.818070 
# 
# From -- ./inp_files/96770.got.cif
#   From: 2010.06.25/outbox.cif.g09.slc.cpg/sg12_49_cif.got.tgz:96770.got - 2010.06.28 00:19:55.
