data_PCOD8107761
_publ_section_title
;
Structure prediction by ZEFSAII (Michael W. Deem and Ramdas Pophale) SiO2 
 PCOD8107761
Probable space group: C 2/M
;
_chemical_formula_sum "Si O2"
_cell_formula_units_Z 56
_cell_length_a 22.380793
_cell_length_b 8.453994
_cell_length_c 15.643679
_cell_angle_alpha 90.000000
_cell_angle_beta 82.845537
_cell_angle_gamma 90.000000
_cell_volume 2936.849232
_symmetry_space_group_name_H-M "C 2/M"
_symmetry_group_IT_number 12
_symmetry_cell_setting 'monoclinic'
loop_
_space_group_symop_operation_xyz
x,y,z
-x,y,-z
-x,-y,-z
x,-y,z
1/2+x,1/2+y,z
1/2-x,1/2+y,-z
1/2-x,1/2-y,-z
1/2+x,1/2-y,z
loop_
_atom_site_type_symbol
_atom_site_label
_atom_site_fract_x
_atom_site_fract_y
_atom_site_fract_z
Si Si1 0.981813 0.314119 0.867515
Si Si2 0.276315 0.188325 0.083794
Si Si3 0.801781 0.686605 0.553814
Si Si4 0.924348 0.180169 0.721285
Si Si5 0.436357 0.818024 0.541437
Si Si6 0.590755 0.185163 0.959890
Si Si7 0.699581 0.814349 0.249862
O O1 0.972014 0.500000 0.851354
O O2 0.974107 0.212831 0.783717
O O3 0.049068 0.276511 0.886468
O O4 0.935919 0.246064 0.947136
O O5 0.344153 0.252989 0.071700
O O6 0.250527 0.265866 0.174128
O O7 0.270529 0.000000 0.090101
O O8 0.250000 0.250000 0.000000
O O9 0.802946 0.500000 0.543963
O O10 0.750000 0.750000 0.500000
O O11 0.870682 0.750725 0.519725
O O12 0.784429 0.733825 0.654716
O O13 0.936163 0.301073 0.642786
O O14 0.858894 0.218821 0.771439
O O15 0.928566 0.000000 0.688579
O O16 0.500000 0.735699 0.500000
O O17 0.438787 0.000000 0.513698
O O18 0.593170 0.000000 0.974775
O O19 0.686786 0.000000 0.245975
#
# Coordination Sequence:
#
# PCOD8107761 Si02
#       7
#     8   8   8   8   8   8   8
#     4   9  16  33  56  74  99 140 181 217 260 317
#     4  11  21  34  53  81 112 144 183 228 274 320
#     4   9  19  36  59  83 108 143 184 229 283 334
#     4  11  21  33  53  82 109 136 173 221 275 322
#     4   9  19  38  60  81 107 142 186 226 267 330
#     4   8  17  32  52  75 101 137 182 221 258 310
#     4  10  21  38  56  77 107 147 189 225 266 327
#
# _framework density 19.068054
#
# number of rings (size 3 to 8) (size 9 to 14) (size 15 to 20)
#    0.000    2.429    0.000    4.714    0.000    4.286 
#    2.571    3.571    0.000    0.000    0.000    0.000 
#    0.000    0.000    0.000    0.000    0.000    0.000 
#
# Total GULP energy -346925.309345 kJ/mol
# GULP energy per Si atom -12390.189619 kJ/mol
# Density = 1.902465 g / cm^3
# Si number density = 19.068054 Si / 1000 Ang^3
#
#
#
# Elastic Constant Matrix: (Units=GPa)
#
#
# Indices 1 2 3 4 5 6 
#
# 1 165.2987 18.9345 72.7385 0.0000 0.0779 0.0000
# 2 18.9345 41.8282 15.1957 0.0000 4.9115 0.0000
# 3 72.7385 15.1957 91.0394 0.0000 9.8357 0.0000
# 4 0.0000 0.0000 0.0000 27.3449 0.0000 1.6713
# 5 0.0779 4.9115 9.8357 0.0000 34.2131 0.0000
# 6 0.0000 0.0000 0.0000 1.6713 0.0000 24.5565
#
#
#
# Elastic Compliance Matrix: (Units=1/GPa)
#
#
# Indices 1 2 3 4 5 6 
#
# 1 0.009626 -0.001868 -0.007643 0.000000 0.002443 0.000000
# 2 -0.001868 0.026024 -0.002527 0.000000 -0.003005 0.000000
# 3 -0.007643 -0.002527 0.018032 0.000000 -0.004804 0.000000
# 4 0.000000 0.000000 0.000000 0.036723 0.000000 -0.002499
# 5 0.002443 -0.003005 -0.004804 0.000000 0.031035 0.000000
# 6 0.000000 0.000000 0.000000 -0.002499 0.000000 0.040893
#
#
# Mechanical properties :
#
#
# Convention : Reuss Voigt Hill
#
# Bulk Modulus (GPa) = 33.77693 56.87818 45.32756
# Shear Modulus (GPa) = 25.47449 29.97605 27.72527
#
# Velocity S-wave (km/s) = 3.65907 3.96922 3.81729
# Velocity P-wave (km/s) = 5.96691 7.13443 6.57663
#
# Compressibility (1/GPa) = 0.02960601
#
# Stress axis : x y z
#
# Youngs Moduli (GPa) = 103.88906 38.42671 55.45847
#
# Poissons Ratio (x) = 0.07177 0.42387
# Poissons Ratio (y) = 0.19402 0.14013
# Poissons Ratio (z) = 0.79402 0.09710
#
# Static dielectric constant tensor:
#      x y z
#    x 9.134790 0.000000 -3.344830 
#    y 0.000000 3.234020 0.000000 
#    z -3.344830 0.000000 5.626360 
# 
# 
# High freq. dielectric constant tensor:
#      x y z
#    x 1.750040 0.000000 0.002930 
#    y 0.000000 1.719460 0.000000 
#    z 0.002930 0.000000 1.735180 
# 
# From -- ./inp_files/230960.got.cif
#   From: 2010.06.25/outbox.cif.g09.slc.cpg/sg12_116_cif.got.tgz:230960.got - 2010.06.28 00:19:55.
