data_PCOD8107701
_publ_section_title
;
Structure prediction by ZEFSAII (Michael W. Deem and Ramdas Pophale) SiO2 
 PCOD8107701
Probable space group: C 2/M
;
_chemical_formula_sum "Si O2"
_cell_formula_units_Z 56
_cell_length_a 13.402740
_cell_length_b 21.643055
_cell_length_c 9.783147
_cell_angle_alpha 90.000000
_cell_angle_beta 65.038014
_cell_angle_gamma 90.000000
_cell_volume 2572.768399
_symmetry_space_group_name_H-M "C 2/M"
_symmetry_group_IT_number 12
_symmetry_cell_setting 'monoclinic'
loop_
_space_group_symop_operation_xyz
x,y,z
-x,y,-z
-x,-y,-z
x,-y,z
1/2+x,1/2+y,z
1/2-x,1/2+y,-z
1/2-x,1/2-y,-z
1/2+x,1/2-y,z
loop_
_atom_site_type_symbol
_atom_site_label
_atom_site_fract_x
_atom_site_fract_y
_atom_site_fract_z
Si Si1 0.900257 0.069058 0.229746
Si Si2 0.813901 0.300854 0.368278
Si Si3 0.958290 0.340906 0.670341
Si Si4 0.695790 0.569084 0.425493
Si Si5 0.375802 0.609951 0.817190
Si Si6 0.716110 0.927345 0.133959
Si Si7 0.203827 0.762214 0.175668
O O1 0.886255 0.073166 0.400164
O O2 0.800106 0.100339 0.202306
O O3 0.022753 0.096179 0.138691
O O4 0.904373 0.000000 0.171197
O O5 0.750000 0.250000 0.500000
O O6 0.776701 0.372752 0.402128
O O7 0.803450 0.280303 0.217584
O O8 0.944145 0.302847 0.315227
O O9 0.907258 0.399529 0.779659
O O10 0.856198 0.294572 0.717763
O O11 0.000000 0.364421 0.500000
O O12 0.753239 0.500000 0.395267
O O13 0.625730 0.573755 0.326080
O O14 0.382959 0.682218 0.781365
O O15 0.262899 0.591956 0.959666
O O16 0.701575 0.000000 0.155586
O O17 0.250000 0.750000 0.000000
#
# Coordination Sequence:
#
# PCOD8107701 Si02
#       7
#     8   8   8   8   8   8   8
#     4  10  21  37  63  99 134 173 218 267 331 401
#     4  11  25  44  71  97 132 179 225 275 341 405
#     4  12  25  44  71  95 133 176 224 282 334 402
#     4  10  22  40  64  98 135 172 225 279 332 407
#     4  11  22  39  67  95 136 177 216 278 343 397
#     4  11  24  42  65  98 136 176 226 276 332 403
#     4  11  25  45  65  98 131 168 224 277 336 400
#
# _framework density 21.766437
#
# number of rings (size 3 to 8) (size 9 to 14) (size 15 to 20)
#    0.000    1.143    2.857    3.000    2.000    3.714 
#    2.571    0.000    0.000    2.571    0.000    0.000 
#    0.000    0.000    0.000    0.000    0.000    0.000 
#
# Total GULP energy -346970.693726 kJ/mol
# GULP energy per Si atom -12391.810490 kJ/mol
# Density = 2.171690 g / cm^3
# Si number density = 21.766437 Si / 1000 Ang^3
#
#
#
# Elastic Constant Matrix: (Units=GPa)
#
#
# Indices 1 2 3 4 5 6 
#
# 1 92.5236 19.4065 22.7297 0.0000 0.6431 0.0000
# 2 19.4065 118.0599 24.7771 0.0000 -4.6772 0.0000
# 3 22.7297 24.7771 97.8350 0.0000 -2.5649 0.0000
# 4 0.0000 0.0000 0.0000 33.2882 0.0000 -1.9730
# 5 0.6431 -4.6772 -2.5649 0.0000 32.5620 0.0000
# 6 0.0000 0.0000 0.0000 -1.9730 0.0000 31.2614
#
#
#
# Elastic Compliance Matrix: (Units=1/GPa)
#
#
# Indices 1 2 3 4 5 6 
#
# 1 0.011698 -0.001451 -0.002367 0.000000 -0.000626 0.000000
# 2 -0.001451 0.009166 -0.001953 0.000000 0.001191 0.000000
# 3 -0.002367 -0.001953 0.011283 0.000000 0.000655 0.000000
# 4 0.000000 0.000000 0.000000 0.030154 0.000000 0.001903
# 5 -0.000626 0.001191 0.000655 0.000000 0.030946 0.000000
# 6 0.000000 0.000000 0.000000 0.001903 0.000000 0.032108
#
#
# Mechanical properties :
#
#
# Convention : Reuss Voigt Hill
#
# Bulk Modulus (GPa) = 48.53064 49.13835 48.83450
# Shear Modulus (GPa) = 34.77909 35.52266 35.15087
#
# Velocity S-wave (km/s) = 4.00162 4.04417 4.02296
# Velocity P-wave (km/s) = 6.61023 6.66569 6.63802
#
# Compressibility (1/GPa) = 0.02060554
#
# Stress axis : x y z
#
# Youngs Moduli (GPa) = 85.48348 109.10064 88.62967
#
# Poissons Ratio (x) = 0.15831 0.20976
# Poissons Ratio (y) = 0.12404 0.17309
# Poissons Ratio (z) = 0.20232 0.21307
#
# Static dielectric constant tensor:
#      x y z
#    x 4.108610 0.000000 0.108760 
#    y 0.000000 4.221290 0.000000 
#    z 0.108760 0.000000 3.956790 
# 
# 
# High freq. dielectric constant tensor:
#      x y z
#    x 1.838790 0.000000 0.012200 
#    y 0.000000 1.866160 0.000000 
#    z 0.012200 0.000000 1.861770 
# 
# From -- ./inp_files/65791.got.cif
#   From: 2010.06.25/outbox.cif.g09.slc.cpg/sg12_33_cif.got.tgz:65791.got - 2010.06.28 00:19:55.
