data_PCOD8107643
_publ_section_title
;
Structure prediction by ZEFSAII (Michael W. Deem and Ramdas Pophale) SiO2 
 PCOD8107643
Probable space group: C 2/M
;
_chemical_formula_sum "Si O2"
_cell_formula_units_Z 32
_cell_length_a 5.420102
_cell_length_b 36.057531
_cell_length_c 7.278391
_cell_angle_alpha 90.000000
_cell_angle_beta 56.114821
_cell_angle_gamma 90.000000
_cell_volume 1180.861102
_symmetry_space_group_name_H-M "C 2/M"
_symmetry_group_IT_number 12
_symmetry_cell_setting 'monoclinic'
loop_
_space_group_symop_operation_xyz
x,y,z
-x,y,-z
-x,-y,-z
x,-y,z
1/2+x,1/2+y,z
1/2-x,1/2+y,-z
1/2-x,1/2-y,-z
1/2+x,1/2-y,z
loop_
_atom_site_type_symbol
_atom_site_label
_atom_site_fract_x
_atom_site_fract_y
_atom_site_fract_z
Si Si1 0.834265 0.575171 0.746588
Si Si2 0.151102 0.344822 0.132186
Si Si3 0.954296 0.734971 0.254013
Si Si4 0.825678 0.042750 0.758765
O O1 0.908372 0.618698 0.723278
O O2 0.478186 0.567997 0.859039
O O3 0.000000 0.558250 0.500000
O O4 0.975303 0.552796 0.863882
O O5 0.990443 0.308570 0.278902
O O6 0.500000 0.336217 0.000000
O O7 0.000000 0.353070 0.000000
O O8 0.750000 0.750000 0.500000
O O9 0.771548 0.742331 0.137404
O O10 0.000000 0.052947 0.500000
O O11 0.860700 0.000000 0.797491
#
# Coordination Sequence:
#
# PCOD8107643 Si02
#       4
#     8   8   8   8
#     4  10  21  37  62  92 123 170 213 258 313 375
#     4  12  26  43  65  94 132 169 206 261 320 379
#     4  10  23  43  67  94 121 164 205 265 306 377
#     4   9  17  33  59  94 126 159 213 272 311 351
#
# _framework density 27.098872
#
# number of rings (size 3 to 8) (size 9 to 14) (size 15 to 20)
#    0.000    1.750    0.000    3.750    3.500    6.000 
#    9.000    0.000    0.000   15.000    0.000    0.000 
#    0.000    0.000    0.000    0.000    0.000    0.000 
#
# Total GULP energy -198481.469235 kJ/mol
# GULP energy per Si atom -12405.091827 kJ/mol
# Density = 2.703719 g / cm^3
# Si number density = 27.098872 Si / 1000 Ang^3
#
#
#
# Elastic Constant Matrix: (Units=GPa)
#
#
# Indices 1 2 3 4 5 6 
#
# 1 304.6112 94.9499 89.0214 0.0000 16.3329 0.0000
# 2 94.9499 213.6460 17.2502 0.0000 26.1081 0.0000
# 3 89.0214 17.2502 79.9685 0.0000 17.3090 0.0000
# 4 0.0000 0.0000 0.0000 106.5610 0.0000 0.6069
# 5 16.3329 26.1081 17.3090 0.0000 43.1822 0.0000
# 6 0.0000 0.0000 0.0000 0.6069 0.0000 59.5644
#
#
#
# Elastic Compliance Matrix: (Units=1/GPa)
#
#
# Indices 1 2 3 4 5 6 
#
# 1 0.005717 -0.002244 -0.006248 0.000000 0.001699 0.000000
# 2 -0.002244 0.005951 0.001981 0.000000 -0.003543 0.000000
# 3 -0.006248 0.001981 0.020565 0.000000 -0.007078 0.000000
# 4 0.000000 0.000000 0.000000 0.009385 0.000000 -0.000096
# 5 0.001699 -0.003543 -0.007078 0.000000 0.027495 0.000000
# 6 0.000000 0.000000 0.000000 -0.000096 0.000000 0.016790
#
#
# Mechanical properties :
#
#
# Convention : Reuss Voigt Hill
#
# Bulk Modulus (GPa) = 52.05204 111.18541 81.61872
# Shear Modulus (GPa) = 47.47095 68.32846 57.89971
#
# Velocity S-wave (km/s) = 4.18995 5.02685 4.62736
# Velocity P-wave (km/s) = 6.53127 8.64933 7.66383
#
# Compressibility (1/GPa) = 0.01921154
#
# Stress axis : x y z
#
# Youngs Moduli (GPa) = 174.90941 168.03967 48.62649
#
# Poissons Ratio (x) = 0.37708 0.30382
# Poissons Ratio (y) = 0.39250 -0.09634
# Poissons Ratio (z) = 1.09285 -0.33294
#
# Static dielectric constant tensor:
#      x y z
#    x 3.911900 0.000000 -1.921680 
#    y 0.000000 4.689180 0.000000 
#    z -1.921680 0.000000 3.567540 
# 
# 
# High freq. dielectric constant tensor:
#      x y z
#    x 2.151000 0.000000 0.004460 
#    y 0.000000 2.071060 0.000000 
#    z 0.004460 0.000000 2.148930 
# 
# From -- ./inp_files/34325.got.cif
#   From: 2010.06.25/outbox.cif.g09.slc.cpg/sg12_18_cif.got.tgz:34325.got - 2010.06.28 00:19:55.
