data_PCOD8107836
_publ_section_title
;
Structure prediction by ZEFSAII (Michael W. Deem and Ramdas Pophale) SiO2 
 PCOD8107836
Probable space group: C 2/M
;
_chemical_formula_sum "Si O2"
_cell_formula_units_Z 56
_cell_length_a 27.330134
_cell_length_b 8.522210
_cell_length_c 17.362768
_cell_angle_alpha 90.000000
_cell_angle_beta 126.284534
_cell_angle_gamma 90.000000
_cell_volume 3259.833672
_symmetry_space_group_name_H-M "C 2/M"
_symmetry_group_IT_number 12
_symmetry_cell_setting 'monoclinic'
loop_
_space_group_symop_operation_xyz
x,y,z
-x,y,-z
-x,-y,-z
x,-y,z
1/2+x,1/2+y,z
1/2-x,1/2+y,-z
1/2-x,1/2-y,-z
1/2+x,1/2-y,z
loop_
_atom_site_type_symbol
_atom_site_label
_atom_site_fract_x
_atom_site_fract_y
_atom_site_fract_z
Si Si1 0.028966 0.317620 0.293571
Si Si2 0.403068 0.683563 0.892575
Si Si3 0.961316 0.185012 0.536989
Si Si4 0.342454 0.318307 0.600544
Si Si5 0.484136 0.316765 0.107147
Si Si6 0.792732 0.317118 0.708570
Si Si7 0.829463 0.316578 0.427518
O O1 0.045443 0.500000 0.309499
O O2 0.008651 0.266594 0.360120
O O3 0.086812 0.216714 0.321432
O O4 0.977953 0.278755 0.181713
O O5 0.389616 0.500000 0.870689
O O6 0.454778 0.735366 0.880401
O O7 0.341397 0.779043 0.820376
O O8 0.425938 0.723179 0.000061
O O9 0.892040 0.236720 0.459830
O O10 0.000000 0.240749 0.500000
O O11 0.964086 0.000000 0.551316
O O12 0.333234 0.500000 0.571526
O O13 0.307667 0.278319 0.645622
O O14 0.317072 0.215075 0.506434
O O15 0.485949 0.500000 0.127083
O O16 0.792864 0.500000 0.690722
O O17 0.725827 0.259666 0.672742
O O18 0.833303 0.500000 0.414445
#
# Coordination Sequence:
#
# PCOD8107836 Si02
#       7
#     8   8   8   8   8   8   8
#     4  11  20  30  49  76 103 132 167 205 249 296
#     4   9  18  31  48  69  96 136 175 210 247 285
#     4  10  21  38  58  78 100 127 161 204 253 300
#     4  11  20  32  47  66  97 133 170 206 242 289
#     4   9  17  31  49  69  98 134 173 210 247 290
#     4  12  22  32  46  69 100 134 170 206 245 290
#     4  11  22  35  51  71  97 129 165 203 246 297
#
# _framework density 17.178791
#
# number of rings (size 3 to 8) (size 9 to 14) (size 15 to 20)
#    0.000    1.571    1.429    8.571    0.000    1.714 
#    0.000    1.429    0.000    0.000    0.000    1.000 
#    0.000    0.000    0.000    0.000    0.000    0.000 
#
# Total GULP energy -347221.673247 kJ/mol
# GULP energy per Si atom -12400.774045 kJ/mol
# Density = 1.713969 g / cm^3
# Si number density = 17.178791 Si / 1000 Ang^3
#
#
#
# Elastic Constant Matrix: (Units=GPa)
#
#
# Indices 1 2 3 4 5 6 
#
# 1 68.2910 21.0794 50.2073 0.0000 -7.1899 0.0000
# 2 21.0794 72.7601 30.7037 0.0000 -3.5984 0.0000
# 3 50.2073 30.7037 117.3687 0.0000 4.3491 0.0000
# 4 0.0000 0.0000 0.0000 30.0317 0.0000 2.2735
# 5 -7.1899 -3.5984 4.3491 0.0000 17.6490 0.0000
# 6 0.0000 0.0000 0.0000 2.2735 0.0000 18.7492
#
#
#
# Elastic Compliance Matrix: (Units=1/GPa)
#
#
# Indices 1 2 3 4 5 6 
#
# 1 0.024007 -0.002079 -0.010165 0.000000 0.011861 0.000000
# 2 -0.002079 0.015942 -0.003401 0.000000 0.003242 0.000000
# 3 -0.010165 -0.003401 0.014066 0.000000 -0.008301 0.000000
# 4 0.000000 0.000000 0.000000 0.033607 0.000000 -0.004075
# 5 0.011861 0.003242 -0.008301 0.000000 0.064199 0.000000
# 6 0.000000 0.000000 0.000000 -0.004075 0.000000 0.053830
#
#
# Mechanical properties :
#
#
# Convention : Reuss Voigt Hill
#
# Bulk Modulus (GPa) = 44.00631 51.37784 47.69208
# Shear Modulus (GPa) = 20.44856 23.71460 22.08158
#
# Velocity S-wave (km/s) = 3.45387 3.71948 3.58913
# Velocity P-wave (km/s) = 6.44809 6.95836 6.70808
#
# Compressibility (1/GPa) = 0.02272401
#
# Stress axis : x y z
#
# Youngs Moduli (GPa) = 41.65401 62.72884 71.09348
#
# Poissons Ratio (x) = 0.13041 0.72269
# Poissons Ratio (y) = 0.08660 0.24180
# Poissons Ratio (z) = 0.42343 0.21335
#
# Static dielectric constant tensor:
#      x y z
#    x 2.941860 0.000000 0.088550 
#    y 0.000000 3.183040 0.000000 
#    z 0.088550 0.000000 3.438480 
# 
# 
# High freq. dielectric constant tensor:
#      x y z
#    x 1.611140 0.000000 0.008020 
#    y 0.000000 1.674870 0.000000 
#    z 0.008020 0.000000 1.668030 
# 
# From -- ./inp_files/291972.got.cif
#   From: 2010.06.25/outbox.cif.g09.slc.cpg/sg12_146_cif.got.tgz:291972.got - 2010.06.28 00:19:55.
