data_PCOD8107496
_publ_section_title
;
Structure prediction by ZEFSAII (Michael W. Deem and Ramdas Pophale) SiO2 
 PCOD8107496
Probable space group: C 2/M
;
_chemical_formula_sum "Si O2"
_cell_formula_units_Z 56
_cell_length_a 23.009680
_cell_length_b 8.518487
_cell_length_c 14.472379
_cell_angle_alpha 90.000000
_cell_angle_beta 69.371677
_cell_angle_gamma 90.000000
_cell_volume 2654.823710
_symmetry_space_group_name_H-M "C 2/M"
_symmetry_group_IT_number 12
_symmetry_cell_setting 'monoclinic'
loop_
_space_group_symop_operation_xyz
x,y,z
-x,y,-z
-x,-y,-z
x,-y,z
1/2+x,1/2+y,z
1/2-x,1/2+y,-z
1/2-x,1/2-y,-z
1/2+x,1/2-y,z
loop_
_atom_site_type_symbol
_atom_site_label
_atom_site_fract_x
_atom_site_fract_y
_atom_site_fract_z
Si Si1 0.942561 0.317036 0.594176
Si Si2 0.907232 0.182078 0.801636
Si Si3 0.169221 0.180670 0.452855
Si Si4 0.198365 0.818816 0.640075
Si Si5 0.332494 0.816837 0.162041
Si Si6 0.273228 0.816302 0.890930
Si Si7 0.057343 0.315371 0.031236
O O1 0.948460 0.500000 0.613238
O O2 0.946172 0.222463 0.688240
O O3 0.878132 0.287436 0.577323
O O4 0.000000 0.257804 0.500000
O O5 0.845669 0.287321 0.836562
O O6 0.947733 0.223779 0.869248
O O7 0.889220 0.000000 0.812633
O O8 0.161905 0.218853 0.565914
O O9 0.239634 0.215862 0.384294
O O10 0.154393 0.000000 0.438906
O O11 0.153053 0.772231 0.749889
O O12 0.217763 0.000000 0.632691
O O13 0.263181 0.771923 0.169940
O O14 0.339335 0.000000 0.176392
O O15 0.380286 0.761873 0.056461
O O16 0.259296 0.000000 0.893861
O O17 0.250000 0.750000 0.000000
O O18 0.057354 0.500000 0.051880
O O19 0.000000 0.265214 0.000000
#
# Coordination Sequence:
#
# PCOD8107496 Si02
#       7
#     8   8   8   8   8   8   8
#     4  11  25  44  66  90 121 164 211 259 311 371
#     4  12  25  42  66  94 126 164 205 258 315 370
#     4  10  21  39  62  90 123 158 202 255 310 365
#     4  10  21  37  60  89 124 161 199 250 308 369
#     4  11  22  37  60  90 124 162 204 251 303 368
#     4  12  23  38  62  92 127 162 203 254 309 370
#     4  10  23  43  64  87 121 164 207 252 302 364
#
# _framework density 21.093679999999999
#
# number of rings (size 3 to 8) (size 9 to 14) (size 15 to 20)
#    0.000    1.143    1.429    5.143    0.000    4.857 
#    0.000    4.286    0.000    0.000    0.000    0.000 
#    0.000    0.000    0.000    0.000    0.000    0.000 
#
# Total GULP energy -347381.463358 kJ/mol
# GULP energy per Si atom -12406.480834 kJ/mol
# Density = 2.104567 g / cm^3
# Si number density = 21.093680 Si / 1000 Ang^3
#
#
#
# Elastic Constant Matrix: (Units=GPa)
#
#
# Indices 1 2 3 4 5 6 
#
# 1 83.0682 16.8242 36.5516 0.0000 12.4235 0.0000
# 2 16.8242 64.2756 39.3289 0.0000 6.6482 0.0000
# 3 36.5516 39.3289 152.2257 0.0000 19.5079 0.0000
# 4 0.0000 0.0000 0.0000 38.2095 0.0000 2.8929
# 5 12.4235 6.6482 19.5079 0.0000 30.8107 0.0000
# 6 0.0000 0.0000 0.0000 2.8929 0.0000 26.5887
#
#
#
# Elastic Compliance Matrix: (Units=1/GPa)
#
#
# Indices 1 2 3 4 5 6 
#
# 1 0.014028 -0.001802 -0.002424 0.000000 -0.003733 0.000000
# 2 -0.001802 0.018742 -0.004336 0.000000 -0.000572 0.000000
# 3 -0.002424 -0.004336 0.008735 0.000000 -0.003618 0.000000
# 4 0.000000 0.000000 0.000000 0.026389 0.000000 -0.002871
# 5 -0.003733 -0.000572 -0.003618 0.000000 0.036375 0.000000
# 6 0.000000 0.000000 0.000000 -0.002871 0.000000 0.037922
#
#
# Mechanical properties :
#
#
# Convention : Reuss Voigt Hill
#
# Bulk Modulus (GPa) = 41.01761 53.88656 47.45209
# Shear Modulus (GPa) = 29.86061 32.91275 31.38668
#
# Velocity S-wave (km/s) = 3.76655 3.95437 3.86160
# Velocity P-wave (km/s) = 6.19706 6.81550 6.51363
#
# Compressibility (1/GPa) = 0.02437977
#
# Stress axis : x y z
#
# Youngs Moduli (GPa) = 71.28410 53.35579 114.47942
#
# Poissons Ratio (x) = 0.09617 0.27755
# Poissons Ratio (y) = 0.12848 0.49640
# Poissons Ratio (z) = 0.17282 0.23136
#
# Static dielectric constant tensor:
#      x y z
#    x 3.722840 0.000000 0.055930 
#    y 0.000000 3.720270 0.000000 
#    z 0.055930 0.000000 4.165970 
# 
# 
# High freq. dielectric constant tensor:
#      x y z
#    x 1.811230 0.000000 0.012910 
#    y 0.000000 1.830610 0.000000 
#    z 0.012910 0.000000 1.844210 
# 
# From -- ./inp_files/237424.got.cif
#   From: 2010.06.25/outbox.cif.g09.slc.cpg/sg12_119_cif.got.tgz:237424.got - 2010.06.28 00:19:55.
