data_PCOD8107089
_publ_section_title
;
Structure prediction by ZEFSAII (Michael W. Deem and Ramdas Pophale) SiO2 
 PCOD8107089
Probable space group: C 2/M
;
_chemical_formula_sum "Si O2"
_cell_formula_units_Z 48
_cell_length_a 18.089568
_cell_length_b 28.865576
_cell_length_c 8.856821
_cell_angle_alpha 90.000000
_cell_angle_beta 149.610375
_cell_angle_gamma 90.000000
_cell_volume 2339.546697
_symmetry_space_group_name_H-M "C 2/M"
_symmetry_group_IT_number 12
_symmetry_cell_setting 'monoclinic'
loop_
_space_group_symop_operation_xyz
x,y,z
-x,y,-z
-x,-y,-z
x,-y,z
1/2+x,1/2+y,z
1/2-x,1/2+y,-z
1/2-x,1/2-y,-z
1/2+x,1/2-y,z
loop_
_atom_site_type_symbol
_atom_site_label
_atom_site_fract_x
_atom_site_fract_y
_atom_site_fract_z
Si Si1 0.529915 0.189867 0.886303
Si Si2 0.059015 0.855271 0.939678
Si Si3 0.565180 0.053194 0.773243
Si Si4 0.832997 0.398096 0.536995
Si Si5 0.104093 0.770953 0.813637
Si Si6 0.741640 0.616737 0.704207
O O1 0.414600 0.149965 0.645468
O O2 0.513467 0.230774 0.738172
O O3 0.500000 0.210299 0.000000
O O4 0.693353 0.168445 0.161723
O O5 0.133782 0.812291 0.984379
O O6 0.932559 0.878483 0.614696
O O7 0.179064 0.895399 0.177629
O O8 0.000000 0.838364 0.000000
O O9 0.500000 0.070797 0.500000
O O10 0.432088 0.059402 0.656690
O O11 0.614284 0.000000 0.853182
O O12 0.708128 0.083633 0.069241
O O13 0.809754 0.405807 0.673409
O O14 0.000000 0.790862 0.500000
O O15 0.250000 0.750000 0.000000
#
# Coordination Sequence:
#
# PCOD8107089 Si02
#       6
#     8   8   8   8   8   8
#     4   9  18  35  54  73 102 144 189 228 269 316
#     4  10  21  38  56  78 111 148 184 226 278 325
#     4  10  21  37  58  84 111 140 173 214 271 335
#     4   9  19  35  58  81 103 138 183 226 267 319
#     4  12  24  34  49  78 111 145 189 231 270 316
#     4   9  19  36  58  81 104 139 184 225 270 320
#
# _framework density 20.516794000000001
#
# number of rings (size 3 to 8) (size 9 to 14) (size 15 to 20)
#    0.000    2.167    0.000    4.000    0.000    8.000 
#    0.000    7.500    0.000    5.000    0.000    0.000 
#    0.000    0.000    0.000    0.000    0.000    0.000 
#
# Total GULP energy -297577.759784 kJ/mol
# GULP energy per Si atom -12399.073324 kJ/mol
# Density = 2.047010 g / cm^3
# Si number density = 20.516794 Si / 1000 Ang^3
#
#
#
# Elastic Constant Matrix: (Units=GPa)
#
#
# Indices 1 2 3 4 5 6 
#
# 1 62.6436 24.6503 21.6670 0.0000 -8.0339 0.0000
# 2 24.6503 57.5818 27.1574 0.0000 -14.2132 0.0000
# 3 21.6670 27.1574 126.8522 0.0000 -8.6824 0.0000
# 4 0.0000 0.0000 0.0000 21.9156 0.0000 -6.3385
# 5 -8.0339 -14.2132 -8.6824 0.0000 32.5657 0.0000
# 6 0.0000 0.0000 0.0000 -6.3385 0.0000 27.5529
#
#
#
# Elastic Compliance Matrix: (Units=1/GPa)
#
#
# Indices 1 2 3 4 5 6 
#
# 1 0.019570 -0.007279 -0.001702 0.000000 0.001197 0.000000
# 2 -0.007279 0.023987 -0.003360 0.000000 0.007778 0.000000
# 3 -0.001702 -0.003360 0.008927 0.000000 0.000494 0.000000
# 4 0.000000 0.000000 0.000000 0.048882 0.000000 0.011245
# 5 0.001197 0.007778 0.000494 0.000000 0.034529 0.000000
# 6 0.000000 0.000000 0.000000 0.011245 0.000000 0.038881
#
#
# Mechanical properties :
#
#
# Convention : Reuss Voigt Hill
#
# Bulk Modulus (GPa) = 35.96936 43.78076 39.87506
# Shear Modulus (GPa) = 23.95492 27.98038 25.96765
#
# Velocity S-wave (km/s) = 3.42069 3.69694 3.56150
# Velocity P-wave (km/s) = 5.75944 6.29353 6.03240
#
# Compressibility (1/GPa) = 0.02780144
#
# Stress axis : x y z
#
# Youngs Moduli (GPa) = 51.09838 41.68893 112.01963
#
# Poissons Ratio (x) = 0.30347 0.19069
# Poissons Ratio (y) = 0.37197 0.37635
# Poissons Ratio (z) = 0.08698 0.14006
#
# Static dielectric constant tensor:
#      x y z
#    x 3.806940 0.000000 -0.065870 
#    y 0.000000 3.279010 0.000000 
#    z -0.065870 0.000000 3.953960 
# 
# 
# High freq. dielectric constant tensor:
#      x y z
#    x 1.801010 0.000000 -0.009530 
#    y 0.000000 1.763930 0.000000 
#    z -0.009530 0.000000 1.814090 
# 
# From -- ./inp_files/80829.got.cif
#   From: 2010.06.25/outbox.cif.g09.slc.cpg/sg12_41_cif.got.tgz:80829.got - 2010.06.28 00:19:55.
