data_PCOD8107286
_publ_section_title
;
Structure prediction by ZEFSAII (Michael W. Deem and Ramdas Pophale) SiO2 
 PCOD8107286
Probable space group: C 2/M
;
_chemical_formula_sum "Si O2"
_cell_formula_units_Z 48
_cell_length_a 29.184351
_cell_length_b 9.007659
_cell_length_c 16.244420
_cell_angle_alpha 90.000000
_cell_angle_beta 37.830339
_cell_angle_gamma 90.000000
_cell_volume 2619.130354
_symmetry_space_group_name_H-M "C 2/M"
_symmetry_group_IT_number 12
_symmetry_cell_setting 'monoclinic'
loop_
_space_group_symop_operation_xyz
x,y,z
-x,y,-z
-x,-y,-z
x,-y,z
1/2+x,1/2+y,z
1/2-x,1/2+y,-z
1/2-x,1/2-y,-z
1/2+x,1/2-y,z
loop_
_atom_site_type_symbol
_atom_site_label
_atom_site_fract_x
_atom_site_fract_y
_atom_site_fract_z
Si Si1 0.029062 0.326118 0.368419
Si Si2 0.671158 0.326980 0.615799
Si Si3 0.452586 0.328874 0.334254
Si Si4 0.097308 0.169162 0.029653
Si Si5 0.172061 0.172834 0.093547
Si Si6 0.087811 0.670483 0.880120
O O1 0.042794 0.500000 0.337454
O O2 0.107022 0.243231 0.241645
O O3 0.000000 0.286424 0.500000
O O4 0.964635 0.273236 0.396836
O O5 0.682971 0.500000 0.612422
O O6 0.750000 0.250000 0.500000
O O7 0.627807 0.295304 0.591662
O O8 0.624857 0.267001 0.757491
O O9 0.461138 0.500000 0.349578
O O10 0.514391 0.290843 0.178016
O O11 0.155239 0.196678 0.021176
O O12 0.100709 0.000000 0.993533
O O13 0.118838 0.276659 0.924354
O O14 0.176812 0.000000 0.109286
O O15 0.250000 0.250000 0.000000
O O16 0.110223 0.500000 0.835774
O O17 0.000000 0.696543 0.000000
#
# Coordination Sequence:
#
# PCOD8107286 Si02
#       6
#     8   8   8   8   8   8
#     4  10  21  37  59  86 114 148 190 233 279 337
#     4  11  23  40  59  82 116 153 189 233 287 337
#     4   9  19  36  59  83 110 148 190 232 281 337
#     4   9  18  35  58  84 111 146 190 231 280 335
#     4  10  21  38  60  86 116 150 187 233 287 337
#     4  11  22  35  57  88 115 145 190 234 275 333
#
# _framework density 18.326694
#
# number of rings (size 3 to 8) (size 9 to 14) (size 15 to 20)
#    0.000    2.000    1.667    3.000    0.000    6.667 
#    3.000    0.000    0.000    0.000    0.000    0.000 
#    0.000    0.000    0.000    0.000    0.000    0.000 
#
# Total GULP energy -297664.200122 kJ/mol
# GULP energy per Si atom -12402.675005 kJ/mol
# Density = 1.828498 g / cm^3
# Si number density = 18.326694 Si / 1000 Ang^3
#
#
#
# Elastic Constant Matrix: (Units=GPa)
#
#
# Indices 1 2 3 4 5 6 
#
# 1 115.5196 79.1706 65.7928 -0.0025 -2.3097 0.0018
# 2 79.1706 126.8615 72.7899 0.0073 0.8492 -0.0065
# 3 65.7928 72.7899 87.4253 0.0025 2.3681 -0.0038
# 4 -0.0025 0.0073 0.0025 35.3454 -0.0025 1.5059
# 5 -2.3097 0.8492 2.3681 -0.0025 32.3281 0.0030
# 6 0.0018 -0.0065 -0.0038 1.5059 0.0030 32.6152
#
#
#
# Elastic Compliance Matrix: (Units=1/GPa)
#
#
# Indices 1 2 3 4 5 6 
#
# 1 0.017666 -0.006469 -0.007963 0.000003 0.002015 -0.000004
# 2 -0.006469 0.017471 -0.009672 -0.000004 -0.000213 0.000003
# 3 -0.007963 -0.009672 0.025543 -0.000001 -0.002186 0.000002
# 4 0.000003 -0.000004 -0.000001 0.028348 0.000003 -0.001309
# 5 0.002015 -0.000213 -0.002186 0.000003 0.031243 -0.000003
# 6 -0.000004 0.000003 0.000002 -0.001309 -0.000003 0.030721
#
#
# Mechanical properties :
#
#
# Convention : Reuss Voigt Hill
#
# Bulk Modulus (GPa) = 80.18328 85.03479 82.60903
# Shear Modulus (GPa) = 24.58753 27.52795 26.05774
#
# Velocity S-wave (km/s) = 3.66679 3.87986 3.77483
# Velocity P-wave (km/s) = 7.85966 8.15912 8.01079
#
# Compressibility (1/GPa) = 0.01247143
#
# Stress axis : x y z
#
# Youngs Moduli (GPa) = 56.60723 57.23862 39.15026
#
# Poissons Ratio (x) = 0.37029 0.31174
# Poissons Ratio (y) = 0.36621 0.37865
# Poissons Ratio (z) = 0.45075 0.55360
#
# Static dielectric constant tensor:
#      x y z
#    x 3.472860 -0.000010 0.060830 
#    y -0.000010 3.468580 0.000010 
#    z 0.060830 0.000010 3.072630 
# 
# 
# High freq. dielectric constant tensor:
#      x y z
#    x 1.717720 0.000000 0.002910 
#    y 0.000000 1.722460 0.000000 
#    z 0.002910 0.000000 1.696050 
# 
# From -- ./inp_files/244739.got.cif
#   From: 2010.06.25/outbox.cif.g09.slc.cpg/sg12_123_cif.got.tgz:244739.got - 2010.06.28 00:19:55.
