data_PCOD8107665
_publ_section_title
;
Structure prediction by ZEFSAII (Michael W. Deem and Ramdas Pophale) SiO2 
 PCOD8107665
Probable space group: C 2/M
;
_chemical_formula_sum "Si O2"
_cell_formula_units_Z 52
_cell_length_a 22.030849
_cell_length_b 11.518119
_cell_length_c 12.056801
_cell_angle_alpha 90.000000
_cell_angle_beta 61.625411
_cell_angle_gamma 90.000000
_cell_volume 2691.895398
_symmetry_space_group_name_H-M "C 2/M"
_symmetry_group_IT_number 12
_symmetry_cell_setting 'monoclinic'
loop_
_space_group_symop_operation_xyz
x,y,z
-x,y,-z
-x,-y,-z
x,-y,z
1/2+x,1/2+y,z
1/2-x,1/2+y,-z
1/2-x,1/2-y,-z
1/2+x,1/2-y,z
loop_
_atom_site_type_symbol
_atom_site_label
_atom_site_fract_x
_atom_site_fract_y
_atom_site_fract_z
Si Si1 0.359071 0.730992 0.340537
Si Si2 0.664267 0.500000 0.352322
Si Si3 0.147170 0.788690 0.024438
Si Si4 0.920721 0.366820 0.099734
Si Si5 0.916126 0.000000 0.808202
Si Si6 0.425081 0.500000 0.356876
Si Si7 0.710733 0.252758 0.373717
Si Si8 0.700909 0.867523 0.161209
O O1 0.407013 0.826756 0.238548
O O2 0.399551 0.609828 0.308314
O O3 0.341916 0.771450 0.480099
O O4 0.287503 0.713651 0.337794
O O5 0.636306 0.500000 0.250756
O O6 0.602281 0.500000 0.493783
O O7 0.711798 0.387215 0.332687
O O8 0.150944 0.700261 0.122513
O O9 0.093806 0.888184 0.105343
O O10 0.123654 0.718899 0.937278
O O11 0.219726 0.847934 0.936632
O O12 0.896689 0.500000 0.105844
O O13 0.000000 0.352780 0.000000
O O14 0.993472 0.000000 0.697730
O O15 0.682923 0.172316 0.300355
O O16 0.681119 0.000000 0.164752
#
# Coordination Sequence:
#
# PCOD8107665 Si02
#       8
#     8   4   8   8   4   4   8   8
#     4  10  22  39  59  90 116 159 198 250 302 354
#     4  10  21  40  60  96 117 159 205 247 310 353
#     4  11  23  38  59  89 117 156 202 241 302 354
#     4  11  24  41  60  83 119 163 202 238 290 363
#     4  12  21  39  64  89 121 165 200 248 296 370
#     4  10  23  39  62  89 127 156 201 253 300 357
#     4  10  21  37  63  87 121 151 201 253 302 359
#     4  11  22  37  57  87 122 151 192 253 299 353
#
# _framework density 19.317243999999999
#
# number of rings (size 3 to 8) (size 9 to 14) (size 15 to 20)
#    0.000    1.385    3.846    1.615    2.154    1.231 
#    0.000    1.538    0.000    0.000    0.000    5.385 
#    0.000    0.000    0.000    0.000    0.000    0.000 
#
# Total GULP energy -322491.699813 kJ/mol
# GULP energy per Si atom -12403.526916 kJ/mol
# Density = 1.927328 g / cm^3
# Si number density = 19.317244 Si / 1000 Ang^3
#
#
#
# Elastic Constant Matrix: (Units=GPa)
#
#
# Indices 1 2 3 4 5 6 
#
# 1 50.1887 25.6344 19.9276 0.0000 3.6181 0.0000
# 2 25.6344 128.2347 50.3456 0.0000 5.7126 0.0000
# 3 19.9276 50.3456 107.9690 0.0000 9.7016 0.0000
# 4 0.0000 0.0000 0.0000 33.4516 0.0000 -0.9562
# 5 3.6181 5.7126 9.7016 0.0000 28.9480 0.0000
# 6 0.0000 0.0000 0.0000 -0.9562 0.0000 16.1188
#
#
#
# Elastic Compliance Matrix: (Units=1/GPa)
#
#
# Indices 1 2 3 4 5 6 
#
# 1 0.022797 -0.003541 -0.002437 0.000000 -0.001334 0.000000
# 2 -0.003541 0.010100 -0.004038 0.000000 -0.000197 0.000000
# 3 -0.002437 -0.004038 0.011853 0.000000 -0.002871 0.000000
# 4 0.000000 0.000000 0.000000 0.029945 0.000000 0.001776
# 5 -0.001334 -0.000197 -0.002871 0.000000 0.035712 0.000000
# 6 0.000000 0.000000 0.000000 0.001776 0.000000 0.062145
#
#
# Mechanical properties :
#
#
# Convention : Reuss Voigt Hill
#
# Bulk Modulus (GPa) = 40.45656 53.13416 46.79536
# Shear Modulus (GPa) = 24.89745 28.40265 26.65005
#
# Velocity S-wave (km/s) = 3.59398 3.83864 3.71832
# Velocity P-wave (km/s) = 6.18150 6.87115 6.53543
#
# Compressibility (1/GPa) = 0.02471787
#
# Stress axis : x y z
#
# Youngs Moduli (GPa) = 43.86529 99.00597 84.36888
#
# Poissons Ratio (x) = 0.35060 0.20557
# Poissons Ratio (y) = 0.15533 0.34072
# Poissons Ratio (z) = 0.10688 0.39983
#
# Static dielectric constant tensor:
#      x y z
#    x 3.353060 0.000000 0.040920 
#    y 0.000000 3.628660 0.000000 
#    z 0.040920 0.000000 3.760200 
# 
# 
# High freq. dielectric constant tensor:
#      x y z
#    x 1.735130 0.000000 0.005770 
#    y 0.000000 1.758330 0.000000 
#    z 0.005770 0.000000 1.768020 
# 
# From -- ./inp_files/164802.got.cif
#   From: 2010.06.25/outbox.cif.g09.slc.cpg/sg12_83_cif.got.tgz:164802.got - 2010.06.28 00:19:55.
