data_PCOD8107999
_publ_section_title
;
Structure prediction by ZEFSAII (Michael W. Deem and Ramdas Pophale) SiO2 
 PCOD8107999
Probable space group: C 2/M
;
_chemical_formula_sum "Si O2"
_cell_formula_units_Z 56
_cell_length_a 17.782116
_cell_length_b 8.518019
_cell_length_c 18.556413
_cell_angle_alpha 90.000000
_cell_angle_beta 76.535718
_cell_angle_gamma 90.000000
_cell_volume 2733.458585
_symmetry_space_group_name_H-M "C 2/M"
_symmetry_group_IT_number 12
_symmetry_cell_setting 'monoclinic'
loop_
_space_group_symop_operation_xyz
x,y,z
-x,y,-z
-x,-y,-z
x,-y,z
1/2+x,1/2+y,z
1/2-x,1/2+y,-z
1/2-x,1/2-y,-z
1/2+x,1/2-y,z
loop_
_atom_site_type_symbol
_atom_site_label
_atom_site_fract_x
_atom_site_fract_y
_atom_site_fract_z
Si Si1 0.772042 0.183637 0.071886
Si Si2 0.300691 0.316721 0.648886
Si Si3 0.647361 0.816391 0.214486
Si Si4 0.583774 0.313997 0.501101
Si Si5 0.360572 0.683660 0.356273
Si Si6 0.563325 0.817661 0.928943
Si Si7 0.513484 0.319371 0.792484
O O1 0.711995 0.246930 0.144645
O O2 0.857940 0.225833 0.076310
O O3 0.764981 0.000000 0.068673
O O4 0.750000 0.250000 0.000000
O O5 0.313845 0.500000 0.662832
O O6 0.321928 0.212940 0.712616
O O7 0.354201 0.257964 0.571465
O O8 0.212537 0.287281 0.648088
O O9 0.570883 0.716558 0.218692
O O10 0.630117 0.000000 0.207418
O O11 0.500000 0.242142 0.500000
O O12 0.578174 0.500000 0.504285
O O13 0.609428 0.253258 0.573647
O O14 0.338308 0.500000 0.363688
O O15 0.426624 0.718111 0.283801
O O16 0.531703 0.789676 0.856210
O O17 0.580044 0.000000 0.937370
O O18 0.500000 0.756250 0.000000
O O19 0.518538 0.500000 0.815545
#
# Coordination Sequence:
#
# PCOD8107999 Si02
#       7
#     8   8   8   8   8   8   8
#     4  11  24  41  62  88 117 153 195 238 289 345
#     4  11  22  36  59  88 115 151 198 239 282 341
#     4  11  24  41  60  85 119 154 189 236 293 345
#     4   9  18  35  58  83 114 152 193 238 287 340
#     4  10  21  38  59  84 118 155 190 236 292 343
#     4  11  24  41  61  87 120 156 192 235 289 343
#     4  11  23  39  62  89 115 151 197 239 286 344
#
# _framework density 20.486867
#
# number of rings (size 3 to 8) (size 9 to 14) (size 15 to 20)
#    0.000    1.429    0.000    5.143    0.000   13.714 
#    0.000    0.714    0.000    3.000    0.000    0.000 
#    0.000    0.000    0.000    0.000    0.000    0.000 
#
# Total GULP energy -347379.135168 kJ/mol
# GULP energy per Si atom -12406.397685 kJ/mol
# Density = 2.044024 g / cm^3
# Si number density = 20.486867 Si / 1000 Ang^3
#
#
#
# Elastic Constant Matrix: (Units=GPa)
#
#
# Indices 1 2 3 4 5 6 
#
# 1 148.2284 15.1893 65.1962 0.0000 -7.6612 0.0000
# 2 15.1893 36.9918 26.5705 0.0000 -10.9569 0.0000
# 3 65.1962 26.5705 166.5074 0.0000 -4.9849 0.0000
# 4 0.0000 0.0000 0.0000 19.8334 0.0000 7.7070
# 5 -7.6612 -10.9569 -4.9849 0.0000 47.3722 0.0000
# 6 0.0000 0.0000 0.0000 7.7070 0.0000 31.0092
#
#
#
# Elastic Compliance Matrix: (Units=1/GPa)
#
#
# Indices 1 2 3 4 5 6 
#
# 1 0.008224 -0.000957 -0.003044 0.000000 0.000788 0.000000
# 2 -0.000957 0.032828 -0.004656 0.000000 0.006948 0.000000
# 3 -0.003044 -0.004656 0.007918 0.000000 -0.000736 0.000000
# 4 0.000000 0.000000 0.000000 0.055810 0.000000 -0.013871
# 5 0.000788 0.006948 -0.000736 0.000000 0.022767 0.000000
# 6 0.000000 0.000000 0.000000 -0.013871 0.000000 0.035696
#
#
# Mechanical properties :
#
#
# Convention : Reuss Voigt Hill
#
# Bulk Modulus (GPa) = 31.58822 62.84885 47.21854
# Shear Modulus (GPa) = 26.16305 35.96106 31.06206
#
# Velocity S-wave (km/s) = 3.57748 4.19420 3.89806
# Velocity P-wave (km/s) = 5.70234 7.36202 6.58468
#
# Compressibility (1/GPa) = 0.03165737
#
# Stress axis : x y z
#
# Youngs Moduli (GPa) = 121.59645 30.46150 126.28724
#
# Poissons Ratio (x) = 0.02915 0.38439
# Poissons Ratio (y) = 0.11638 0.58797
# Poissons Ratio (z) = 0.37011 0.14182
#
# Static dielectric constant tensor:
#      x y z
#    x 3.656780 0.000000 -0.168120 
#    y 0.000000 3.505670 0.000000 
#    z -0.168120 0.000000 3.886690 
# 
# 
# High freq. dielectric constant tensor:
#      x y z
#    x 1.818320 0.000000 -0.001470 
#    y 0.000000 1.788740 0.000000 
#    z -0.001470 0.000000 1.821060 
# 
# From -- ./inp_files/275283.got.cif
#   From: 2010.06.25/outbox.cif.g09.slc.cpg/sg12_138_cif.got.tgz:275283.got - 2010.06.28 00:19:55.
