data_PCOD8107794
_publ_section_title
;
Structure prediction by ZEFSAII (Michael W. Deem and Ramdas Pophale) SiO2 
 PCOD8107794
Probable space group: C 2/M
;
_chemical_formula_sum "Si O2"
_cell_formula_units_Z 60
_cell_length_a 22.144329
_cell_length_b 9.116767
_cell_length_c 28.865197
_cell_angle_alpha 90.000000
_cell_angle_beta 150.578452
_cell_angle_gamma 90.000000
_cell_volume 2862.621956
_symmetry_space_group_name_H-M "C 2/M"
_symmetry_group_IT_number 12
_symmetry_cell_setting 'monoclinic'
loop_
_space_group_symop_operation_xyz
x,y,z
-x,y,-z
-x,-y,-z
x,-y,z
1/2+x,1/2+y,z
1/2-x,1/2+y,-z
1/2-x,1/2-y,-z
1/2+x,1/2-y,z
loop_
_atom_site_type_symbol
_atom_site_label
_atom_site_fract_x
_atom_site_fract_y
_atom_site_fract_z
Si Si1 0.966453 0.342879 0.574522
Si Si2 0.764735 0.338356 0.697954
Si Si3 0.755390 0.165720 0.782062
Si Si4 0.915609 0.823700 0.725377
Si Si5 0.325243 0.177331 0.091263
Si Si6 0.933291 0.840276 0.635832
Si Si7 0.000000 0.220995 0.500000
Si Si8 0.779264 0.165950 0.153302
O O1 0.907159 0.500000 0.543632
O O2 0.893040 0.244818 0.562627
O O3 0.109559 0.342582 0.681503
O O4 0.945026 0.311224 0.506229
O O5 0.826502 0.500000 0.737520
O O6 0.806964 0.256627 0.772922
O O7 0.804982 0.234341 0.682787
O O8 0.617118 0.368096 0.597464
O O9 0.794729 0.252452 0.854856
O O10 0.810158 0.000000 0.818783
O O11 0.880623 0.777935 0.649200
O O12 0.037326 0.738249 0.822183
O O13 0.934669 0.000000 0.742368
O O14 0.262860 0.234638 0.096861
O O15 0.322908 0.000000 0.088056
O O16 0.250000 0.250000 0.000000
O O17 0.079480 0.844633 0.738379
O O18 0.878766 0.000000 0.591014
O O19 0.727867 0.000000 0.111322
#
# Coordination Sequence:
#
# PCOD8107794 Si02
#       8
#     8   8   8   8   8   8   4   8
#     4   9  17  29  49  73  99 132 176 223 268 319
#     4  11  22  36  55  79 106 142 185 231 277 327
#     4   9  17  30  49  75 104 139 180 224 270 320
#     4  10  21  38  57  80 110 144 180 224 274 327
#     4  11  21  35  57  86 117 148 181 220 267 322
#     4   8  16  30  49  72 101 134 170 214 268 321
#     4  10  22  36  52  76 108 142 182 230 280 326
#     4   9  16  29  50  78 109 141 179 223 265 314
#
# _framework density 20.959806
#
# number of rings (size 3 to 8) (size 9 to 14) (size 15 to 20)
#    0.000    2.400    0.000    4.000    0.000    9.067 
#    0.000    0.667    0.000    0.800    0.000    5.600 
#    0.000    0.000    0.000    0.000    0.000    0.000 
#
# Total GULP energy -371708.348397 kJ/mol
# GULP energy per Si atom -12390.278280 kJ/mol
# Density = 2.091210 g / cm^3
# Si number density = 20.959806 Si / 1000 Ang^3
#
#
#
# Elastic Constant Matrix: (Units=GPa)
#
#
# Indices 1 2 3 4 5 6 
#
# 1 146.8790 68.6482 36.5359 0.0001 -41.7901 0.0000
# 2 68.6482 173.3198 39.0044 0.0000 -24.0210 -0.0003
# 3 36.5359 39.0044 57.1400 0.0004 -23.2443 0.0000
# 4 0.0001 0.0000 0.0004 6.3862 0.0001 -0.3315
# 5 -41.7901 -24.0210 -23.2443 0.0001 29.7920 -0.0001
# 6 0.0000 -0.0003 0.0000 -0.3315 -0.0001 31.3163
#
#
#
# Elastic Compliance Matrix: (Units=1/GPa)
#
#
# Indices 1 2 3 4 5 6 
#
# 1 0.012452 -0.002857 0.000230 0.000000 0.015342 0.000000
# 2 -0.002857 0.007628 -0.003675 0.000000 -0.000725 0.000000
# 3 0.000230 -0.003675 0.027524 -0.000002 0.018834 0.000000
# 4 0.000000 0.000000 -0.000002 0.156674 -0.000002 0.001658
# 5 0.015342 -0.000725 0.018834 -0.000002 0.069197 0.000000
# 6 0.000000 0.000000 0.000000 0.001658 0.000000 0.031950
#
#
# Mechanical properties :
#
#
# Convention : Reuss Voigt Hill
#
# Bulk Modulus (GPa) = 28.57238 73.96843 51.27040
# Shear Modulus (GPa) = 15.16552 29.04223 22.10387
#
# Velocity S-wave (km/s) = 2.69281 3.72642 3.25096
# Velocity P-wave (km/s) = 4.83010 7.34045 6.21338
#
# Compressibility (1/GPa) = 0.03499883
#
# Stress axis : x y z
#
# Youngs Moduli (GPa) = 80.31069 131.09748 36.33175
#
# Poissons Ratio (x) = 0.37458 -0.00834
# Poissons Ratio (y) = 0.22947 0.13351
# Poissons Ratio (z) = -0.01844 0.48175
#
# Static dielectric constant tensor:
#      x y z
#    x 3.938360 0.000000 -0.340690 
#    y 0.000000 4.053830 0.000000 
#    z -0.340690 0.000000 3.415250 
# 
# 
# High freq. dielectric constant tensor:
#      x y z
#    x 1.823930 0.000000 -0.030050 
#    y 0.000000 1.831240 0.000000 
#    z -0.030050 0.000000 1.778550 
# 
# From -- ./inp_files/365528.got.cif
#   From: 2010.06.25/outbox.cif.g09.slc.cpg/sg12_183_cif.got.tgz:365528.got - 2010.06.28 00:19:55.
