data_PCOD8107606
_publ_section_title
;
Structure prediction by ZEFSAII (Michael W. Deem and Ramdas Pophale) SiO2 
 PCOD8107606
Probable space group: C 2/M
;
_chemical_formula_sum "Si O2"
_cell_formula_units_Z 56
_cell_length_a 26.705167
_cell_length_b 8.679384
_cell_length_c 12.453355
_cell_angle_alpha 90.000000
_cell_angle_beta 112.108288
_cell_angle_gamma 90.000000
_cell_volume 2674.261667
_symmetry_space_group_name_H-M "C 2/M"
_symmetry_group_IT_number 12
_symmetry_cell_setting 'monoclinic'
loop_
_space_group_symop_operation_xyz
x,y,z
-x,y,-z
-x,-y,-z
x,-y,z
1/2+x,1/2+y,z
1/2-x,1/2+y,-z
1/2-x,1/2-y,-z
1/2+x,1/2-y,z
loop_
_atom_site_type_symbol
_atom_site_label
_atom_site_fract_x
_atom_site_fract_y
_atom_site_fract_z
Si Si1 0.154884 0.818821 0.658465
Si Si2 0.615360 0.679038 0.226123
Si Si3 0.003146 0.322245 0.189327
Si Si4 0.389484 0.178757 0.999795
Si Si5 0.463750 0.674233 0.366774
Si Si6 0.699012 0.818785 0.899807
Si Si7 0.191054 0.681230 0.465782
O O1 0.095758 0.770758 0.650189
O O2 0.196928 0.758970 0.781165
O O3 0.164492 0.737908 0.553701
O O4 0.161562 0.000000 0.647629
O O5 0.625425 0.500000 0.254656
O O6 0.552697 0.717269 0.193829
O O7 0.653135 0.772837 0.336622
O O8 0.631243 0.721765 0.117267
O O9 0.019988 0.500000 0.191028
O O10 0.952076 0.283073 0.072957
O O11 0.987947 0.290308 0.299809
O O12 0.354595 0.223881 0.075906
O O13 0.381681 0.000000 0.965042
O O14 0.500000 0.684105 0.500000
O O15 0.463106 0.500000 0.320008
O O16 0.705764 0.000000 0.890921
O O17 0.750000 0.750000 0.000000
O O18 0.196488 0.500000 0.473051
O O19 0.250000 0.750000 0.500000
#
# Coordination Sequence:
#
# PCOD8107606 Si02
#       7
#     8   8   8   8   8   8   8
#     4  11  23  42  68  99 136 172 214 267 326 390
#     4  12  26  43  66  97 133 174 221 271 327 391
#     4  11  22  40  65  95 131 172 217 268 326 391
#     4  10  23  43  66  95 133 175 220 270 327 390
#     4  10  21  37  61  93 131 171 212 263 318 381
#     4  11  24  43  67  97 133 174 223 274 328 391
#     4  12  27  48  72  97 130 172 220 271 327 389
#
# _framework density 20.940358
#
# number of rings (size 3 to 8) (size 9 to 14) (size 15 to 20)
#    0.000    1.000    1.429    5.143    2.000    6.000 
#    0.000    0.000    0.000    0.000    0.000    0.000 
#    0.000    0.000    0.000    0.000    0.000    0.000 
#
# Total GULP energy -347401.476743 kJ/mol
# GULP energy per Si atom -12407.195598 kJ/mol
# Density = 2.089270 g / cm^3
# Si number density = 20.940358 Si / 1000 Ang^3
#
#
#
# Elastic Constant Matrix: (Units=GPa)
#
#
# Indices 1 2 3 4 5 6 
#
# 1 64.1072 31.4557 20.5479 0.0000 5.3717 0.0000
# 2 31.4557 108.2861 34.8568 0.0000 -6.2598 0.0000
# 3 20.5479 34.8568 113.5169 0.0000 -4.0227 0.0000
# 4 0.0000 0.0000 0.0000 38.6924 0.0000 -1.3970
# 5 5.3717 -6.2598 -4.0227 0.0000 36.3938 0.0000
# 6 0.0000 0.0000 0.0000 -1.3970 0.0000 36.5302
#
#
#
# Elastic Compliance Matrix: (Units=1/GPa)
#
#
# Indices 1 2 3 4 5 6 
#
# 1 0.019088 -0.005121 -0.002022 0.000000 -0.003922 0.000000
# 2 -0.005121 0.011695 -0.002576 0.000000 0.002483 0.000000
# 3 -0.002022 -0.002576 0.010000 0.000000 0.000961 0.000000
# 4 0.000000 0.000000 0.000000 0.025881 0.000000 0.000990
# 5 -0.003922 0.002483 0.000961 0.000000 0.028589 0.000000
# 6 0.000000 0.000000 0.000000 0.000990 0.000000 0.027412
#
#
# Mechanical properties :
#
#
# Convention : Reuss Voigt Hill
#
# Bulk Modulus (GPa) = 46.84706 51.07011 48.95858
# Shear Modulus (GPa) = 33.50786 35.59327 34.55057
#
# Velocity S-wave (km/s) = 4.00454 4.12727 4.06637
# Velocity P-wave (km/s) = 6.61831 6.86686 6.74373
#
# Compressibility (1/GPa) = 0.02134606
#
# Stress axis : x y z
#
# Youngs Moduli (GPa) = 52.38863 85.50586 99.99671
#
# Poissons Ratio (x) = 0.43786 0.20217
# Poissons Ratio (y) = 0.26827 0.25761
# Poissons Ratio (z) = 0.10592 0.22028
#
# Static dielectric constant tensor:
#      x y z
#    x 3.945510 0.000000 -0.018140 
#    y 0.000000 3.806210 0.000000 
#    z -0.018140 0.000000 3.844300 
# 
# 
# High freq. dielectric constant tensor:
#      x y z
#    x 1.828250 0.000000 0.000690 
#    y 0.000000 1.825230 0.000000 
#    z 0.000690 0.000000 1.837230 
# 
# From -- ./inp_files/181142.got.cif
#   From: 2010.06.25/outbox.cif.g09.slc.cpg/sg12_91_cif.got.tgz:181142.got - 2010.06.28 00:19:55.
