data_PCOD8107395
_publ_section_title
;
Structure prediction by ZEFSAII (Michael W. Deem and Ramdas Pophale) SiO2 
 PCOD8107395
Probable space group: C 2/M
;
_chemical_formula_sum "Si O2"
_cell_formula_units_Z 36
_cell_length_a 12.787048
_cell_length_b 20.973509
_cell_length_c 10.923490
_cell_angle_alpha 90.000000
_cell_angle_beta 144.167149
_cell_angle_gamma 90.000000
_cell_volume 1715.032279
_symmetry_space_group_name_H-M "C 2/M"
_symmetry_group_IT_number 12
_symmetry_cell_setting 'monoclinic'
loop_
_space_group_symop_operation_xyz
x,y,z
-x,y,-z
-x,-y,-z
x,-y,z
1/2+x,1/2+y,z
1/2-x,1/2+y,-z
1/2-x,1/2-y,-z
1/2+x,1/2-y,z
loop_
_atom_site_type_symbol
_atom_site_label
_atom_site_fract_x
_atom_site_fract_y
_atom_site_fract_z
Si Si1 0.500000 0.776386 0.500000
Si Si2 0.728218 0.074429 0.051057
Si Si3 0.612146 0.869441 0.394777
Si Si4 0.538196 0.425463 0.169203
Si Si5 0.694398 0.821023 0.217224
O O1 0.532619 0.818296 0.411786
O O2 0.667772 0.732543 0.692422
O O3 0.545784 0.085279 0.803043
O O4 0.746385 0.000000 0.100975
O O5 0.728540 0.112711 0.178432
O O6 0.895079 0.101117 0.130882
O O7 0.758905 0.912103 0.601372
O O8 0.709482 0.833311 0.376005
O O9 0.505900 0.500000 0.129774
O O10 0.500000 0.394143 0.000000
O O11 0.500000 0.793643 0.000000
#
# Coordination Sequence:
#
# PCOD8107395 Si02
#       5
#     4   8   8   8   8
#     4  12  24  40  60  86 124 166 204 240 294 356
#     4  10  22  41  65  92 121 155 198 250 306 357
#     4  11  23  39  63  89 120 161 201 248 297 355
#     4  10  21  37  59  90 124 157 198 247 301 359
#     4  10  24  41  61  90 121 157 202 249 297 355
#
# _framework density 20.990859
#
# number of rings (size 3 to 8) (size 9 to 14) (size 15 to 20)
#    0.000    1.556    0.000    4.000    0.000   11.111 
#    0.000    7.222    0.000    0.000    0.000    0.000 
#    0.000    0.000    0.000    0.000    0.000    0.000 
#
# Total GULP energy -223280.773336 kJ/mol
# GULP energy per Si atom -12404.487408 kJ/mol
# Density = 2.094308 g / cm^3
# Si number density = 20.990859 Si / 1000 Ang^3
#
#
#
# Elastic Constant Matrix: (Units=GPa)
#
#
# Indices 1 2 3 4 5 6 
#
# 1 161.5348 54.0757 55.6107 0.0000 -6.4486 0.0000
# 2 54.0757 56.9856 20.6311 0.0000 0.4134 0.0000
# 3 55.6107 20.6311 69.6671 0.0000 -6.6657 0.0000
# 4 0.0000 0.0000 0.0000 30.4682 0.0000 15.3504
# 5 -6.4486 0.4134 -6.6657 0.0000 42.9665 0.0000
# 6 0.0000 0.0000 0.0000 15.3504 0.0000 41.5728
#
#
#
# Elastic Compliance Matrix: (Units=1/GPa)
#
#
# Indices 1 2 3 4 5 6 
#
# 1 0.011217 -0.008328 -0.006414 0.000000 0.000769 0.000000
# 2 -0.008328 0.025891 -0.001181 0.000000 -0.001682 0.000000
# 3 -0.006414 -0.001181 0.020030 0.000000 0.002156 0.000000
# 4 0.000000 0.000000 0.000000 0.040322 0.000000 -0.014889
# 5 0.000769 -0.001682 0.002156 0.000000 0.023740 0.000000
# 6 0.000000 0.000000 0.000000 -0.014889 0.000000 0.029552
#
#
# Mechanical properties :
#
#
# Convention : Reuss Voigt Hill
#
# Bulk Modulus (GPa) = 39.53757 60.98027 50.25892
# Shear Modulus (GPa) = 26.17413 33.52618 29.85015
#
# Velocity S-wave (km/s) = 3.53502 4.00081 3.77511
# Velocity P-wave (km/s) = 5.96140 7.10323 6.55722
#
# Compressibility (1/GPa) = 0.02529240
#
# Stress axis : x y z
#
# Youngs Moduli (GPa) = 89.14714 38.62416 49.92499
#
# Poissons Ratio (x) = 0.32166 0.32024
# Poissons Ratio (y) = 0.74241 0.05894
# Poissons Ratio (z) = 0.57182 0.04560
#
# Static dielectric constant tensor:
#      x y z
#    x 4.208180 0.000000 0.073950 
#    y 0.000000 3.546850 0.000000 
#    z 0.073950 0.000000 3.822310 
# 
# 
# High freq. dielectric constant tensor:
#      x y z
#    x 1.845700 0.000000 0.004970 
#    y 0.000000 1.810330 0.000000 
#    z 0.004970 0.000000 1.829920 
# 
# From -- ./inp_files/147858.got.cif
#   From: 2010.06.25/outbox.cif.g09.slc.cpg/sg12_74_cif.got.tgz:147858.got - 2010.06.28 00:19:55.
