data_PCOD8107085
_publ_section_title
;
Structure prediction by ZEFSAII (Michael W. Deem and Ramdas Pophale) SiO2 
 PCOD8107085
Probable space group: C 2/M
;
_chemical_formula_sum "Si O2"
_cell_formula_units_Z 48
_cell_length_a 23.884496
_cell_length_b 13.271562
_cell_length_c 18.219690
_cell_angle_alpha 90.000000
_cell_angle_beta 158.636444
_cell_angle_gamma 90.000000
_cell_volume 2103.874322
_symmetry_space_group_name_H-M "C 2/M"
_symmetry_group_IT_number 12
_symmetry_cell_setting 'monoclinic'
loop_
_space_group_symop_operation_xyz
x,y,z
-x,y,-z
-x,-y,-z
x,-y,z
1/2+x,1/2+y,z
1/2-x,1/2+y,-z
1/2-x,1/2-y,-z
1/2+x,1/2-y,z
loop_
_atom_site_type_symbol
_atom_site_label
_atom_site_fract_x
_atom_site_fract_y
_atom_site_fract_z
Si Si1 0.512841 0.313770 0.632824
Si Si2 0.338831 0.612448 0.831854
Si Si3 0.435494 0.813178 0.762448
Si Si4 0.246330 0.197925 0.794726
Si Si5 0.108998 0.115019 0.371451
Si Si6 0.557357 0.890406 0.390964
O O1 0.358130 0.343813 0.399060
O O2 0.665096 0.334833 0.771584
O O3 0.507875 0.377055 0.702108
O O4 0.531453 0.195284 0.672854
O O5 0.359690 0.500000 0.890160
O O6 0.262490 0.681380 0.802095
O O7 0.234381 0.611012 0.631773
O O8 0.500000 0.658380 0.000000
O O9 0.276185 0.847378 0.605797
O O10 0.441073 0.691566 0.754639
O O11 0.446410 0.871900 0.699727
O O12 0.579821 0.845861 0.989740
O O13 0.111472 0.000000 0.345459
O O14 0.483246 0.000000 0.317763
#
# Coordination Sequence:
#
# PCOD8107085 Si02
#       6
#     8   8   8   8   8   8
#     4   9  21  40  58  82 114 155 190 234 284 337
#     4   9  19  32  55  86 115 149 187 232 283 338
#     4  10  22  36  60  87 114 150 189 236 287 336
#     4  10  21  37  58  83 117 149 191 237 283 337
#     4  10  22  40  59  83 115 151 191 237 284 338
#     4   9  18  35  56  82 118 149 183 229 282 338
#
# _framework density 22.815051
#
# number of rings (size 3 to 8) (size 9 to 14) (size 15 to 20)
#    0.000    2.500    0.000    0.500    9.333    4.000 
#    0.000   10.833    0.000    0.000    0.000    0.000 
#    0.000    0.000    0.000    0.000    0.000    0.000 
#
# Total GULP energy -297384.271309 kJ/mol
# GULP energy per Si atom -12391.011305 kJ/mol
# Density = 2.276312 g / cm^3
# Si number density = 22.815051 Si / 1000 Ang^3
#
#
#
# Elastic Constant Matrix: (Units=GPa)
#
#
# Indices 1 2 3 4 5 6 
#
# 1 64.3943 1.2669 -5.1104 0.0004 7.9194 0.0004
# 2 1.2669 82.9282 2.8972 0.0002 -2.2737 0.0002
# 3 -5.1104 2.8972 74.9654 0.0010 1.6226 0.0010
# 4 0.0004 0.0002 0.0010 14.2259 0.0004 2.8685
# 5 7.9194 -2.2737 1.6226 0.0004 23.1742 0.0004
# 6 0.0004 0.0002 0.0010 2.8685 0.0004 19.3538
#
#
#
# Elastic Compliance Matrix: (Units=1/GPa)
#
#
# Indices 1 2 3 4 5 6 
#
# 1 0.016341 -0.000450 0.001255 0.000000 -0.005716 0.000000
# 2 -0.000450 0.012122 -0.000529 0.000000 0.001380 0.000000
# 3 0.001255 -0.000529 0.013476 -0.000001 -0.001424 -0.000001
# 4 0.000000 0.000000 -0.000001 0.072460 -0.000001 -0.010740
# 5 -0.005716 0.001380 -0.001424 -0.000001 0.045340 -0.000001
# 6 0.000000 0.000000 -0.000001 -0.010740 -0.000001 0.053261
#
#
# Mechanical properties :
#
#
# Convention : Reuss Voigt Hill
#
# Bulk Modulus (GPa) = 23.53462 24.48836 24.01149
# Shear Modulus (GPa) = 22.06417 26.23306 24.14861
#
# Velocity S-wave (km/s) = 3.11318 3.39457 3.25691
# Velocity P-wave (km/s) = 4.82289 5.11086 4.96896
#
# Compressibility (1/GPa) = 0.04249060
#
# Stress axis : x y z
#
# Youngs Moduli (GPa) = 61.19658 82.49576 74.20418
#
# Poissons Ratio (x) = 0.03714 -0.09313
# Poissons Ratio (y) = 0.02755 0.03926
# Poissons Ratio (z) = -0.07681 0.04364
#
# Static dielectric constant tensor:
#      x y z
#    x 3.860150 0.000000 0.037640 
#    y 0.000000 3.993620 0.000000 
#    z 0.037640 0.000000 4.137970 
# 
# 
# High freq. dielectric constant tensor:
#      x y z
#    x 1.883770 0.000000 -0.004440 
#    y 0.000000 1.878280 0.000000 
#    z -0.004440 0.000000 1.893140 
# 
# From -- ./inp_files/328251.got.cif
#   From: 2010.06.25/outbox.cif.g09.slc.cpg/sg12_165_cif.got.tgz:328251.got - 2010.06.28 00:19:55.
