data_PCOD8107391
_publ_section_title
;
Structure prediction by ZEFSAII (Michael W. Deem and Ramdas Pophale) SiO2 
 PCOD8107391
Probable space group: C 2/M
;
_chemical_formula_sum "Si O2"
_cell_formula_units_Z 56
_cell_length_a 19.291331
_cell_length_b 8.642933
_cell_length_c 18.542510
_cell_angle_alpha 90.000000
_cell_angle_beta 116.021255
_cell_angle_gamma 90.000000
_cell_volume 2778.263493
_symmetry_space_group_name_H-M "C 2/M"
_symmetry_group_IT_number 12
_symmetry_cell_setting 'monoclinic'
loop_
_space_group_symop_operation_xyz
x,y,z
-x,y,-z
-x,-y,-z
x,-y,z
1/2+x,1/2+y,z
1/2-x,1/2+y,-z
1/2-x,1/2-y,-z
1/2+x,1/2-y,z
loop_
_atom_site_type_symbol
_atom_site_label
_atom_site_fract_x
_atom_site_fract_y
_atom_site_fract_z
Si Si1 0.396982 0.816890 0.261810
Si Si2 0.191083 0.320969 0.528595
Si Si3 0.089930 0.673146 0.025478
Si Si4 0.619099 0.318693 0.183964
Si Si5 0.018198 0.321502 0.431012
Si Si6 0.445420 0.317958 0.134817
Si Si7 0.228434 0.818189 0.696675
O O1 0.465820 0.749374 0.343901
O O2 0.404741 0.735686 0.188794
O O3 0.315465 0.770937 0.259352
O O4 0.401833 0.000000 0.253189
O O5 0.209989 0.500000 0.551996
O O6 0.250000 0.250000 0.500000
O O7 0.107812 0.300364 0.453368
O O8 0.192444 0.230626 0.604145
O O9 0.124334 0.500000 0.043455
O O10 0.131418 0.775525 0.105548
O O11 0.103736 0.745267 0.953089
O O12 0.000000 0.672254 0.000000
O O13 0.631215 0.500000 0.199901
O O14 0.534943 0.264059 0.173382
O O15 0.681703 0.228399 0.260480
O O16 0.993494 0.500000 0.425419
O O17 0.000000 0.241926 0.500000
O O18 0.441007 0.500000 0.124310
O O19 0.218807 0.000000 0.702602
#
# Coordination Sequence:
#
# PCOD8107391 Si02
#       7
#     8   8   8   8   8   8   8
#     4  11  22  39  62  86 117 157 198 244 296 352
#     4  11  23  41  62  88 119 154 195 245 298 351
#     4   9  17  33  58  88 119 154 195 238 288 350
#     4  10  21  38  61  88 120 158 196 244 297 347
#     4   9  18  37  62  84 110 151 196 237 288 349
#     4  10  21  37  59  90 122 153 195 244 291 347
#     4  12  25  41  59  85 120 159 199 245 297 352
#
# _framework density 20.156476999999999
#
# number of rings (size 3 to 8) (size 9 to 14) (size 15 to 20)
#    0.000    1.714    1.429    3.429    2.000    3.429 
#    0.000    3.571    0.000    0.000    0.000    0.000 
#    0.000    0.000    0.000    0.000    0.000    0.000 
#
# Total GULP energy -347279.277893 kJ/mol
# GULP energy per Si atom -12402.831353 kJ/mol
# Density = 2.011060 g / cm^3
# Si number density = 20.156477 Si / 1000 Ang^3
#
#
#
# Elastic Constant Matrix: (Units=GPa)
#
#
# Indices 1 2 3 4 5 6 
#
# 1 69.6526 8.2817 9.2682 0.0000 -15.1671 0.0000
# 2 8.2817 51.3620 9.9812 0.0000 2.4577 0.0000
# 3 9.2682 9.9812 58.5254 0.0000 -17.7495 0.0000
# 4 0.0000 0.0000 0.0000 34.3454 0.0000 -3.1332
# 5 -15.1671 2.4577 -17.7495 0.0000 37.1205 0.0000
# 6 0.0000 0.0000 0.0000 -3.1332 0.0000 28.2492
#
#
#
# Elastic Compliance Matrix: (Units=1/GPa)
#
#
# Indices 1 2 3 4 5 6 
#
# 1 0.016189 -0.002937 0.000003 0.000000 0.006810 0.000000
# 2 -0.002937 0.021062 -0.004578 0.000000 -0.004783 0.000000
# 3 0.000003 -0.004578 0.021005 0.000000 0.010348 0.000000
# 4 0.000000 0.000000 0.000000 0.029414 0.000000 0.003262
# 5 0.006810 -0.004783 0.010348 0.000000 0.034987 0.000000
# 6 0.000000 0.000000 0.000000 0.003262 0.000000 0.035761
#
#
# Mechanical properties :
#
#
# Convention : Reuss Voigt Hill
#
# Bulk Modulus (GPa) = 23.13089 26.06691 24.59890
# Shear Modulus (GPa) = 26.61689 30.07695 28.34692
#
# Velocity S-wave (km/s) = 3.63783 3.86706 3.75419
# Velocity P-wave (km/s) = 5.39867 5.73578 5.56978
#
# Compressibility (1/GPa) = 0.04323223
#
# Stress axis : x y z
#
# Youngs Moduli (GPa) = 61.77132 47.47982 47.60728
#
# Poissons Ratio (x) = 0.13943 -0.00012
# Poissons Ratio (y) = 0.18140 0.21792
# Poissons Ratio (z) = -0.00016 0.21734
#
# Static dielectric constant tensor:
#      x y z
#    x 3.504260 0.000000 0.005340 
#    y 0.000000 3.612000 0.000000 
#    z 0.005340 0.000000 3.843070 
# 
# 
# High freq. dielectric constant tensor:
#      x y z
#    x 1.773900 0.000000 -0.002320 
#    y 0.000000 1.783290 0.000000 
#    z -0.002320 0.000000 1.794290 
# 
# From -- ./inp_files/275481.got.cif
#   From: 2010.06.25/outbox.cif.g09.slc.cpg/sg12_138_cif.got.tgz:275481.got - 2010.06.28 00:19:55.
