data_PCOD8107285
_publ_section_title
;
Structure prediction by ZEFSAII (Michael W. Deem and Ramdas Pophale) SiO2 
 PCOD8107285
Probable space group: C 2/M
;
_chemical_formula_sum "Si O2"
_cell_formula_units_Z 56
_cell_length_a 17.284856
_cell_length_b 13.987603
_cell_length_c 19.604436
_cell_angle_alpha 90.000000
_cell_angle_beta 36.760647
_cell_angle_gamma 90.000000
_cell_volume 2836.666820
_symmetry_space_group_name_H-M "C 2/M"
_symmetry_group_IT_number 12
_symmetry_cell_setting 'monoclinic'
loop_
_space_group_symop_operation_xyz
x,y,z
-x,y,-z
-x,-y,-z
x,-y,z
1/2+x,1/2+y,z
1/2-x,1/2+y,-z
1/2-x,1/2-y,-z
1/2+x,1/2-y,z
loop_
_atom_site_type_symbol
_atom_site_label
_atom_site_fract_x
_atom_site_fract_y
_atom_site_fract_z
Si Si1 0.216551 0.393088 0.542468
Si Si2 0.255152 0.389660 0.139745
Si Si3 0.152408 0.388619 0.886946
Si Si4 0.653723 0.230625 0.007749
Si Si5 0.315548 0.755026 0.693036
Si Si6 0.975063 0.605875 0.802570
Si Si7 0.113914 0.257776 0.509038
O O1 0.265988 0.500000 0.493016
O O2 0.143056 0.356699 0.526992
O O3 0.337599 0.328842 0.477797
O O4 0.119284 0.390566 0.674289
O O5 0.297310 0.500000 0.114704
O O6 0.235222 0.348515 0.230079
O O7 0.123809 0.373745 0.189661
O O8 0.368252 0.328934 0.020064
O O9 0.178223 0.500000 0.859902
O O10 0.224502 0.335760 0.773972
O O11 0.214724 0.348001 0.912996
O O12 0.000000 0.363259 0.000000
O O13 0.529315 0.183482 0.132682
O O14 0.750000 0.250000 0.000000
O O15 0.463452 0.736037 0.608336
O O16 0.310359 0.769443 0.615710
O O17 0.944954 0.500000 0.854187
#
# Coordination Sequence:
#
# PCOD8107285 Si02
#       7
#     8   8   8   8   8   8   8
#     4  10  21  37  59  86 114 147 192 240 282 335
#     4   9  17  32  54  82 110 143 188 233 279 334
#     4  10  22  38  58  86 115 147 191 239 286 341
#     4   9  18  32  54  81 114 144 181 235 286 330
#     4  10  21  38  58  84 116 153 188 235 286 343
#     4   9  16  29  54  83 109 140 184 233 280 329
#     4  10  22  38  58  84 117 152 191 232 290 338
#
# _framework density 19.741479999999999
#
# number of rings (size 3 to 8) (size 9 to 14) (size 15 to 20)
#    0.000    2.429    1.429    0.429    2.000    2.286 
#    0.000    2.857    0.000    7.714    0.000    0.000 
#    0.000    0.000    0.000    0.000    0.000    0.000 
#
# Total GULP energy -346978.489372 kJ/mol
# GULP energy per Si atom -12392.088906 kJ/mol
# Density = 1.969655 g / cm^3
# Si number density = 19.741480 Si / 1000 Ang^3
#
#
#
# Elastic Constant Matrix: (Units=GPa)
#
#
# Indices 1 2 3 4 5 6 
#
# 1 48.7144 28.3644 27.0106 0.0000 8.8065 0.0000
# 2 28.3644 152.0261 61.3611 0.0000 11.1771 0.0000
# 3 27.0106 61.3611 100.9306 0.0001 20.5881 0.0000
# 4 0.0000 0.0000 0.0001 29.7995 -0.0001 1.8090
# 5 8.8065 11.1771 20.5881 -0.0001 21.7107 0.0000
# 6 0.0000 0.0000 0.0000 1.8090 0.0000 14.3893
#
#
#
# Elastic Compliance Matrix: (Units=1/GPa)
#
#
# Indices 1 2 3 4 5 6 
#
# 1 0.025273 -0.002689 -0.004116 0.000000 -0.004964 0.000000
# 2 -0.002689 0.009011 -0.005002 0.000000 0.001196 0.000000
# 3 -0.004116 -0.005002 0.016347 0.000000 -0.011257 0.000000
# 4 0.000000 0.000000 0.000000 0.033816 0.000000 -0.004251
# 5 -0.004964 0.001196 -0.011257 0.000000 0.058133 0.000000
# 6 0.000000 0.000000 0.000000 -0.004251 0.000000 0.070031
#
#
# Mechanical properties :
#
#
# Convention : Reuss Voigt Hill
#
# Bulk Modulus (GPa) = 37.01583 59.46039 48.23811
# Shear Modulus (GPa) = 20.38903 25.50888 22.94895
#
# Velocity S-wave (km/s) = 3.21721 3.59854 3.41321
# Velocity P-wave (km/s) = 5.70890 6.88846 6.32623
#
# Compressibility (1/GPa) = 0.02701547
#
# Stress axis : x y z
#
# Youngs Moduli (GPa) = 39.56768 110.97951 61.17457
#
# Poissons Ratio (x) = 0.29843 0.25180
# Poissons Ratio (y) = 0.10640 0.30601
# Poissons Ratio (z) = 0.16287 0.55515
#
# Static dielectric constant tensor:
#      x y z
#    x 3.433660 0.000000 0.228780 
#    y 0.000000 3.802370 0.000000 
#    z 0.228780 0.000000 3.713440 
# 
# 
# High freq. dielectric constant tensor:
#      x y z
#    x 1.760760 0.000000 0.019610 
#    y 0.000000 1.768920 0.000000 
#    z 0.019610 0.000000 1.765990 
# 
# From -- ./inp_files/277832.got.cif
#   From: 2010.06.25/outbox.cif.g09.slc.cpg/sg12_139_cif.got.tgz:277832.got - 2010.06.28 00:19:55.
