data_PCOD8107369
_publ_section_title
;
Structure prediction by ZEFSAII (Michael W. Deem and Ramdas Pophale) SiO2 
 PCOD8107369
Probable space group: C 2/M
;
_chemical_formula_sum "Si O2"
_cell_formula_units_Z 56
_cell_length_a 30.318346
_cell_length_b 13.809721
_cell_length_c 9.505727
_cell_angle_alpha 90.000000
_cell_angle_beta 46.643279
_cell_angle_gamma 90.000000
_cell_volume 2893.783172
_symmetry_space_group_name_H-M "C 2/M"
_symmetry_group_IT_number 12
_symmetry_cell_setting 'monoclinic'
loop_
_space_group_symop_operation_xyz
x,y,z
-x,y,-z
-x,-y,-z
x,-y,z
1/2+x,1/2+y,z
1/2-x,1/2+y,-z
1/2-x,1/2-y,-z
1/2+x,1/2-y,z
loop_
_atom_site_type_symbol
_atom_site_label
_atom_site_fract_x
_atom_site_fract_y
_atom_site_fract_z
Si Si1 0.352394 0.387447 0.959592
Si Si2 0.946486 0.231234 0.226968
Si Si3 0.812856 0.228852 0.790590
Si Si4 0.834737 0.105080 0.477108
Si Si5 0.741412 0.348270 0.601591
Si Si6 0.139401 0.389695 0.495925
Si Si7 0.010518 0.890582 0.314165
O O1 0.334867 0.500000 0.975842
O O2 0.354117 0.333870 0.805005
O O3 0.418920 0.376823 0.880682
O O4 0.302668 0.336549 0.167342
O O5 0.893668 0.160233 0.287219
O O6 0.919974 0.338932 0.307412
O O7 0.970218 0.187338 0.321168
O O8 0.000000 0.236862 0.000000
O O9 0.803317 0.170364 0.666013
O O10 0.843496 0.331665 0.684254
O O11 0.750000 0.250000 0.000000
O O12 0.789708 0.082919 0.445680
O O13 0.852588 0.000000 0.500455
O O14 0.750000 0.250000 0.500000
O O15 0.805695 0.389453 0.511938
O O16 0.123308 0.500000 0.491445
O O17 0.000000 0.871206 0.500000
O O18 0.990305 0.000000 0.318616
#
# Coordination Sequence:
#
# PCOD8107369 Si02
#       7
#     8   8   8   8   8   8   8
#     4  11  22  37  63  93 124 157 190 238 306 366
#     4  11  23  39  60  86 115 153 201 249 289 348
#     4  11  21  37  59  90 122 156 193 239 288 358
#     4  11  22  36  59  89 123 152 187 244 304 358
#     4  12  21  39  58  88 121 156 196 239 298 355
#     4  11  24  41  62  85 118 161 204 247 294 348
#     4  10  21  37  59  89 122 155 190 234 298 364
#
# _framework density 19.35183
#
# number of rings (size 3 to 8) (size 9 to 14) (size 15 to 20)
#    0.000    1.000    4.286    4.714    0.000    4.286 
#    0.000    0.000    0.000    3.857    0.000    0.000 
#    0.000    0.000    0.000    0.000    0.000    0.000 
#
# Total GULP energy -347157.448963 kJ/mol
# GULP energy per Si atom -12398.480320 kJ/mol
# Density = 1.930778 g / cm^3
# Si number density = 19.351830 Si / 1000 Ang^3
#
#
#
# Elastic Constant Matrix: (Units=GPa)
#
#
# Indices 1 2 3 4 5 6 
#
# 1 97.9691 40.0509 36.3808 0.0000 4.0052 0.0000
# 2 40.0509 153.0399 59.0943 0.0000 -3.9079 0.0000
# 3 36.3808 59.0943 138.9003 0.0000 -9.0555 0.0000
# 4 0.0000 0.0000 0.0000 11.6041 0.0000 3.7200
# 5 4.0052 -3.9079 -9.0555 0.0000 30.6997 0.0000
# 6 0.0000 0.0000 0.0000 3.7200 0.0000 24.9304
#
#
#
# Elastic Compliance Matrix: (Units=1/GPa)
#
#
# Indices 1 2 3 4 5 6 
#
# 1 0.012141 -0.002334 -0.002355 0.000000 -0.002576 0.000000
# 2 -0.002334 0.008267 -0.002873 0.000000 0.000509 0.000000
# 3 -0.002355 -0.002873 0.009212 0.000000 0.002659 0.000000
# 4 0.000000 0.000000 0.000000 0.090506 0.000000 -0.013505
# 5 -0.002576 0.000509 0.002659 0.000000 0.033759 0.000000
# 6 0.000000 0.000000 0.000000 -0.013505 0.000000 0.042127
#
#
# Mechanical properties :
#
#
# Convention : Reuss Voigt Hill
#
# Bulk Modulus (GPa) = 68.97959 73.44016 71.20987
# Shear Modulus (GPa) = 23.15166 30.40571 26.77868
#
# Velocity S-wave (km/s) = 3.46259 3.96814 3.72396
# Velocity P-wave (km/s) = 7.19086 7.68292 7.44096
#
# Compressibility (1/GPa) = 0.01449704
#
# Stress axis : x y z
#
# Youngs Moduli (GPa) = 82.36398 120.95839 108.55638
#
# Poissons Ratio (x) = 0.28229 0.25566
# Poissons Ratio (y) = 0.19222 0.31186
# Poissons Ratio (z) = 0.19397 0.34749
#
# Static dielectric constant tensor:
#      x y z
#    x 3.849310 0.000000 0.021680 
#    y 0.000000 3.632550 0.000000 
#    z 0.021680 0.000000 3.650200 
# 
# 
# High freq. dielectric constant tensor:
#      x y z
#    x 1.752500 0.000000 -0.001680 
#    y 0.000000 1.749810 0.000000 
#    z -0.001680 0.000000 1.758550 
# 
# From -- ./inp_files/111563.got.cif
#   From: 2010.06.25/outbox.cif.g09.slc.cpg/sg12_56_cif.got.tgz:111563.got - 2010.06.28 00:19:55.
