data_PCOD8107336
_publ_section_title
;
Structure prediction by ZEFSAII (Michael W. Deem and Ramdas Pophale) SiO2 
 PCOD8107336
Probable space group: C 2/M
;
_chemical_formula_sum "Si O2"
_cell_formula_units_Z 56
_cell_length_a 22.042524
_cell_length_b 14.432876
_cell_length_c 8.499774
_cell_angle_alpha 90.000000
_cell_angle_beta 91.787195
_cell_angle_gamma 90.000000
_cell_volume 2702.777342
_symmetry_space_group_name_H-M "C 2/M"
_symmetry_group_IT_number 12
_symmetry_cell_setting 'monoclinic'
loop_
_space_group_symop_operation_xyz
x,y,z
-x,y,-z
-x,-y,-z
x,-y,z
1/2+x,1/2+y,z
1/2-x,1/2+y,-z
1/2-x,1/2-y,-z
1/2+x,1/2-y,z
loop_
_atom_site_type_symbol
_atom_site_label
_atom_site_fract_x
_atom_site_fract_y
_atom_site_fract_z
Si Si1 0.301961 0.899748 0.809530
Si Si2 0.872086 0.708635 0.310510
Si Si3 0.823917 0.103541 0.348727
Si Si4 0.740393 0.161204 0.888694
Si Si5 0.353584 0.397149 0.703711
Si Si6 0.517484 0.892041 0.820628
Si Si7 0.094092 0.290973 0.331642
O O1 0.241360 0.864049 0.719235
O O2 0.355311 0.827931 0.783479
O O3 0.321622 0.000000 0.744448
O O4 0.290244 0.912057 0.995098
O O5 0.873743 0.821378 0.292732
O O6 0.804291 0.675405 0.262823
O O7 0.887301 0.681303 0.490399
O O8 0.918554 0.659009 0.196684
O O9 0.818436 0.105146 0.535864
O O10 0.841311 0.000000 0.288949
O O11 0.805100 0.124785 0.835126
O O12 0.750000 0.250000 0.000000
O O13 0.381697 0.500000 0.735265
O O14 0.407525 0.320303 0.700206
O O15 0.470199 0.837498 0.707307
O O16 0.520708 0.000000 0.770679
O O17 0.500000 0.882579 0.000000
#
# Coordination Sequence:
#
# PCOD8107336 Si02
#       7
#     8   8   8   8   8   8   8
#     4  11  21  34  56  85 120 158 198 244 299 354
#     4  11  23  39  62  87 119 158 201 247 301 355
#     4   9  19  37  59  87 118 155 196 243 297 357
#     4  12  21  35  57  89 126 162 194 245 297 360
#     4  10  21  37  59  87 122 157 196 242 297 356
#     4  11  26  45  65  87 118 158 201 249 302 358
#     4  11  22  40  62  87 117 158 204 251 297 351
#
# _framework density 20.719427
#
# number of rings (size 3 to 8) (size 9 to 14) (size 15 to 20)
#    0.000    1.286    2.857    3.000    0.000    6.286 
#    0.000    0.714    0.000    4.286    0.000    0.000 
#    0.000    0.000    0.000    0.000    0.000    0.000 
#
# Total GULP energy -347090.476840 kJ/mol
# GULP energy per Si atom -12396.088459 kJ/mol
# Density = 2.067227 g / cm^3
# Si number density = 20.719427 Si / 1000 Ang^3
#
#
#
# Elastic Constant Matrix: (Units=GPa)
#
#
# Indices 1 2 3 4 5 6 
#
# 1 62.0337 47.2058 7.6300 0.0000 2.3360 0.0000
# 2 47.2058 131.0087 19.0066 0.0000 -5.3625 0.0000
# 3 7.6300 19.0066 56.8624 0.0000 0.2964 0.0000
# 4 0.0000 0.0000 0.0000 28.5298 0.0000 -2.9818
# 5 2.3360 -5.3625 0.2964 0.0000 37.0173 0.0000
# 6 0.0000 0.0000 0.0000 -2.9818 0.0000 26.4551
#
#
#
# Elastic Compliance Matrix: (Units=1/GPa)
#
#
# Indices 1 2 3 4 5 6 
#
# 1 0.022461 -0.008160 -0.000273 0.000000 -0.002597 0.000000
# 2 -0.008160 0.011039 -0.002606 0.000000 0.002135 0.000000
# 3 -0.000273 -0.002606 0.018497 0.000000 -0.000508 0.000000
# 4 0.000000 0.000000 0.000000 0.035469 0.000000 0.003998
# 5 -0.002597 0.002135 -0.000508 0.000000 0.027492 0.000000
# 6 0.000000 0.000000 0.000000 0.003998 0.000000 0.038251
#
#
# Mechanical properties :
#
#
# Convention : Reuss Voigt Hill
#
# Bulk Modulus (GPa) = 33.42368 44.17663 38.80016
# Shear Modulus (GPa) = 26.98931 30.13793 28.56362
#
# Velocity S-wave (km/s) = 3.61308 3.81802 3.71697
# Velocity P-wave (km/s) = 5.79417 6.38781 6.09822
#
# Compressibility (1/GPa) = 0.02991891
#
# Stress axis : x y z
#
# Youngs Moduli (GPa) = 44.52115 90.58927 54.06386
#
# Poissons Ratio (x) = 0.73922 0.01475
# Poissons Ratio (y) = 0.36330 0.14089
# Poissons Ratio (z) = 0.01215 0.23607
#
# Static dielectric constant tensor:
#      x y z
#    x 3.466230 0.000000 0.053440 
#    y 0.000000 4.218950 0.000000 
#    z 0.053440 0.000000 3.914560 
# 
# 
# High freq. dielectric constant tensor:
#      x y z
#    x 1.775000 0.000000 0.003940 
#    y 0.000000 1.829630 0.000000 
#    z 0.003940 0.000000 1.817700 
# 
# From -- ./inp_files/86397.got.cif
#   From: 2010.06.25/outbox.cif.g09.slc.cpg/sg12_44_cif.got.tgz:86397.got - 2010.06.28 00:19:55.
