data_PCOD8107570
_publ_section_title
;
Structure prediction by ZEFSAII (Michael W. Deem and Ramdas Pophale) SiO2 
 PCOD8107570
Probable space group: C 2/M
;
_chemical_formula_sum "Si O2"
_cell_formula_units_Z 56
_cell_length_a 25.759750
_cell_length_b 17.139159
_cell_length_c 19.698500
_cell_angle_alpha 90.000000
_cell_angle_beta 18.754619
_cell_angle_gamma 90.000000
_cell_volume 2796.189703
_symmetry_space_group_name_H-M "C 2/M"
_symmetry_group_IT_number 12
_symmetry_cell_setting 'monoclinic'
loop_
_space_group_symop_operation_xyz
x,y,z
-x,y,-z
-x,-y,-z
x,-y,z
1/2+x,1/2+y,z
1/2-x,1/2+y,-z
1/2-x,1/2-y,-z
1/2+x,1/2-y,z
loop_
_atom_site_type_symbol
_atom_site_label
_atom_site_fract_x
_atom_site_fract_y
_atom_site_fract_z
Si Si1 0.337623 0.407769 0.898087
Si Si2 0.660527 0.852361 0.342217
Si Si3 0.237416 0.802781 0.580717
Si Si4 0.024013 0.409236 0.651556
Si Si5 0.949757 0.089188 0.904295
Si Si6 0.188620 0.712349 0.773779
Si Si7 0.558492 0.591790 0.502295
O O1 0.324166 0.500000 0.913735
O O2 0.435753 0.382295 0.843581
O O3 0.426231 0.377554 0.720474
O O4 0.156575 0.373729 0.126235
O O5 0.500000 0.830315 0.500000
O O6 0.614508 0.896424 0.468262
O O7 0.763934 0.774293 0.227015
O O8 0.774222 0.908736 0.157112
O O9 0.250000 0.750000 0.500000
O O10 0.384476 0.864147 0.401311
O O11 0.255545 0.743769 0.620248
O O12 0.072890 0.852772 0.789052
O O13 0.024185 0.500000 0.669652
O O14 0.012989 0.000000 0.830355
O O15 0.270778 0.630710 0.691630
O O16 0.000000 0.697340 0.000000
O O17 0.500000 0.616069 0.500000
O O18 0.585646 0.500000 0.474647
#
# Coordination Sequence:
#
# PCOD8107570 Si02
#       7
#     8   8   8   8   8   8   8
#     4   9  19  37  60  91 119 145 195 253 298 349
#     4  11  21  37  60  95 127 161 194 238 304 368
#     4  11  24  41  56  84 124 164 202 242 298 355
#     4  10  21  37  61  90 121 156 199 246 292 362
#     4  11  21  37  64  92 124 162 199 243 298 363
#     4  11  23  41  59  86 125 157 201 249 295 360
#     4  10  22  42  66  88 114 155 207 260 311 355
#
# _framework density 20.027253999999999
#
# number of rings (size 3 to 8) (size 9 to 14) (size 15 to 20)
#    0.000    1.571    2.857    2.143    0.000    2.000 
#    2.571    5.000    0.000    0.000    0.000    0.000 
#    0.000    0.000    0.000    0.000    0.000    0.000 
#
# Total GULP energy -347250.116857 kJ/mol
# GULP energy per Si atom -12401.789888 kJ/mol
# Density = 1.998167 g / cm^3
# Si number density = 20.027254 Si / 1000 Ang^3
#
#
#
# Elastic Constant Matrix: (Units=GPa)
#
#
# Indices 1 2 3 4 5 6 
#
# 1 118.1819 50.0763 36.1455 -0.0183 -8.1060 0.0061
# 2 50.0763 80.4318 39.5107 -0.0330 -11.2292 0.0152
# 3 36.1455 39.5107 85.3114 -0.0360 -15.8222 0.0159
# 4 -0.0183 -0.0330 -0.0360 30.6594 0.0142 -7.5055
# 5 -8.1060 -11.2292 -15.8222 0.0142 42.2899 -0.0066
# 6 0.0061 0.0152 0.0159 -7.5055 -0.0066 33.6658
#
#
#
# Elastic Compliance Matrix: (Units=1/GPa)
#
#
# Indices 1 2 3 4 5 6 
#
# 1 0.011769 -0.006327 -0.002094 -0.000002 -0.000208 0.000001
# 2 -0.006327 0.019597 -0.006077 0.000009 0.001717 -0.000003
# 3 -0.002094 -0.006077 0.016172 0.000009 0.004035 -0.000002
# 4 -0.000002 0.000009 0.000009 0.034499 -0.000005 0.007691
# 5 -0.000208 0.001717 0.004035 -0.000005 0.025572 0.000001
# 6 0.000001 -0.000003 -0.000002 0.007691 0.000001 0.031418
#
#
# Mechanical properties :
#
#
# Convention : Reuss Voigt Hill
#
# Bulk Modulus (GPa) = 53.93536 59.48781 56.71158
# Shear Modulus (GPa) = 28.70171 31.86920 30.28546
#
# Velocity S-wave (km/s) = 3.78978 3.99343 3.89294
# Velocity P-wave (km/s) = 6.79260 7.14361 6.97031
#
# Compressibility (1/GPa) = 0.01854071
#
# Stress axis : x y z
#
# Youngs Moduli (GPa) = 84.96952 51.02778 61.83528
#
# Poissons Ratio (x) = 0.32287 0.12951
# Poissons Ratio (y) = 0.53764 0.37576
# Poissons Ratio (z) = 0.17797 0.31009
#
# Static dielectric constant tensor:
#      x y z
#    x 3.820910 -0.000020 -0.036820 
#    y -0.000020 3.478270 0.000020 
#    z -0.036820 0.000020 3.686310 
# 
# 
# High freq. dielectric constant tensor:
#      x y z
#    x 1.790080 0.000000 -0.006240 
#    y 0.000000 1.772840 0.000000 
#    z -0.006240 0.000000 1.781330 
# 
# From -- ./inp_files/290809.got.cif
#   From: 2010.06.25/outbox.cif.g09.slc.cpg/sg12_146_cif.got.tgz:290809.got - 2010.06.28 00:19:55.
