data_PCOD8107553
_publ_section_title
;
Structure prediction by ZEFSAII (Michael W. Deem and Ramdas Pophale) SiO2 
 PCOD8107553
Probable space group: C 2/M
;
_chemical_formula_sum "Si O2"
_cell_formula_units_Z 56
_cell_length_a 19.955454
_cell_length_b 8.776172
_cell_length_c 16.290614
_cell_angle_alpha 90.000000
_cell_angle_beta 91.585662
_cell_angle_gamma 90.000000
_cell_volume 2851.923399
_symmetry_space_group_name_H-M "C 2/M"
_symmetry_group_IT_number 12
_symmetry_cell_setting 'monoclinic'
loop_
_space_group_symop_operation_xyz
x,y,z
-x,y,-z
-x,-y,-z
x,-y,z
1/2+x,1/2+y,z
1/2-x,1/2+y,-z
1/2-x,1/2-y,-z
1/2+x,1/2-y,z
loop_
_atom_site_type_symbol
_atom_site_label
_atom_site_fract_x
_atom_site_fract_y
_atom_site_fract_z
Si Si1 0.127567 0.820704 0.640727
Si Si2 0.489802 0.680678 0.245171
Si Si3 0.177250 0.679232 0.484755
Si Si4 0.304370 0.820158 0.061201
Si Si5 0.630538 0.324371 0.317689
Si Si6 0.054146 0.820044 0.933921
Si Si7 0.268019 0.825282 0.242077
O O1 0.126553 0.738311 0.552953
O O2 0.195724 0.780432 0.690419
O O3 0.064331 0.760295 0.690732
O O4 0.124268 0.000000 0.626052
O O5 0.489492 0.500000 0.241001
O O6 0.562894 0.739803 0.274028
O O7 0.470917 0.744441 0.154714
O O8 0.184990 0.500000 0.491609
O O9 0.250000 0.750000 0.500000
O O10 0.146283 0.723605 0.396975
O O11 0.377000 0.759710 0.038317
O O12 0.287050 0.766763 0.152688
O O13 0.301851 0.000000 0.052896
O O14 0.250000 0.750000 0.000000
O O15 0.622487 0.500000 0.345178
O O16 0.688485 0.307775 0.251705
O O17 0.066308 0.000000 0.931410
O O18 0.000000 0.774544 0.000000
O O19 0.290629 0.000000 0.256454
#
# Coordination Sequence:
#
# PCOD8107553 Si02
#       7
#     8   8   8   8   8   8   8
#     4  11  21  37  63  89 119 157 200 245 297 359
#     4   9  20  38  61  90 120 158 200 242 294 359
#     4  12  24  39  59  88 121 156 201 249 304 356
#     4  11  24  40  61  92 127 163 205 253 305 359
#     4  10  21  39  62  88 119 156 202 248 297 355
#     4  10  21  39  65  91 121 162 205 250 303 366
#     4  10  21  37  61  88 118 158 203 250 297 352
#
# _framework density 19.635870000000001
#
# number of rings (size 3 to 8) (size 9 to 14) (size 15 to 20)
#    0.000    1.571    2.857    2.143    2.000    1.429 
#    0.000    5.000    0.000    0.000    0.000    0.000 
#    0.000    0.000    0.000    0.000    0.000    0.000 
#
# Total GULP energy -347336.776373 kJ/mol
# GULP energy per Si atom -12404.884870 kJ/mol
# Density = 1.959118 g / cm^3
# Si number density = 19.635870 Si / 1000 Ang^3
#
#
#
# Elastic Constant Matrix: (Units=GPa)
#
#
# Indices 1 2 3 4 5 6 
#
# 1 146.5881 34.6579 58.0919 0.0000 0.9551 0.0000
# 2 34.6579 74.4208 39.2842 0.0000 -4.0389 0.0000
# 3 58.0919 39.2842 118.7426 0.0000 -9.9026 0.0000
# 4 0.0000 0.0000 0.0000 29.2726 0.0000 2.7814
# 5 0.9551 -4.0389 -9.9026 0.0000 39.0861 0.0000
# 6 0.0000 0.0000 0.0000 2.7814 0.0000 26.5095
#
#
#
# Elastic Compliance Matrix: (Units=1/GPa)
#
#
# Indices 1 2 3 4 5 6 
#
# 1 0.008822 -0.002235 -0.003692 0.000000 -0.001382 0.000000
# 2 -0.002235 0.016850 -0.004425 0.000000 0.000675 0.000000
# 3 -0.003692 -0.004425 0.011913 0.000000 0.002651 0.000000
# 4 0.000000 0.000000 0.000000 0.034506 0.000000 -0.003620
# 5 -0.001382 0.000675 0.002651 0.000000 0.026360 0.000000
# 6 0.000000 0.000000 0.000000 -0.003620 0.000000 0.038102
#
#
# Mechanical properties :
#
#
# Convention : Reuss Voigt Hill
#
# Bulk Modulus (GPa) = 59.23533 67.09105 63.16319
# Shear Modulus (GPa) = 30.69670 32.82147 31.75909
#
# Velocity S-wave (km/s) = 3.95814 4.09284 4.02606
# Velocity P-wave (km/s) = 7.14994 7.52176 7.33820
#
# Compressibility (1/GPa) = 0.01688182
#
# Stress axis : x y z
#
# Youngs Moduli (GPa) = 113.34901 59.34613 83.94258
#
# Poissons Ratio (x) = 0.13262 0.30992
# Poissons Ratio (y) = 0.25330 0.37146
# Poissons Ratio (z) = 0.41849 0.26262
#
# Static dielectric constant tensor:
#      x y z
#    x 3.769420 0.000000 -0.125980 
#    y 0.000000 3.404220 0.000000 
#    z -0.125980 0.000000 3.842170 
# 
# 
# High freq. dielectric constant tensor:
#      x y z
#    x 1.772170 0.000000 -0.007600 
#    y 0.000000 1.748670 0.000000 
#    z -0.007600 0.000000 1.775810 
# 
# From -- ./inp_files/231035.got.cif
#   From: 2010.06.25/outbox.cif.g09.slc.cpg/sg12_116_cif.got.tgz:231035.got - 2010.06.28 00:19:55.
