data_PCOD8107228
_publ_section_title
;
Structure prediction by ZEFSAII (Michael W. Deem and Ramdas Pophale) SiO2 
 PCOD8107228
Probable space group: C 2/M
;
_chemical_formula_sum "Si O2"
_cell_formula_units_Z 64
_cell_length_a 14.689244
_cell_length_b 8.890913
_cell_length_c 32.570839
_cell_angle_alpha 90.000000
_cell_angle_beta 133.049756
_cell_angle_gamma 90.000000
_cell_volume 3108.495309
_symmetry_space_group_name_H-M "C 2/M"
_symmetry_group_IT_number 12
_symmetry_cell_setting 'monoclinic'
loop_
_space_group_symop_operation_xyz
x,y,z
-x,y,-z
-x,-y,-z
x,-y,z
1/2+x,1/2+y,z
1/2-x,1/2+y,-z
1/2-x,1/2-y,-z
1/2+x,1/2-y,z
loop_
_atom_site_type_symbol
_atom_site_label
_atom_site_fract_x
_atom_site_fract_y
_atom_site_fract_z
Si Si1 0.987445 0.675455 0.299815
Si Si2 0.157739 0.828882 0.883644
Si Si3 0.881458 0.176757 0.584044
Si Si4 0.006193 0.325404 0.903947
Si Si5 0.800294 0.175943 0.794653
Si Si6 0.404142 0.177212 0.505667
Si Si7 0.549713 0.329947 0.239387
Si Si8 0.124469 0.163594 0.015702
O O1 0.006281 0.500000 0.313443
O O2 0.843790 0.719204 0.249197
O O3 0.034904 0.765044 0.353425
O O4 0.065883 0.723877 0.283842
O O5 0.080964 0.707817 0.885887
O O6 0.298775 0.769838 0.929140
O O7 0.095695 0.823187 0.819553
O O8 0.148643 0.000000 0.898056
O O9 0.737939 0.221917 0.549261
O O10 0.935618 0.247846 0.558934
O O11 0.895518 0.000000 0.584274
O O12 0.991033 0.500000 0.909171
O O13 0.867871 0.256878 0.854180
O O14 0.094072 0.250130 0.964840
O O15 0.859096 0.225991 0.768962
O O16 0.823820 0.000000 0.808109
O O17 0.500000 0.236111 0.500000
O O18 0.419807 0.000000 0.515849
O O19 0.585234 0.500000 0.263108
O O20 0.189110 0.000000 0.026249
O O21 0.000000 0.125879 0.000000
#
# Coordination Sequence:
#
# PCOD8107228 Si02
#       8
#     8   8   8   8   8   8   8   8
#     4  11  23  38  60  86 119 158 196 240 289 343
#     4  10  21  39  60  80 108 143 182 230 288 351
#     4  10  21  37  58  88 123 156 197 244 287 336
#     4  11  22  37  59  82 107 140 182 232 287 348
#     4   9  21  41  60  81 112 154 195 236 291 352
#     4   9  19  38  63  88 119 161 201 238 286 340
#     4   9  20  39  60  82 111 148 192 239 289 345
#     4  11  24  38  54  79 110 142 180 229 285 350
#
# _framework density 20.588740000000001
#
# number of rings (size 3 to 8) (size 9 to 14) (size 15 to 20)
#    0.000    2.000    0.000    3.750    1.750    6.250 
#    0.000    5.000    0.000    0.000    0.000    0.000 
#    0.000    0.000    0.000    0.000    0.000    0.000 
#
# Total GULP energy -396666.405107 kJ/mol
# GULP energy per Si atom -12395.825160 kJ/mol
# Density = 2.054188 g / cm^3
# Si number density = 20.588740 Si / 1000 Ang^3
#
#
#
# Elastic Constant Matrix: (Units=GPa)
#
#
# Indices 1 2 3 4 5 6 
#
# 1 69.3964 21.8457 11.7467 0.0000 -8.7973 0.0000
# 2 21.8457 71.9531 31.5316 0.0000 -5.1435 0.0000
# 3 11.7467 31.5316 58.3964 0.0000 -12.2519 0.0000
# 4 0.0000 0.0000 0.0000 37.6370 0.0000 -1.5011
# 5 -8.7973 -5.1435 -12.2519 0.0000 27.1391 0.0000
# 6 0.0000 0.0000 0.0000 -1.5011 0.0000 28.2177
#
#
#
# Elastic Compliance Matrix: (Units=1/GPa)
#
#
# Indices 1 2 3 4 5 6 
#
# 1 0.016447 -0.004763 0.000213 0.000000 0.004525 0.000000
# 2 -0.004763 0.019615 -0.010137 0.000000 -0.002403 0.000000
# 3 0.000213 -0.010137 0.024486 0.000000 0.009202 0.000000
# 4 0.000000 0.000000 0.000000 0.026626 0.000000 0.001416
# 5 0.004525 -0.002403 0.009202 0.000000 0.042013 0.000000
# 6 0.000000 0.000000 0.000000 0.001416 0.000000 0.035514
#
#
# Mechanical properties :
#
#
# Convention : Reuss Voigt Hill
#
# Bulk Modulus (GPa) = 32.07968 36.66599 34.37284
# Shear Modulus (GPa) = 24.45392 27.57354 26.01373
#
# Velocity S-wave (km/s) = 3.45009 3.66355 3.55842
# Velocity P-wave (km/s) = 5.61122 5.97854 5.79779
#
# Compressibility (1/GPa) = 0.03117238
#
# Stress axis : x y z
#
# Youngs Moduli (GPa) = 60.80140 50.98214 40.84007
#
# Poissons Ratio (x) = 0.24285 -0.00870
# Poissons Ratio (y) = 0.28962 0.41400
# Poissons Ratio (z) = -0.01295 0.51681
#
# Static dielectric constant tensor:
#      x y z
#    x 3.831780 0.000000 -0.158970 
#    y 0.000000 3.740070 0.000000 
#    z -0.158970 0.000000 4.349580 
# 
# 
# High freq. dielectric constant tensor:
#      x y z
#    x 1.797980 0.000000 0.001080 
#    y 0.000000 1.807660 0.000000 
#    z 0.001080 0.000000 1.803390 
# 
# From -- ./inp_files/375552.got.cif
#   From: 2010.06.25/outbox.cif.g09.slc.cpg/sg12_188_cif.got.tgz:375552.got - 2010.06.28 00:19:55.
