data_PCOD8107225
_publ_section_title
;
Structure prediction by ZEFSAII (Michael W. Deem and Ramdas Pophale) SiO2 
 PCOD8107225
Probable space group: C 2/M
;
_chemical_formula_sum "Si O2"
_cell_formula_units_Z 64
_cell_length_a 29.119794
_cell_length_b 8.780924
_cell_length_c 24.820946
_cell_angle_alpha 90.000000
_cell_angle_beta 148.884834
_cell_angle_gamma 90.000000
_cell_volume 3279.711962
_symmetry_space_group_name_H-M "C 2/M"
_symmetry_group_IT_number 12
_symmetry_cell_setting 'monoclinic'
loop_
_space_group_symop_operation_xyz
x,y,z
-x,y,-z
-x,-y,-z
x,-y,z
1/2+x,1/2+y,z
1/2-x,1/2+y,-z
1/2-x,1/2-y,-z
1/2+x,1/2-y,z
loop_
_atom_site_type_symbol
_atom_site_label
_atom_site_fract_x
_atom_site_fract_y
_atom_site_fract_z
Si Si1 0.668010 0.674598 0.278261
Si Si2 0.994185 0.175720 0.166778
Si Si3 0.734264 0.322579 0.230818
Si Si4 0.588602 0.320682 0.615202
Si Si5 0.792192 0.820351 0.488920
Si Si6 0.523929 0.820914 0.308400
Si Si7 0.308100 0.320318 0.930324
Si Si8 0.371843 0.320433 0.224480
O O1 0.697766 0.500000 0.317548
O O2 0.565894 0.698231 0.191703
O O3 0.672890 0.719721 0.220106
O O4 0.732855 0.780983 0.377770
O O5 0.023831 0.281908 0.245352
O O6 0.990504 0.000000 0.182220
O O7 0.899922 0.231126 0.049403
O O8 0.752682 0.500000 0.245925
O O9 0.828543 0.242821 0.334679
O O10 0.689473 0.267179 0.129902
O O11 0.500000 0.250834 0.500000
O O12 0.590087 0.500000 0.610918
O O13 0.592362 0.270693 0.681132
O O14 0.750000 0.750000 0.500000
O O15 0.891309 0.757562 0.578434
O O16 0.797019 0.000000 0.501527
O O17 0.432567 0.760181 0.241433
O O18 0.531535 0.000000 0.324307
O O19 0.293623 0.500000 0.920539
O O20 0.229300 0.236647 0.883433
O O21 0.375177 0.500000 0.218509
#
# Coordination Sequence:
#
# PCOD8107225 Si02
#       8
#     8   8   8   8   8   8   8   8
#     4  10  21  37  58  88 121 156 196 238 287 345
#     4  10  21  38  61  85 116 156 199 243 290 346
#     4   9  19  35  56  85 118 150 192 239 286 340
#     4   9  19  35  54  79 110 148 192 236 289 348
#     4  12  24  40  61  85 118 157 194 239 290 344
#     4  12  25  40  60  87 118 153 195 242 293 351
#     4   9  19  38  61  86 117 155 196 244 293 341
#     4  10  21  38  59  84 116 153 193 242 295 349
#
# _framework density 19.513909000000002
#
# number of rings (size 3 to 8) (size 9 to 14) (size 15 to 20)
#    0.000    1.875    1.250    2.625    1.750    2.750 
#    0.000    2.500    0.000    0.000    0.000    5.250 
#    0.000    0.000    0.000    0.000    0.000    0.000 
#
# Total GULP energy -396910.930783 kJ/mol
# GULP energy per Si atom -12403.466587 kJ/mol
# Density = 1.946949 g / cm^3
# Si number density = 19.513909 Si / 1000 Ang^3
#
#
#
# Elastic Constant Matrix: (Units=GPa)
#
#
# Indices 1 2 3 4 5 6 
#
# 1 104.1875 29.7192 18.1586 0.0000 16.3918 0.0000
# 2 29.7192 73.8751 26.9063 0.0000 8.0991 0.0000
# 3 18.1586 26.9063 101.8207 0.0000 22.4845 0.0000
# 4 0.0000 0.0000 0.0000 29.1685 0.0000 2.3730
# 5 16.3918 8.0991 22.4845 0.0000 25.2411 0.0000
# 6 0.0000 0.0000 0.0000 2.3730 0.0000 26.0542
#
#
#
# Elastic Compliance Matrix: (Units=1/GPa)
#
#
# Indices 1 2 3 4 5 6 
#
# 1 0.011763 -0.004173 0.000493 0.000000 -0.006739 0.000000
# 2 -0.004173 0.016510 -0.003793 0.000000 0.000791 0.000000
# 3 0.000493 -0.003793 0.013118 0.000000 -0.010788 0.000000
# 4 0.000000 0.000000 0.000000 0.034540 0.000000 -0.003146
# 5 -0.006739 0.000791 -0.010788 0.000000 0.053351 0.000000
# 6 0.000000 0.000000 0.000000 -0.003146 0.000000 0.038668
#
#
# Mechanical properties :
#
#
# Convention : Reuss Voigt Hill
#
# Bulk Modulus (GPa) = 37.81511 47.71682 42.76597
# Shear Modulus (GPa) = 26.08110 29.76602 27.92356
#
# Velocity S-wave (km/s) = 3.65984 3.90984 3.78690
# Velocity P-wave (km/s) = 6.10572 6.69987 6.40968
#
# Compressibility (1/GPa) = 0.02644446
#
# Stress axis : x y z
#
# Youngs Moduli (GPa) = 85.01473 60.56990 76.23115
#
# Poissons Ratio (x) = 0.25274 -0.03759
# Poissons Ratio (y) = 0.35475 0.28917
# Poissons Ratio (z) = -0.04192 0.22976
#
# Static dielectric constant tensor:
#      x y z
#    x 3.655320 0.000000 0.038000 
#    y 0.000000 3.492650 0.000000 
#    z 0.038000 0.000000 3.703490 
# 
# 
# High freq. dielectric constant tensor:
#      x y z
#    x 1.766030 0.000000 0.005590 
#    y 0.000000 1.754160 0.000000 
#    z 0.005590 0.000000 1.760710 
# 
# From -- ./inp_files/353555.got.cif
#   From: 2010.06.25/outbox.cif.g09.slc.cpg/sg12_177_cif.got.tgz:353555.got - 2010.06.28 00:19:55.
