data_PCOD8107275
_publ_section_title
;
Structure prediction by ZEFSAII (Michael W. Deem and Ramdas Pophale) SiO2 
 PCOD8107275
Probable space group: C 2/M
;
_chemical_formula_sum "Si O2"
_cell_formula_units_Z 48
_cell_length_a 31.451053
_cell_length_b 16.664491
_cell_length_c 8.899796
_cell_angle_alpha 90.000000
_cell_angle_beta 147.407434
_cell_angle_gamma 90.000000
_cell_volume 2512.599163
_symmetry_space_group_name_H-M "C 2/M"
_symmetry_group_IT_number 12
_symmetry_cell_setting 'monoclinic'
loop_
_space_group_symop_operation_xyz
x,y,z
-x,y,-z
-x,-y,-z
x,-y,z
1/2+x,1/2+y,z
1/2-x,1/2+y,-z
1/2-x,1/2-y,-z
1/2+x,1/2-y,z
loop_
_atom_site_type_symbol
_atom_site_label
_atom_site_fract_x
_atom_site_fract_y
_atom_site_fract_z
Si Si1 0.590499 0.000000 0.097757
Si Si2 0.001460 0.907715 0.327119
Si Si3 0.195670 0.645834 0.420512
Si Si4 0.354127 0.675422 0.739718
Si Si5 0.849969 0.827942 0.378013
Si Si6 0.584367 0.000000 0.436012
Si Si7 0.186576 0.351179 0.743405
O O1 0.636683 0.921212 0.182331
O O2 0.582169 0.000000 0.250952
O O3 0.504516 0.000000 0.764659
O O4 0.000000 0.898317 0.500000
O O5 0.085480 0.876912 0.520735
O O6 0.989650 0.000000 0.242973
O O7 0.933146 0.853639 0.054155
O O8 0.278647 0.631243 0.585356
O O9 0.155417 0.729978 0.259592
O O10 0.211794 0.637930 0.645651
O O11 0.361248 0.654509 0.586568
O O12 0.857859 0.733340 0.365248
O O13 0.763908 0.858401 0.075001
O O14 0.627959 0.920513 0.624693
#
# Coordination Sequence:
#
# PCOD8107275 Si02
#       7
#     4   8   8   8   8   4   8
#     4   9  18  32  57  86 111 146 191 227 262 325
#     4  11  25  41  59  82 111 148 194 239 287 347
#     4   9  19  36  59  85 115 152 190 227 275 335
#     4  10  21  37  59  85 115 148 187 235 287 335
#     4  10  21  37  59  85 115 148 187 235 287 335
#     4   9  18  32  57  86 111 146 191 227 262 325
#     4   9  19  36  59  85 115 152 190 227 275 335
#
# _framework density 19.103725000000001
#
# number of rings (size 3 to 8) (size 9 to 14) (size 15 to 20)
#    0.000    2.333    0.000    1.500    4.667    2.667 
#    0.000    0.000    0.000    1.000    0.000    0.000 
#    0.000    0.000    0.000    0.000    0.000    0.000 
#
# Total GULP energy -297674.541459 kJ/mol
# GULP energy per Si atom -12403.105894 kJ/mol
# Density = 1.906024 g / cm^3
# Si number density = 19.103725 Si / 1000 Ang^3
#
#
#
# Elastic Constant Matrix: (Units=GPa)
#
#
# Indices 1 2 3 4 5 6 
#
# 1 64.8631 24.1572 23.4774 0.0000 3.7046 0.0000
# 2 24.1572 90.8054 55.5802 0.0000 -0.7191 0.0000
# 3 23.4774 55.5802 115.3260 0.0000 -1.5563 0.0000
# 4 0.0000 0.0000 0.0000 31.6796 0.0000 6.0506
# 5 3.7046 -0.7191 -1.5563 0.0000 17.8932 0.0000
# 6 0.0000 0.0000 0.0000 6.0506 0.0000 24.9211
#
#
#
# Elastic Compliance Matrix: (Units=1/GPa)
#
#
# Indices 1 2 3 4 5 6 
#
# 1 0.017666 -0.003542 -0.001943 0.000000 -0.003969 0.000000
# 2 -0.003542 0.016330 -0.007139 0.000000 0.000769 0.000000
# 3 -0.001943 -0.007139 0.012523 0.000000 0.001205 0.000000
# 4 0.000000 0.000000 0.000000 0.033101 0.000000 -0.008037
# 5 -0.003969 0.000769 0.001205 0.000000 0.056845 0.000000
# 6 0.000000 0.000000 0.000000 -0.008037 0.000000 0.042078
#
#
# Mechanical properties :
#
#
# Convention : Reuss Voigt Hill
#
# Bulk Modulus (GPa) = 47.00912 53.04711 50.02811
# Shear Modulus (GPa) = 23.70994 26.08409 24.89701
#
# Velocity S-wave (km/s) = 3.52677 3.69913 3.61398
# Velocity P-wave (km/s) = 6.42222 6.78771 6.60749
#
# Compressibility (1/GPa) = 0.02127247
#
# Stress axis : x y z
#
# Youngs Moduli (GPa) = 56.60541 61.23513 79.85080
#
# Poissons Ratio (x) = 0.21689 0.15514
# Poissons Ratio (y) = 0.20050 0.57005
# Poissons Ratio (z) = 0.10998 0.43715
#
# Static dielectric constant tensor:
#      x y z
#    x 3.431110 0.000000 0.109630 
#    y 0.000000 3.646240 0.000000 
#    z 0.109630 0.000000 3.517980 
# 
# 
# High freq. dielectric constant tensor:
#      x y z
#    x 1.732590 0.000000 0.008490 
#    y 0.000000 1.751340 0.000000 
#    z 0.008490 0.000000 1.747620 
# 
# From -- ./inp_files/112969.got.cif
#   From: 2010.06.25/outbox.cif.g09.slc.cpg/sg12_57_cif.got.tgz:112969.got - 2010.06.28 00:19:55.
