data_PCOD8107744
_publ_section_title
;
Structure prediction by ZEFSAII (Michael W. Deem and Ramdas Pophale) SiO2 
 PCOD8107744
Probable space group: C 2/M
;
_chemical_formula_sum "Si O2"
_cell_formula_units_Z 48
_cell_length_a 11.273410
_cell_length_b 16.941151
_cell_length_c 23.538915
_cell_angle_alpha 90.000000
_cell_angle_beta 35.590542
_cell_angle_gamma 90.000000
_cell_volume 2616.370472
_symmetry_space_group_name_H-M "C 2/M"
_symmetry_group_IT_number 12
_symmetry_cell_setting 'monoclinic'
loop_
_space_group_symop_operation_xyz
x,y,z
-x,y,-z
-x,-y,-z
x,-y,z
1/2+x,1/2+y,z
1/2-x,1/2+y,-z
1/2-x,1/2-y,-z
1/2+x,1/2-y,z
loop_
_atom_site_type_symbol
_atom_site_label
_atom_site_fract_x
_atom_site_fract_y
_atom_site_fract_z
Si Si1 0.089460 0.905941 0.906176
Si Si2 0.659285 0.693115 0.486590
Si Si3 0.740312 0.406161 0.051369
Si Si4 0.813873 0.405987 0.146397
Si Si5 0.139037 0.911870 0.327976
Si Si6 0.460254 0.089814 0.297228
O O1 0.315462 0.875928 0.803382
O O2 0.944165 0.871936 0.913495
O O3 0.090445 0.000000 0.908289
O O4 0.000000 0.871894 0.000000
O O5 0.500000 0.729085 0.500000
O O6 0.750000 0.750000 0.500000
O O7 0.537021 0.628961 0.568967
O O8 0.849590 0.649425 0.383374
O O9 0.746488 0.500000 0.045469
O O10 0.704744 0.380103 0.130484
O O11 0.954817 0.373130 0.944071
O O12 0.821771 0.500000 0.149849
O O13 0.686145 0.370176 0.248889
O O14 0.349101 0.911654 0.280339
O O15 0.059015 0.000000 0.349027
O O16 0.466939 0.000000 0.319788
#
# Coordination Sequence:
#
# PCOD8107744 Si02
#       6
#     8   8   8   8   8   8
#     4   9  15  23  39  68 102 128 154 191 244 296
#     4  10  21  38  55  73  96 131 170 209 252 301
#     4   8  13  21  34  59  99 133 152 183 233 290
#     4   8  13  22  38  63  95 127 157 189 234 288
#     4   9  16  29  52  76  95 122 165 210 248 288
#     4   9  17  30  51  77 101 126 162 209 249 288
#
# _framework density 18.346025999999998
#
# number of rings (size 3 to 8) (size 9 to 14) (size 15 to 20)
#    0.000    3.167    0.000    2.500    0.000    6.000 
#    3.000    0.000    0.000    1.000    4.333    3.500 
#    0.000    0.000    0.000    0.000    0.000    0.000 
#
# Total GULP energy -297325.856369 kJ/mol
# GULP energy per Si atom -12388.577349 kJ/mol
# Density = 1.830427 g / cm^3
# Si number density = 18.346026 Si / 1000 Ang^3
#
#
#
# Elastic Constant Matrix: (Units=GPa)
#
#
# Indices 1 2 3 4 5 6 
#
# 1 135.2613 30.9828 80.9797 -0.0039 2.5586 0.0007
# 2 30.9828 26.7404 22.9149 -0.0225 1.7942 0.0019
# 3 80.9797 22.9149 149.5269 -0.0713 7.4841 -0.0016
# 4 -0.0039 -0.0225 -0.0713 2.8357 0.0101 3.1472
# 5 2.5586 1.7942 7.4841 0.0101 34.6000 0.0032
# 6 0.0007 0.0019 -0.0016 3.1472 0.0032 17.8764
#
#
#
# Elastic Compliance Matrix: (Units=1/GPa)
#
#
# Indices 1 2 3 4 5 6 
#
# 1 0.013083 -0.010482 -0.005518 -0.000257 0.000770 0.000045
# 2 -0.010482 0.051471 -0.002139 0.000435 -0.001431 -0.000082
# 3 -0.005518 -0.002139 0.010087 0.000290 -0.001663 -0.000049
# 4 -0.000257 0.000435 0.000290 0.438287 -0.000187 -0.077161
# 5 0.000770 -0.001431 -0.001663 -0.000187 0.029279 0.000028
# 6 0.000045 -0.000082 -0.000049 -0.077161 0.000028 0.069524
#
#
# Mechanical properties :
#
#
# Convention : Reuss Voigt Hill
#
# Bulk Modulus (GPa) = 26.06654 64.58703 45.32678
# Shear Modulus (GPa) = 7.56663 22.83919 15.20291
#
# Velocity S-wave (km/s) = 2.03306 3.53216 2.88180
# Velocity P-wave (km/s) = 4.44413 7.20529 5.98609
#
# Compressibility (1/GPa) = 0.03836336
#
# Stress axis : x y z
#
# Youngs Moduli (GPa) = 76.43574 19.42834 99.13586
#
# Poissons Ratio (x) = 0.20365 0.54699
# Poissons Ratio (y) = 0.80121 0.21208
# Poissons Ratio (z) = 0.42174 0.04156
#
# Static dielectric constant tensor:
#      x y z
#    x 3.782580 0.000000 0.050640 
#    y 0.000000 2.866810 0.000010 
#    z 0.050640 0.000010 3.548170 
# 
# 
# High freq. dielectric constant tensor:
#      x y z
#    x 1.715500 0.000000 0.008260 
#    y 0.000000 1.648400 0.000000 
#    z 0.008260 0.000000 1.722820 
# 
# From -- ./inp_files/336636.got.cif
#   From: 2010.06.25/outbox.cif.g09.slc.cpg/sg12_169_cif.got.tgz:336636.got - 2010.06.28 00:19:55.
