data_PCOD8107345
_publ_section_title
;
Structure prediction by ZEFSAII (Michael W. Deem and Ramdas Pophale) SiO2 
 PCOD8107345
Probable space group: C 2/M
;
_chemical_formula_sum "Si O2"
_cell_formula_units_Z 52
_cell_length_a 21.193053
_cell_length_b 14.092384
_cell_length_c 12.094230
_cell_angle_alpha 90.000000
_cell_angle_beta 131.855272
_cell_angle_gamma 90.000000
_cell_volume 2690.388079
_symmetry_space_group_name_H-M "C 2/M"
_symmetry_group_IT_number 12
_symmetry_cell_setting 'monoclinic'
loop_
_space_group_symop_operation_xyz
x,y,z
-x,y,-z
-x,-y,-z
x,-y,z
1/2+x,1/2+y,z
1/2-x,1/2+y,-z
1/2-x,1/2-y,-z
1/2+x,1/2-y,z
loop_
_atom_site_type_symbol
_atom_site_label
_atom_site_fract_x
_atom_site_fract_y
_atom_site_fract_z
Si Si1 0.046832 0.892485 0.829343
Si Si2 0.000000 0.806935 0.000000
Si Si3 0.562909 0.341993 0.485904
Si Si4 0.326317 0.741818 0.727281
Si Si5 0.208108 0.894637 0.506138
Si Si6 0.197442 0.262850 0.764584
Si Si7 0.263673 0.390579 0.019961
O O1 0.146588 0.877854 0.935181
O O2 0.996745 0.819120 0.689863
O O3 0.020618 0.000000 0.765038
O O4 0.020777 0.876225 0.923889
O O5 0.080289 0.739096 0.115798
O O6 0.500000 0.395489 0.500000
O O7 0.643643 0.400994 0.535371
O O8 0.603985 0.251423 0.599381
O O9 0.294122 0.840425 0.638514
O O10 0.335845 0.660021 0.646283
O O11 0.262001 0.704265 0.745084
O O12 0.232817 0.000000 0.497668
O O13 0.232137 0.163975 0.858136
O O14 0.193953 0.343146 0.856358
O O15 0.239679 0.500000 0.013580
#
# Coordination Sequence:
#
# PCOD8107345 Si02
#       7
#     8   4   8   8   8   8   8
#     4  11  22  34  56  90 119 149 189 240 301 352
#     4  12  21  38  57  82 122 154 192 246 282 350
#     4  11  21  35  57  90 121 152 183 234 294 357
#     4  10  22  37  57  84 111 157 196 233 290 338
#     4  10  22  39  57  83 118 152 193 237 285 348
#     4  10  21  38  56  84 121 156 188 238 293 339
#     4  10  21  37  59  88 117 151 194 235 292 356
#
# _framework density 19.328066
#
# number of rings (size 3 to 8) (size 9 to 14) (size 15 to 20)
#    0.000    1.538    4.615    0.692    0.000    5.538 
#    0.000    0.385    0.000    0.462    0.000    0.000 
#    0.000    0.000    0.000    0.000    0.000    0.000 
#
# Total GULP energy -322202.915416 kJ/mol
# GULP energy per Si atom -12392.419824 kJ/mol
# Density = 1.928407 g / cm^3
# Si number density = 19.328066 Si / 1000 Ang^3
#
#
#
# Elastic Constant Matrix: (Units=GPa)
#
#
# Indices 1 2 3 4 5 6 
#
# 1 94.8368 27.2332 35.1808 0.0000 -11.1199 0.0000
# 2 27.2332 105.8150 45.5489 0.0000 2.9030 0.0000
# 3 35.1808 45.5489 134.1163 0.0000 1.8343 0.0000
# 4 0.0000 0.0000 0.0000 14.5889 0.0000 -0.7747
# 5 -11.1199 2.9030 1.8343 0.0000 34.1636 0.0000
# 6 0.0000 0.0000 0.0000 -0.7747 0.0000 12.4173
#
#
#
# Elastic Compliance Matrix: (Units=1/GPa)
#
#
# Indices 1 2 3 4 5 6 
#
# 1 0.012689 -0.002259 -0.002622 0.000000 0.004463 0.000000
# 2 -0.002259 0.011490 -0.003288 0.000000 -0.001535 0.000000
# 3 -0.002622 -0.003288 0.009276 0.000000 -0.001072 0.000000
# 4 0.000000 0.000000 0.000000 0.068773 0.000000 0.004291
# 5 0.004463 -0.001535 -0.001072 0.000000 0.030912 0.000000
# 6 0.000000 0.000000 0.000000 0.004291 0.000000 0.080801
#
#
# Mechanical properties :
#
#
# Convention : Reuss Voigt Hill
#
# Bulk Modulus (GPa) = 58.43121 61.18821 59.80971
# Shear Modulus (GPa) = 21.18778 27.35430 24.27104
#
# Velocity S-wave (km/s) = 3.31451 3.76608 3.54749
# Velocity P-wave (km/s) = 6.70409 7.11601 6.91312
#
# Compressibility (1/GPa) = 0.01711414
#
# Stress axis : x y z
#
# Youngs Moduli (GPa) = 78.80631 87.03507 107.81001
#
# Poissons Ratio (x) = 0.19665 0.28271
# Poissons Ratio (y) = 0.17806 0.35453
# Poissons Ratio (z) = 0.20665 0.28621
#
# Static dielectric constant tensor:
#      x y z
#    x 3.613990 0.000000 -0.060980 
#    y 0.000000 3.236660 0.000000 
#    z -0.060980 0.000000 3.792890 
# 
# 
# High freq. dielectric constant tensor:
#      x y z
#    x 1.755780 0.000000 -0.014000 
#    y 0.000000 1.704080 0.000000 
#    z -0.014000 0.000000 1.770700 
# 
# From -- ./inp_files/167363.got.cif
#   From: 2010.06.25/outbox.cif.g09.slc.cpg/sg12_84_cif.got.tgz:167363.got - 2010.06.28 00:19:55.
