data_PCOD8107731
_publ_section_title
;
Structure prediction by ZEFSAII (Michael W. Deem and Ramdas Pophale) SiO2 
 PCOD8107731
Probable space group: C 2/M
;
_chemical_formula_sum "Si O2"
_cell_formula_units_Z 40
_cell_length_a 11.530434
_cell_length_b 16.245319
_cell_length_c 10.536384
_cell_angle_alpha 90.000000
_cell_angle_beta 123.629361
_cell_angle_gamma 90.000000
_cell_volume 1643.317499
_symmetry_space_group_name_H-M "C 2/M"
_symmetry_group_IT_number 12
_symmetry_cell_setting 'monoclinic'
loop_
_space_group_symop_operation_xyz
x,y,z
-x,y,-z
-x,-y,-z
x,-y,z
1/2+x,1/2+y,z
1/2-x,1/2+y,-z
1/2-x,1/2-y,-z
1/2+x,1/2-y,z
loop_
_atom_site_type_symbol
_atom_site_label
_atom_site_fract_x
_atom_site_fract_y
_atom_site_fract_z
Si Si1 0.311507 0.594161 0.124147
Si Si2 0.942059 0.833830 0.593075
Si Si3 0.191983 0.317573 0.592398
Si Si4 0.894155 0.404506 0.215855
Si Si5 0.894503 0.317775 0.830804
O O1 0.362322 0.500000 0.162069
O O2 0.444571 0.653772 0.226865
O O3 0.194908 0.608871 0.160374
O O4 0.247461 0.615401 0.947539
O O5 0.925926 0.735866 0.552757
O O6 0.790337 0.865875 0.548893
O O7 0.000000 0.879142 0.500000
O O8 0.125039 0.382457 0.647824
O O9 0.291507 0.254441 0.727399
O O10 0.930259 0.500000 0.226702
O O11 0.024560 0.354533 0.240451
O O12 0.000000 0.281962 0.000000
#
# Coordination Sequence:
#
# PCOD8107731 Si02
#       5
#     8   8   8   8   8
#     4  10  22  41  68 100 132 175 223 278 337 395
#     4  11  23  42  61  93 133 177 222 274 330 406
#     4  11  24  40  66  96 133 174 230 275 336 390
#     4  10  23  44  69 100 139 174 220 281 343 399
#     4  10  21  37  67  99 132 172 223 271 332 401
#
# _framework density 24.341006
#
# number of rings (size 3 to 8) (size 9 to 14) (size 15 to 20)
#    0.000    1.600    2.000    1.800    2.800    5.200 
#    0.000    2.000    0.000    5.400    0.000    0.000 
#    0.000    0.000    0.000    0.000    0.000    0.000 
#
# Total GULP energy -247892.527312 kJ/mol
# GULP energy per Si atom -12394.626366 kJ/mol
# Density = 2.428560 g / cm^3
# Si number density = 24.341006 Si / 1000 Ang^3
#
#
#
# Elastic Constant Matrix: (Units=GPa)
#
#
# Indices 1 2 3 4 5 6 
#
# 1 106.7828 23.3630 26.3479 0.0000 -23.9754 0.0000
# 2 23.3630 64.8304 56.5984 0.0000 11.2111 0.0000
# 3 26.3479 56.5984 106.5061 0.0000 21.2661 0.0000
# 4 0.0000 0.0000 0.0000 41.4576 0.0000 -2.5669
# 5 -23.9754 11.2111 21.2661 0.0000 50.4427 0.0000
# 6 0.0000 0.0000 0.0000 -2.5669 0.0000 25.7651
#
#
#
# Elastic Compliance Matrix: (Units=1/GPa)
#
#
# Indices 1 2 3 4 5 6 
#
# 1 0.012615 -0.003377 -0.002919 0.000000 0.007977 0.000000
# 2 -0.003377 0.029678 -0.014521 0.000000 -0.002080 0.000000
# 3 -0.002919 -0.014521 0.019065 0.000000 -0.006198 0.000000
# 4 0.000000 0.000000 0.000000 0.024271 0.000000 0.002418
# 5 0.007977 -0.002080 -0.006198 0.000000 0.026691 0.000000
# 6 0.000000 0.000000 0.000000 0.002418 0.000000 0.039053
#
#
# Mechanical properties :
#
#
# Convention : Reuss Voigt Hill
#
# Bulk Modulus (GPa) = 50.69730 54.52644 52.61187
# Shear Modulus (GPa) = 25.05237 34.98709 30.01973
#
# Velocity S-wave (km/s) = 3.21163 3.79538 3.51564
# Velocity P-wave (km/s) = 5.88438 6.45417 6.17585
#
# Compressibility (1/GPa) = 0.01972492
#
# Stress axis : x y z
#
# Youngs Moduli (GPa) = 79.27097 33.69445 52.45191
#
# Poissons Ratio (x) = 0.11380 0.15309
# Poissons Ratio (y) = 0.26773 0.76164
# Poissons Ratio (z) = 0.23137 0.48927
#
# Static dielectric constant tensor:
#      x y z
#    x 4.889500 0.000000 -0.071190 
#    y 0.000000 3.840630 0.000000 
#    z -0.071190 0.000000 4.777390 
# 
# 
# High freq. dielectric constant tensor:
#      x y z
#    x 1.983290 0.000000 0.001770 
#    y 0.000000 1.922830 0.000000 
#    z 0.001770 0.000000 1.989960 
# 
# From -- ./inp_files/131352.got.cif
#   From: 2010.06.25/outbox.cif.g09.slc.cpg/sg12_66_cif.got.tgz:131352.got - 2010.06.28 00:19:55.
