data_PCOD8107258
_publ_section_title
;
Structure prediction by ZEFSAII (Michael W. Deem and Ramdas Pophale) SiO2 
 PCOD8107258
Probable space group: C 2/M
;
_chemical_formula_sum "Si O2"
_cell_formula_units_Z 36
_cell_length_a 22.675983
_cell_length_b 13.909129
_cell_length_c 11.674756
_cell_angle_alpha 90.000000
_cell_angle_beta 149.362106
_cell_angle_gamma 90.000000
_cell_volume 1876.516140
_symmetry_space_group_name_H-M "C 2/M"
_symmetry_group_IT_number 12
_symmetry_cell_setting 'monoclinic'
loop_
_space_group_symop_operation_xyz
x,y,z
-x,y,-z
-x,-y,-z
x,-y,z
1/2+x,1/2+y,z
1/2-x,1/2+y,-z
1/2-x,1/2-y,-z
1/2+x,1/2-y,z
loop_
_atom_site_type_symbol
_atom_site_label
_atom_site_fract_x
_atom_site_fract_y
_atom_site_fract_z
Si Si1 0.663827 0.110287 0.414796
Si Si2 0.822661 0.263490 0.776199
Si Si3 0.500000 0.296347 0.500000
Si Si4 0.454967 0.178328 0.199812
Si Si5 0.785670 0.891928 0.236483
O O1 0.778828 0.160308 0.659316
O O2 0.626431 0.169838 0.239875
O O3 0.559778 0.111281 0.332631
O O4 0.692596 0.000000 0.432001
O O5 0.714245 0.322635 0.651332
O O6 0.921221 0.248436 0.038483
O O7 0.493794 0.232357 0.377325
O O8 0.385397 0.361501 0.314370
O O9 0.340379 0.114772 0.036236
O O10 0.808940 0.000000 0.316209
#
# Coordination Sequence:
#
# PCOD8107258 Si02
#       5
#     8   8   4   8   8
#     4  11  20  38  65  88 113 149 192 238 293 344
#     4   9  22  37  60  88 120 143 185 246 291 335
#     4  12  21  40  57  82 122 160 189 236 285 336
#     4  10  21  38  59  85 118 151 190 243 281 332
#     4  10  21  37  59  84 114 155 196 231 283 343
#
# _framework density 19.184488000000002
#
# number of rings (size 3 to 8) (size 9 to 14) (size 15 to 20)
#    1.333    0.444    2.222    3.000    0.000    0.889 
#    0.000    6.667    0.000    2.667    0.000    0.000 
#    0.000    0.000    0.000    0.000    0.000    0.000 
#
# Total GULP energy -223041.887647 kJ/mol
# GULP energy per Si atom -12391.215980 kJ/mol
# Density = 1.914082 g / cm^3
# Si number density = 19.184488 Si / 1000 Ang^3
#
#
#
# Elastic Constant Matrix: (Units=GPa)
#
#
# Indices 1 2 3 4 5 6 
#
# 1 97.8397 41.1344 25.4448 0.0000 9.3872 0.0000
# 2 41.1344 100.2973 40.6944 0.0000 2.3091 0.0000
# 3 25.4448 40.6944 85.1260 0.0000 -19.5187 0.0000
# 4 0.0000 0.0000 0.0000 10.2152 0.0000 2.2021
# 5 9.3872 2.3091 -19.5187 0.0000 37.2741 0.0000
# 6 0.0000 0.0000 0.0000 2.2021 0.0000 25.2045
#
#
#
# Elastic Compliance Matrix: (Units=1/GPa)
#
#
# Indices 1 2 3 4 5 6 
#
# 1 0.013170 -0.004046 -0.003075 0.000000 -0.004676 0.000000
# 2 -0.004046 0.014279 -0.006348 0.000000 -0.003190 0.000000
# 3 -0.003075 -0.006348 0.018148 0.000000 0.010671 0.000000
# 4 0.000000 0.000000 0.000000 0.099772 0.000000 -0.008717
# 5 -0.004676 -0.003190 0.010671 0.000000 0.033791 0.000000
# 6 0.000000 0.000000 0.000000 -0.008717 0.000000 0.040437
#
#
# Mechanical properties :
#
#
# Convention : Reuss Voigt Hill
#
# Bulk Modulus (GPa) = 53.59293 55.31224 54.45258
# Shear Modulus (GPa) = 19.78209 26.27141 23.02675
#
# Velocity S-wave (km/s) = 3.21464 3.70457 3.46826
# Velocity P-wave (km/s) = 6.46334 6.86970 6.66961
#
# Compressibility (1/GPa) = 0.01865918
#
# Stress axis : x y z
#
# Youngs Moduli (GPa) = 75.92892 70.03369 55.10389
#
# Poissons Ratio (x) = 0.28338 0.16942
# Poissons Ratio (y) = 0.30723 0.34979
# Poissons Ratio (z) = 0.23345 0.44456
#
# Static dielectric constant tensor:
#      x y z
#    x 3.654130 0.000000 0.111480 
#    y 0.000000 3.180800 0.000000 
#    z 0.111480 0.000000 3.258110 
# 
# 
# High freq. dielectric constant tensor:
#      x y z
#    x 1.757580 0.000000 0.008450 
#    y 0.000000 1.720800 0.000000 
#    z 0.008450 0.000000 1.729720 
# 
# From -- ./inp_files/174179.got.cif
#   From: 2010.06.25/outbox.cif.g09.slc.cpg/sg12_88_cif.got.tgz:174179.got - 2010.06.28 00:19:55.
