data_PCOD8107163
_publ_section_title
;
Structure prediction by ZEFSAII (Michael W. Deem and Ramdas Pophale) SiO2 
 PCOD8107163
Probable space group: C 2/M
;
_chemical_formula_sum "Si O2"
_cell_formula_units_Z 48
_cell_length_a 18.603183
_cell_length_b 8.389979
_cell_length_c 31.802848
_cell_angle_alpha 90.000000
_cell_angle_beta 28.814278
_cell_angle_gamma 90.000000
_cell_volume 2392.412067
_symmetry_space_group_name_H-M "C 2/M"
_symmetry_group_IT_number 12
_symmetry_cell_setting 'monoclinic'
loop_
_space_group_symop_operation_xyz
x,y,z
-x,y,-z
-x,-y,-z
x,-y,z
1/2+x,1/2+y,z
1/2-x,1/2+y,-z
1/2-x,1/2-y,-z
1/2+x,1/2-y,z
loop_
_atom_site_type_symbol
_atom_site_label
_atom_site_fract_x
_atom_site_fract_y
_atom_site_fract_z
Si Si1 0.153926 0.815572 0.265074
Si Si2 0.683269 0.312329 0.577244
Si Si3 0.323516 0.683684 0.255268
Si Si4 0.829345 0.814094 0.585605
Si Si5 0.920534 0.185277 0.082087
Si Si6 0.588346 0.814375 0.073331
O O1 0.197668 0.720283 0.284771
O O2 0.266118 0.777870 0.169307
O O3 0.990797 0.767083 0.333014
O O4 0.162442 0.000000 0.272838
O O5 0.709590 0.500000 0.568595
O O6 0.750000 0.250000 0.500000
O O7 0.763863 0.220816 0.573462
O O8 0.367592 0.500000 0.229487
O O9 0.263590 0.718691 0.332217
O O10 0.473916 0.786050 0.170523
O O11 0.000000 0.755936 0.500000
O O12 0.818081 0.000000 0.601678
O O13 0.032043 0.211325 0.063216
O O14 0.883095 0.000000 0.095860
O O15 0.000000 0.254825 0.000000
O O16 0.592909 0.000000 0.059611
O O17 0.750000 0.750000 0.000000
#
# Coordination Sequence:
#
# PCOD8107163 Si02
#       6
#     8   8   8   8   8   8
#     4  10  21  38  59  84 115 150 190 235 285 341
#     4  11  24  40  60  87 117 151 192 237 287 344
#     4  11  22  38  61  87 116 151 193 238 288 344
#     4  11  24  41  61  86 117 153 193 238 289 343
#     4  10  21  37  58  85 116 151 192 236 285 341
#     4  11  22  38  60  85 117 154 194 239 288 342
#
# _framework density 20.063431999999999
#
# number of rings (size 3 to 8) (size 9 to 14) (size 15 to 20)
#    0.000    1.333    0.000    8.000    0.000   10.667 
#    0.000    3.333    0.000    0.000    0.000    0.000 
#    0.000    0.000    0.000    0.000    0.000    0.000 
#
# Total GULP energy -297718.185563 kJ/mol
# GULP energy per Si atom -12404.924398 kJ/mol
# Density = 2.001777 g / cm^3
# Si number density = 20.063432 Si / 1000 Ang^3
#
#
#
# Elastic Constant Matrix: (Units=GPa)
#
#
# Indices 1 2 3 4 5 6 
#
# 1 100.2434 12.4489 74.2247 -0.0139 -4.9552 0.0745
# 2 12.4489 61.4224 16.8246 -0.0142 -6.4143 0.0370
# 3 74.2247 16.8246 142.8729 0.0069 -2.6239 0.0073
# 4 -0.0139 -0.0142 0.0069 35.0568 -0.0021 2.4177
# 5 -4.9552 -6.4143 -2.6239 -0.0021 46.6278 -0.0028
# 6 0.0745 0.0370 0.0073 2.4177 -0.0028 32.0207
#
#
#
# Elastic Compliance Matrix: (Units=1/GPa)
#
#
# Indices 1 2 3 4 5 6 
#
# 1 0.016333 -0.000902 -0.008358 0.000010 0.001141 -0.000036
# 2 -0.000902 0.017103 -0.001506 0.000008 0.002172 -0.000018
# 3 -0.008358 -0.001506 0.011510 -0.000008 -0.000448 0.000019
# 4 0.000010 0.000008 -0.000008 0.028674 0.000003 -0.002165
# 5 0.001141 0.002172 -0.000448 0.000003 0.021841 -0.000003
# 6 -0.000036 -0.000018 0.000019 -0.002165 -0.000003 0.031393
#
#
# Mechanical properties :
#
#
# Convention : Reuss Voigt Hill
#
# Bulk Modulus (GPa) = 42.70723 56.83725 49.77224
# Shear Modulus (GPa) = 32.01211 36.14375 34.07793
#
# Velocity S-wave (km/s) = 3.99876 4.24898 4.12577
# Velocity P-wave (km/s) = 6.53088 7.24307 6.89618
#
# Compressibility (1/GPa) = 0.02341524
#
# Stress axis : x y z
#
# Youngs Moduli (GPa) = 61.22657 58.47022 86.87779
#
# Poissons Ratio (x) = 0.05272 0.72612
# Poissons Ratio (y) = 0.05521 0.13081
# Poissons Ratio (z) = 0.51173 0.08804
#
# Static dielectric constant tensor:
#      x y z
#    x 3.604280 0.000040 0.065920 
#    y 0.000040 3.827520 0.000150 
#    z 0.065920 0.000150 3.944590 
# 
# 
# High freq. dielectric constant tensor:
#      x y z
#    x 1.777350 -0.000010 -0.001150 
#    y -0.000010 1.795830 0.000000 
#    z -0.001150 0.000000 1.798970 
# 
# From -- ./inp_files/360261.got.cif
#   From: 2010.06.25/outbox.cif.g09.slc.cpg/sg12_181_cif.got.tgz:360261.got - 2010.06.28 00:19:55.
