data_PCOD8107005
_publ_section_title
;
Structure prediction by ZEFSAII (Michael W. Deem and Ramdas Pophale) SiO2 
 PCOD8107005
Probable space group: C 2/M
;
_chemical_formula_sum "Si O2"
_cell_formula_units_Z 40
_cell_length_a 14.393964
_cell_length_b 8.395702
_cell_length_c 16.468800
_cell_angle_alpha 90.000000
_cell_angle_beta 90.655389
_cell_angle_gamma 90.000000
_cell_volume 1990.081992
_symmetry_space_group_name_H-M "C 2/M"
_symmetry_group_IT_number 12
_symmetry_cell_setting 'monoclinic'
loop_
_space_group_symop_operation_xyz
x,y,z
-x,y,-z
-x,-y,-z
x,-y,z
1/2+x,1/2+y,z
1/2-x,1/2+y,-z
1/2-x,1/2-y,-z
1/2+x,1/2-y,z
loop_
_atom_site_type_symbol
_atom_site_label
_atom_site_fract_x
_atom_site_fract_y
_atom_site_fract_z
Si Si1 0.742504 0.317119 0.696642
Si Si2 0.411608 0.816462 0.411276
Si Si3 0.606040 0.313624 0.991086
Si Si4 0.247937 0.683421 0.870973
Si Si5 0.610539 0.314787 0.420171
O O1 0.720182 0.500000 0.678609
O O2 0.657109 0.211321 0.664077
O O3 0.755318 0.291927 0.792116
O O4 0.836496 0.267034 0.653133
O O5 0.360457 0.768272 0.494689
O O6 0.501614 0.706531 0.401641
O O7 0.442251 0.000000 0.414485
O O8 0.610579 0.500000 0.970740
O O9 0.652252 0.219481 0.917117
O O10 0.500000 0.255444 0.000000
O O11 0.662759 0.273890 0.073298
O O12 0.249035 0.500000 0.844788
O O13 0.636370 0.500000 0.424664
#
# Coordination Sequence:
#
# PCOD8107005 Si02
#       5
#     8   8   8   8   8
#     4  12  24  39  58  83 117 156 195 240 291 338
#     4  11  22  39  60  85 115 151 196 242 289 342
#     4   9  19  38  62  84 111 148 185 225 281 345
#     4  10  21  37  57  85 116 145 186 236 284 340
#     4  11  22  39  60  85 116 153 195 238 288 344
#
# _framework density 20.099674
#
# number of rings (size 3 to 8) (size 9 to 14) (size 15 to 20)
#    0.000    1.400    0.000    7.800    0.000    2.800 
#    0.000    6.000    0.000    0.000    0.000    0.000 
#    0.000    0.000    0.000    0.000    0.000    0.000 
#
# Total GULP energy -248132.159872 kJ/mol
# GULP energy per Si atom -12406.607994 kJ/mol
# Density = 2.005393 g / cm^3
# Si number density = 20.099674 Si / 1000 Ang^3
#
#
#
# Elastic Constant Matrix: (Units=GPa)
#
#
# Indices 1 2 3 4 5 6 
#
# 1 95.2444 10.2675 40.6810 0.0000 5.1704 0.0000
# 2 10.2675 88.0129 27.7455 0.0000 -0.4799 0.0000
# 3 40.6810 27.7455 111.8655 0.0000 2.8914 0.0000
# 4 0.0000 0.0000 0.0000 35.1557 0.0000 -2.8691
# 5 5.1704 -0.4799 2.8914 0.0000 16.8526 0.0000
# 6 0.0000 0.0000 0.0000 -2.8691 0.0000 28.7412
#
#
#
# Elastic Compliance Matrix: (Units=1/GPa)
#
#
# Indices 1 2 3 4 5 6 
#
# 1 0.012589 -0.000073 -0.004480 0.000000 -0.003096 0.000000
# 2 -0.000073 0.012339 -0.003057 0.000000 0.000898 0.000000
# 3 -0.004480 -0.003057 0.011344 0.000000 -0.000659 0.000000
# 4 0.000000 0.000000 0.000000 0.028679 0.000000 0.002863
# 5 -0.003096 0.000898 -0.000659 0.000000 0.060427 0.000000
# 6 0.000000 0.000000 0.000000 0.002863 0.000000 0.035079
#
#
# Mechanical properties :
#
#
# Convention : Reuss Voigt Hill
#
# Bulk Modulus (GPa) = 47.50282 50.27895 48.89089
# Shear Modulus (GPa) = 27.36835 30.57849 28.97342
#
# Velocity S-wave (km/s) = 3.69403 3.90467 3.80081
# Velocity P-wave (km/s) = 6.47143 6.73778 6.60595
#
# Compressibility (1/GPa) = 0.02105138
#
# Stress axis : x y z
#
# Youngs Moduli (GPa) = 79.43651 81.04307 88.15482
#
# Poissons Ratio (x) = 0.00593 0.39492
# Poissons Ratio (y) = 0.00582 0.26949
# Poissons Ratio (z) = 0.35586 0.24775
#
# Static dielectric constant tensor:
#      x y z
#    x 3.613130 0.000000 -0.018870 
#    y 0.000000 3.666700 0.000000 
#    z -0.018870 0.000000 3.573550 
# 
# 
# High freq. dielectric constant tensor:
#      x y z
#    x 1.787480 0.000000 -0.000130 
#    y 0.000000 1.794700 0.000000 
#    z -0.000130 0.000000 1.780890 
# 
# From -- ./inp_files/211361.got.cif
#   From: 2010.06.25/outbox.cif.g09.slc.cpg/sg12_106_cif.got.tgz:211361.got - 2010.06.28 00:19:55.
