data_PCOD8107169
_publ_section_title
;
Structure prediction by ZEFSAII (Michael W. Deem and Ramdas Pophale) SiO2 
 PCOD8107169
Probable space group: C 2/M
;
_chemical_formula_sum "Si O2"
_cell_formula_units_Z 40
_cell_length_a 19.055167
_cell_length_b 8.760872
_cell_length_c 26.815495
_cell_angle_alpha 90.000000
_cell_angle_beta 27.919541
_cell_angle_gamma 90.000000
_cell_volume 2096.072312
_symmetry_space_group_name_H-M "C 2/M"
_symmetry_group_IT_number 12
_symmetry_cell_setting 'monoclinic'
loop_
_space_group_symop_operation_xyz
x,y,z
-x,y,-z
-x,-y,-z
x,-y,z
1/2+x,1/2+y,z
1/2-x,1/2+y,-z
1/2-x,1/2-y,-z
1/2+x,1/2-y,z
loop_
_atom_site_type_symbol
_atom_site_label
_atom_site_fract_x
_atom_site_fract_y
_atom_site_fract_z
Si Si1 0.903572 0.676551 0.419890
Si Si2 0.825154 0.321061 0.001187
Si Si3 0.073820 0.178248 0.401548
Si Si4 0.145206 0.820581 0.819514
Si Si5 0.698231 0.174060 0.176481
O O1 0.882839 0.500000 0.447651
O O2 0.750000 0.750000 0.500000
O O3 0.955878 0.770881 0.434454
O O4 0.024070 0.692080 0.299847
O O5 0.828045 0.500000 0.991947
O O6 0.992875 0.262805 0.902274
O O7 0.750000 0.250000 0.000000
O O8 0.729019 0.281386 0.110373
O O9 0.229489 0.268780 0.298624
O O10 0.000000 0.221094 0.500000
O O11 0.108112 0.000000 0.374847
O O12 0.197864 0.775979 0.842221
O O13 0.121826 0.000000 0.829288
O O14 0.735833 0.000000 0.138060
#
# Coordination Sequence:
#
# PCOD8107169 Si02
#       5
#     8   8   8   8   8
#     4  10  21  37  59  85 115 151 189 233 281 332
#     4  12  25  39  58  84 114 148 187 233 283 334
#     4  10  21  37  58  85 117 151 188 232 279 329
#     4  10  21  39  62  85 113 149 187 230 279 335
#     4   9  20  39  60  83 113 148 186 230 281 334
#
# _framework density 19.083310999999998
#
# number of rings (size 3 to 8) (size 9 to 14) (size 15 to 20)
#    0.000    1.800    0.000    5.400    0.000   10.400 
#    0.000    2.000    0.000    0.000    0.000    0.000 
#    0.000    0.000    0.000    0.000    0.000    0.000 
#
# Total GULP energy -248077.199680 kJ/mol
# GULP energy per Si atom -12403.859984 kJ/mol
# Density = 1.903988 g / cm^3
# Si number density = 19.083311 Si / 1000 Ang^3
#
#
#
# Elastic Constant Matrix: (Units=GPa)
#
#
# Indices 1 2 3 4 5 6 
#
# 1 105.3694 50.6066 78.7560 0.0018 -3.9988 -0.0061
# 2 50.6066 102.5554 58.1783 0.0025 10.1158 -0.0078
# 3 78.7560 58.1783 119.3526 -0.0003 -0.9764 -0.0003
# 4 0.0018 0.0025 -0.0003 39.2367 -0.0004 -1.5880
# 5 -3.9988 10.1158 -0.9764 -0.0004 38.0002 0.0016
# 6 -0.0061 -0.0078 -0.0003 -1.5880 0.0016 37.0564
#
#
#
# Elastic Compliance Matrix: (Units=1/GPa)
#
#
# Indices 1 2 3 4 5 6 
#
# 1 0.019733 -0.003643 -0.011223 -0.000001 0.002758 0.000002
# 2 -0.003643 0.014709 -0.004802 -0.000001 -0.004422 0.000003
# 3 -0.011223 -0.004802 0.018129 0.000001 0.000563 -0.000003
# 4 -0.000001 -0.000001 0.000001 0.025531 0.000000 0.001094
# 5 0.002758 -0.004422 0.000563 0.000000 0.027798 -0.000002
# 6 0.000002 0.000003 -0.000003 0.001094 -0.000002 0.027033
#
#
# Mechanical properties :
#
#
# Convention : Reuss Voigt Hill
#
# Bulk Modulus (GPa) = 75.55381 78.03992 76.79687
# Shear Modulus (GPa) = 28.29990 32.17441 30.23716
#
# Velocity S-wave (km/s) = 3.85511 4.11054 3.98487
# Velocity P-wave (km/s) = 7.71319 7.96943 7.84236
#
# Compressibility (1/GPa) = 0.01323560
#
# Stress axis : x y z
#
# Youngs Moduli (GPa) = 50.67724 67.98630 55.15929
#
# Poissons Ratio (x) = 0.24766 0.61903
# Poissons Ratio (y) = 0.18461 0.26489
# Poissons Ratio (z) = 0.56873 0.32649
#
# Static dielectric constant tensor:
#      x y z
#    x 3.486190 0.000000 -0.034970 
#    y 0.000000 3.627330 0.000000 
#    z -0.034970 0.000000 3.602950 
# 
# 
# High freq. dielectric constant tensor:
#      x y z
#    x 1.740330 0.000000 -0.004280 
#    y 0.000000 1.755070 0.000000 
#    z -0.004280 0.000000 1.754030 
# 
# From -- ./inp_files/151949.got.cif
#   From: 2010.06.25/outbox.cif.g09.slc.cpg/sg12_76_cif.got.tgz:151949.got - 2010.06.28 00:19:55.
