data_PCOD8107002
_publ_section_title
;
Structure prediction by ZEFSAII (Michael W. Deem and Ramdas Pophale) SiO2 
 PCOD8107002
Probable space group: C 2/M
;
_chemical_formula_sum "Si O2"
_cell_formula_units_Z 64
_cell_length_a 17.921374
_cell_length_b 24.209133
_cell_length_c 14.683537
_cell_angle_alpha 90.000000
_cell_angle_beta 149.534842
_cell_angle_gamma 90.000000
_cell_volume 3229.991913
_symmetry_space_group_name_H-M "C 2/M"
_symmetry_group_IT_number 12
_symmetry_cell_setting 'monoclinic'
loop_
_space_group_symop_operation_xyz
x,y,z
-x,y,-z
-x,-y,-z
x,-y,z
1/2+x,1/2+y,z
1/2-x,1/2+y,-z
1/2-x,1/2-y,-z
1/2+x,1/2-y,z
loop_
_atom_site_type_symbol
_atom_site_label
_atom_site_fract_x
_atom_site_fract_y
_atom_site_fract_z
Si Si1 0.754930 0.621067 0.465794
Si Si2 0.002629 0.192614 0.894689
Si Si3 0.007439 0.563007 0.400389
Si Si4 0.487237 0.187011 0.167379
Si Si5 0.634973 0.097012 0.091725
Si Si6 0.733717 0.144936 0.927584
Si Si7 0.834990 0.937456 0.450008
Si Si8 0.847956 0.940408 0.173420
O O1 0.620978 0.652454 0.276129
O O2 0.692216 0.578338 0.473588
O O3 0.839495 0.587194 0.476221
O O4 0.865545 0.661869 0.634444
O O5 0.970376 0.252328 0.819544
O O6 0.000000 0.192877 0.000000
O O7 0.170829 0.176267 0.047211
O O8 0.989902 0.500000 0.348064
O O9 0.872250 0.598506 0.223090
O O10 0.000000 0.566581 0.500000
O O11 0.359154 0.188339 0.109565
O O12 0.427201 0.153980 0.015962
O O13 0.758061 0.105716 0.299737
O O14 0.700843 0.060218 0.080292
O O15 0.500000 0.065880 0.000000
O O16 0.852531 0.111459 0.111736
O O17 0.008846 0.934816 0.612504
O O18 0.776486 0.000000 0.371725
O O19 0.850086 0.000000 0.124759
#
# Coordination Sequence:
#
# PCOD8107002 Si02
#       8
#     8   8   8   8   8   8   8   8
#     4  11  22  41  62  89 122 161 205 252 309 365
#     4  12  24  40  65  90 118 158 209 264 313 351
#     4  10  21  39  62  88 122 158 201 253 308 363
#     4  10  23  42  63  86 123 162 206 253 307 366
#     4  11  21  37  58  90 124 158 200 250 295 367
#     4  10  21  40  62  87 119 160 202 251 305 369
#     4  11  22  37  59  87 128 163 197 243 302 372
#     4  10  21  37  57  84 123 163 196 239 302 370
#
# _framework density 19.814291000000001
#
# number of rings (size 3 to 8) (size 9 to 14) (size 15 to 20)
#    0.000    1.375    2.500    3.375    0.000    2.000 
#    0.000    0.000    0.000    3.000    0.000    0.000 
#    0.000    0.000    0.000    0.000    0.000    0.000 
#
# Total GULP energy -396653.549807 kJ/mol
# GULP energy per Si atom -12395.423431 kJ/mol
# Density = 1.976919 g / cm^3
# Si number density = 19.814291 Si / 1000 Ang^3
#
#
#
# Elastic Constant Matrix: (Units=GPa)
#
#
# Indices 1 2 3 4 5 6 
#
# 1 107.8699 31.4952 29.0043 0.0000 2.7573 0.0000
# 2 31.4952 74.0608 34.8463 0.0000 -3.8385 0.0000
# 3 29.0043 34.8463 83.1393 0.0000 3.2500 0.0000
# 4 0.0000 0.0000 0.0000 22.8601 0.0000 0.2361
# 5 2.7573 -3.8385 3.2500 0.0000 33.3718 0.0000
# 6 0.0000 0.0000 0.0000 0.2361 0.0000 24.1912
#
#
#
# Elastic Compliance Matrix: (Units=1/GPa)
#
#
# Indices 1 2 3 4 5 6 
#
# 1 0.010974 -0.003666 -0.002248 0.000000 -0.001109 0.000000
# 2 -0.003666 0.018278 -0.006500 0.000000 0.003038 0.000000
# 3 -0.002248 -0.006500 0.015618 0.000000 -0.002083 0.000000
# 4 0.000000 0.000000 0.000000 0.043749 0.000000 -0.000427
# 5 -0.001109 0.003038 -0.002083 0.000000 0.030609 0.000000
# 6 0.000000 0.000000 0.000000 -0.000427 0.000000 0.041342
#
#
# Mechanical properties :
#
#
# Convention : Reuss Voigt Hill
#
# Bulk Modulus (GPa) = 49.90145 50.64017 50.27081
# Shear Modulus (GPa) = 26.03091 27.39957 26.71524
#
# Velocity S-wave (km/s) = 3.62849 3.72266 3.67588
# Velocity P-wave (km/s) = 6.54170 6.64007 6.59107
#
# Compressibility (1/GPa) = 0.02003950
#
# Stress axis : x y z
#
# Youngs Moduli (GPa) = 91.12613 54.71184 64.02750
#
# Poissons Ratio (x) = 0.20060 0.14395
# Poissons Ratio (y) = 0.33411 0.41620
# Poissons Ratio (z) = 0.20488 0.35565
#
# Static dielectric constant tensor:
#      x y z
#    x 3.911510 0.000000 -0.043320 
#    y 0.000000 3.499060 0.000000 
#    z -0.043320 0.000000 3.781800 
# 
# 
# High freq. dielectric constant tensor:
#      x y z
#    x 1.786240 0.000000 0.008710 
#    y 0.000000 1.760850 0.000000 
#    z 0.008710 0.000000 1.779890 
# 
# From -- ./inp_files/228180.got.cif
#   From: 2010.06.25/outbox.cif.g09.slc.cpg/sg12_115_cif.got.tgz:228180.got - 2010.06.28 00:19:55.
