data_PCOD8107816
_publ_section_title
;
Structure prediction by ZEFSAII (Michael W. Deem and Ramdas Pophale) SiO2 
 PCOD8107816
Probable space group: C 2/M
;
_chemical_formula_sum "Si O2"
_cell_formula_units_Z 48
_cell_length_a 22.861197
_cell_length_b 8.795692
_cell_length_c 22.796945
_cell_angle_alpha 90.000000
_cell_angle_beta 30.930210
_cell_angle_gamma 90.000000
_cell_volume 2356.152240
_symmetry_space_group_name_H-M "C 2/M"
_symmetry_group_IT_number 12
_symmetry_cell_setting 'monoclinic'
loop_
_space_group_symop_operation_xyz
x,y,z
-x,y,-z
-x,-y,-z
x,-y,z
1/2+x,1/2+y,z
1/2-x,1/2+y,-z
1/2-x,1/2-y,-z
1/2+x,1/2-y,z
loop_
_atom_site_type_symbol
_atom_site_label
_atom_site_fract_x
_atom_site_fract_y
_atom_site_fract_z
Si Si1 0.335374 0.181656 0.749754
Si Si2 0.385976 0.320987 0.127890
Si Si3 0.414914 0.826462 0.333205
Si Si4 0.429761 0.319737 0.447226
Si Si5 0.792292 0.178822 0.330897
Si Si6 0.173175 0.669585 0.112414
O O1 0.228636 0.241434 0.804140
O O2 0.452448 0.257584 0.626550
O O3 0.315509 0.242713 0.832937
O O4 0.351404 0.000000 0.733948
O O5 0.389389 0.500000 0.114899
O O6 0.378376 0.279562 0.203423
O O7 0.500000 0.249192 0.000000
O O8 0.402976 0.750763 0.406703
O O9 0.343568 0.731053 0.348241
O O10 0.544571 0.823227 0.200349
O O11 0.369796 0.000000 0.375094
O O12 0.434030 0.500000 0.439356
O O13 0.327300 0.264694 0.577493
O O14 0.768800 0.000000 0.352352
O O15 0.219511 0.500000 0.077096
O O16 0.250000 0.750000 0.000000
#
# Coordination Sequence:
#
# PCOD8107816 Si02
#       6
#     8   8   8   8   8   8
#     4   9  19  38  60  83 115 151 192 243 286 334
#     4   9  20  38  61  87 115 152 197 239 283 339
#     4  10  21  38  57  84 120 153 190 237 290 345
#     4  11  22  38  60  86 118 152 192 240 292 349
#     4  11  22  36  60  89 117 153 194 238 288 344
#     4   9  19  32  53  81 111 148 187 234 284 335
#
# _framework density 20.372198999999998
#
# number of rings (size 3 to 8) (size 9 to 14) (size 15 to 20)
#    0.000    2.167    0.000    4.000    2.333    4.000 
#    0.000    5.000    0.000    2.500    0.000    0.000 
#    0.000    0.000    0.000    0.000    0.000    0.000 
#
# Total GULP energy -297564.831130 kJ/mol
# GULP energy per Si atom -12398.534630 kJ/mol
# Density = 2.032583 g / cm^3
# Si number density = 20.372199 Si / 1000 Ang^3
#
#
#
# Elastic Constant Matrix: (Units=GPa)
#
#
# Indices 1 2 3 4 5 6 
#
# 1 84.5748 18.2383 34.8454 0.0006 -21.7217 -0.0004
# 2 18.2383 73.6070 38.8011 -0.0005 -0.1772 -0.0008
# 3 34.8454 38.8011 127.2684 -0.0005 -6.5978 0.0001
# 4 0.0006 -0.0005 -0.0005 32.5643 0.0001 -3.4795
# 5 -21.7217 -0.1772 -6.5978 0.0001 21.8220 0.0004
# 6 -0.0004 -0.0008 0.0001 -3.4795 0.0004 22.8215
#
#
#
# Elastic Compliance Matrix: (Units=1/GPa)
#
#
# Indices 1 2 3 4 5 6 
#
# 1 0.018129 -0.002741 -0.003244 0.000000 0.017042 0.000000
# 2 -0.002741 0.016643 -0.004529 0.000000 -0.003962 0.000001
# 3 -0.003244 -0.004529 0.010116 0.000000 -0.000208 0.000000
# 4 0.000000 0.000000 0.000000 0.031217 -0.000001 0.004759
# 5 0.017042 -0.003962 -0.000208 -0.000001 0.062694 -0.000001
# 6 0.000000 0.000001 0.000000 0.004759 -0.000001 0.044544
#
#
# Mechanical properties :
#
#
# Convention : Reuss Voigt Hill
#
# Bulk Modulus (GPa) = 41.91321 52.13553 47.02437
# Shear Modulus (GPa) = 23.54907 28.34594 25.94750
#
# Velocity S-wave (km/s) = 3.40360 3.73420 3.57273
# Velocity P-wave (km/s) = 6.00536 6.65127 6.33655
#
# Compressibility (1/GPa) = 0.02385883
#
# Stress axis : x y z
#
# Youngs Moduli (GPa) = 55.16161 60.08694 98.85597
#
# Poissons Ratio (x) = 0.16467 0.32074
# Poissons Ratio (y) = 0.15117 0.44772
# Poissons Ratio (z) = 0.17897 0.27213
#
# Static dielectric constant tensor:
#      x y z
#    x 3.084440 -0.000010 -0.437700 
#    y -0.000010 3.489790 0.000000 
#    z -0.437700 0.000000 3.845720 
# 
# 
# High freq. dielectric constant tensor:
#      x y z
#    x 1.791250 0.000000 -0.005730 
#    y 0.000000 1.774250 0.000000 
#    z -0.005730 0.000000 1.809110 
# 
# From -- ./inp_files/172048.got.cif
#   From: 2010.06.25/outbox.cif.g09.slc.cpg/sg12_87_cif.got.tgz:172048.got - 2010.06.28 00:19:55.
