data_PCOD8107885
_publ_section_title
;
Structure prediction by ZEFSAII (Michael W. Deem and Ramdas Pophale) SiO2 
 PCOD8107885
Probable space group: C 2/M
;
_chemical_formula_sum "Si O2"
_cell_formula_units_Z 40
_cell_length_a 16.503301
_cell_length_b 15.090987
_cell_length_c 11.319469
_cell_angle_alpha 90.000000
_cell_angle_beta 36.008863
_cell_angle_gamma 90.000000
_cell_volume 1657.393595
_symmetry_space_group_name_H-M "C 2/M"
_symmetry_group_IT_number 12
_symmetry_cell_setting 'monoclinic'
loop_
_space_group_symop_operation_xyz
x,y,z
-x,y,-z
-x,-y,-z
x,-y,z
1/2+x,1/2+y,z
1/2-x,1/2+y,-z
1/2-x,1/2-y,-z
1/2+x,1/2-y,z
loop_
_atom_site_type_symbol
_atom_site_label
_atom_site_fract_x
_atom_site_fract_y
_atom_site_fract_z
Si Si1 0.249554 0.901551 0.599044
Si Si2 0.277168 0.401482 0.881268
Si Si3 0.004054 0.641879 0.860327
Si Si4 0.506095 0.669091 0.205373
Si Si5 0.867423 0.247583 0.594243
O O1 0.347675 0.877754 0.371885
O O2 0.088579 0.901589 0.751664
O O3 0.265772 0.829379 0.684937
O O4 0.283591 0.000000 0.605809
O O5 0.332415 0.500000 0.782648
O O6 0.349066 0.371971 0.919550
O O7 0.303020 0.329667 0.749202
O O8 0.111002 0.405466 0.087264
O O9 0.966246 0.746028 0.909040
O O10 0.000000 0.605825 0.000000
O O11 0.411953 0.699477 0.423990
O O12 0.000000 0.290968 0.500000
#
# Coordination Sequence:
#
# PCOD8107885 Si02
#       5
#     8   8   8   8   8
#     4  11  22  38  61  87 117 155 197 239 286 344
#     4  11  22  37  62  92 118 149 192 243 294 342
#     4  11  22  38  60  86 119 155 192 240 292 341
#     4  10  21  38  58  84 120 156 191 235 289 348
#     4   9  20  37  58  86 118 154 194 237 288 345
#
# _framework density 24.134278999999999
#
# number of rings (size 3 to 8) (size 9 to 14) (size 15 to 20)
#    0.000    1.600    0.000    6.600    0.000    8.000 
#    0.000    0.000    0.000   18.000    0.000    0.000 
#    0.000    0.000    0.000    0.000    0.000    0.000 
#
# Total GULP energy -247877.914321 kJ/mol
# GULP energy per Si atom -12393.895716 kJ/mol
# Density = 2.407935 g / cm^3
# Si number density = 24.134279 Si / 1000 Ang^3
#
#
#
# Elastic Constant Matrix: (Units=GPa)
#
#
# Indices 1 2 3 4 5 6 
#
# 1 148.8704 54.6237 22.1167 0.0000 -37.3324 0.0000
# 2 54.6237 162.1310 18.4077 0.0000 -1.7351 0.0000
# 3 22.1167 18.4077 21.0202 0.0000 -9.3647 0.0000
# 4 0.0000 0.0000 0.0000 27.3705 0.0000 -6.7216
# 5 -37.3324 -1.7351 -9.3647 0.0000 38.8708 0.0000
# 6 0.0000 0.0000 0.0000 -6.7216 0.0000 26.9086
#
#
#
# Elastic Compliance Matrix: (Units=1/GPa)
#
#
# Indices 1 2 3 4 5 6 
#
# 1 0.010801 -0.003012 -0.004667 0.000000 0.009115 0.000000
# 2 -0.003012 0.007746 -0.005320 0.000000 -0.003828 0.000000
# 3 -0.004667 -0.005320 0.061657 0.000000 0.010135 0.000000
# 4 0.000000 0.000000 0.000000 0.038923 0.000000 0.009723
# 5 0.009115 -0.003828 0.010135 0.000000 0.036752 0.000000
# 6 0.000000 0.000000 0.000000 0.009723 0.000000 0.039591
#
#
# Mechanical properties :
#
#
# Convention : Reuss Voigt Hill
#
# Bulk Modulus (GPa) = 18.44741 58.03530 38.24135
# Shear Modulus (GPa) = 20.87372 34.42154 27.64763
#
# Velocity S-wave (km/s) = 2.94411 3.78067 3.38831
# Velocity P-wave (km/s) = 4.38375 6.56940 5.58454
#
# Compressibility (1/GPa) = 0.05420816
#
# Stress axis : x y z
#
# Youngs Moduli (GPa) = 92.58018 129.10657 16.21876
#
# Poissons Ratio (x) = 0.38884 0.07569
# Poissons Ratio (y) = 0.27883 0.08628
# Poissons Ratio (z) = 0.43203 0.68680
#
# Static dielectric constant tensor:
#      x y z
#    x 4.708290 0.000000 -0.265390 
#    y 0.000000 4.398470 0.000000 
#    z -0.265390 0.000000 4.075200 
# 
# 
# High freq. dielectric constant tensor:
#      x y z
#    x 1.971140 0.000000 -0.019910 
#    y 0.000000 1.952220 0.000000 
#    z -0.019910 0.000000 1.935460 
# 
# From -- ./inp_files/155759.got.cif
#   From: 2010.06.25/outbox.cif.g09.slc.cpg/sg12_78_cif.got.tgz:155759.got - 2010.06.28 00:19:55.
