data_PCOD8107206
_publ_section_title
;
Structure prediction by ZEFSAII (Michael W. Deem and Ramdas Pophale) SiO2 
 PCOD8107206
Probable space group: C 2/M
;
_chemical_formula_sum "Si O2"
_cell_formula_units_Z 56
_cell_length_a 28.030447
_cell_length_b 8.798484
_cell_length_c 18.892845
_cell_angle_alpha 90.000000
_cell_angle_beta 144.808634
_cell_angle_gamma 90.000000
_cell_volume 2685.287348
_symmetry_space_group_name_H-M "C 2/M"
_symmetry_group_IT_number 12
_symmetry_cell_setting 'monoclinic'
loop_
_space_group_symop_operation_xyz
x,y,z
-x,y,-z
-x,-y,-z
x,-y,z
1/2+x,1/2+y,z
1/2-x,1/2+y,-z
1/2-x,1/2-y,-z
1/2+x,1/2-y,z
loop_
_atom_site_type_symbol
_atom_site_label
_atom_site_fract_x
_atom_site_fract_y
_atom_site_fract_z
Si Si1 0.415587 0.825825 0.933086
Si Si2 0.383651 0.173168 0.054655
Si Si3 0.019323 0.821567 0.308128
Si Si4 0.701680 0.678254 0.790481
Si Si5 0.965751 0.679050 0.382440
Si Si6 0.316149 0.822240 0.527812
Si Si7 0.249400 0.675849 0.705976
O O1 0.345815 0.716501 0.817177
O O2 0.393265 0.000000 0.886752
O O3 0.500000 0.772213 0.000000
O O4 0.424972 0.807091 0.028234
O O5 0.430834 0.281742 0.166212
O O6 0.392188 0.000000 0.091600
O O7 0.287278 0.221122 0.933509
O O8 0.092875 0.748953 0.350254
O O9 0.022294 0.755952 0.391228
O O10 0.031393 0.000000 0.325245
O O11 0.684128 0.500000 0.773232
O O12 0.628918 0.767868 0.741648
O O13 0.705123 0.725158 0.712471
O O14 0.972194 0.500000 0.380575
O O15 0.000000 0.731749 0.500000
O O16 0.250000 0.750000 0.500000
O O17 0.291411 0.784443 0.417832
O O18 0.320291 0.000000 0.548609
O O19 0.238254 0.500000 0.712385
#
# Coordination Sequence:
#
# PCOD8107206 Si02
#       7
#     8   8   8   8   8   8   8
#     4   9  19  35  58  87 116 156 203 249 303 359
#     4   9  20  39  60  87 125 164 203 252 306 364
#     4  12  26  42  63  92 125 163 207 254 307 366
#     4  10  21  39  65  94 123 160 204 250 306 366
#     4  11  24  42  66  94 125 163 205 253 308 364
#     4  11  25  43  62  87 121 162 206 253 309 367
#     4  10  21  37  58  87 119 154 198 249 303 361
#
# _framework density 20.854379000000002
#
# number of rings (size 3 to 8) (size 9 to 14) (size 15 to 20)
#    0.000    1.714    0.000    4.714    2.000   10.571 
#    0.000    0.000    0.000    0.000    0.000    0.000 
#    0.000    0.000    0.000    0.000    0.000    0.000 
#
# Total GULP energy -347352.038019 kJ/mol
# GULP energy per Si atom -12405.429929 kJ/mol
# Density = 2.080691 g / cm^3
# Si number density = 20.854379 Si / 1000 Ang^3
#
#
#
# Elastic Constant Matrix: (Units=GPa)
#
#
# Indices 1 2 3 4 5 6 
#
# 1 105.7781 41.0558 34.9764 0.0000 24.0328 0.0000
# 2 41.0558 100.6306 46.4618 0.0000 -4.0834 0.0000
# 3 34.9764 46.4618 90.6884 0.0000 2.1220 0.0000
# 4 0.0000 0.0000 0.0000 34.5970 0.0000 1.6884
# 5 24.0328 -4.0834 2.1220 0.0000 23.4414 0.0000
# 6 0.0000 0.0000 0.0000 1.6884 0.0000 37.9602
#
#
#
# Elastic Compliance Matrix: (Units=1/GPa)
#
#
# Indices 1 2 3 4 5 6 
#
# 1 0.017038 -0.006364 -0.002882 0.000000 -0.018316 0.000000
# 2 -0.006364 0.015590 -0.005761 0.000000 0.009761 0.000000
# 3 -0.002882 -0.005761 0.015076 0.000000 0.000587 0.000000
# 4 0.000000 0.000000 0.000000 0.028967 0.000000 -0.001288
# 5 -0.018316 0.009761 0.000587 0.000000 0.063084 0.000000
# 6 0.000000 0.000000 0.000000 -0.001288 0.000000 0.026401
#
#
# Mechanical properties :
#
#
# Convention : Reuss Voigt Hill
#
# Bulk Modulus (GPa) = 56.52982 60.23167 58.38074
# Shear Modulus (GPa) = 24.74430 30.83994 27.79212
#
# Velocity S-wave (km/s) = 3.44834 3.84972 3.65454
# Velocity P-wave (km/s) = 6.55900 6.97891 6.77221
#
# Compressibility (1/GPa) = 0.01768978
#
# Stress axis : x y z
#
# Youngs Moduli (GPa) = 58.69210 64.14526 66.32965
#
# Poissons Ratio (x) = 0.40820 0.19119
# Poissons Ratio (y) = 0.37350 0.38213
# Poissons Ratio (z) = 0.16917 0.36954
#
# Static dielectric constant tensor:
#      x y z
#    x 3.860020 0.000000 0.121140 
#    y 0.000000 3.706400 0.000000 
#    z 0.121140 0.000000 3.793790 
# 
# 
# High freq. dielectric constant tensor:
#      x y z
#    x 1.822640 0.000000 0.008720 
#    y 0.000000 1.816770 0.000000 
#    z 0.008720 0.000000 1.819350 
# 
# From -- ./inp_files/292531.got.cif
#   From: 2010.06.25/outbox.cif.g09.slc.cpg/sg12_147_cif.got.tgz:292531.got - 2010.06.28 00:19:55.
