data_PCOD8107625
_publ_section_title
;
Structure prediction by ZEFSAII (Michael W. Deem and Ramdas Pophale) SiO2 
 PCOD8107625
Probable space group: C 2/M
;
_chemical_formula_sum "Si O2"
_cell_formula_units_Z 48
_cell_length_a 10.767275
_cell_length_b 24.508330
_cell_length_c 8.481565
_cell_angle_alpha 90.000000
_cell_angle_beta 80.515747
_cell_angle_gamma 90.000000
_cell_volume 2207.588737
_symmetry_space_group_name_H-M "C 2/M"
_symmetry_group_IT_number 12
_symmetry_cell_setting 'monoclinic'
loop_
_space_group_symop_operation_xyz
x,y,z
-x,y,-z
-x,-y,-z
x,-y,z
1/2+x,1/2+y,z
1/2-x,1/2+y,-z
1/2-x,1/2-y,-z
1/2+x,1/2-y,z
loop_
_atom_site_type_symbol
_atom_site_label
_atom_site_fract_x
_atom_site_fract_y
_atom_site_fract_z
Si Si1 0.893280 0.188696 0.245518
Si Si2 0.570307 0.808189 0.754630
Si Si3 0.759259 0.119416 0.542998
Si Si4 0.886700 0.111580 0.845916
Si Si5 0.702477 0.500000 0.505925
Si Si6 0.527128 0.500000 0.238987
Si Si7 0.188075 0.671147 0.053395
O O1 0.943047 0.246203 0.308524
O O2 0.833260 0.148614 0.386993
O O3 0.787588 0.204653 0.137489
O O4 0.010392 0.158305 0.138402
O O5 0.635504 0.845768 0.610006
O O6 0.437330 0.838183 0.816760
O O7 0.650169 0.799995 0.898186
O O8 0.854266 0.117790 0.668949
O O9 0.717902 0.056874 0.507794
O O10 0.945905 0.053011 0.872112
O O11 0.762869 0.116293 0.983663
O O12 0.618376 0.500000 0.368853
O O13 0.617288 0.500000 0.679268
#
# Coordination Sequence:
#
# PCOD8107625 Si02
#       7
#     8   8   8   8   4   4   8
#     4  12  22  35  61  88 118 152 195 248 291 342
#     4  10  24  40  58  80 122 162 193 236 289 357
#     4  10  21  39  60  91 116 153 195 244 290 346
#     4  10  21  37  62  88 123 150 196 240 297 347
#     4   9  16  34  62  85 117 151 193 237 298 346
#     4   9  16  34  59  89 115 156 188 244 292 344
#     4  10  24  40  56  84 118 159 197 232 293 353
#
# _framework density 21.743179000000001
#
# number of rings (size 3 to 8) (size 9 to 14) (size 15 to 20)
#    0.000    1.833    1.667    2.000    9.333    0.667 
#    3.000    3.333    0.000    6.000    0.000    0.000 
#    0.000    0.000    0.000    0.000    0.000    0.000 
#
# Total GULP energy -297362.209906 kJ/mol
# GULP energy per Si atom -12390.092079 kJ/mol
# Density = 2.169369 g / cm^3
# Si number density = 21.743179 Si / 1000 Ang^3
#
#
#
# Elastic Constant Matrix: (Units=GPa)
#
#
# Indices 1 2 3 4 5 6 
#
# 1 97.7004 64.9434 33.6429 0.0000 -21.4882 0.0000
# 2 64.9434 198.2589 43.5220 0.0000 -43.4202 0.0000
# 3 33.6429 43.5220 71.5388 0.0000 -25.9106 0.0000
# 4 0.0000 0.0000 0.0000 -5.8622 0.0000 2.0763
# 5 -21.4882 -43.4202 -25.9106 0.0000 34.1381 0.0000
# 6 0.0000 0.0000 0.0000 2.0763 0.0000 19.8655
#
#
#
# Elastic Compliance Matrix: (Units=1/GPa)
#
#
# Indices 1 2 3 4 5 6 
#
# 1 0.014258 -0.003449 -0.004062 0.000000 0.001505 0.000000
# 2 -0.003449 0.007933 -0.000463 0.000000 0.007567 0.000000
# 3 -0.004062 -0.000463 0.020730 0.000000 0.012588 0.000000
# 4 0.000000 0.000000 0.000000 -0.164495 0.000000 0.017193
# 5 0.001505 0.007567 0.012588 0.000000 0.049418 0.000000
# 6 0.000000 0.000000 0.000000 0.017193 0.000000 0.048542
#
#
# Mechanical properties :
#
#
# Convention : Reuss Voigt Hill
#
# Bulk Modulus (GPa) = 37.07615 72.41276 54.74446
# Shear Modulus (GPa) = 3777.26757 24.65427 1900.96092
#
# Velocity S-wave (km/s) = 41.72518 3.37097 29.60029
# Velocity P-wave (km/s) = 48.35711 6.96615 34.54662
#
# Compressibility (1/GPa) = 0.02697152
#
# Stress axis : x y z
#
# Youngs Moduli (GPa) = 70.13750 126.06139 48.24039
#
# Poissons Ratio (x) = 0.43481 0.19594
# Poissons Ratio (y) = 0.24192 0.02235
# Poissons Ratio (z) = 0.28488 0.05840
#
# Static dielectric constant tensor:
#      x y z
#    x 3.896530 0.000000 -0.068670 
#    y 0.000000 4.042440 0.000000 
#    z -0.068670 0.000000 3.840240 
# 
# 
# High freq. dielectric constant tensor:
#      x y z
#    x 1.835130 0.000000 -0.007490 
#    y 0.000000 1.848870 0.000000 
#    z -0.007490 0.000000 1.857070 
# 
# From -- ./inp_files/50670.got.cif
#   From: 2010.06.25/outbox.cif.g09.slc.cpg/sg12_26_cif.got.tgz:50670.got - 2010.06.28 00:19:55.
