data_PCOD8107113
_publ_section_title
;
Structure prediction by ZEFSAII (Michael W. Deem and Ramdas Pophale) SiO2 
 PCOD8107113
Probable space group: C 2/M
;
_chemical_formula_sum "Si O2"
_cell_formula_units_Z 56
_cell_length_a 29.693521
_cell_length_b 16.145595
_cell_length_c 9.200069
_cell_angle_alpha 90.000000
_cell_angle_beta 36.592528
_cell_angle_gamma 90.000000
_cell_volume 2629.303119
_symmetry_space_group_name_H-M "C 2/M"
_symmetry_group_IT_number 12
_symmetry_cell_setting 'monoclinic'
loop_
_space_group_symop_operation_xyz
x,y,z
-x,y,-z
-x,-y,-z
x,-y,z
1/2+x,1/2+y,z
1/2-x,1/2+y,-z
1/2-x,1/2-y,-z
1/2+x,1/2-y,z
loop_
_atom_site_type_symbol
_atom_site_label
_atom_site_fract_x
_atom_site_fract_y
_atom_site_fract_z
Si Si1 0.368335 0.364537 0.964722
Si Si2 0.981792 0.140082 0.895033
Si Si3 0.066429 0.325419 0.925257
Si Si4 0.372416 0.406466 0.627230
Si Si5 0.273799 0.903384 0.161655
Si Si6 0.721506 0.098404 0.513155
Si Si7 0.076509 0.679524 0.217606
O O1 0.422952 0.409512 0.943124
O O2 0.366358 0.411136 0.816967
O O3 0.405250 0.275729 0.843174
O O4 0.285254 0.361483 0.246732
O O5 0.059187 0.152209 0.603043
O O6 0.942563 0.226249 0.044153
O O7 0.000000 0.092129 0.000000
O O8 0.146419 0.354612 0.652576
O O9 0.062210 0.362515 0.098146
O O10 0.000000 0.364642 0.000000
O O11 0.387482 0.500000 0.532198
O O12 0.296229 0.370027 0.752630
O O13 0.260920 0.880207 0.364083
O O14 0.282392 0.000000 0.116668
O O15 0.350314 0.862894 0.899256
O O16 0.715305 0.000000 0.504178
O O17 0.000000 0.662759 0.500000
#
# Coordination Sequence:
#
# PCOD8107113 Si02
#       7
#     8   8   8   8   8   8   8
#     4  11  22  36  57  85 115 146 185 231 280 331
#     4  10  21  37  59  82 111 150 188 225 275 333
#     4   9  20  37  58  83 112 145 187 232 274 325
#     4  11  23  38  57  84 116 147 184 232 281 331
#     4   9  21  40  59  82 113 149 189 230 275 331
#     4  10  21  38  59  83 113 150 188 228 278 332
#     4  10  21  37  58  84 114 149 187 228 278 332
#
# _framework density 21.298418999999999
#
# number of rings (size 3 to 8) (size 9 to 14) (size 15 to 20)
#    0.000    2.000    0.000    3.429    0.000   11.714 
#    0.000    0.000    0.000    0.000    0.000    0.000 
#    0.000    0.000    0.000    0.000    0.000    0.000 
#
# Total GULP energy -347066.768286 kJ/mol
# GULP energy per Si atom -12395.241725 kJ/mol
# Density = 2.124994 g / cm^3
# Si number density = 21.298419 Si / 1000 Ang^3
#
#
#
# Elastic Constant Matrix: (Units=GPa)
#
#
# Indices 1 2 3 4 5 6 
#
# 1 166.0605 15.4669 62.0612 0.0000 -19.9868 0.0000
# 2 15.4669 29.0802 19.3690 0.0000 -8.4441 0.0000
# 3 62.0612 19.3690 173.2257 0.0000 -18.3476 0.0000
# 4 0.0000 0.0000 0.0000 16.8459 0.0000 0.4134
# 5 -19.9868 -8.4441 -18.3476 0.0000 36.2056 0.0000
# 6 0.0000 0.0000 0.0000 0.4134 0.0000 18.6632
#
#
#
# Elastic Compliance Matrix: (Units=1/GPa)
#
#
# Indices 1 2 3 4 5 6 
#
# 1 0.007291 -0.001708 -0.002152 0.000000 0.002536 0.000000
# 2 -0.001708 0.039278 -0.003075 0.000000 0.006660 0.000000
# 3 -0.002152 -0.003075 0.007065 0.000000 0.001675 0.000000
# 4 0.000000 0.000000 0.000000 0.059394 0.000000 -0.001316
# 5 0.002536 0.006660 0.001675 0.000000 0.031422 0.000000
# 6 0.000000 0.000000 0.000000 -0.001316 0.000000 0.053611
#
#
# Mechanical properties :
#
#
# Convention : Reuss Voigt Hill
#
# Bulk Modulus (GPa) = 25.14850 62.46228 43.80539
# Shear Modulus (GPa) = 22.20409 32.44089 27.32249
#
# Velocity S-wave (km/s) = 3.23231 3.90700 3.58556
# Velocity P-wave (km/s) = 5.07581 7.05292 6.14441
#
# Compressibility (1/GPa) = 0.03976380
#
# Stress axis : x y z
#
# Youngs Moduli (GPa) = 137.16352 25.45985 141.53939
#
# Poissons Ratio (x) = 0.04348 0.30466
# Poissons Ratio (y) = 0.23424 0.43517
# Poissons Ratio (z) = 0.29524 0.07828
#
# Static dielectric constant tensor:
#      x y z
#    x 4.643840 0.000000 -0.093060 
#    y 0.000000 3.465790 0.000000 
#    z -0.093060 0.000000 3.796690 
# 
# 
# High freq. dielectric constant tensor:
#      x y z
#    x 1.852450 0.000000 -0.009520 
#    y 0.000000 1.805200 0.000000 
#    z -0.009520 0.000000 1.837800 
# 
# From -- ./inp_files/113358.got.cif
#   From: 2010.06.25/outbox.cif.g09.slc.cpg/sg12_57_cif.got.tgz:113358.got - 2010.06.28 00:19:55.
