data_PCOD8107115
_publ_section_title
;
Structure prediction by ZEFSAII (Michael W. Deem and Ramdas Pophale) SiO2 
 PCOD8107115
Probable space group: C 2/M
;
_chemical_formula_sum "Si O2"
_cell_formula_units_Z 56
_cell_length_a 10.186303
_cell_length_b 8.982444
_cell_length_c 32.061265
_cell_angle_alpha 90.000000
_cell_angle_beta 104.112101
_cell_angle_gamma 90.000000
_cell_volume 2845.005702
_symmetry_space_group_name_H-M "C 2/M"
_symmetry_group_IT_number 12
_symmetry_cell_setting 'monoclinic'
loop_
_space_group_symop_operation_xyz
x,y,z
-x,y,-z
-x,-y,-z
x,-y,z
1/2+x,1/2+y,z
1/2-x,1/2+y,-z
1/2-x,1/2-y,-z
1/2+x,1/2-y,z
loop_
_atom_site_type_symbol
_atom_site_label
_atom_site_fract_x
_atom_site_fract_y
_atom_site_fract_z
Si Si1 0.151246 0.674695 0.024828
Si Si2 0.032776 0.827305 0.835897
Si Si3 0.353191 0.324182 0.309356
Si Si4 0.443165 0.326185 0.407181
Si Si5 0.078059 0.174432 0.262559
Si Si6 0.254787 0.673815 0.544812
Si Si7 0.300691 0.326096 0.883895
O O1 0.178548 0.500000 0.026789
O O2 0.180695 0.735388 0.072644
O O3 0.250000 0.750000 0.000000
O O4 0.000000 0.715415 0.000000
O O5 0.164914 0.726561 0.850657
O O6 0.962506 0.782171 0.787349
O O7 0.928793 0.791855 0.864825
O O8 0.075890 0.000000 0.839232
O O9 0.341958 0.500000 0.307283
O O10 0.393654 0.268524 0.358441
O O11 0.212861 0.257336 0.284886
O O12 0.463882 0.267390 0.285144
O O13 0.412868 0.500000 0.411392
O O14 0.602435 0.292398 0.422155
O O15 0.365831 0.236227 0.436586
O O16 0.103121 0.000000 0.269302
O O17 0.231219 0.500000 0.536679
O O18 0.250000 0.750000 0.500000
O O19 0.288469 0.500000 0.893192
#
# Coordination Sequence:
#
# PCOD8107115 Si02
#       7
#     8   8   8   8   8   8   8
#     4  11  24  41  62  88 117 152 193 236 286 343
#     4  10  22  39  59  85 118 154 192 237 286 337
#     4  10  21  37  58  84 114 150 191 235 284 337
#     4  10  22  39  57  82 116 150 188 235 284 337
#     4  10  21  38  59  85 117 152 192 237 285 337
#     4  11  23  39  60  85 114 149 189 234 284 339
#     4  11  23  38  59  87 117 152 194 238 286 340
#
# _framework density 19.683617999999999
#
# number of rings (size 3 to 8) (size 9 to 14) (size 15 to 20)
#    0.000    1.571    0.000    4.286    0.000   10.286 
#    0.000    0.000    0.000    0.000    0.000    0.000 
#    0.000    0.000    0.000    0.000    0.000    0.000 
#
# Total GULP energy -347371.204250 kJ/mol
# GULP energy per Si atom -12406.114437 kJ/mol
# Density = 1.963882 g / cm^3
# Si number density = 19.683618 Si / 1000 Ang^3
#
#
#
# Elastic Constant Matrix: (Units=GPa)
#
#
# Indices 1 2 3 4 5 6 
#
# 1 92.4346 39.7915 18.1451 0.0000 -3.1313 0.0000
# 2 39.7915 50.0855 23.3704 0.0000 0.4322 0.0000
# 3 18.1451 23.3704 106.5245 0.0000 -6.3763 0.0000
# 4 0.0000 0.0000 0.0000 32.8569 0.0000 5.5677
# 5 -3.1313 0.4322 -6.3763 0.0000 40.4090 0.0000
# 6 0.0000 0.0000 0.0000 5.5677 0.0000 36.4102
#
#
#
# Elastic Compliance Matrix: (Units=1/GPa)
#
#
# Indices 1 2 3 4 5 6 
#
# 1 0.016526 -0.013222 0.000173 0.000000 0.001449 0.000000
# 2 -0.013222 0.032863 -0.005088 0.000000 -0.002179 0.000000
# 3 0.000173 -0.005088 0.010578 0.000000 0.001737 0.000000
# 4 0.000000 0.000000 0.000000 0.031245 0.000000 -0.004778
# 5 0.001449 -0.002179 0.001737 0.000000 0.025157 0.000000
# 6 0.000000 0.000000 0.000000 -0.004778 0.000000 0.028195
#
#
# Mechanical properties :
#
#
# Convention : Reuss Voigt Hill
#
# Bulk Modulus (GPa) = 42.20815 45.73985 43.97400
# Shear Modulus (GPa) = 26.49194 33.11773 29.80484
#
# Velocity S-wave (km/s) = 3.67261 4.10628 3.89549
# Velocity P-wave (km/s) = 6.28283 6.76536 6.52855
#
# Compressibility (1/GPa) = 0.02369211
#
# Stress axis : x y z
#
# Youngs Moduli (GPa) = 60.51228 30.42898 94.53259
#
# Poissons Ratio (x) = 0.40234 -0.01632
# Poissons Ratio (y) = 0.80010 0.48099
# Poissons Ratio (z) = -0.01045 0.15483
#
# Static dielectric constant tensor:
#      x y z
#    x 3.720550 0.000000 -0.116520 
#    y 0.000000 3.593060 0.000000 
#    z -0.116520 0.000000 4.595940 
# 
# 
# High freq. dielectric constant tensor:
#      x y z
#    x 1.783520 0.000000 -0.000920 
#    y 0.000000 1.766910 0.000000 
#    z -0.000920 0.000000 1.787910 
# 
# From -- ./inp_files/357517.got.cif
#   From: 2010.06.25/outbox.cif.g09.slc.cpg/sg12_179_cif.got.tgz:357517.got - 2010.06.28 00:19:55.
