data_PCOD8107426
_publ_section_title
;
Structure prediction by ZEFSAII (Michael W. Deem and Ramdas Pophale) SiO2 
 PCOD8107426
Probable space group: C 2/M
;
_chemical_formula_sum "Si O2"
_cell_formula_units_Z 48
_cell_length_a 24.488250
_cell_length_b 8.988481
_cell_length_c 11.581574
_cell_angle_alpha 90.000000
_cell_angle_beta 110.286984
_cell_angle_gamma 90.000000
_cell_volume 2391.109891
_symmetry_space_group_name_H-M "C 2/M"
_symmetry_group_IT_number 12
_symmetry_cell_setting 'monoclinic'
loop_
_space_group_symop_operation_xyz
x,y,z
-x,y,-z
-x,-y,-z
x,-y,z
1/2+x,1/2+y,z
1/2-x,1/2+y,-z
1/2-x,1/2-y,-z
1/2+x,1/2-y,z
loop_
_atom_site_type_symbol
_atom_site_label
_atom_site_fract_x
_atom_site_fract_y
_atom_site_fract_z
Si Si1 0.860193 0.176104 0.399558
Si Si2 0.377337 0.826897 0.638944
Si Si3 0.729712 0.825404 0.298475
Si Si4 0.304256 0.825216 0.980412
Si Si5 0.990830 0.327242 0.861164
Si Si6 0.907132 0.176026 0.186821
O O1 0.894670 0.241351 0.534561
O O2 0.794443 0.244418 0.352068
O O3 0.893188 0.226110 0.307570
O O4 0.859368 0.000000 0.407863
O O5 0.314328 0.764832 0.635595
O O6 0.424390 0.799162 0.774300
O O7 0.373763 0.000000 0.606807
O O8 0.736598 0.000000 0.317018
O O9 0.699079 0.787030 0.156122
O O10 0.363601 0.756148 0.068322
O O11 0.302936 0.000000 0.004402
O O12 0.250000 0.750000 0.000000
O O13 0.008546 0.500000 0.862206
O O14 0.028878 0.229342 0.801192
O O15 0.000000 0.274195 0.000000
O O16 0.900838 0.000000 0.168637
#
# Coordination Sequence:
#
# PCOD8107426 Si02
#       6
#     8   8   8   8   8   8
#     4  10  21  38  57  82 120 156 190 237 297 348
#     4  10  21  37  60  86 111 149 201 242 284 347
#     4   9  18  36  59  83 117 155 190 237 290 346
#     4  11  20  35  59  87 120 154 192 239 292 346
#     4  10  22  42  64  86 114 152 195 242 298 352
#     4  11  23  39  59  87 120 156 197 240 291 350
#
# _framework density 20.074359999999999
#
# number of rings (size 3 to 8) (size 9 to 14) (size 15 to 20)
#    0.000    1.833    1.667    2.500    0.000    5.667 
#    0.000    6.667    0.000    0.000    0.000    0.000 
#    0.000    0.000    0.000    0.000    0.000    0.000 
#
# Total GULP energy -297612.120086 kJ/mol
# GULP energy per Si atom -12400.505004 kJ/mol
# Density = 2.002867 g / cm^3
# Si number density = 20.074360 Si / 1000 Ang^3
#
#
#
# Elastic Constant Matrix: (Units=GPa)
#
#
# Indices 1 2 3 4 5 6 
#
# 1 98.4069 24.5776 52.5122 0.0000 -17.4504 0.0000
# 2 24.5776 47.9080 37.7415 0.0000 -7.5355 0.0000
# 3 52.5122 37.7415 119.6384 0.0000 -13.1301 0.0000
# 4 0.0000 0.0000 0.0000 31.8480 0.0000 0.7364
# 5 -17.4504 -7.5355 -13.1301 0.0000 30.2578 0.0000
# 6 0.0000 0.0000 0.0000 0.7364 0.0000 32.3515
#
#
#
# Elastic Compliance Matrix: (Units=1/GPa)
#
#
# Indices 1 2 3 4 5 6 
#
# 1 0.014413 -0.002686 -0.004872 0.000000 0.005529 0.000000
# 2 -0.002686 0.028589 -0.007590 0.000000 0.002277 0.000000
# 3 -0.004872 -0.007590 0.012994 0.000000 0.000939 0.000000
# 4 0.000000 0.000000 0.000000 0.031416 0.000000 -0.000715
# 5 0.005529 0.002277 0.000939 0.000000 0.037213 0.000000
# 6 0.000000 0.000000 0.000000 -0.000715 0.000000 0.030927
#
#
# Mechanical properties :
#
#
# Convention : Reuss Voigt Hill
#
# Bulk Modulus (GPa) = 38.91046 55.06844 46.98945
# Shear Modulus (GPa) = 25.71833 28.96627 27.34230
#
# Velocity S-wave (km/s) = 3.58320 3.80274 3.69460
# Velocity P-wave (km/s) = 6.04519 6.83907 6.45435
#
# Compressibility (1/GPa) = 0.02570003
#
# Stress axis : x y z
#
# Youngs Moduli (GPa) = 69.38116 34.97879 76.95708
#
# Poissons Ratio (x) = 0.09397 0.37494
# Poissons Ratio (y) = 0.18638 0.58408
# Poissons Ratio (z) = 0.33803 0.26548
#
# Static dielectric constant tensor:
#      x y z
#    x 3.732380 0.000000 -0.109700 
#    y 0.000000 3.440710 0.000000 
#    z -0.109700 0.000000 3.599500 
# 
# 
# High freq. dielectric constant tensor:
#      x y z
#    x 1.790430 0.000000 -0.003820 
#    y 0.000000 1.761490 0.000000 
#    z -0.003820 0.000000 1.793910 
# 
# From -- ./inp_files/172902.got.cif
#   From: 2010.06.25/outbox.cif.g09.slc.cpg/sg12_87_cif.got.tgz:172902.got - 2010.06.28 00:19:55.
