data_PCOD8107959
_publ_section_title
;
Structure prediction by ZEFSAII (Michael W. Deem and Ramdas Pophale) SiO2 
 PCOD8107959
Probable space group: C 2/M
;
_chemical_formula_sum "Si O2"
_cell_formula_units_Z 56
_cell_length_a 17.945728
_cell_length_b 8.814838
_cell_length_c 18.602371
_cell_angle_alpha 90.000000
_cell_angle_beta 76.004835
_cell_angle_gamma 90.000000
_cell_volume 2855.334364
_symmetry_space_group_name_H-M "C 2/M"
_symmetry_group_IT_number 12
_symmetry_cell_setting 'monoclinic'
loop_
_space_group_symop_operation_xyz
x,y,z
-x,y,-z
-x,-y,-z
x,-y,z
1/2+x,1/2+y,z
1/2-x,1/2+y,-z
1/2-x,1/2-y,-z
1/2+x,1/2-y,z
loop_
_atom_site_type_symbol
_atom_site_label
_atom_site_fract_x
_atom_site_fract_y
_atom_site_fract_z
Si Si1 0.543114 0.679317 0.139347
Si Si2 0.763438 0.676706 0.291786
Si Si3 0.403208 0.679896 0.717558
Si Si4 0.617171 0.823845 0.861653
Si Si5 0.329059 0.321987 0.005295
Si Si6 0.807271 0.820862 0.429934
Si Si7 0.977014 0.819295 0.427056
O O1 0.526328 0.500000 0.142906
O O2 0.573623 0.737731 0.209023
O O3 0.466541 0.768884 0.139759
O O4 0.605251 0.726290 0.065724
O O5 0.759086 0.500000 0.314090
O O6 0.682068 0.736682 0.281088
O O7 0.827053 0.708613 0.217516
O O8 0.784275 0.774234 0.355779
O O9 0.405055 0.500000 0.716406
O O10 0.462860 0.746062 0.645204
O O11 0.648012 0.731282 0.921540
O O12 0.615560 0.000000 0.882508
O O13 0.317886 0.500000 0.008079
O O14 0.250000 0.250000 0.000000
O O15 0.750000 0.750000 0.500000
O O16 0.892624 0.759641 0.426670
O O17 0.803906 0.000000 0.438480
O O18 0.000000 0.756121 0.500000
O O19 0.979436 0.000000 0.426156
#
# Coordination Sequence:
#
# PCOD8107959 Si02
#       7
#     8   8   8   8   8   8   8
#     4  10  21  38  59  83 112 151 197 239 285 345
#     4  10  21  38  59  83 113 148 186 231 284 341
#     4   9  17  33  57  80 106 143 187 233 278 332
#     4  11  23  38  58  86 119 153 190 236 292 349
#     4  11  23  39  60  85 115 152 196 244 292 347
#     4  11  22  36  57  84 113 146 186 233 284 339
#     4   9  17  30  52  80 105 136 182 228 269 323
#
# _framework density 19.612413
#
# number of rings (size 3 to 8) (size 9 to 14) (size 15 to 20)
#    0.000    1.857    0.000    4.286    0.000    9.714 
#    0.000    0.714    0.000    9.429    0.000    0.000 
#    0.000    0.000    0.000    0.000    0.000    0.000 
#
# Total GULP energy -347308.698983 kJ/mol
# GULP energy per Si atom -12403.882107 kJ/mol
# Density = 1.956777 g / cm^3
# Si number density = 19.612413 Si / 1000 Ang^3
#
#
#
# Elastic Constant Matrix: (Units=GPa)
#
#
# Indices 1 2 3 4 5 6 
#
# 1 189.1666 43.7403 76.0637 0.0000 -4.6364 0.0000
# 2 43.7403 39.5336 40.1088 0.0000 -9.8117 0.0000
# 3 76.0637 40.1088 127.1813 0.0000 -2.9628 0.0000
# 4 0.0000 0.0000 0.0000 27.9930 0.0000 2.3248
# 5 -4.6364 -9.8117 -2.9628 0.0000 45.2507 0.0000
# 6 0.0000 0.0000 0.0000 2.3248 0.0000 34.0851
#
#
#
# Elastic Compliance Matrix: (Units=1/GPa)
#
#
# Indices 1 2 3 4 5 6 
#
# 1 0.007761 -0.005924 -0.002789 0.000000 -0.000672 0.000000
# 2 -0.005924 0.044299 -0.010233 0.000000 0.008328 0.000000
# 3 -0.002789 -0.010233 0.012719 0.000000 -0.001672 0.000000
# 4 0.000000 0.000000 0.000000 0.035927 0.000000 -0.002450
# 5 -0.000672 0.008328 -0.001672 0.000000 0.023727 0.000000
# 6 0.000000 0.000000 0.000000 -0.002450 0.000000 0.029505
#
#
# Mechanical properties :
#
#
# Convention : Reuss Voigt Hill
#
# Bulk Modulus (GPa) = 37.19416 75.07857 56.13636
# Shear Modulus (GPa) = 24.90133 34.53036 29.71584
#
# Velocity S-wave (km/s) = 3.56711 4.20055 3.89672
# Velocity P-wave (km/s) = 5.99762 7.86704 6.99506
#
# Compressibility (1/GPa) = 0.02688594
#
# Stress axis : x y z
#
# Youngs Moduli (GPa) = 128.84606 22.57413 78.62138
#
# Poissons Ratio (x) = 0.13373 0.21929
# Poissons Ratio (y) = 0.76330 0.80455
# Poissons Ratio (z) = 0.35937 0.23101
#
# Static dielectric constant tensor:
#      x y z
#    x 3.673520 0.000000 -0.189590 
#    y 0.000000 3.303840 0.000000 
#    z -0.189590 0.000000 3.704140 
# 
# 
# High freq. dielectric constant tensor:
#      x y z
#    x 1.786140 0.000000 -0.000820 
#    y 0.000000 1.735390 0.000000 
#    z -0.000820 0.000000 1.785250 
# 
# From -- ./inp_files/275200.got.cif
#   From: 2010.06.25/outbox.cif.g09.slc.cpg/sg12_138_cif.got.tgz:275200.got - 2010.06.28 00:19:55.
