data_PCOD8107936
_publ_section_title
;
Structure prediction by ZEFSAII (Michael W. Deem and Ramdas Pophale) SiO2 
 PCOD8107936
Probable space group: C 2/M
;
_chemical_formula_sum "Si O2"
_cell_formula_units_Z 40
_cell_length_a 16.086918
_cell_length_b 13.355414
_cell_length_c 9.694243
_cell_angle_alpha 90.000000
_cell_angle_beta 87.749712
_cell_angle_gamma 90.000000
_cell_volume 2081.177225
_symmetry_space_group_name_H-M "C 2/M"
_symmetry_group_IT_number 12
_symmetry_cell_setting 'monoclinic'
loop_
_space_group_symop_operation_xyz
x,y,z
-x,y,-z
-x,-y,-z
x,-y,z
1/2+x,1/2+y,z
1/2-x,1/2+y,-z
1/2-x,1/2-y,-z
1/2+x,1/2-y,z
loop_
_atom_site_type_symbol
_atom_site_label
_atom_site_fract_x
_atom_site_fract_y
_atom_site_fract_z
Si Si1 0.758307 0.614297 0.635434
Si Si2 0.279132 0.779947 0.149627
Si Si3 0.046153 0.611885 0.854260
Si Si4 0.939676 0.699264 0.626306
Si Si5 0.163076 0.885491 0.360567
O O1 0.742424 0.500000 0.679258
O O2 0.714359 0.681918 0.754195
O O3 0.856262 0.634438 0.621021
O O4 0.720871 0.638082 0.488127
O O5 0.367480 0.831993 0.133509
O O6 0.213551 0.857659 0.219289
O O7 0.250000 0.750000 0.000000
O O8 0.061558 0.500000 0.792765
O O9 0.985919 0.676732 0.764096
O O10 0.000000 0.602637 0.000000
O O11 0.919250 0.817578 0.623230
O O12 0.000000 0.667392 0.500000
O O13 0.134110 0.000000 0.355855
#
# Coordination Sequence:
#
# PCOD8107936 Si02
#       5
#     8   8   8   8   8
#     4  10  21  38  59  84 114 151 193 233 277 334
#     4  11  22  38  60  83 113 149 190 235 279 337
#     4  11  23  38  57  83 114 146 182 230 286 336
#     4  11  21  35  57  86 116 143 183 235 282 329
#     4  10  21  38  59  81 112 154 193 229 276 337
#
# _framework density 19.219892999999999
#
# number of rings (size 3 to 8) (size 9 to 14) (size 15 to 20)
#    0.000    1.400    0.000    8.400    0.000    6.800 
#    0.000    1.000    0.000    2.400    0.000    0.000 
#    0.000    0.000    0.000    0.000    0.000    0.000 
#
# Total GULP energy -248065.054471 kJ/mol
# GULP energy per Si atom -12403.252724 kJ/mol
# Density = 1.917615 g / cm^3
# Si number density = 19.219893 Si / 1000 Ang^3
#
#
#
# Elastic Constant Matrix: (Units=GPa)
#
#
# Indices 1 2 3 4 5 6 
#
# 1 94.9709 34.1736 27.3098 0.0000 7.9368 0.0000
# 2 34.1736 120.2127 35.9557 0.0000 10.9220 0.0000
# 3 27.3098 35.9557 110.8064 0.0000 11.0178 0.0000
# 4 0.0000 0.0000 0.0000 30.6413 0.0000 1.1957
# 5 7.9368 10.9220 11.0178 0.0000 38.8154 0.0000
# 6 0.0000 0.0000 0.0000 1.1957 0.0000 23.2833
#
#
#
# Elastic Compliance Matrix: (Units=1/GPa)
#
#
# Indices 1 2 3 4 5 6 
#
# 1 0.012194 -0.002766 -0.001994 0.000000 -0.001149 0.000000
# 2 -0.002766 0.009963 -0.002396 0.000000 -0.001558 0.000000
# 3 -0.001994 -0.002396 0.010482 0.000000 -0.001893 0.000000
# 4 0.000000 0.000000 0.000000 0.032701 0.000000 -0.001679
# 5 -0.001149 -0.001558 -0.001893 0.000000 0.026974 0.000000
# 6 0.000000 0.000000 0.000000 -0.001679 0.000000 0.043036
#
#
# Mechanical properties :
#
#
# Convention : Reuss Voigt Hill
#
# Bulk Modulus (GPa) = 54.56266 57.87422 56.21844
# Shear Modulus (GPa) = 32.09851 33.78473 32.94162
#
# Velocity S-wave (km/s) = 4.09108 4.19716 4.14446
# Velocity P-wave (km/s) = 7.12504 7.32565 7.22604
#
# Compressibility (1/GPa) = 0.01832755
#
# Stress axis : x y z
#
# Youngs Moduli (GPa) = 82.00693 100.37019 95.40182
#
# Poissons Ratio (x) = 0.27760 0.19020
# Poissons Ratio (y) = 0.22681 0.22862
# Poissons Ratio (z) = 0.16349 0.24053
#
# Static dielectric constant tensor:
#      x y z
#    x 3.500450 0.000000 0.025780 
#    y 0.000000 3.745440 0.000000 
#    z 0.025780 0.000000 3.584160 
# 
# 
# High freq. dielectric constant tensor:
#      x y z
#    x 1.746990 0.000000 0.000560 
#    y 0.000000 1.760740 0.000000 
#    z 0.000560 0.000000 1.756120 
# 
# From -- ./inp_files/59083.got.cif
#   From: 2010.06.25/outbox.cif.g09.slc.cpg/sg12_30_cif.got.tgz:59083.got - 2010.06.28 00:19:55.
