data_PCOD8107052
_publ_section_title
;
Structure prediction by ZEFSAII (Michael W. Deem and Ramdas Pophale) SiO2 
 PCOD8107052
Probable space group: C 2/M
;
_chemical_formula_sum "Si O2"
_cell_formula_units_Z 56
_cell_length_a 30.260123
_cell_length_b 8.996004
_cell_length_c 10.854576
_cell_angle_alpha 90.000000
_cell_angle_beta 113.912932
_cell_angle_gamma 90.000000
_cell_volume 2701.199057
_symmetry_space_group_name_H-M "C 2/M"
_symmetry_group_IT_number 12
_symmetry_cell_setting 'monoclinic'
loop_
_space_group_symop_operation_xyz
x,y,z
-x,y,-z
-x,-y,-z
x,-y,z
1/2+x,1/2+y,z
1/2-x,1/2+y,-z
1/2-x,1/2-y,-z
1/2+x,1/2-y,z
loop_
_atom_site_type_symbol
_atom_site_label
_atom_site_fract_x
_atom_site_fract_y
_atom_site_fract_z
Si Si1 0.181515 0.668823 0.115130
Si Si2 0.135947 0.825912 0.290007
Si Si3 0.775274 0.332312 0.178534
Si Si4 0.978198 0.677302 0.343066
Si Si5 0.207362 0.334902 0.516869
Si Si6 0.872198 0.668518 0.181222
Si Si7 0.024762 0.175094 0.155697
O O1 0.192143 0.500000 0.168034
O O2 0.170095 0.769860 0.218643
O O3 0.228412 0.731735 0.093235
O O4 0.134644 0.675741 0.973903
O O5 0.156154 0.748748 0.436561
O O6 0.080731 0.781634 0.205970
O O7 0.142784 0.000000 0.309575
O O8 0.769244 0.500000 0.116171
O O9 0.779865 0.340698 0.328118
O O10 0.824942 0.254436 0.187653
O O11 0.979812 0.500000 0.330331
O O12 0.923283 0.741582 0.276435
O O13 0.000000 0.727169 0.500000
O O14 0.005732 0.745178 0.257105
O O15 0.203069 0.500000 0.456598
O O16 0.250000 0.250000 0.500000
O O17 0.873296 0.500000 0.231567
O O18 0.016531 0.000000 0.163598
O O19 0.000000 0.230181 0.000000
#
# Coordination Sequence:
#
# PCOD8107052 Si02
#       7
#     8   8   8   8   8   8   8
#     4  11  21  35  58  86 118 151 192 242 289 349
#     4  11  23  38  59  85 118 156 196 243 296 354
#     4  10  21  37  58  81 116 155 190 233 287 352
#     4  10  22  40  65  92 121 158 203 254 308 367
#     4  11  22  36  58  85 117 156 194 239 291 348
#     4   9  20  38  58  85 117 151 192 240 293 350
#     4  10  23  43  65  90 122 161 206 258 312 364
#
# _framework density 20.731532999999999
#
# number of rings (size 3 to 8) (size 9 to 14) (size 15 to 20)
#    0.000    1.714    1.429    2.571    2.000    2.286 
#    0.000    2.143    0.000    0.000    0.000    0.000 
#    0.000    0.000    0.000    0.000    0.000    0.000 
#
# Total GULP energy -347103.861799 kJ/mol
# GULP energy per Si atom -12396.566493 kJ/mol
# Density = 2.068435 g / cm^3
# Si number density = 20.731533 Si / 1000 Ang^3
#
#
#
# Elastic Constant Matrix: (Units=GPa)
#
#
# Indices 1 2 3 4 5 6 
#
# 1 115.5668 40.9918 38.2992 0.0000 15.4236 0.0000
# 2 40.9918 76.9723 33.0480 0.0000 13.3665 0.0000
# 3 38.2992 33.0480 99.0051 0.0000 20.7996 0.0000
# 4 0.0000 0.0000 0.0000 28.0145 0.0000 -0.3911
# 5 15.4236 13.3665 20.7996 0.0000 42.4330 0.0000
# 6 0.0000 0.0000 0.0000 -0.3911 0.0000 28.8881
#
#
#
# Elastic Compliance Matrix: (Units=1/GPa)
#
#
# Indices 1 2 3 4 5 6 
#
# 1 0.011349 -0.004718 -0.002521 0.000000 -0.001403 0.000000
# 2 -0.004718 0.017380 -0.003552 0.000000 -0.002019 0.000000
# 3 -0.002521 -0.003552 0.013192 0.000000 -0.004431 0.000000
# 4 0.000000 0.000000 0.000000 0.035703 0.000000 0.000483
# 5 -0.001403 -0.002019 -0.004431 0.000000 0.026885 0.000000
# 6 0.000000 0.000000 0.000000 0.000483 0.000000 0.034623
#
#
# Mechanical properties :
#
#
# Convention : Reuss Voigt Hill
#
# Bulk Modulus (GPa) = 49.16511 57.35802 53.26156
# Shear Modulus (GPa) = 29.85196 31.81414 30.83305
#
# Velocity S-wave (km/s) = 3.79876 3.92162 3.86068
# Velocity P-wave (km/s) = 6.55800 6.94497 6.75426
#
# Compressibility (1/GPa) = 0.02033963
#
# Stress axis : x y z
#
# Youngs Moduli (GPa) = 88.11230 57.53732 75.80204
#
# Poissons Ratio (x) = 0.27147 0.19106
# Poissons Ratio (y) = 0.41572 0.26927
# Poissons Ratio (z) = 0.22209 0.20439
#
# Static dielectric constant tensor:
#      x y z
#    x 3.642330 0.000000 0.309330 
#    y 0.000000 2.950070 0.000000 
#    z 0.309330 0.000000 4.181150 
# 
# 
# High freq. dielectric constant tensor:
#      x y z
#    x 1.815180 0.000000 0.006350 
#    y 0.000000 1.791640 0.000000 
#    z 0.006350 0.000000 1.829940 
# 
# From -- ./inp_files/187731.got.cif
#   From: 2010.06.25/outbox.cif.g09.slc.cpg/sg12_94_cif.got.tgz:187731.got - 2010.06.28 00:19:55.
