data_PCOD8107658
_publ_section_title
;
Structure prediction by ZEFSAII (Michael W. Deem and Ramdas Pophale) SiO2 
 PCOD8107658
Probable space group: C 2/M
;
_chemical_formula_sum "Si O2"
_cell_formula_units_Z 44
_cell_length_a 16.055798
_cell_length_b 22.565187
_cell_length_c 12.461183
_cell_angle_alpha 90.000000
_cell_angle_beta 153.424600
_cell_angle_gamma 90.000000
_cell_volume 2019.770172
_symmetry_space_group_name_H-M "C 2/M"
_symmetry_group_IT_number 12
_symmetry_cell_setting 'monoclinic'
loop_
_space_group_symop_operation_xyz
x,y,z
-x,y,-z
-x,-y,-z
x,-y,z
1/2+x,1/2+y,z
1/2-x,1/2+y,-z
1/2-x,1/2-y,-z
1/2+x,1/2-y,z
loop_
_atom_site_type_symbol
_atom_site_label
_atom_site_fract_x
_atom_site_fract_y
_atom_site_fract_z
Si Si1 0.535159 0.153774 0.360796
Si Si2 0.213643 0.935877 0.759861
Si Si3 0.232751 0.064725 0.032215
Si Si4 0.872789 0.316576 0.945258
Si Si5 0.500000 0.754264 0.500000
Si Si6 0.616522 0.567833 0.241193
O O1 0.374799 0.115049 0.235494
O O2 0.573101 0.208094 0.483365
O O3 0.714953 0.112914 0.553854
O O4 0.478481 0.180517 0.180360
O O5 0.333394 0.882240 0.850097
O O6 0.000000 0.920615 0.500000
O O7 0.262797 0.000000 0.762584
O O8 0.258652 0.939403 0.936337
O O9 0.278563 0.000000 0.137434
O O10 0.021185 0.081657 0.818237
O O11 0.676920 0.284341 0.740186
O O12 0.000000 0.285087 0.000000
O O13 0.690998 0.500000 0.330951
O O14 0.500000 0.579937 0.000000
#
# Coordination Sequence:
#
# PCOD8107658 Si02
#       6
#     8   8   8   8   4   8
#     4  11  24  41  67  91 122 167 213 257 309 376
#     4   9  18  36  62  89 122 159 189 235 306 373
#     4   9  19  36  60  92 128 159 194 248 309 370
#     4  11  26  43  65  93 123 163 208 264 310 369
#     4  12  26  46  62  86 124 168 218 266 308 356
#     4  10  21  37  62  97 130 160 201 255 313 372
#
# _framework density 21.784656999999999
#
# number of rings (size 3 to 8) (size 9 to 14) (size 15 to 20)
#    0.000    1.818    0.909    2.182    2.545    4.000 
#    0.000    3.636    0.000    0.000    0.000    0.000 
#    0.000    0.000    0.000    0.000    0.000    0.000 
#
# Total GULP energy -272711.746866 kJ/mol
# GULP energy per Si atom -12395.988494 kJ/mol
# Density = 2.173507 g / cm^3
# Si number density = 21.784657 Si / 1000 Ang^3
#
#
#
# Elastic Constant Matrix: (Units=GPa)
#
#
# Indices 1 2 3 4 5 6 
#
# 1 74.2013 38.8396 38.9439 0.0000 12.2269 0.0000
# 2 38.8396 90.3626 55.1473 0.0000 4.7202 0.0000
# 3 38.9439 55.1473 120.5595 0.0000 4.1670 0.0000
# 4 0.0000 0.0000 0.0000 31.6961 0.0000 -2.4770
# 5 12.2269 4.7202 4.1670 0.0000 36.2643 0.0000
# 6 0.0000 0.0000 0.0000 -2.4770 0.0000 13.6858
#
#
#
# Elastic Compliance Matrix: (Units=1/GPa)
#
#
# Indices 1 2 3 4 5 6 
#
# 1 0.019204 -0.005969 -0.003289 0.000000 -0.005320 0.000000
# 2 -0.005969 0.017260 -0.005982 0.000000 0.000453 0.000000
# 3 -0.003289 -0.005982 0.012076 0.000000 0.000500 0.000000
# 4 0.000000 0.000000 0.000000 0.032002 0.000000 0.005792
# 5 -0.005320 0.000453 0.000500 0.000000 0.029253 0.000000
# 6 0.000000 0.000000 0.000000 0.005792 0.000000 0.074117
#
#
# Mechanical properties :
#
#
# Convention : Reuss Voigt Hill
#
# Bulk Modulus (GPa) = 55.37512 61.22059 58.29786
# Shear Modulus (GPa) = 22.68471 26.47541 24.58006
#
# Velocity S-wave (km/s) = 3.23044 3.48993 3.36269
# Velocity P-wave (km/s) = 6.27605 6.66357 6.47271
#
# Compressibility (1/GPa) = 0.01805865
#
# Stress axis : x y z
#
# Youngs Moduli (GPa) = 52.07190 57.93905 82.80603
#
# Poissons Ratio (x) = 0.34584 0.27236
# Poissons Ratio (y) = 0.31082 0.49539
# Poissons Ratio (z) = 0.17127 0.34662
#
# Static dielectric constant tensor:
#      x y z
#    x 3.558680 0.000000 0.204110 
#    y 0.000000 4.421070 0.000000 
#    z 0.204110 0.000000 3.849060 
# 
# 
# High freq. dielectric constant tensor:
#      x y z
#    x 1.848270 0.000000 0.002540 
#    y 0.000000 1.859040 0.000000 
#    z 0.002540 0.000000 1.858490 
# 
# From -- ./inp_files/228211.got.cif
#   From: 2010.06.25/outbox.cif.g09.slc.cpg/sg12_115_cif.got.tgz:228211.got - 2010.06.28 00:19:55.
