data_PCOD8107723
_publ_section_title
;
Structure prediction by ZEFSAII (Michael W. Deem and Ramdas Pophale) SiO2 
 PCOD8107723
Probable space group: C 2/M
;
_chemical_formula_sum "Si O2"
_cell_formula_units_Z 56
_cell_length_a 28.562796
_cell_length_b 11.336053
_cell_length_c 9.398039
_cell_angle_alpha 90.000000
_cell_angle_beta 116.577266
_cell_angle_gamma 90.000000
_cell_volume 2721.438450
_symmetry_space_group_name_H-M "C 2/M"
_symmetry_group_IT_number 12
_symmetry_cell_setting 'monoclinic'
loop_
_space_group_symop_operation_xyz
x,y,z
-x,y,-z
-x,-y,-z
x,-y,z
1/2+x,1/2+y,z
1/2-x,1/2+y,-z
1/2-x,1/2-y,-z
1/2+x,1/2-y,z
loop_
_atom_site_type_symbol
_atom_site_label
_atom_site_fract_x
_atom_site_fract_y
_atom_site_fract_z
Si Si1 0.353319 0.858560 0.263279
Si Si2 0.538207 0.500000 0.265129
Si Si3 0.421261 0.500000 0.999495
Si Si4 0.415519 0.734684 0.582065
Si Si5 0.005535 0.362735 0.849008
Si Si6 0.330641 0.218017 0.680652
Si Si7 0.735636 0.872312 0.644663
Si Si8 0.112633 0.256022 0.971019
O O1 0.398733 0.786060 0.407048
O O2 0.298381 0.832400 0.265943
O O3 0.349026 0.797666 0.103135
O O4 0.365124 0.000000 0.273757
O O5 0.476288 0.500000 0.156294
O O6 0.552906 0.612368 0.382529
O O7 0.568828 0.500000 0.156450
O O8 0.387561 0.615227 0.999222
O O9 0.452380 0.836871 0.694559
O O10 0.365907 0.709157 0.616854
O O11 0.017273 0.500000 0.864690
O O12 0.054883 0.297456 0.846632
O O13 0.000000 0.310859 0.000000
O O14 0.301550 0.119032 0.546914
O O15 0.285444 0.291631 0.694846
O O16 0.367751 0.173852 0.859949
O O17 0.759061 0.000000 0.704712
#
# Coordination Sequence:
#
# PCOD8107723 Si02
#       8
#     8   4   4   8   8   8   8   8
#     4  10  24  44  61  85 127 167 204 254 307 361
#     4  11  20  37  65  89 129 161 201 255 297 354
#     4  11  22  37  61  95 129 157 203 255 299 357
#     4  11  21  39  62  92 123 164 204 246 305 359
#     4  11  21  35  58  92 123 158 209 253 291 355
#     4  10  21  37  65  92 117 153 207 259 300 361
#     4   9  21  41  63  89 119 155 203 257 312 361
#     4  12  23  39  62  93 124 163 207 243 309 365
#
# _framework density 20.577351
#
# number of rings (size 3 to 8) (size 9 to 14) (size 15 to 20)
#    0.000    1.429    4.286    0.857    2.000    3.429 
#    0.000    2.143    1.571    0.000    0.000    0.000 
#    0.000    0.000    0.000    0.000    0.000    0.000 
#
# Total GULP energy -347039.250183 kJ/mol
# GULP energy per Si atom -12394.258935 kJ/mol
# Density = 2.053052 g / cm^3
# Si number density = 20.577351 Si / 1000 Ang^3
#
#
#
# Elastic Constant Matrix: (Units=GPa)
#
#
# Indices 1 2 3 4 5 6 
#
# 1 81.4161 27.6526 15.1440 0.0000 -12.0374 0.0000
# 2 27.6526 80.6311 14.3478 0.0000 -8.1293 0.0000
# 3 15.1440 14.3478 69.6007 0.0000 -11.9124 0.0000
# 4 0.0000 0.0000 0.0000 22.1724 0.0000 -5.5180
# 5 -12.0374 -8.1293 -11.9124 0.0000 31.7545 0.0000
# 6 0.0000 0.0000 0.0000 -5.5180 0.0000 18.1620
#
#
#
# Elastic Compliance Matrix: (Units=1/GPa)
#
#
# Indices 1 2 3 4 5 6 
#
# 1 0.014625 -0.004340 -0.001634 0.000000 0.003820 0.000000
# 2 -0.004340 0.014344 -0.001780 0.000000 0.001359 0.000000
# 3 -0.001634 -0.001780 0.015929 0.000000 0.004901 0.000000
# 4 0.000000 0.000000 0.000000 0.048790 0.000000 0.014823
# 5 0.003820 0.001359 0.004901 0.000000 0.035126 0.000000
# 6 0.000000 0.000000 0.000000 0.014823 0.000000 0.059564
#
#
# Mechanical properties :
#
#
# Convention : Reuss Voigt Hill
#
# Bulk Modulus (GPa) = 34.02394 38.43742 36.23068
# Shear Modulus (GPa) = 23.39914 26.05134 24.72524
#
# Velocity S-wave (km/s) = 3.37580 3.56198 3.47014
# Velocity P-wave (km/s) = 5.63606 5.96967 5.80526
#
# Compressibility (1/GPa) = 0.02939107
#
# Stress axis : x y z
#
# Youngs Moduli (GPa) = 68.37455 69.71392 62.77914
#
# Poissons Ratio (x) = 0.30255 0.10256
# Poissons Ratio (y) = 0.29674 0.11175
# Poissons Ratio (z) = 0.11171 0.12410
#
# Static dielectric constant tensor:
#      x y z
#    x 3.723520 0.000000 0.044310 
#    y 0.000000 3.587190 0.000000 
#    z 0.044310 0.000000 3.702790 
# 
# 
# High freq. dielectric constant tensor:
#      x y z
#    x 1.806460 0.000000 0.007580 
#    y 0.000000 1.794400 0.000000 
#    z 0.007580 0.000000 1.797930 
# 
# From -- ./inp_files/110601.got.cif
#   From: 2010.06.25/outbox.cif.g09.slc.cpg/sg12_56_cif.got.tgz:110601.got - 2010.06.28 00:19:55.
