data_PCOD8107174
_publ_section_title
;
Structure prediction by ZEFSAII (Michael W. Deem and Ramdas Pophale) SiO2 
 PCOD8107174
Probable space group: C 2/M
;
_chemical_formula_sum "Si O2"
_cell_formula_units_Z 48
_cell_length_a 29.933439
_cell_length_b 8.871345
_cell_length_c 18.824519
_cell_angle_alpha 90.000000
_cell_angle_beta 150.639051
_cell_angle_gamma 90.000000
_cell_volume 2450.984631
_symmetry_space_group_name_H-M "C 2/M"
_symmetry_group_IT_number 12
_symmetry_cell_setting 'monoclinic'
loop_
_space_group_symop_operation_xyz
x,y,z
-x,y,-z
-x,-y,-z
x,-y,z
1/2+x,1/2+y,z
1/2-x,1/2+y,-z
1/2-x,1/2-y,-z
1/2+x,1/2-y,z
loop_
_atom_site_type_symbol
_atom_site_label
_atom_site_fract_x
_atom_site_fract_y
_atom_site_fract_z
Si Si1 0.886964 0.178529 0.028721
Si Si2 0.768855 0.824409 0.100447
Si Si3 0.597390 0.321040 0.110730
Si Si4 0.759444 0.678474 0.436012
Si Si5 0.449812 0.167271 0.356718
Si Si6 0.040891 0.324282 0.336448
O O1 0.975615 0.233347 0.193467
O O2 0.882045 0.000000 0.028720
O O3 0.794713 0.249160 0.929614
O O4 0.889688 0.233787 0.951604
O O5 0.873552 0.793032 0.262663
O O6 0.748303 0.000000 0.069195
O O7 0.750000 0.750000 0.000000
O O8 0.597269 0.500000 0.114817
O O9 0.678442 0.258787 0.273290
O O10 0.500000 0.255310 0.000000
O O11 0.752475 0.500000 0.434391
O O12 0.750000 0.750000 0.500000
O O13 0.855313 0.726484 0.533530
O O14 0.500000 0.161068 0.500000
O O15 0.516408 0.213988 0.384299
O O16 0.408853 0.000000 0.283528
O O17 0.027969 0.500000 0.302198
#
# Coordination Sequence:
#
# PCOD8107174 Si02
#       6
#     8   8   8   8   8   8
#     4  11  22  37  63  90 117 156 199 247 300 357
#     4  12  24  40  61  88 122 160 203 250 298 355
#     4   9  19  36  60  89 117 149 194 242 289 351
#     4  10  21  38  60  86 118 155 195 241 296 355
#     4  10  22  39  62  88 119 160 202 246 299 357
#     4  10  21  37  58  85 119 156 195 246 298 352
#
# _framework density 19.583966
#
# number of rings (size 3 to 8) (size 9 to 14) (size 15 to 20)
#    0.000    1.667    1.667    3.000    2.333    2.333 
#    0.000    1.667    0.000    4.500    0.000    0.000 
#    0.000    0.000    0.000    0.000    0.000    0.000 
#
# Total GULP energy -297610.105056 kJ/mol
# GULP energy per Si atom -12400.421044 kJ/mol
# Density = 1.953939 g / cm^3
# Si number density = 19.583966 Si / 1000 Ang^3
#
#
#
# Elastic Constant Matrix: (Units=GPa)
#
#
# Indices 1 2 3 4 5 6 
#
# 1 202.0156 53.1871 99.3069 0.0000 2.4161 0.0000
# 2 53.1871 60.2149 37.5222 0.0000 -0.2129 0.0000
# 3 99.3069 37.5222 140.2841 0.0000 -0.4791 0.0000
# 4 0.0000 0.0000 0.0000 28.6393 0.0000 2.1922
# 5 2.4161 -0.2129 -0.4791 0.0000 44.1202 0.0000
# 6 0.0000 0.0000 0.0000 2.1922 0.0000 28.2153
#
#
#
# Elastic Compliance Matrix: (Units=1/GPa)
#
#
# Indices 1 2 3 4 5 6 
#
# 1 0.008517 -0.004520 -0.004822 0.000000 -0.000541 0.000000
# 2 -0.004520 0.022328 -0.002771 0.000000 0.000325 0.000000
# 3 -0.004822 -0.002771 0.011284 0.000000 0.000373 0.000000
# 4 0.000000 0.000000 0.000000 0.035126 0.000000 -0.002729
# 5 -0.000541 0.000325 0.000373 0.000000 0.022701 0.000000
# 6 0.000000 0.000000 0.000000 -0.002729 0.000000 0.035654
#
#
# Mechanical properties :
#
#
# Convention : Reuss Voigt Hill
#
# Bulk Modulus (GPa) = 55.85806 86.94967 71.40387
# Shear Modulus (GPa) = 30.15612 34.36151 32.25882
#
# Velocity S-wave (km/s) = 3.92833 4.19331 4.06298
# Velocity P-wave (km/s) = 7.01142 8.24257 7.65179
#
# Compressibility (1/GPa) = 0.01790252
#
# Stress axis : x y z
#
# Youngs Moduli (GPa) = 117.41120 44.78730 88.61797
#
# Poissons Ratio (x) = 0.20245 0.42732
# Poissons Ratio (y) = 0.53072 0.24557
# Poissons Ratio (z) = 0.56616 0.12411
#
# Static dielectric constant tensor:
#      x y z
#    x 3.812160 0.000000 0.063620 
#    y 0.000000 3.311990 0.000000 
#    z 0.063620 0.000000 3.667300 
# 
# 
# High freq. dielectric constant tensor:
#      x y z
#    x 1.782580 0.000000 0.001390 
#    y 0.000000 1.742910 0.000000 
#    z 0.001390 0.000000 1.772330 
# 
# From -- ./inp_files/244720.got.cif
#   From: 2010.06.25/outbox.cif.g09.slc.cpg/sg12_123_cif.got.tgz:244720.got - 2010.06.28 00:19:55.
