data_PCOD8107586
_publ_section_title
;
Structure prediction by ZEFSAII (Michael W. Deem and Ramdas Pophale) SiO2 
 PCOD8107586
Probable space group: C 2/M
;
_chemical_formula_sum "Si O2"
_cell_formula_units_Z 36
_cell_length_a 15.349383
_cell_length_b 10.301804
_cell_length_c 11.641371
_cell_angle_alpha 90.000000
_cell_angle_beta 71.661096
_cell_angle_gamma 90.000000
_cell_volume 1747.316515
_symmetry_space_group_name_H-M "C 2/M"
_symmetry_group_IT_number 12
_symmetry_cell_setting 'monoclinic'
loop_
_space_group_symop_operation_xyz
x,y,z
-x,y,-z
-x,-y,-z
x,-y,z
1/2+x,1/2+y,z
1/2-x,1/2+y,-z
1/2-x,1/2-y,-z
1/2+x,1/2-y,z
loop_
_atom_site_type_symbol
_atom_site_label
_atom_site_fract_x
_atom_site_fract_y
_atom_site_fract_z
Si Si1 0.101372 0.648483 0.005003
Si Si2 0.000000 0.782253 0.500000
Si Si3 0.174049 0.856981 0.557660
Si Si4 0.188601 0.854257 0.803232
Si Si5 0.396746 0.146372 0.740216
O O1 0.140804 0.500000 0.984047
O O2 0.163254 0.744148 0.904145
O O3 0.101804 0.708918 0.132972
O O4 0.000000 0.651297 0.000000
O O5 0.911291 0.862279 0.495436
O O6 0.972112 0.700857 0.622807
O O7 0.250000 0.750000 0.500000
O O8 0.136702 0.833646 0.703281
O O9 0.220578 0.000000 0.531462
O O10 0.296024 0.839157 0.728287
O O11 0.168666 0.000000 0.860872
O O12 0.427231 0.000000 0.747142
#
# Coordination Sequence:
#
# PCOD8107586 Si02
#       5
#     8   4   8   8   8
#     4  10  21  38  59  89 122 157 208 261 309 371
#     4  12  22  40  66  94 129 168 213 262 315 368
#     4  11  24  42  63  92 129 165 209 262 313 374
#     4  10  21  40  61  88 122 161 209 257 310 375
#     4  10  21  37  61  91 125 166 211 255 311 380
#
# _framework density 20.603020000000001
#
# number of rings (size 3 to 8) (size 9 to 14) (size 15 to 20)
#    0.000    1.556    2.222    2.667    0.000    2.222 
#    0.000    2.222    0.000    0.000    0.000    0.000 
#    0.000    0.000    0.000    0.000    0.000    0.000 
#
# Total GULP energy -223096.425679 kJ/mol
# GULP energy per Si atom -12394.245871 kJ/mol
# Density = 2.055613 g / cm^3
# Si number density = 20.603020 Si / 1000 Ang^3
#
#
#
# Elastic Constant Matrix: (Units=GPa)
#
#
# Indices 1 2 3 4 5 6 
#
# 1 80.9569 31.2256 31.5648 0.0000 15.8413 0.0000
# 2 31.2256 123.3242 77.1155 0.0000 -12.2516 0.0000
# 3 31.5648 77.1155 138.8124 0.0000 6.5109 0.0000
# 4 0.0000 0.0000 0.0000 29.8058 0.0000 4.0243
# 5 15.8413 -12.2516 6.5109 0.0000 38.6545 0.0000
# 6 0.0000 0.0000 0.0000 4.0243 0.0000 19.8586
#
#
#
# Elastic Compliance Matrix: (Units=1/GPa)
#
#
# Indices 1 2 3 4 5 6 
#
# 1 0.015826 -0.004203 -0.000904 0.000000 -0.007666 0.000000
# 2 -0.004203 0.014645 -0.007538 0.000000 0.007634 0.000000
# 3 -0.000904 -0.007538 0.011785 0.000000 -0.004004 0.000000
# 4 0.000000 0.000000 0.000000 0.034494 0.000000 -0.006990
# 5 -0.007666 0.007634 -0.004004 0.000000 0.032106 0.000000
# 6 0.000000 0.000000 0.000000 -0.006990 0.000000 0.051773
#
#
# Mechanical properties :
#
#
# Convention : Reuss Voigt Hill
#
# Bulk Modulus (GPa) = 58.94477 69.21170 64.07824
# Shear Modulus (GPa) = 26.09945 31.20963 28.65454
#
# Velocity S-wave (km/s) = 3.56304 3.89628 3.73338
# Velocity P-wave (km/s) = 6.75270 7.34215 7.05359
#
# Compressibility (1/GPa) = 0.01696503
#
# Stress axis : x y z
#
# Youngs Moduli (GPa) = 63.18714 68.28232 84.85328
#
# Poissons Ratio (x) = 0.28702 0.07671
# Poissons Ratio (y) = 0.26560 0.63964
# Poissons Ratio (z) = 0.05712 0.51472
#
# Static dielectric constant tensor:
#      x y z
#    x 3.704140 0.000000 0.315330 
#    y 0.000000 3.749900 0.000000 
#    z 0.315330 0.000000 3.799960 
# 
# 
# High freq. dielectric constant tensor:
#      x y z
#    x 1.806420 0.000000 0.024580 
#    y 0.000000 1.798620 0.000000 
#    z 0.024580 0.000000 1.810950 
# 
# From -- ./inp_files/140173.got.cif
#   From: 2010.06.25/outbox.cif.g09.slc.cpg/sg12_71_cif.got.tgz:140173.got - 2010.06.28 00:19:55.
