data_PCOD8107265
_publ_section_title
;
Structure prediction by ZEFSAII (Michael W. Deem and Ramdas Pophale) SiO2 
 PCOD8107265
Probable space group: C 2/M
;
_chemical_formula_sum "Si O2"
_cell_formula_units_Z 48
_cell_length_a 23.688842
_cell_length_b 8.959227
_cell_length_c 12.004328
_cell_angle_alpha 90.000000
_cell_angle_beta 102.818897
_cell_angle_gamma 90.000000
_cell_volume 2484.224240
_symmetry_space_group_name_H-M "C 2/M"
_symmetry_group_IT_number 12
_symmetry_cell_setting 'monoclinic'
loop_
_space_group_symop_operation_xyz
x,y,z
-x,y,-z
-x,-y,-z
x,-y,z
1/2+x,1/2+y,z
1/2-x,1/2+y,-z
1/2-x,1/2-y,-z
1/2+x,1/2-y,z
loop_
_atom_site_type_symbol
_atom_site_label
_atom_site_fract_x
_atom_site_fract_y
_atom_site_fract_z
Si Si1 0.585200 0.674905 0.820598
Si Si2 0.636605 0.826081 0.404647
Si Si3 0.548768 0.325265 0.212716
Si Si4 0.343455 0.174953 0.332547
Si Si5 0.619429 0.826647 0.055156
Si Si6 0.225705 0.329386 0.257178
O O1 0.596940 0.500000 0.829685
O O2 0.518021 0.714326 0.801150
O O3 0.607345 0.739750 0.713895
O O4 0.620772 0.750731 0.935636
O O5 0.582192 0.733082 0.336103
O O6 0.648633 0.778778 0.535829
O O7 0.693601 0.787406 0.358165
O O8 0.621236 0.000000 0.384603
O O9 0.559590 0.500000 0.203900
O O10 0.570131 0.246279 0.109960
O O11 0.280030 0.222194 0.263663
O O12 0.350889 0.000000 0.317298
O O13 0.682416 0.801776 0.135858
O O14 0.604560 0.000000 0.036924
O O15 0.247325 0.500000 0.269397
#
# Coordination Sequence:
#
# PCOD8107265 Si02
#       6
#     8   8   8   8   8   8
#     4  11  24  39  55  80 115 151 186 226 275 331
#     4   9  20  38  59  84 112 144 185 230 275 327
#     4  10  21  37  59  85 111 144 186 229 275 327
#     4  11  23  37  56  83 113 148 188 228 275 328
#     4  10  21  38  61  86 111 143 184 229 277 328
#     4   9  19  37  59  83 111 142 180 228 279 330
#
# _framework density 19.321928
#
# number of rings (size 3 to 8) (size 9 to 14) (size 15 to 20)
#    0.000    2.000    0.000    4.000    0.000   10.667 
#    0.000    3.333    0.000    0.000    0.000    0.000 
#    0.000    0.000    0.000    0.000    0.000    0.000 
#
# Total GULP energy -297739.550014 kJ/mol
# GULP energy per Si atom -12405.814584 kJ/mol
# Density = 1.927795 g / cm^3
# Si number density = 19.321928 Si / 1000 Ang^3
#
#
#
# Elastic Constant Matrix: (Units=GPa)
#
#
# Indices 1 2 3 4 5 6 
#
# 1 57.2650 32.7754 31.2020 0.0000 0.5348 0.0000
# 2 32.7754 76.7702 29.2265 0.0000 5.1830 0.0000
# 3 31.2020 29.2265 68.1282 0.0000 2.8814 0.0000
# 4 0.0000 0.0000 0.0000 29.7991 0.0000 -2.2233
# 5 0.5348 5.1830 2.8814 0.0000 19.5118 0.0000
# 6 0.0000 0.0000 0.0000 -2.2233 0.0000 36.4400
#
#
#
# Elastic Compliance Matrix: (Units=1/GPa)
#
#
# Indices 1 2 3 4 5 6 
#
# 1 0.027087 -0.008349 -0.008942 0.000000 0.002796 0.000000
# 2 -0.008349 0.018339 -0.003871 0.000000 -0.004071 0.000000
# 3 -0.008942 -0.003871 0.020509 0.000000 -0.001755 0.000000
# 4 0.000000 0.000000 0.000000 0.033712 0.000000 0.002057
# 5 0.002796 -0.004071 -0.001755 0.000000 0.052515 0.000000
# 6 0.000000 0.000000 0.000000 0.002057 0.000000 0.027568
#
#
# Mechanical properties :
#
#
# Convention : Reuss Voigt Hill
#
# Bulk Modulus (GPa) = 42.35520 43.17458 42.76489
# Shear Modulus (GPa) = 21.74624 24.41414 23.08019
#
# Velocity S-wave (km/s) = 3.35844 3.55850 3.45991
# Velocity P-wave (km/s) = 6.08336 6.26715 6.17594
#
# Compressibility (1/GPa) = 0.02360985
#
# Stress axis : x y z
#
# Youngs Moduli (GPa) = 36.91755 54.52892 48.75949
#
# Poissons Ratio (x) = 0.45525 0.43603
# Poissons Ratio (y) = 0.30821 0.18877
# Poissons Ratio (z) = 0.33013 0.21111
#
# Static dielectric constant tensor:
#      x y z
#    x 3.423660 0.000000 -0.027190 
#    y 0.000000 3.562820 0.000000 
#    z -0.027190 0.000000 3.640180 
# 
# 
# High freq. dielectric constant tensor:
#      x y z
#    x 1.749950 0.000000 0.001570 
#    y 0.000000 1.760710 0.000000 
#    z 0.001570 0.000000 1.758760 
# 
# From -- ./inp_files/172330.got.cif
#   From: 2010.06.25/outbox.cif.g09.slc.cpg/sg12_87_cif.got.tgz:172330.got - 2010.06.28 00:19:55.
