data_PCOD8107191
_publ_section_title
;
Structure prediction by ZEFSAII (Michael W. Deem and Ramdas Pophale) SiO2 
 PCOD8107191
Probable space group: C 2/M
;
_chemical_formula_sum "Si O2"
_cell_formula_units_Z 56
_cell_length_a 14.337551
_cell_length_b 8.785200
_cell_length_c 22.853188
_cell_angle_alpha 90.000000
_cell_angle_beta 88.197070
_cell_angle_gamma 90.000000
_cell_volume 2877.122620
_symmetry_space_group_name_H-M "C 2/M"
_symmetry_group_IT_number 12
_symmetry_cell_setting 'monoclinic'
loop_
_space_group_symop_operation_xyz
x,y,z
-x,y,-z
-x,-y,-z
x,-y,z
1/2+x,1/2+y,z
1/2-x,1/2+y,-z
1/2-x,1/2-y,-z
1/2+x,1/2-y,z
loop_
_atom_site_type_symbol
_atom_site_label
_atom_site_fract_x
_atom_site_fract_y
_atom_site_fract_z
Si Si1 0.173580 0.324033 0.921358
Si Si2 0.487719 0.323260 0.134058
Si Si3 0.002848 0.823121 0.431469
Si Si4 0.641979 0.822172 0.648479
Si Si5 0.011808 0.325937 0.254240
Si Si6 0.139760 0.676438 0.055087
Si Si7 0.843938 0.677445 0.648589
O O1 0.163355 0.500000 0.904775
O O2 0.119714 0.222596 0.874534
O O3 0.281327 0.277728 0.915741
O O4 0.133322 0.287824 0.986484
O O5 0.504622 0.500000 0.121553
O O6 0.517433 0.286168 0.199381
O O7 0.543120 0.221410 0.086382
O O8 0.097812 0.750139 0.405373
O O9 0.000000 0.792024 0.500000
O O10 0.910201 0.749341 0.406019
O O11 0.003230 0.000000 0.415742
O O12 0.581726 0.789918 0.707691
O O13 0.742686 0.750097 0.655261
O O14 0.652421 0.000000 0.636262
O O15 0.011334 0.500000 0.232278
O O16 0.102514 0.293113 0.291698
O O17 0.162416 0.500000 0.065135
O O18 0.834282 0.500000 0.635487
#
# Coordination Sequence:
#
# PCOD8107191 Si02
#       7
#     8   8   8   8   8   8   8
#     4  10  21  38  59  82 110 144 182 227 278 332
#     4  12  24  36  56  84 113 147 184 226 277 332
#     4  10  21  37  58  86 119 152 188 231 275 323
#     4  10  21  38  61  85 112 149 188 230 279 329
#     4   9  21  40  57  78 110 146 188 235 278 324
#     4  10  21  38  59  82 110 144 182 227 278 332
#     4  10  21  38  61  85 112 149 188 230 279 329
#
# _framework density 19.463889000000002
#
# number of rings (size 3 to 8) (size 9 to 14) (size 15 to 20)
#    0.000    1.857    0.000    4.714    0.000    9.714 
#    0.000    2.857    0.000    0.000    0.000    0.000 
#    0.000    0.000    0.000    0.000    0.000    0.000 
#
# Total GULP energy -347342.220511 kJ/mol
# GULP energy per Si atom -12405.079304 kJ/mol
# Density = 1.941959 g / cm^3
# Si number density = 19.463889 Si / 1000 Ang^3
#
#
#
# Elastic Constant Matrix: (Units=GPa)
#
#
# Indices 1 2 3 4 5 6 
#
# 1 126.5641 46.2200 31.8021 0.0000 9.9681 0.0000
# 2 46.2200 109.0102 46.7043 0.0000 6.9248 0.0000
# 3 31.8021 46.7043 56.2882 0.0000 12.8865 0.0000
# 4 0.0000 0.0000 0.0000 32.7697 0.0000 1.2460
# 5 9.9681 6.9248 12.8865 0.0000 16.7844 0.0000
# 6 0.0000 0.0000 0.0000 1.2460 0.0000 40.3907
#
#
#
# Elastic Compliance Matrix: (Units=1/GPa)
#
#
# Indices 1 2 3 4 5 6 
#
# 1 0.009807 -0.002913 -0.002506 0.000000 -0.002699 0.000000
# 2 -0.002913 0.015310 -0.012141 0.000000 0.004735 0.000000
# 3 -0.002506 -0.012141 0.033690 0.000000 -0.019368 0.000000
# 4 0.000000 0.000000 0.000000 0.030552 0.000000 -0.000942
# 5 -0.002699 0.004735 -0.019368 0.000000 0.074099 0.000000
# 6 0.000000 0.000000 0.000000 -0.000942 0.000000 0.024787
#
#
# Mechanical properties :
#
#
# Convention : Reuss Voigt Hill
#
# Bulk Modulus (GPa) = 42.21920 60.14616 51.18268
# Shear Modulus (GPa) = 21.62069 29.13136 25.37602
#
# Velocity S-wave (km/s) = 3.33650 3.87290 3.61466
# Velocity P-wave (km/s) = 6.04823 7.13916 6.61622
#
# Compressibility (1/GPa) = 0.02368591
#
# Stress axis : x y z
#
# Youngs Moduli (GPa) = 101.96582 65.31876 29.68273
#
# Poissons Ratio (x) = 0.19028 0.07439
# Poissons Ratio (y) = 0.29704 0.36038
# Poissons Ratio (z) = 0.25553 0.79304
#
# Static dielectric constant tensor:
#      x y z
#    x 3.571880 0.000000 0.043810 
#    y 0.000000 3.613150 0.000000 
#    z 0.043810 0.000000 3.407280 
# 
# 
# High freq. dielectric constant tensor:
#      x y z
#    x 1.765370 0.000000 0.006110 
#    y 0.000000 1.770890 0.000000 
#    z 0.006110 0.000000 1.750260 
# 
# From -- ./inp_files/309071.got.cif
#   From: 2010.06.25/outbox.cif.g09.slc.cpg/sg12_155_cif.got.tgz:309071.got - 2010.06.28 00:19:55.
