data_PCOD8107351
_publ_section_title
;
Structure prediction by ZEFSAII (Michael W. Deem and Ramdas Pophale) SiO2 
 PCOD8107351
Probable space group: C 2/M
;
_chemical_formula_sum "Si O2"
_cell_formula_units_Z 44
_cell_length_a 12.039797
_cell_length_b 23.126759
_cell_length_c 9.174625
_cell_angle_alpha 90.000000
_cell_angle_beta 57.764293
_cell_angle_gamma 90.000000
_cell_volume 2160.833066
_symmetry_space_group_name_H-M "C 2/M"
_symmetry_group_IT_number 12
_symmetry_cell_setting 'monoclinic'
loop_
_space_group_symop_operation_xyz
x,y,z
-x,y,-z
-x,-y,-z
x,-y,z
1/2+x,1/2+y,z
1/2-x,1/2+y,-z
1/2-x,1/2-y,-z
1/2+x,1/2-y,z
loop_
_atom_site_type_symbol
_atom_site_label
_atom_site_fract_x
_atom_site_fract_y
_atom_site_fract_z
Si Si1 0.135976 0.834079 0.633417
Si Si2 0.079315 0.284678 0.579494
Si Si3 0.500000 0.386119 0.000000
Si Si4 0.998554 0.618125 0.830344
Si Si5 0.728468 0.433652 0.033414
Si Si6 0.269942 0.433069 0.633415
O O1 0.049667 0.783889 0.617357
O O2 0.272722 0.801758 0.559417
O O3 0.141252 0.892346 0.532422
O O4 0.078845 0.846616 0.832368
O O5 0.027090 0.316991 0.759419
O O6 0.000000 0.309589 0.500000
O O7 0.602222 0.424844 0.019904
O O8 0.116769 0.575528 0.696591
O O9 0.000000 0.617967 0.000000
O O10 0.855325 0.598037 0.874847
O O11 0.767489 0.500000 0.011225
O O12 0.701109 0.413616 0.219623
O O13 0.309388 0.500000 0.578430
#
# Coordination Sequence:
#
# PCOD8107351 Si02
#       6
#     8   8   4   8   8   8
#     4  10  24  40  57  87 115 153 197 232 287 343
#     4  10  21  40  62  82 115 150 193 246 284 334
#     4  12  25  38  54  82 122 156 191 230 284 352
#     4   9  18  36  63  92 114 143 192 244 291 334
#     4  10  21  37  59  88 121 153 188 234 287 344
#     4   9  19  38  63  86 113 152 196 239 282 335
#
# _framework density 20.362517
#
# number of rings (size 3 to 8) (size 9 to 14) (size 15 to 20)
#    0.000    2.182    0.000    1.909    3.818    3.636 
#    0.000    3.636    0.000    6.000    0.000    0.000 
#    0.000    0.000    0.000    0.000    0.000    0.000 
#
# Total GULP energy -272716.637255 kJ/mol
# GULP energy per Si atom -12396.210784 kJ/mol
# Density = 2.031617 g / cm^3
# Si number density = 20.362517 Si / 1000 Ang^3
#
#
#
# Elastic Constant Matrix: (Units=GPa)
#
#
# Indices 1 2 3 4 5 6 
#
# 1 88.9773 20.5027 13.6844 0.0000 -0.9079 0.0000
# 2 20.5027 119.4165 56.9192 0.0000 -5.9857 0.0000
# 3 13.6844 56.9192 108.5359 0.0000 -10.7107 0.0000
# 4 0.0000 0.0000 0.0000 20.9831 0.0000 4.1556
# 5 -0.9079 -5.9857 -10.7107 0.0000 18.8829 0.0000
# 6 0.0000 0.0000 0.0000 4.1556 0.0000 18.3715
#
#
#
# Elastic Compliance Matrix: (Units=1/GPa)
#
#
# Indices 1 2 3 4 5 6 
#
# 1 0.011729 -0.001747 -0.000595 0.000000 -0.000327 0.000000
# 2 -0.001747 0.011426 -0.005744 0.000000 0.000280 0.000000
# 3 -0.000595 -0.005744 0.012837 0.000000 0.005432 0.000000
# 4 0.000000 0.000000 0.000000 0.049892 0.000000 -0.011286
# 5 -0.000327 0.000280 0.005432 0.000000 0.056112 0.000000
# 6 0.000000 0.000000 0.000000 -0.011286 0.000000 0.056985
#
#
# Mechanical properties :
#
#
# Convention : Reuss Voigt Hill
#
# Bulk Modulus (GPa) = 50.45307 55.46026 52.95666
# Shear Modulus (GPa) = 22.54687 26.70242 24.62465
#
# Velocity S-wave (km/s) = 3.33118 3.62519 3.48129
# Velocity P-wave (km/s) = 6.29499 6.69464 6.49789
#
# Compressibility (1/GPa) = 0.01982040
#
# Stress axis : x y z
#
# Youngs Moduli (GPa) = 85.25535 87.52052 77.89947
#
# Poissons Ratio (x) = 0.15286 0.04637
# Poissons Ratio (y) = 0.14890 0.44747
# Poissons Ratio (z) = 0.05075 0.50274
#
# Static dielectric constant tensor:
#      x y z
#    x 3.850940 0.000000 -0.135760 
#    y 0.000000 3.652330 0.000000 
#    z -0.135760 0.000000 3.732970 
# 
# 
# High freq. dielectric constant tensor:
#      x y z
#    x 1.797810 0.000000 -0.004940 
#    y 0.000000 1.794290 0.000000 
#    z -0.004940 0.000000 1.792620 
# 
# From -- ./inp_files/51191.got.cif
#   From: 2010.06.25/outbox.cif.g09.slc.cpg/sg12_26_cif.got.tgz:51191.got - 2010.06.28 00:19:55.
