data_PCOD8107887
_publ_section_title
;
Structure prediction by ZEFSAII (Michael W. Deem and Ramdas Pophale) SiO2 
 PCOD8107887
Probable space group: C 2/M
;
_chemical_formula_sum "Si O2"
_cell_formula_units_Z 64
_cell_length_a 30.739848
_cell_length_b 8.868506
_cell_length_c 26.593438
_cell_angle_alpha 90.000000
_cell_angle_beta 25.956749
_cell_angle_gamma 90.000000
_cell_volume 3173.188109
_symmetry_space_group_name_H-M "C 2/M"
_symmetry_group_IT_number 12
_symmetry_cell_setting 'monoclinic'
loop_
_space_group_symop_operation_xyz
x,y,z
-x,y,-z
-x,-y,-z
x,-y,z
1/2+x,1/2+y,z
1/2-x,1/2+y,-z
1/2-x,1/2-y,-z
1/2+x,1/2-y,z
loop_
_atom_site_type_symbol
_atom_site_label
_atom_site_fract_x
_atom_site_fract_y
_atom_site_fract_z
Si Si1 0.762156 0.677900 0.161975
Si Si2 0.278374 0.822328 0.522598
Si Si3 0.358789 0.179082 0.886377
Si Si4 0.907317 0.821612 0.937004
Si Si5 0.553320 0.176129 0.392221
Si Si6 0.019295 0.677008 0.640159
Si Si7 0.612209 0.324462 0.773649
Si Si8 0.609785 0.822055 0.877636
O O1 0.773582 0.500000 0.141346
O O2 0.648964 0.720360 0.287870
O O3 0.820369 0.735723 0.150473
O O4 0.806212 0.764852 0.068164
O O5 0.250000 0.750000 0.500000
O O6 0.380819 0.753234 0.438967
O O7 0.188395 0.777062 0.651872
O O8 0.287570 0.000000 0.505956
O O9 0.419746 0.239300 0.870846
O O10 0.420527 0.232216 0.772725
O O11 0.348305 0.000000 0.899559
O O12 0.250000 0.250000 0.000000
O O13 0.001507 0.773611 0.872816
O O14 0.901829 0.000000 0.933996
O O15 0.500000 0.218121 0.500000
O O16 0.485442 0.217866 0.414315
O O17 0.582915 0.000000 0.360655
O O18 0.026920 0.500000 0.638702
O O19 0.615314 0.500000 0.781965
O O20 0.650606 0.239625 0.782946
O O21 0.608008 0.000000 0.877310
O O22 0.500000 0.755086 0.000000
#
# Coordination Sequence:
#
# PCOD8107887 Si02
#       8
#     8   8   8   8   8   8   8   8
#     4  11  23  39  60  86 119 158 200 246 299 354
#     4  10  21  39  61  87 120 155 196 242 290 351
#     4  11  22  37  60  86 115 154 196 243 298 354
#     4  11  22  37  57  87 121 151 190 243 298 360
#     4  10  22  40  64  90 117 158 204 247 299 355
#     4   9  20  39  60  85 118 155 196 241 291 352
#     4  10  22  36  58  88 117 151 195 245 297 352
#     4  10  21  38  58  84 120 158 195 241 296 362
#
# _framework density 20.168989
#
# number of rings (size 3 to 8) (size 9 to 14) (size 15 to 20)
#    0.000    1.750    1.250    2.625    1.750    3.500 
#    0.000    1.875    0.000    0.000    0.000    0.000 
#    0.000    0.000    0.000    0.000    0.000    0.000 
#
# Total GULP energy -396858.234962 kJ/mol
# GULP energy per Si atom -12401.819843 kJ/mol
# Density = 2.012308 g / cm^3
# Si number density = 20.168989 Si / 1000 Ang^3
#
#
#
# Elastic Constant Matrix: (Units=GPa)
#
#
# Indices 1 2 3 4 5 6 
#
# 1 130.3841 23.8505 57.9611 0.0066 14.0448 -0.0046
# 2 23.8505 41.1381 29.4083 0.0020 5.3449 -0.0099
# 3 57.9611 29.4083 122.4819 -0.0016 5.8193 0.0000
# 4 0.0066 0.0020 -0.0016 25.6326 -0.0033 1.7503
# 5 14.0448 5.3449 5.8193 -0.0033 41.7191 0.0075
# 6 -0.0046 -0.0099 0.0000 1.7503 0.0075 33.3229
#
#
#
# Elastic Compliance Matrix: (Units=1/GPa)
#
#
# Indices 1 2 3 4 5 6 
#
# 1 0.010251 -0.002694 -0.004084 -0.000003 -0.002536 0.000001
# 2 -0.002694 0.030381 -0.005917 -0.000003 -0.002160 0.000009
# 3 -0.004084 -0.005917 0.011492 0.000002 0.000530 -0.000003
# 4 -0.000003 -0.000003 0.000002 0.039153 0.000005 -0.002057
# 5 -0.002536 -0.002160 0.000530 0.000005 0.025026 -0.000007
# 6 0.000001 0.000009 -0.000003 -0.002057 -0.000007 0.030117
#
#
# Mechanical properties :
#
#
# Convention : Reuss Voigt Hill
#
# Bulk Modulus (GPa) = 37.40477 57.38264 47.39370
# Shear Modulus (GPa) = 27.66668 32.32054 29.99361
#
# Velocity S-wave (km/s) = 3.70772 4.00745 3.86050
# Velocity P-wave (km/s) = 6.07582 7.06580 6.58943
#
# Compressibility (1/GPa) = 0.02673456
#
# Stress axis : x y z
#
# Youngs Moduli (GPa) = 97.55105 32.91540 87.01410
#
# Poissons Ratio (x) = 0.08869 0.35533
# Poissons Ratio (y) = 0.26285 0.51485
# Poissons Ratio (z) = 0.39836 0.19476
#
# Static dielectric constant tensor:
#      x y z
#    x 3.938350 -0.000040 0.041710 
#    y -0.000040 3.433260 0.000030 
#    z 0.041710 0.000030 3.774650 
# 
# 
# High freq. dielectric constant tensor:
#      x y z
#    x 1.804080 0.000000 0.004210 
#    y 0.000000 1.768440 0.000010 
#    z 0.004210 0.000010 1.794860 
# 
# From -- ./inp_files/353254.got.cif
#   From: 2010.06.25/outbox.cif.g09.slc.cpg/sg12_177_cif.got.tgz:353254.got - 2010.06.28 00:19:55.
