data_PCOD8107294
_publ_section_title
;
Structure prediction by ZEFSAII (Michael W. Deem and Ramdas Pophale) SiO2 
 PCOD8107294
Probable space group: C 2/M
;
_chemical_formula_sum "Si O2"
_cell_formula_units_Z 64
_cell_length_a 31.846432
_cell_length_b 8.897269
_cell_length_c 15.431551
_cell_angle_alpha 90.000000
_cell_angle_beta 133.843654
_cell_angle_gamma 90.000000
_cell_volume 3153.569982
_symmetry_space_group_name_H-M "C 2/M"
_symmetry_group_IT_number 12
_symmetry_cell_setting 'monoclinic'
loop_
_space_group_symop_operation_xyz
x,y,z
-x,y,-z
-x,-y,-z
x,-y,z
1/2+x,1/2+y,z
1/2-x,1/2+y,-z
1/2-x,1/2-y,-z
1/2+x,1/2-y,z
loop_
_atom_site_type_symbol
_atom_site_label
_atom_site_fract_x
_atom_site_fract_y
_atom_site_fract_z
Si Si1 0.160570 0.324259 0.334318
Si Si2 0.783974 0.824940 0.429381
Si Si3 0.844756 0.670771 0.996515
Si Si4 0.965312 0.824369 0.365330
Si Si5 0.457883 0.321985 0.862022
Si Si6 0.153463 0.670489 0.804749
Si Si7 0.239137 0.326763 0.774441
Si Si8 0.977750 0.677305 0.203699
O O1 0.147418 0.500000 0.320427
O O2 0.170282 0.262032 0.444947
O O3 0.217628 0.287014 0.359980
O O4 0.106368 0.242272 0.211029
O O5 0.793636 0.768272 0.345883
O O6 0.797870 0.000000 0.456878
O O7 0.836083 0.500000 0.952444
O O8 0.823574 0.690662 0.064935
O O9 0.911811 0.719544 0.083132
O O10 0.806092 0.776246 0.880151
O O11 0.898366 0.785298 0.287905
O O12 0.990786 0.735472 0.319131
O O13 0.000000 0.774387 0.500000
O O14 0.971721 0.000000 0.355428
O O15 0.455265 0.500000 0.851848
O O16 0.479279 0.256430 0.801514
O O17 0.500000 0.269085 0.000000
O O18 0.130186 0.500000 0.758840
O O19 0.206409 0.707035 0.817058
O O20 0.237873 0.500000 0.745850
O O21 0.988136 0.500000 0.216539
#
# Coordination Sequence:
#
# PCOD8107294 Si02
#       8
#     8   8   8   8   8   8   8   8
#     4  10  22  42  65  87 116 155 198 246 301 358
#     4  10  22  40  62  88 118 155 196 244 301 357
#     4   9  19  36  56  80 114 152 193 238 290 346
#     4  10  21  37  59  86 116 152 194 242 296 353
#     4  11  25  42  63  93 125 159 202 253 305 359
#     4   9  20  37  54  79 113 151 193 236 284 344
#     4  11  22  34  55  86 117 151 195 240 287 348
#     4  10  22  40  61  86 118 157 199 245 298 359
#
# _framework density 20.294460000000001
#
# number of rings (size 3 to 8) (size 9 to 14) (size 15 to 20)
#    0.000    2.000    0.000    3.375    1.750    8.000 
#    0.000    2.500    0.000    0.000    0.000    0.000 
#    0.000    0.000    0.000    0.000    0.000    0.000 
#
# Total GULP energy -396944.007132 kJ/mol
# GULP energy per Si atom -12404.500223 kJ/mol
# Density = 2.024827 g / cm^3
# Si number density = 20.294460 Si / 1000 Ang^3
#
#
#
# Elastic Constant Matrix: (Units=GPa)
#
#
# Indices 1 2 3 4 5 6 
#
# 1 48.8979 25.4907 16.0248 0.0000 0.6230 0.0000
# 2 25.4907 78.2782 41.1631 0.0000 0.8149 0.0000
# 3 16.0248 41.1631 100.8772 0.0000 2.8725 0.0000
# 4 0.0000 0.0000 0.0000 38.1958 0.0000 1.6675
# 5 0.6230 0.8149 2.8725 0.0000 22.9746 0.0000
# 6 0.0000 0.0000 0.0000 1.6675 0.0000 32.8438
#
#
#
# Elastic Compliance Matrix: (Units=1/GPa)
#
#
# Indices 1 2 3 4 5 6 
#
# 1 0.024687 -0.007612 -0.000807 0.000000 -0.000299 0.000000
# 2 -0.007612 0.018613 -0.006396 0.000000 0.000346 0.000000
# 3 -0.000807 -0.006396 0.012689 0.000000 -0.001338 0.000000
# 4 0.000000 0.000000 0.000000 0.026239 0.000000 -0.001332
# 5 -0.000299 0.000346 -0.001338 0.000000 0.043689 0.000000
# 6 0.000000 0.000000 0.000000 -0.001332 0.000000 0.030515
#
#
# Mechanical properties :
#
#
# Convention : Reuss Voigt Hill
#
# Bulk Modulus (GPa) = 37.93599 43.71229 40.82414
# Shear Modulus (GPa) = 25.66090 28.49450 27.07770
#
# Velocity S-wave (km/s) = 3.55974 3.75113 3.65669
# Velocity P-wave (km/s) = 5.96900 6.35194 6.16345
#
# Compressibility (1/GPa) = 0.02636019
#
# Stress axis : x y z
#
# Youngs Moduli (GPa) = 40.50701 53.72499 78.80700
#
# Poissons Ratio (x) = 0.40893 0.06362
# Poissons Ratio (y) = 0.30832 0.50404
# Poissons Ratio (z) = 0.03270 0.34362
#
# Static dielectric constant tensor:
#      x y z
#    x 3.600370 0.000000 -0.052950 
#    y 0.000000 3.659950 0.000000 
#    z -0.052950 0.000000 3.684210 
# 
# 
# High freq. dielectric constant tensor:
#      x y z
#    x 1.788330 0.000000 -0.005100 
#    y 0.000000 1.799090 0.000000 
#    z -0.005100 0.000000 1.795120 
# 
# From -- ./inp_files/250107.got.cif
#   From: 2010.06.25/outbox.cif.g09.slc.cpg/sg12_126_cif.got.tgz:250107.got - 2010.06.28 00:19:55.
