data_PCOD8107922
_publ_section_title
;
Structure prediction by ZEFSAII (Michael W. Deem and Ramdas Pophale) SiO2 
 PCOD8107922
Probable space group: C 2/M
;
_chemical_formula_sum "Si O2"
_cell_formula_units_Z 56
_cell_length_a 20.875520
_cell_length_b 8.961953
_cell_length_c 14.637818
_cell_angle_alpha 90.000000
_cell_angle_beta 90.486086
_cell_angle_gamma 90.000000
_cell_volume 2738.423910
_symmetry_space_group_name_H-M "C 2/M"
_symmetry_group_IT_number 12
_symmetry_cell_setting 'monoclinic'
loop_
_space_group_symop_operation_xyz
x,y,z
-x,y,-z
-x,-y,-z
x,-y,z
1/2+x,1/2+y,z
1/2-x,1/2+y,-z
1/2-x,1/2-y,-z
1/2+x,1/2-y,z
loop_
_atom_site_type_symbol
_atom_site_label
_atom_site_fract_x
_atom_site_fract_y
_atom_site_fract_z
Si Si1 0.005566 0.337654 0.107448
Si Si2 0.573194 0.823693 0.604916
Si Si3 0.430103 0.175971 0.601211
Si Si4 0.635544 0.176045 0.901632
Si Si5 0.869522 0.824870 0.904075
Si Si6 0.321304 0.328563 0.269649
Si Si7 0.320955 0.827646 0.734064
O O1 0.024393 0.500000 0.150465
O O2 0.059241 0.216436 0.131973
O O3 0.935406 0.288041 0.140308
O O4 0.000000 0.357843 0.000000
O O5 0.579928 0.763234 0.501457
O O6 0.501260 0.781741 0.639378
O O7 0.627259 0.745251 0.664155
O O8 0.584051 0.000000 0.611823
O O9 0.374387 0.240249 0.665914
O O10 0.423946 0.000000 0.595321
O O11 0.682671 0.249221 0.829166
O O12 0.647357 0.000000 0.910376
O O13 0.647080 0.247157 0.000626
O O14 0.820577 0.766536 0.827576
O O15 0.863554 0.000000 0.917301
O O16 0.340068 0.500000 0.255844
O O17 0.249806 0.311945 0.311131
O O18 0.336021 0.000000 0.757141
#
# Coordination Sequence:
#
# PCOD8107922 Si02
#       7
#     8   8   8   8   8   8   8
#     4   8  16  32  53  77 104 142 190 231 278 342
#     4   9  18  37  65  92 114 145 194 245 287 345
#     4   8  17  37  65  90 112 148 198 239 280 346
#     4  10  21  38  59  80 110 157 203 239 283 348
#     4  11  22  35  55  85 118 150 191 247 297 338
#     4  11  24  38  55  85 122 156 193 243 298 344
#     4  10  22  40  58  80 117 163 202 234 282 354
#
# _framework density 20.449718000000001
#
# number of rings (size 3 to 8) (size 9 to 14) (size 15 to 20)
#    0.000    2.429    0.000    3.857    2.000    5.429 
#    0.000    2.143    0.000    0.000    0.000    0.000 
#    0.000    0.000    0.000    0.000    0.000    0.000 
#
# Total GULP energy -347088.072206 kJ/mol
# GULP energy per Si atom -12396.002579 kJ/mol
# Density = 2.040317 g / cm^3
# Si number density = 20.449718 Si / 1000 Ang^3
#
#
#
# Elastic Constant Matrix: (Units=GPa)
#
#
# Indices 1 2 3 4 5 6 
#
# 1 132.7927 48.1854 66.7564 0.0000 -0.0262 0.0000
# 2 48.1854 103.2900 48.2172 0.0000 4.1761 0.0000
# 3 66.7564 48.2172 97.6658 0.0000 1.9338 0.0000
# 4 0.0000 0.0000 0.0000 19.2963 0.0000 3.0107
# 5 -0.0262 4.1761 1.9338 0.0000 26.3784 0.0000
# 6 0.0000 0.0000 0.0000 3.0107 0.0000 23.4776
#
#
#
# Elastic Compliance Matrix: (Units=1/GPa)
#
#
# Indices 1 2 3 4 5 6 
#
# 1 0.011891 -0.002314 -0.007003 0.000000 0.000892 0.000000
# 2 -0.002314 0.013094 -0.004849 0.000000 -0.001720 0.000000
# 3 -0.007003 -0.004849 0.017429 0.000000 -0.000517 0.000000
# 4 0.000000 0.000000 0.000000 0.052882 0.000000 -0.006781
# 5 0.000892 -0.001720 -0.000517 0.000000 0.038221 0.000000
# 6 0.000000 0.000000 0.000000 -0.006781 0.000000 0.043463
#
#
# Mechanical properties :
#
#
# Convention : Reuss Voigt Hill
#
# Bulk Modulus (GPa) = 71.00656 73.34072 72.17364
# Shear Modulus (GPa) = 23.80892 25.20311 24.50601
#
# Velocity S-wave (km/s) = 3.41584 3.51442 3.46548
# Velocity P-wave (km/s) = 7.09614 7.23948 7.16816
#
# Compressibility (1/GPa) = 0.01408321
#
# Stress axis : x y z
#
# Youngs Moduli (GPa) = 84.09869 76.37087 57.37410
#
# Poissons Ratio (x) = 0.17674 0.40177
# Poissons Ratio (y) = 0.19462 0.27818
# Poissons Ratio (z) = 0.58892 0.37029
#
# Static dielectric constant tensor:
#      x y z
#    x 4.071090 0.000000 -0.253790 
#    y 0.000000 3.442200 0.000000 
#    z -0.253790 0.000000 3.761450 
# 
# 
# High freq. dielectric constant tensor:
#      x y z
#    x 1.806550 0.000000 -0.001940 
#    y 0.000000 1.773640 0.000000 
#    z -0.001940 0.000000 1.792710 
# 
# From -- ./inp_files/231045.got.cif
#   From: 2010.06.25/outbox.cif.g09.slc.cpg/sg12_116_cif.got.tgz:231045.got - 2010.06.28 00:19:55.
