data_PCOD8107215
_publ_section_title
;
Structure prediction by ZEFSAII (Michael W. Deem and Ramdas Pophale) SiO2 
 PCOD8107215
Probable space group: C 2/M
;
_chemical_formula_sum "Si O2"
_cell_formula_units_Z 56
_cell_length_a 14.435252
_cell_length_b 8.884994
_cell_length_c 23.757802
_cell_angle_alpha 90.000000
_cell_angle_beta 81.061833
_cell_angle_gamma 90.000000
_cell_volume 3010.105157
_symmetry_space_group_name_H-M "C 2/M"
_symmetry_group_IT_number 12
_symmetry_cell_setting 'monoclinic'
loop_
_space_group_symop_operation_xyz
x,y,z
-x,y,-z
-x,-y,-z
x,-y,z
1/2+x,1/2+y,z
1/2-x,1/2+y,-z
1/2-x,1/2-y,-z
1/2+x,1/2-y,z
loop_
_atom_site_type_symbol
_atom_site_label
_atom_site_fract_x
_atom_site_fract_y
_atom_site_fract_z
Si Si1 0.613220 0.176309 0.642361
Si Si2 0.905454 0.177472 0.855838
Si Si3 0.186046 0.323515 0.357654
Si Si4 0.536624 0.672581 0.939091
Si Si5 0.439456 0.828371 0.736333
Si Si6 0.752371 0.827151 0.060246
Si Si7 0.017253 0.826403 0.432819
O O1 0.711831 0.250548 0.648518
O O2 0.540892 0.205650 0.700021
O O3 0.570010 0.248215 0.590204
O O4 0.627658 0.000000 0.630163
O O5 0.926132 0.221410 0.790326
O O6 0.810273 0.248236 0.887341
O O7 0.987797 0.242071 0.888481
O O8 0.895932 0.000000 0.859206
O O9 0.193546 0.500000 0.369692
O O10 0.143180 0.293190 0.300070
O O11 0.116517 0.251277 0.409911
O O12 0.504127 0.500000 0.945455
O O13 0.646320 0.690399 0.921942
O O14 0.500000 0.752941 0.000000
O O15 0.433208 0.000000 0.757222
O O16 0.723374 0.000000 0.054862
O O17 0.750000 0.750000 0.000000
O O18 0.000000 0.807940 0.500000
O O19 0.021948 0.000000 0.413787
#
# Coordination Sequence:
#
# PCOD8107215 Si02
#       7
#     8   8   8   8   8   8   8
#     4  10  21  38  61  86 116 154 195 242 292 343
#     4  11  22  37  58  82 107 143 185 225 277 338
#     4  10  21  38  61  85 115 156 197 239 292 346
#     4   9  18  35  55  75 105 140 173 211 264 332
#     4   9  21  40  57  80 113 146 184 235 288 335
#     4  11  21  36  57  79 107 140 176 221 272 331
#     4  10  21  37  58  87 122 158 198 242 288 340
#
# _framework density 18.604001
#
# number of rings (size 3 to 8) (size 9 to 14) (size 15 to 20)
#    0.000    2.000    1.429    3.000    0.000    6.286 
#    0.000    7.857    0.000    0.000    0.000    0.000 
#    0.000    0.000    0.000    0.000    0.000    0.000 
#
# Total GULP energy -347212.292064 kJ/mol
# GULP energy per Si atom -12400.439002 kJ/mol
# Density = 1.856166 g / cm^3
# Si number density = 18.604001 Si / 1000 Ang^3
#
#
#
# Elastic Constant Matrix: (Units=GPa)
#
#
# Indices 1 2 3 4 5 6 
#
# 1 144.9760 72.5022 64.6089 0.0000 4.6514 0.0000
# 2 72.5022 123.8593 66.6798 0.0000 -1.2188 0.0000
# 3 64.6089 66.6798 115.6732 0.0000 -1.8822 0.0000
# 4 0.0000 0.0000 0.0000 34.5386 0.0000 -2.4520
# 5 4.6514 -1.2188 -1.8822 0.0000 19.6024 0.0000
# 6 0.0000 0.0000 0.0000 -2.4520 0.0000 34.9166
#
#
#
# Elastic Compliance Matrix: (Units=1/GPa)
#
#
# Indices 1 2 3 4 5 6 
#
# 1 0.010794 -0.004460 -0.003510 0.000000 -0.003176 0.000000
# 2 -0.004460 0.013550 -0.005297 0.000000 0.001392 0.000000
# 3 -0.003510 -0.005297 0.013688 0.000000 0.001818 0.000000
# 4 0.000000 0.000000 0.000000 0.029098 0.000000 0.002043
# 5 -0.003176 0.001392 0.001818 0.000000 0.052029 0.000000
# 6 0.000000 0.000000 0.000000 0.002043 0.000000 0.028783
#
#
# Mechanical properties :
#
#
# Convention : Reuss Voigt Hill
#
# Bulk Modulus (GPa) = 86.96579 88.01004 87.48792
# Shear Modulus (GPa) = 28.04122 29.85936 28.95029
#
# Velocity S-wave (km/s) = 3.88657 4.01059 3.94906
# Velocity P-wave (km/s) = 8.18461 8.29796 8.24148
#
# Compressibility (1/GPa) = 0.01149877
#
# Stress axis : x y z
#
# Youngs Moduli (GPa) = 92.64181 73.80155 73.05529
#
# Poissons Ratio (x) = 0.32918 0.25639
# Poissons Ratio (y) = 0.41322 0.38696
# Poissons Ratio (z) = 0.32514 0.39091
#
# Static dielectric constant tensor:
#      x y z
#    x 3.408140 0.000000 0.132870 
#    y 0.000000 3.501390 0.000000 
#    z 0.132870 0.000000 3.361280 
# 
# 
# High freq. dielectric constant tensor:
#      x y z
#    x 1.731710 0.000000 0.001970 
#    y 0.000000 1.724600 0.000000 
#    z 0.001970 0.000000 1.722600 
# 
# From -- ./inp_files/308936.got.cif
#   From: 2010.06.25/outbox.cif.g09.slc.cpg/sg12_155_cif.got.tgz:308936.got - 2010.06.28 00:19:55.
