data_PCOD8107564
_publ_section_title
;
Structure prediction by ZEFSAII (Michael W. Deem and Ramdas Pophale) SiO2 
 PCOD8107564
Probable space group: C 2/M
;
_chemical_formula_sum "Si O2"
_cell_formula_units_Z 52
_cell_length_a 9.248159
_cell_length_b 18.067395
_cell_length_c 19.930887
_cell_angle_alpha 90.000000
_cell_angle_beta 49.177535
_cell_angle_gamma 90.000000
_cell_volume 2520.132967
_symmetry_space_group_name_H-M "C 2/M"
_symmetry_group_IT_number 12
_symmetry_cell_setting 'monoclinic'
loop_
_space_group_symop_operation_xyz
x,y,z
-x,y,-z
-x,-y,-z
x,-y,z
1/2+x,1/2+y,z
1/2-x,1/2+y,-z
1/2-x,1/2-y,-z
1/2+x,1/2-y,z
loop_
_atom_site_type_symbol
_atom_site_label
_atom_site_fract_x
_atom_site_fract_y
_atom_site_fract_z
Si Si1 0.070045 0.920994 0.220087
Si Si2 0.895818 0.781565 0.643122
Si Si3 0.000000 0.664086 0.500000
Si Si4 0.508018 0.737039 0.235021
Si Si5 0.378213 0.418619 0.419459
Si Si6 0.997126 0.415567 0.925927
Si Si7 0.719514 0.695172 0.947503
O O1 0.956557 0.931498 0.322154
O O2 0.988580 0.846914 0.209125
O O3 0.292865 0.906584 0.169789
O O4 0.049072 0.000000 0.185595
O O5 0.925589 0.714495 0.583161
O O6 0.672223 0.787795 0.729311
O O7 0.998063 0.766000 0.682600
O O8 0.983929 0.857975 0.585671
O O9 0.836416 0.612286 0.518998
O O10 0.699407 0.771725 0.146591
O O11 0.378563 0.500000 0.455702
O O12 0.932127 0.500000 0.951073
O O13 0.837705 0.378348 0.928023
O O14 0.000000 0.379882 0.000000
O O15 0.500000 0.675815 0.000000
O O16 0.750000 0.750000 0.000000
#
# Coordination Sequence:
#
# PCOD8107564 Si02
#       7
#     8   8   4   8   8   8   8
#     4   9  17  34  57  83 114 153 200 243 294 360
#     4  11  22  39  63  89 122 161 208 251 308 371
#     4  12  21  40  65  90 120 158 214 254 305 376
#     4  11  22  38  60  90 122 162 200 253 305 361
#     4  10  21  37  61  89 120 158 200 253 307 366
#     4  10  21  38  62  88 119 161 207 250 303 372
#     4  12  23  37  60  90 125 158 205 256 302 361
#
# _framework density 20.633831000000001
#
# number of rings (size 3 to 8) (size 9 to 14) (size 15 to 20)
#    0.000    1.385    3.077    5.769    0.000    0.308 
#    0.000    0.385    0.000    5.538    0.000    0.000 
#    0.000    0.000    0.000    0.000    0.000    0.000 
#
# Total GULP energy -322149.034358 kJ/mol
# GULP energy per Si atom -12390.347475 kJ/mol
# Density = 2.058687 g / cm^3
# Si number density = 20.633831 Si / 1000 Ang^3
#
#
#
# Elastic Constant Matrix: (Units=GPa)
#
#
# Indices 1 2 3 4 5 6 
#
# 1 67.7845 45.2485 15.7782 -0.0007 -22.5391 -0.0004
# 2 45.2485 119.3357 24.2589 0.0008 -14.4039 -0.0009
# 3 15.7782 24.2589 78.6901 -0.0022 -18.9563 0.0005
# 4 -0.0007 0.0008 -0.0022 23.7692 0.0009 -5.3919
# 5 -22.5391 -14.4039 -18.9563 0.0009 42.1765 0.0001
# 6 -0.0004 -0.0009 0.0005 -5.3919 0.0001 33.2026
#
#
#
# Elastic Compliance Matrix: (Units=1/GPa)
#
#
# Indices 1 2 3 4 5 6 
#
# 1 0.023034 -0.007570 0.000065 0.000001 0.009753 0.000000
# 2 -0.007570 0.011586 -0.002327 -0.000001 -0.001134 0.000000
# 3 0.000065 -0.002327 0.014836 0.000001 0.005908 0.000000
# 4 0.000001 -0.000001 0.000001 0.043680 0.000000 0.007093
# 5 0.009753 -0.001134 0.005908 0.000000 0.031190 0.000000
# 6 0.000000 0.000000 0.000000 0.007093 0.000000 0.031270
#
#
# Mechanical properties :
#
#
# Convention : Reuss Voigt Hill
#
# Bulk Modulus (GPa) = 33.56737 48.48682 41.02709
# Shear Modulus (GPa) = 26.99927 31.86464 29.43195
#
# Velocity S-wave (km/s) = 3.62124 3.93401 3.78086
# Velocity P-wave (km/s) = 5.81274 6.64718 6.24391
#
# Compressibility (1/GPa) = 0.02979084
#
# Stress axis : x y z
#
# Youngs Moduli (GPa) = 43.41501 86.31080 67.40484
#
# Poissons Ratio (x) = 0.65333 -0.00435
# Poissons Ratio (y) = 0.32863 0.15687
# Poissons Ratio (z) = -0.00280 0.20087
#
# Static dielectric constant tensor:
#      x y z
#    x 3.551230 0.000000 -0.243160 
#    y 0.000000 4.524010 0.000000 
#    z -0.243160 0.000000 3.835090 
# 
# 
# High freq. dielectric constant tensor:
#      x y z
#    x 1.768360 0.000000 -0.025060 
#    y 0.000000 1.820600 0.000000 
#    z -0.025060 0.000000 1.820240 
# 
# From -- ./inp_files/301067.got.cif
#   From: 2010.06.25/outbox.cif.g09.slc.cpg/sg12_151_cif.got.tgz:301067.got - 2010.06.28 00:19:55.
