data_PCOD8107014
_publ_section_title
;
Structure prediction by ZEFSAII (Michael W. Deem and Ramdas Pophale) SiO2 
 PCOD8107014
Probable space group: C 2/M
;
_chemical_formula_sum "Si O2"
_cell_formula_units_Z 64
_cell_length_a 12.064423
_cell_length_b 16.798870
_cell_length_c 24.043684
_cell_angle_alpha 90.000000
_cell_angle_beta 39.748422
_cell_angle_gamma 90.000000
_cell_volume 3115.820116
_symmetry_space_group_name_H-M "C 2/M"
_symmetry_group_IT_number 12
_symmetry_cell_setting 'monoclinic'
loop_
_space_group_symop_operation_xyz
x,y,z
-x,y,-z
-x,-y,-z
x,-y,z
1/2+x,1/2+y,z
1/2-x,1/2+y,-z
1/2-x,1/2-y,-z
1/2+x,1/2-y,z
loop_
_atom_site_type_symbol
_atom_site_label
_atom_site_fract_x
_atom_site_fract_y
_atom_site_fract_z
Si Si1 0.224513 0.909520 0.352576
Si Si2 0.709432 0.594498 0.761978
Si Si3 0.034306 0.591353 0.151515
Si Si4 0.485897 0.407540 0.747359
Si Si5 0.104839 0.348196 0.905865
Si Si6 0.400628 0.405236 0.414480
Si Si7 0.597596 0.094595 0.607322
Si Si8 0.655467 0.337096 0.900625
O O1 0.347708 0.904754 0.251776
O O2 0.309642 0.867674 0.373766
O O3 0.041794 0.870702 0.404181
O O4 0.189571 0.000000 0.383789
O O5 0.711162 0.500000 0.759959
O O6 0.586835 0.630768 0.760947
O O7 0.632182 0.620858 0.850552
O O8 0.903419 0.629334 0.677666
O O9 0.095017 0.500000 0.120324
O O10 0.166125 0.638038 0.139810
O O11 0.021362 0.635463 0.097469
O O12 0.529497 0.500000 0.729560
O O13 0.280756 0.397534 0.831986
O O14 0.562179 0.368848 0.661025
O O15 0.154437 0.256586 0.891620
O O16 0.000000 0.378112 0.000000
O O17 0.423548 0.500000 0.403102
O O18 0.208696 0.381391 0.509805
O O19 0.584445 0.000000 0.618648
O O20 0.500000 0.365567 0.000000
#
# Coordination Sequence:
#
# PCOD8107014 Si02
#       8
#     8   8   8   8   8   8   8   8
#     4   9  15  28  50  83 118 144 187 248 300 342
#     4  10  21  37  57  85 120 156 198 248 301 361
#     4  11  22  40  67  94 121 157 206 259 305 356
#     4  10  21  37  57  85 120 156 198 248 301 361
#     4  11  26  42  62  87 122 159 203 251 307 367
#     4   9  16  28  50  82 118 153 191 243 303 356
#     4   9  16  28  50  82 118 153 191 243 303 356
#     4  11  26  42  62  87 122 159 203 251 307 367
#
# _framework density 20.540338999999999
#
# number of rings (size 3 to 8) (size 9 to 14) (size 15 to 20)
#    0.000    2.000    2.500    1.125    3.500    5.000 
#    0.000    2.500    0.000    0.750    0.000    0.000 
#    0.000    0.000    0.000    0.000    0.000    0.000 
#
# Total GULP energy -396747.065677 kJ/mol
# GULP energy per Si atom -12398.345802 kJ/mol
# Density = 2.049359 g / cm^3
# Si number density = 20.540339 Si / 1000 Ang^3
#
#
#
# Elastic Constant Matrix: (Units=GPa)
#
#
# Indices 1 2 3 4 5 6 
#
# 1 132.3572 14.5437 41.2658 -0.0002 21.2700 -0.0002
# 2 14.5437 35.9492 9.1728 0.0041 3.8377 0.0000
# 3 41.2658 9.1728 121.7025 0.0084 15.9567 0.0010
# 4 -0.0002 0.0041 0.0084 -2.9619 -0.0029 -5.0370
# 5 21.2700 3.8377 15.9567 -0.0029 33.4617 -0.0004
# 6 -0.0002 0.0000 0.0010 -5.0370 -0.0004 19.4026
#
#
#
# Elastic Compliance Matrix: (Units=1/GPa)
#
#
# Indices 1 2 3 4 5 6 
#
# 1 0.009308 -0.002684 -0.002366 -0.000005 -0.004480 -0.000001
# 2 -0.002684 0.029315 -0.001155 0.000026 -0.001106 0.000007
# 3 -0.002366 -0.001155 0.009485 0.000020 -0.002886 0.000005
# 4 -0.000005 0.000026 0.000020 -0.234216 -0.000031 -0.060804
# 5 -0.004480 -0.001106 -0.002886 -0.000031 0.034236 -0.000007
# 6 -0.000001 0.000007 0.000005 -0.060804 -0.000007 0.035754
#
#
# Mechanical properties :
#
#
# Convention : Reuss Voigt Hill
#
# Bulk Modulus (GPa) = 28.01216 46.66374 37.33795
# Shear Modulus (GPa) = -54.46082 24.98227 -14.73927
#
# Velocity S-wave (km/s) = -5.15477 3.49127 -2.68167
# Velocity P-wave (km/s) = 4.66493 6.24655 2.93749
#
# Compressibility (1/GPa) = 0.03569878
#
# Stress axis : x y z
#
# Youngs Moduli (GPa) = 107.43489 34.11186 105.43442
#
# Poissons Ratio (x) = 0.09154 0.24950
# Poissons Ratio (y) = 0.28831 0.12174
# Poissons Ratio (z) = 0.25423 0.03939
#
# Static dielectric constant tensor:
#      x y z
#    x 4.019120 0.000000 0.078780 
#    y 0.000000 3.231250 0.000000 
#    z 0.078780 0.000000 3.888040 
# 
# 
# High freq. dielectric constant tensor:
#      x y z
#    x 1.817400 0.000000 0.004450 
#    y 0.000000 1.748370 0.000000 
#    z 0.004450 0.000000 1.815220 
# 
# From -- ./inp_files/336667.got.cif
#   From: 2010.06.25/outbox.cif.g09.slc.cpg/sg12_169_cif.got.tgz:336667.got - 2010.06.28 00:19:55.
