data_PCOD8107892
_publ_section_title
;
Structure prediction by ZEFSAII (Michael W. Deem and Ramdas Pophale) SiO2 
 PCOD8107892
Probable space group: C 2/M
;
_chemical_formula_sum "Si O2"
_cell_formula_units_Z 64
_cell_length_a 15.429615
_cell_length_b 8.889659
_cell_length_c 32.839805
_cell_angle_alpha 90.000000
_cell_angle_beta 46.406646
_cell_angle_gamma 90.000000
_cell_volume 3262.348660
_symmetry_space_group_name_H-M "C 2/M"
_symmetry_group_IT_number 12
_symmetry_cell_setting 'monoclinic'
loop_
_space_group_symop_operation_xyz
x,y,z
-x,y,-z
-x,-y,-z
x,-y,z
1/2+x,1/2+y,z
1/2-x,1/2+y,-z
1/2-x,1/2-y,-z
1/2+x,1/2-y,z
loop_
_atom_site_type_symbol
_atom_site_label
_atom_site_fract_x
_atom_site_fract_y
_atom_site_fract_z
Si Si1 0.387399 0.675358 0.129126
Si Si2 0.655418 0.677137 0.060325
Si Si3 0.197890 0.177612 0.138977
Si Si4 0.048528 0.177933 0.361630
Si Si5 0.096370 0.820912 0.436761
Si Si6 0.361254 0.826132 0.369391
Si Si7 0.276659 0.675297 0.251914
Si Si8 0.031073 0.674358 0.753090
O O1 0.382313 0.500000 0.119366
O O2 0.523326 0.731036 0.090395
O O3 0.328955 0.772135 0.111742
O O4 0.316161 0.708965 0.193391
O O5 0.666628 0.500000 0.053200
O O6 0.682260 0.729417 0.097527
O O7 0.750000 0.750000 0.000000
O O8 0.102097 0.264706 0.197595
O O9 0.179762 0.000000 0.149741
O O10 0.064339 0.239893 0.402321
O O11 0.152711 0.240835 0.299313
O O12 0.920797 0.232760 0.386529
O O13 0.054964 0.000000 0.358540
O O14 0.227559 0.762365 0.406605
O O15 0.000000 0.756802 0.500000
O O16 0.095586 0.000000 0.436616
O O17 0.437225 0.802229 0.304080
O O18 0.358315 0.000000 0.383084
O O19 0.257268 0.500000 0.265913
O O20 0.378359 0.731806 0.249096
O O21 0.039636 0.500000 0.762718
#
# Coordination Sequence:
#
# PCOD8107892 Si02
#       8
#     8   8   8   8   8   8   8   8
#     4  10  22  41  61  86 120 156 193 237 291 353
#     4  10  23  43  62  84 118 155 198 244 291 341
#     4  11  23  40  61  90 122 154 194 242 291 345
#     4  11  22  37  58  89 118 150 197 241 287 350
#     4   9  19  38  60  80 112 157 198 240 292 346
#     4  10  21  38  58  85 118 154 192 237 294 349
#     4  11  21  37  61  87 121 157 189 236 295 346
#     4  11  21  36  60  89 120 155 194 234 288 355
#
# _framework density 19.617768999999999
#
# number of rings (size 3 to 8) (size 9 to 14) (size 15 to 20)
#    0.000    1.625    2.500    2.250    0.000    7.500 
#    0.000    2.500    0.000    2.625    0.000    0.000 
#    0.000    0.000    0.000    0.000    0.000    0.000 
#
# Total GULP energy -396950.098811 kJ/mol
# GULP energy per Si atom -12404.690588 kJ/mol
# Density = 1.957312 g / cm^3
# Si number density = 19.617769 Si / 1000 Ang^3
#
#
#
# Elastic Constant Matrix: (Units=GPa)
#
#
# Indices 1 2 3 4 5 6 
#
# 1 170.7297 41.3402 70.8576 0.0003 -12.0671 0.0006
# 2 41.3402 46.4494 42.4655 0.0005 -2.8201 0.0010
# 3 70.8576 42.4655 134.8881 0.0000 -16.2712 0.0000
# 4 0.0003 0.0005 0.0000 18.8764 -0.0004 -1.1182
# 5 -12.0671 -2.8201 -16.2712 -0.0004 13.8163 0.0000
# 6 0.0006 0.0010 0.0000 -1.1182 0.0000 39.7139
#
#
#
# Elastic Compliance Matrix: (Units=1/GPa)
#
#
# Indices 1 2 3 4 5 6 
#
# 1 0.008295 -0.005012 -0.002365 0.000000 0.003437 0.000000
# 2 -0.005012 0.033672 -0.008936 -0.000001 -0.008029 -0.000001
# 3 -0.002365 -0.008936 0.012822 0.000001 0.011210 0.000000
# 4 0.000000 -0.000001 0.000001 0.053065 0.000002 0.001494
# 5 0.003437 -0.008029 0.011210 0.000002 0.086943 0.000000
# 6 0.000000 -0.000001 0.000000 0.001494 0.000000 0.025222
#
#
# Mechanical properties :
#
#
# Convention : Reuss Voigt Hill
#
# Bulk Modulus (GPa) = 45.12233 73.48820 59.30526
# Shear Modulus (GPa) = 19.22838 27.64156 23.43497
#
# Velocity S-wave (km/s) = 3.13413 3.75775 3.46002
# Velocity P-wave (km/s) = 6.01230 7.50792 6.80135
#
# Compressibility (1/GPa) = 0.02216198
#
# Stress axis : x y z
#
# Youngs Moduli (GPa) = 120.55021 29.69852 77.99396
#
# Poissons Ratio (x) = 0.14885 0.18447
# Poissons Ratio (y) = 0.60419 0.69697
# Poissons Ratio (z) = 0.28512 0.26539
#
# Static dielectric constant tensor:
#      x y z
#    x 1.600820 0.000000 0.788660 
#    y 0.000000 3.429740 0.000000 
#    z 0.788660 0.000000 3.430400 
# 
# 
# High freq. dielectric constant tensor:
#      x y z
#    x 1.782890 0.000000 -0.002580 
#    y 0.000000 1.751910 0.000000 
#    z -0.002580 0.000000 1.761850 
# 
# From -- ./inp_files/360000.got.cif
#   From: 2010.06.25/outbox.cif.g09.slc.cpg/sg12_180_cif.got.tgz:360000.got - 2010.06.28 00:19:55.
