data_PCOD8107897
_publ_section_title
;
Structure prediction by ZEFSAII (Michael W. Deem and Ramdas Pophale) SiO2 
 PCOD8107897
Probable space group: C 2/M
;
_chemical_formula_sum "Si O2"
_cell_formula_units_Z 56
_cell_length_a 26.593381
_cell_length_b 14.520667
_cell_length_c 12.047443
_cell_angle_alpha 90.000000
_cell_angle_beta 39.404376
_cell_angle_gamma 90.000000
_cell_volume 2953.144898
_symmetry_space_group_name_H-M "C 2/M"
_symmetry_group_IT_number 12
_symmetry_cell_setting 'monoclinic'
loop_
_space_group_symop_operation_xyz
x,y,z
-x,y,-z
-x,-y,-z
x,-y,z
1/2+x,1/2+y,z
1/2-x,1/2+y,-z
1/2-x,1/2-y,-z
1/2+x,1/2-y,z
loop_
_atom_site_type_symbol
_atom_site_label
_atom_site_fract_x
_atom_site_fract_y
_atom_site_fract_z
Si Si1 0.826338 0.303198 0.679399
Si Si2 0.924458 0.777045 0.693963
Si Si3 0.990093 0.396831 0.357886
Si Si4 0.843540 0.890495 0.023153
Si Si5 0.593442 0.396999 0.844680
Si Si6 0.671813 0.253295 0.564415
Si Si7 0.950333 0.603951 0.184500
O O1 0.848656 0.234406 0.742321
O O2 0.898379 0.374187 0.539303
O O3 0.746640 0.359029 0.842181
O O4 0.813685 0.239485 0.592124
O O5 0.000000 0.821338 0.500000
O O6 0.949843 0.674277 0.688631
O O7 0.901209 0.841820 0.835856
O O8 0.008629 0.500000 0.369929
O O9 0.004453 0.391521 0.201689
O O10 0.872926 0.859486 0.095266
O O11 0.850595 0.000000 0.995039
O O12 0.625711 0.500000 0.772909
O O13 0.620882 0.339401 0.691745
O O14 0.500000 0.394113 0.000000
O O15 0.750000 0.250000 0.500000
O O16 0.630589 0.157143 0.661482
O O17 0.926409 0.500000 0.194464
O O18 0.000000 0.649815 0.000000
#
# Coordination Sequence:
#
# PCOD8107897 Si02
#       7
#     8   8   8   8   8   8   8
#     4  10  21  38  58  86 117 148 189 236 284 350
#     4  10  23  38  59  88 115 148 196 240 282 341
#     4   9  19  35  58  86 115 148 185 233 286 337
#     4  11  23  40  61  83 115 156 193 237 286 338
#     4  10  23  39  59  86 114 152 202 238 275 339
#     4  11  21  35  60  84 115 151 182 234 293 331
#     4   9  19  33  53  83 115 148 184 224 279 344
#
# _framework density 18.962834999999998
#
# number of rings (size 3 to 8) (size 9 to 14) (size 15 to 20)
#    0.000    2.000    1.429    1.286    8.000    4.571 
#    0.000    0.714    0.000    0.857    0.000    0.000 
#    0.000    0.000    0.000    0.000    0.000    0.000 
#
# Total GULP energy -347155.536083 kJ/mol
# GULP energy per Si atom -12398.412003 kJ/mol
# Density = 1.891967 g / cm^3
# Si number density = 18.962835 Si / 1000 Ang^3
#
#
#
# Elastic Constant Matrix: (Units=GPa)
#
#
# Indices 1 2 3 4 5 6 
#
# 1 112.8896 34.4843 31.5581 0.0000 2.3495 0.0000
# 2 34.4843 83.4130 42.2929 0.0000 8.3083 0.0000
# 3 31.5581 42.2929 87.2238 0.0000 11.7083 0.0000
# 4 0.0000 0.0000 0.0000 -10.9297 0.0000 -6.3723
# 5 2.3495 8.3083 11.7083 0.0000 29.8112 0.0000
# 6 0.0000 0.0000 0.0000 -6.3723 0.0000 23.0467
#
#
#
# Elastic Compliance Matrix: (Units=1/GPa)
#
#
# Indices 1 2 3 4 5 6 
#
# 1 0.010486 -0.003240 -0.002358 0.000000 0.001002 0.000000
# 2 -0.003240 0.016960 -0.006810 0.000000 -0.001797 0.000000
# 3 -0.002358 -0.006810 0.016194 0.000000 -0.004276 0.000000
# 4 0.000000 0.000000 0.000000 -0.078792 0.000000 -0.021786
# 5 0.001002 -0.001797 -0.004276 0.000000 0.035646 0.000000
# 6 0.000000 0.000000 0.000000 -0.021786 0.000000 0.037366
#
#
# Mechanical properties :
#
#
# Convention : Reuss Voigt Hill
#
# Bulk Modulus (GPa) = 53.12104 55.57744 54.34924
# Shear Modulus (GPa) = 72.51736 20.06506 46.29121
#
# Velocity S-wave (km/s) = 6.19071 3.25641 4.94616
# Velocity P-wave (km/s) = 8.89797 6.59630 7.83215
#
# Compressibility (1/GPa) = 0.01882493
#
# Stress axis : x y z
#
# Youngs Moduli (GPa) = 95.36509 58.96322 61.75159
#
# Poissons Ratio (x) = 0.19101 0.14559
# Poissons Ratio (y) = 0.30894 0.42054
# Poissons Ratio (z) = 0.22484 0.40155
#
# Static dielectric constant tensor:
#      x y z
#    x 3.672920 0.000000 0.240740 
#    y 0.000000 3.700190 0.000000 
#    z 0.240740 0.000000 3.572980 
# 
# 
# High freq. dielectric constant tensor:
#      x y z
#    x 1.749400 0.000000 0.010680 
#    y 0.000000 1.725510 0.000000 
#    z 0.010680 0.000000 1.735860 
# 
# From -- ./inp_files/183466.got.cif
#   From: 2010.06.25/outbox.cif.g09.slc.cpg/sg12_92_cif.got.tgz:183466.got - 2010.06.28 00:19:55.
