data_PCOD8107820
_publ_section_title
;
Structure prediction by ZEFSAII (Michael W. Deem and Ramdas Pophale) SiO2 
 PCOD8107820
Probable space group: C 2/M
;
_chemical_formula_sum "Si O2"
_cell_formula_units_Z 64
_cell_length_a 19.353693
_cell_length_b 11.142901
_cell_length_c 31.538284
_cell_angle_alpha 90.000000
_cell_angle_beta 151.642080
_cell_angle_gamma 90.000000
_cell_volume 3230.529471
_symmetry_space_group_name_H-M "C 2/M"
_symmetry_group_IT_number 12
_symmetry_cell_setting 'monoclinic'
loop_
_space_group_symop_operation_xyz
x,y,z
-x,y,-z
-x,-y,-z
x,-y,z
1/2+x,1/2+y,z
1/2-x,1/2+y,-z
1/2-x,1/2-y,-z
1/2+x,1/2-y,z
loop_
_atom_site_type_symbol
_atom_site_label
_atom_site_fract_x
_atom_site_fract_y
_atom_site_fract_z
Si Si1 0.338591 0.141965 0.916917
Si Si2 0.512819 0.811401 0.864563
Si Si3 0.976927 0.730901 0.600478
Si Si4 0.279668 0.370325 0.061245
Si Si5 0.817260 0.366071 0.686141
Si Si6 0.696905 0.864319 0.417942
Si Si7 0.877689 0.365549 0.399067
Si Si8 0.749247 0.360974 0.777053
O O1 0.259646 0.198451 0.915796
O O2 0.247948 0.173848 0.825902
O O3 0.351719 0.000000 0.931241
O O4 0.500000 0.197261 0.000000
O O5 0.589714 0.687222 0.894303
O O6 0.460700 0.874427 0.792850
O O7 0.374114 0.786678 0.819989
O O8 0.634253 0.888024 0.954520
O O9 0.836850 0.783002 0.501290
O O10 0.933643 0.666889 0.620791
O O11 0.049882 0.635385 0.608319
O O12 0.090856 0.835920 0.672622
O O13 0.340964 0.500000 0.106162
O O14 0.739919 0.500000 0.648092
O O15 0.860767 0.343163 0.660897
O O16 0.726722 0.250535 0.653528
O O17 0.745874 0.000000 0.452116
O O18 0.805307 0.500000 0.365381
O O19 0.000000 0.347501 0.500000
O O20 0.787641 0.500000 0.790799
#
# Coordination Sequence:
#
# PCOD8107820 Si02
#       8
#     8   8   8   8   8   8   8   8
#     4   9  17  32  56  81 114 153 190 243 301 353
#     4  11  22  35  59  90 118 157 196 250 302 354
#     4  11  22  39  62  85 116 160 199 247 300 364
#     4  10  21  38  57  85 122 159 197 242 306 367
#     4  11  23  40  62  88 120 159 205 250 297 360
#     4  10  23  41  59  84 119 160 201 244 300 364
#     4  11  23  40  61  90 122 157 199 251 307 356
#     4  11  21  35  58  89 116 149 204 257 298 350
#
# _framework density 19.810994000000001
#
# number of rings (size 3 to 8) (size 9 to 14) (size 15 to 20)
#    0.000    1.500    3.750    1.875    1.750    1.250 
#    0.000    0.625    0.000    0.000    0.000    1.750 
#    0.000    0.000    0.000    0.000    0.000    0.000 
#
# Total GULP energy -396538.034625 kJ/mol
# GULP energy per Si atom -12391.813582 kJ/mol
# Density = 1.976590 g / cm^3
# Si number density = 19.810994 Si / 1000 Ang^3
#
#
#
# Elastic Constant Matrix: (Units=GPa)
#
#
# Indices 1 2 3 4 5 6 
#
# 1 145.9387 44.8133 47.9687 0.0000 -17.1260 0.0000
# 2 44.8133 88.3976 21.5016 0.0000 0.8364 0.0000
# 3 47.9687 21.5016 89.0876 0.0005 -17.4940 -0.0002
# 4 0.0000 0.0000 0.0005 -8.7632 0.0000 -15.6088
# 5 -17.1260 0.8364 -17.4940 0.0000 34.3452 0.0000
# 6 0.0000 0.0000 -0.0002 -15.6088 0.0000 16.0524
#
#
#
# Elastic Compliance Matrix: (Units=1/GPa)
#
#
# Indices 1 2 3 4 5 6 
#
# 1 0.009639 -0.004036 -0.003614 0.000000 0.003064 0.000000
# 2 -0.004036 0.013829 -0.001806 0.000000 -0.003270 0.000000
# 3 -0.003614 -0.001806 0.014736 0.000000 0.005747 0.000000
# 4 0.000000 0.000000 0.000000 -0.041770 0.000000 -0.040616
# 5 0.003064 -0.003270 0.005747 0.000000 0.033651 0.000000
# 6 0.000000 0.000000 0.000000 -0.040616 0.000000 0.022803
#
#
# Mechanical properties :
#
#
# Convention : Reuss Voigt Hill
#
# Bulk Modulus (GPa) = 51.84120 61.33234 56.58677
# Shear Modulus (GPa) = 63.91260 22.26958 43.09109
#
# Velocity S-wave (km/s) = 5.68605 3.35640 4.66887
# Velocity P-wave (km/s) = 8.32664 6.78576 7.59538
#
# Compressibility (1/GPa) = 0.01928968
#
# Stress axis : x y z
#
# Youngs Moduli (GPa) = 103.74308 72.31125 67.86289
#
# Poissons Ratio (x) = 0.29188 0.24528
# Poissons Ratio (y) = 0.41875 0.12258
# Poissons Ratio (z) = 0.37496 0.13062
#
# Static dielectric constant tensor:
#      x y z
#    x 3.846300 0.000000 -0.237580 
#    y 0.000000 3.428000 0.000000 
#    z -0.237580 0.000000 3.580470 
# 
# 
# High freq. dielectric constant tensor:
#      x y z
#    x 1.785780 0.000000 -0.020300 
#    y 0.000000 1.747750 0.000000 
#    z -0.020300 0.000000 1.769370 
# 
# From -- ./inp_files/379107.got.cif
#   From: 2010.06.25/outbox.cif.g09.slc.cpg/sg12_190_cif.got.tgz:379107.got - 2010.06.28 00:19:55.
