data_PCOD8107500
_publ_section_title
;
Structure prediction by ZEFSAII (Michael W. Deem and Ramdas Pophale) SiO2 
 PCOD8107500
Probable space group: C 2/M
;
_chemical_formula_sum "Si O2"
_cell_formula_units_Z 48
_cell_length_a 11.138963
_cell_length_b 16.142672
_cell_length_c 23.224450
_cell_angle_alpha 90.000000
_cell_angle_beta 33.079737
_cell_angle_gamma 90.000000
_cell_volume 2279.311380
_symmetry_space_group_name_H-M "C 2/M"
_symmetry_group_IT_number 12
_symmetry_cell_setting 'monoclinic'
loop_
_space_group_symop_operation_xyz
x,y,z
-x,y,-z
-x,-y,-z
x,-y,z
1/2+x,1/2+y,z
1/2-x,1/2+y,-z
1/2-x,1/2-y,-z
1/2+x,1/2-y,z
loop_
_atom_site_type_symbol
_atom_site_label
_atom_site_fract_x
_atom_site_fract_y
_atom_site_fract_z
Si Si1 0.148382 0.849707 0.758713
Si Si2 0.305228 0.594070 0.617362
Si Si3 0.249614 0.406494 0.402801
Si Si4 0.122484 0.805762 0.302300
Si Si5 0.768095 0.734449 0.118535
Si Si6 0.813539 0.408657 0.804828
O O1 0.159993 0.907223 0.698380
O O2 0.357336 0.786274 0.679083
O O3 0.157295 0.907054 0.811416
O O4 0.921910 0.797669 0.847796
O O5 0.500000 0.635774 0.500000
O O6 0.374375 0.500000 0.600080
O O7 0.271264 0.633266 0.693936
O O8 0.068224 0.603427 0.681920
O O9 0.276931 0.500000 0.416929
O O10 0.373581 0.337945 0.391750
O O11 0.000000 0.378061 0.500000
O O12 0.248474 0.805053 0.190288
O O13 0.754325 0.834819 0.125084
O O14 0.000000 0.705728 0.000000
O O15 0.785583 0.500000 0.845200
#
# Coordination Sequence:
#
# PCOD8107500 Si02
#       6
#     8   8   8   8   8   8
#     4  10  21  39  58  87 117 155 197 252 297 350
#     4  10  21  37  60  89 126 166 196 234 296 361
#     4  10  22  37  57  84 119 161 198 238 292 350
#     4  10  21  38  60  89 118 154 201 248 286 350
#     4  10  22  42  66  85 115 158 203 250 311 353
#     4  10  21  38  60  89 123 155 198 249 295 355
#
# _framework density 21.058992
#
# number of rings (size 3 to 8) (size 9 to 14) (size 15 to 20)
#    0.000    2.000    1.667    1.000    2.333    4.333 
#    0.000    0.000    0.000   17.000    0.000    0.000 
#    0.000    0.000    0.000    0.000    0.000    0.000 
#
# Total GULP energy -297413.438330 kJ/mol
# GULP energy per Si atom -12392.226597 kJ/mol
# Density = 2.101106 g / cm^3
# Si number density = 21.058992 Si / 1000 Ang^3
#
#
#
# Elastic Constant Matrix: (Units=GPa)
#
#
# Indices 1 2 3 4 5 6 
#
# 1 98.2353 34.5780 30.9114 -0.0040 -12.5379 -0.0134
# 2 34.5780 82.9658 38.7765 0.0325 -10.5111 -0.0142
# 3 30.9114 38.7765 85.2646 0.0388 -10.9897 -0.0394
# 4 -0.0040 0.0325 0.0388 18.7941 0.0057 0.7673
# 5 -12.5379 -10.5111 -10.9897 0.0057 25.4728 0.0102
# 6 -0.0134 -0.0142 -0.0394 0.7673 0.0102 21.7787
#
#
#
# Elastic Compliance Matrix: (Units=1/GPa)
#
#
# Indices 1 2 3 4 5 6 
#
# 1 0.012721 -0.003685 -0.002462 0.000013 0.003679 -0.000001
# 2 -0.003685 0.016676 -0.005924 -0.000018 0.002512 -0.000003
# 3 -0.002462 -0.005924 0.015718 -0.000025 0.003125 0.000022
# 4 0.000013 -0.000018 -0.000025 0.053285 -0.000023 -0.001877
# 5 0.003679 0.002512 0.003125 -0.000023 0.043453 -0.000010
# 6 -0.000001 -0.000003 0.000022 -0.001877 -0.000010 0.045983
#
#
# Mechanical properties :
#
#
# Convention : Reuss Voigt Hill
#
# Bulk Modulus (GPa) = 47.68158 52.77750 50.22954
# Shear Modulus (GPa) = 22.83443 24.02246 23.42844
#
# Velocity S-wave (km/s) = 3.29645 3.38112 3.33906
# Velocity P-wave (km/s) = 6.09753 6.35286 6.22650
#
# Compressibility (1/GPa) = 0.02097246
#
# Stress axis : x y z
#
# Youngs Moduli (GPa) = 78.61078 59.96614 63.62284
#
# Poissons Ratio (x) = 0.22098 0.15662
# Poissons Ratio (y) = 0.28969 0.37692
# Poissons Ratio (z) = 0.19352 0.35525
#
# Static dielectric constant tensor:
#      x y z
#    x 3.929090 -0.000010 -0.185330 
#    y -0.000010 3.818980 0.000000 
#    z -0.185330 0.000000 3.522610 
# 
# 
# High freq. dielectric constant tensor:
#      x y z
#    x 1.833390 0.000000 -0.015210 
#    y 0.000000 1.824450 0.000000 
#    z -0.015210 0.000000 1.791050 
# 
# From -- ./inp_files/131053.got.cif
#   From: 2010.06.25/outbox.cif.g09.slc.cpg/sg12_66_cif.got.tgz:131053.got - 2010.06.28 00:19:55.
