data_PCOD8107186
_publ_section_title
;
Structure prediction by ZEFSAII (Michael W. Deem and Ramdas Pophale) SiO2 
 PCOD8107186
Probable space group: C 2/M
;
_chemical_formula_sum "Si O2"
_cell_formula_units_Z 56
_cell_length_a 19.926922
_cell_length_b 8.899898
_cell_length_c 28.691354
_cell_angle_alpha 90.000000
_cell_angle_beta 149.967952
_cell_angle_gamma 90.000000
_cell_volume 2546.635425
_symmetry_space_group_name_H-M "C 2/M"
_symmetry_group_IT_number 12
_symmetry_cell_setting 'monoclinic'
loop_
_space_group_symop_operation_xyz
x,y,z
-x,y,-z
-x,-y,-z
x,-y,z
1/2+x,1/2+y,z
1/2-x,1/2+y,-z
1/2-x,1/2-y,-z
1/2+x,1/2-y,z
loop_
_atom_site_type_symbol
_atom_site_label
_atom_site_fract_x
_atom_site_fract_y
_atom_site_fract_z
Si Si1 0.826734 0.336008 0.481641
Si Si2 0.643930 0.176999 0.202339
Si Si3 0.945029 0.164736 0.629560
Si Si4 0.845793 0.175576 0.403812
Si Si5 0.891195 0.821634 0.098876
Si Si6 0.639597 0.672675 0.103814
Si Si7 0.892056 0.671914 0.196029
O O1 0.887984 0.500000 0.506947
O O2 0.941391 0.233673 0.575149
O O3 0.705208 0.357436 0.443676
O O4 0.771126 0.258034 0.401425
O O5 0.769970 0.221792 0.310855
O O6 0.508567 0.261312 0.136233
O O7 0.684648 0.227350 0.174870
O O8 0.616426 0.000000 0.187388
O O9 0.019200 0.281458 0.706967
O O10 0.016093 0.000000 0.670313
O O11 0.000000 0.230638 0.500000
O O12 0.835104 0.000000 0.406046
O O13 0.924333 0.778198 0.171917
O O14 0.882049 0.000000 0.088053
O O15 0.750000 0.750000 0.000000
O O16 0.629954 0.500000 0.114540
O O17 0.739199 0.690732 0.120198
O O18 0.500000 0.733297 0.000000
O O19 0.924445 0.500000 0.201691
#
# Coordination Sequence:
#
# PCOD8107186 Si02
#       7
#     8   8   8   8   8   8   8
#     4  10  21  37  58  86 117 156 206 258 309 365
#     4  11  24  42  67  97 132 174 219 269 325 388
#     4  10  21  37  59  86 120 160 200 252 314 375
#     4  10  23  41  60  87 125 169 212 260 315 378
#     4  12  25  43  68  97 130 168 214 269 329 392
#     4  10  23  43  65  91 128 170 210 262 324 385
#     4  11  23  39  63  95 128 162 209 263 317 380
#
# _framework density 21.989799000000001
#
# number of rings (size 3 to 8) (size 9 to 14) (size 15 to 20)
#    0.000    1.429    0.000    4.714    2.000    8.000 
#    0.000    0.000    0.000    0.000    0.000    0.000 
#    0.000    0.000    0.000    0.000    0.000    0.000 
#
# Total GULP energy -347270.379117 kJ/mol
# GULP energy per Si atom -12402.513540 kJ/mol
# Density = 2.193975 g / cm^3
# Si number density = 21.989799 Si / 1000 Ang^3
#
#
#
# Elastic Constant Matrix: (Units=GPa)
#
#
# Indices 1 2 3 4 5 6 
#
# 1 48.6294 22.9607 0.8496 -0.0002 -14.1930 0.0002
# 2 22.9607 108.7896 30.3475 -0.0004 -6.6628 0.0005
# 3 0.8496 30.3475 86.1260 -0.0021 -13.5843 -0.0002
# 4 -0.0002 -0.0004 -0.0021 34.6635 -0.0001 -6.1272
# 5 -14.1930 -6.6628 -13.5843 -0.0001 38.6884 0.0000
# 6 0.0002 0.0005 -0.0002 -6.1272 0.0000 35.7925
#
#
#
# Elastic Compliance Matrix: (Units=1/GPa)
#
#
# Indices 1 2 3 4 5 6 
#
# 1 0.026109 -0.005845 0.003339 0.000000 0.009744 0.000000
# 2 -0.005845 0.011513 -0.004260 0.000000 -0.001658 0.000000
# 3 0.003339 -0.004260 0.013928 0.000001 0.005382 0.000000
# 4 0.000000 0.000000 0.000001 0.029749 0.000000 0.005093
# 5 0.009744 -0.001658 0.005382 0.000000 0.031026 0.000000
# 6 0.000000 0.000000 0.000000 0.005093 0.000000 0.028811
#
#
# Mechanical properties :
#
#
# Convention : Reuss Voigt Hill
#
# Bulk Modulus (GPa) = 26.30440 39.09563 32.70001
# Shear Modulus (GPa) = 29.87914 34.45470 32.16692
#
# Velocity S-wave (km/s) = 3.69015 3.96264 3.82882
# Velocity P-wave (km/s) = 5.49039 6.22529 5.86935
#
# Compressibility (1/GPa) = 0.03801646
#
# Stress axis : x y z
#
# Youngs Moduli (GPa) = 38.30093 86.86103 71.79802
#
# Poissons Ratio (x) = 0.50771 -0.23973
# Poissons Ratio (y) = 0.22387 0.30589
# Poissons Ratio (z) = -0.12788 0.37006
#
# Static dielectric constant tensor:
#      x y z
#    x 3.953520 0.000000 -0.011960 
#    y 0.000000 4.185580 0.000000 
#    z -0.011960 0.000000 4.002000 
# 
# 
# High freq. dielectric constant tensor:
#      x y z
#    x 1.864770 0.000000 -0.007530 
#    y 0.000000 1.871420 0.000000 
#    z -0.007530 0.000000 1.868930 
# 
# From -- ./inp_files/380817.got.cif
#   From: 2010.06.25/outbox.cif.g09.slc.cpg/sg12_191_cif.got.tgz:380817.got - 2010.06.28 00:19:55.
