data_PCOD8107717
_publ_section_title
;
Structure prediction by ZEFSAII (Michael W. Deem and Ramdas Pophale) SiO2 
 PCOD8107717
Probable space group: C 2/M
;
_chemical_formula_sum "Si O2"
_cell_formula_units_Z 32
_cell_length_a 8.992038
_cell_length_b 21.191628
_cell_length_c 7.352410
_cell_angle_alpha 90.000000
_cell_angle_beta 96.135878
_cell_angle_gamma 90.000000
_cell_volume 1393.018986
_symmetry_space_group_name_H-M "C 2/M"
_symmetry_group_IT_number 12
_symmetry_cell_setting 'monoclinic'
loop_
_space_group_symop_operation_xyz
x,y,z
-x,y,-z
-x,-y,-z
x,-y,z
1/2+x,1/2+y,z
1/2-x,1/2+y,-z
1/2-x,1/2-y,-z
1/2+x,1/2-y,z
loop_
_atom_site_type_symbol
_atom_site_label
_atom_site_fract_x
_atom_site_fract_y
_atom_site_fract_z
Si Si1 0.833523 0.570763 0.404118
Si Si2 0.487599 0.256655 0.751071
Si Si3 0.234386 0.333098 0.908485
Si Si4 0.262809 0.336206 0.326363
O O1 0.773445 0.500000 0.363601
O O2 0.828194 0.608262 0.214253
O O3 0.728176 0.603899 0.540663
O O4 0.000000 0.569210 0.500000
O O5 0.388756 0.308051 0.844257
O O6 0.610953 0.223228 0.901628
O O7 0.590841 0.293254 0.616407
O O8 0.385595 0.204032 0.640036
O O9 0.260289 0.357825 0.115787
#
# Coordination Sequence:
#
# PCOD8107717 Si02
#       4
#     8   8   8   8
#     4  11  26  42  58  85 116 159 214 242 275 350
#     4  10  21  37  64  97 123 148 191 237 304 369
#     4  11  21  39  63  91 123 154 187 244 299 349
#     4  11  21  39  63  91 123 154 187 244 299 349
#
# _framework density 22.971689999999999
#
# number of rings (size 3 to 8) (size 9 to 14) (size 15 to 20)
#    0.000    1.250    2.500    6.000    0.000    8.000 
#    0.000    5.000    0.000    3.000    0.000    0.000 
#    0.000    0.000    0.000    0.000    0.000    0.000 
#
# Total GULP energy -198426.144383 kJ/mol
# GULP energy per Si atom -12401.634024 kJ/mol
# Density = 2.291941 g / cm^3
# Si number density = 22.971690 Si / 1000 Ang^3
#
#
#
# Elastic Constant Matrix: (Units=GPa)
#
#
# Indices 1 2 3 4 5 6 
#
# 1 125.1601 31.9648 1.8774 0.0000 -1.4183 0.0000
# 2 31.9648 126.3995 38.5017 0.0000 -7.5908 0.0000
# 3 1.8774 38.5017 54.5842 0.0000 2.0270 0.0000
# 4 0.0000 0.0000 0.0000 18.6810 0.0000 2.6669
# 5 -1.4183 -7.5908 2.0270 0.0000 33.8555 0.0000
# 6 0.0000 0.0000 0.0000 2.6669 0.0000 18.5498
#
#
#
# Elastic Compliance Matrix: (Units=1/GPa)
#
#
# Indices 1 2 3 4 5 6 
#
# 1 0.008652 -0.002702 0.001621 0.000000 -0.000340 0.000000
# 2 -0.002702 0.011171 -0.007893 0.000000 0.002864 0.000000
# 3 0.001621 -0.007893 0.023948 0.000000 -0.003136 0.000000
# 4 0.000000 0.000000 0.000000 0.054652 0.000000 -0.007857
# 5 -0.000340 0.002864 -0.003136 0.000000 0.030353 0.000000
# 6 0.000000 0.000000 0.000000 -0.007857 0.000000 0.055039
#
#
# Mechanical properties :
#
#
# Convention : Reuss Voigt Hill
#
# Bulk Modulus (GPa) = 38.72525 50.09240 44.40882
# Shear Modulus (GPa) = 23.76756 29.80392 26.78574
#
# Velocity S-wave (km/s) = 3.22008 3.60588 3.41843
# Velocity P-wave (km/s) = 5.54253 6.26019 5.91226
#
# Compressibility (1/GPa) = 0.02582295
#
# Stress axis : x y z
#
# Youngs Moduli (GPa) = 115.58436 89.51752 41.75633
#
# Poissons Ratio (x) = 0.24189 -0.06769
# Poissons Ratio (y) = 0.31232 0.32958
# Poissons Ratio (z) = -0.18737 0.70657
#
# Static dielectric constant tensor:
#      x y z
#    x 4.431700 0.000000 0.116820 
#    y 0.000000 4.104930 0.000000 
#    z 0.116820 0.000000 4.081520 
# 
# 
# High freq. dielectric constant tensor:
#      x y z
#    x 1.924200 0.000000 0.001990 
#    y 0.000000 1.867880 0.000000 
#    z 0.001990 0.000000 1.924790 
# 
# From -- ./inp_files/37757.got.cif
#   From: 2010.06.25/outbox.cif.g09.slc.cpg/sg12_19_cif.got.tgz:37757.got - 2010.06.28 00:19:55.
