data_PCOD8107906
_publ_section_title
;
Structure prediction by ZEFSAII (Michael W. Deem and Ramdas Pophale) SiO2 
 PCOD8107906
Probable space group: C 2/M
;
_chemical_formula_sum "Si O2"
_cell_formula_units_Z 64
_cell_length_a 30.703341
_cell_length_b 9.114104
_cell_length_c 13.963608
_cell_angle_alpha 90.000000
_cell_angle_beta 122.297643
_cell_angle_gamma 90.000000
_cell_volume 3302.933406
_symmetry_space_group_name_H-M "C 2/M"
_symmetry_group_IT_number 12
_symmetry_cell_setting 'monoclinic'
loop_
_space_group_symop_operation_xyz
x,y,z
-x,y,-z
-x,-y,-z
x,-y,z
1/2+x,1/2+y,z
1/2-x,1/2+y,-z
1/2-x,1/2-y,-z
1/2+x,1/2-y,z
loop_
_atom_site_type_symbol
_atom_site_label
_atom_site_fract_x
_atom_site_fract_y
_atom_site_fract_z
Si Si1 0.854551 0.327792 0.421250
Si Si2 0.089595 0.171941 0.985410
Si Si3 0.895533 0.329481 0.797273
Si Si4 0.223197 0.669112 0.835367
Si Si5 0.803660 0.669299 0.554931
Si Si6 0.460444 0.329221 0.533054
Si Si7 0.978343 0.169145 0.771505
Si Si8 0.679239 0.829730 0.989786
O O1 0.865239 0.500000 0.434687
O O2 0.811001 0.284042 0.294294
O O3 0.835713 0.269526 0.502112
O O4 0.906838 0.250458 0.452957
O O5 0.098727 0.236929 0.100519
O O6 0.126852 0.246466 0.952438
O O7 0.100998 0.000000 0.001619
O O8 0.031751 0.206125 0.885632
O O9 0.906460 0.500000 0.830967
O O10 0.837645 0.306336 0.689910
O O11 0.935350 0.274561 0.764428
O O12 0.240405 0.500000 0.850834
O O13 0.274200 0.767664 0.891428
O O14 0.190204 0.699926 0.891605
O O15 0.791030 0.500000 0.522545
O O16 0.750000 0.750000 0.500000
O O17 0.500000 0.268740 0.500000
O O18 0.450336 0.500000 0.505530
O O19 0.483596 0.296578 0.665139
O O20 0.962632 0.000000 0.770751
O O21 0.672617 0.000000 0.006472
#
# Coordination Sequence:
#
# PCOD8107906 Si02
#       8
#     8   8   8   8   8   8   8   8
#     4  10  21  40  62  89 120 156 198 241 295 357
#     4  11  24  39  60  86 116 154 196 240 291 350
#     4  11  23  41  62  88 118 149 193 246 295 347
#     4   9  20  38  60  84 118 157 193 236 292 350
#     4  10  23  40  60  88 121 155 196 242 293 353
#     4  10  22  39  61  90 122 157 199 245 293 348
#     4  10  22  41  61  85 117 155 196 238 291 353
#     4  10  21  38  58  87 119 151 195 244 289 342
#
# _framework density 19.376715000000001
#
# number of rings (size 3 to 8) (size 9 to 14) (size 15 to 20)
#    0.000    1.875    1.250    1.500    3.500    5.250 
#    0.000    0.000    0.000    0.000    0.000    0.000 
#    0.000    0.000    0.000    0.000    0.000    0.000 
#
# Total GULP energy -396961.914690 kJ/mol
# GULP energy per Si atom -12405.059834 kJ/mol
# Density = 1.933261 g / cm^3
# Si number density = 19.376715 Si / 1000 Ang^3
#
#
#
# Elastic Constant Matrix: (Units=GPa)
#
#
# Indices 1 2 3 4 5 6 
#
# 1 89.6935 42.2607 10.2431 0.0000 11.3602 0.0000
# 2 42.2607 77.9628 32.3142 0.0000 12.3513 0.0000
# 3 10.2431 32.3142 81.7599 0.0000 4.0100 0.0000
# 4 0.0000 0.0000 0.0000 28.7911 0.0000 3.5706
# 5 11.3602 12.3513 4.0100 0.0000 27.0771 0.0000
# 6 0.0000 0.0000 0.0000 3.5706 0.0000 40.7082
#
#
#
# Elastic Compliance Matrix: (Units=1/GPa)
#
#
# Indices 1 2 3 4 5 6 
#
# 1 0.015340 -0.008533 0.001587 0.000000 -0.002779 0.000000
# 2 -0.008533 0.021172 -0.007052 0.000000 -0.005034 0.000000
# 3 0.001587 -0.007052 0.014802 0.000000 0.000359 0.000000
# 4 0.000000 0.000000 0.000000 0.035115 0.000000 -0.003080
# 5 -0.002779 -0.005034 0.000359 0.000000 0.040340 0.000000
# 6 0.000000 0.000000 0.000000 -0.003080 0.000000 0.024835
#
#
# Mechanical properties :
#
#
# Convention : Reuss Voigt Hill
#
# Bulk Modulus (GPa) = 42.88508 46.56136 44.72322
# Shear Modulus (GPa) = 26.68462 30.28849 28.48655
#
# Velocity S-wave (km/s) = 3.71502 3.95794 3.83840
# Velocity P-wave (km/s) = 6.37041 6.70588 6.54030
#
# Compressibility (1/GPa) = 0.02331814
#
# Stress axis : x y z
#
# Youngs Moduli (GPa) = 65.18808 47.23123 67.55952
#
# Poissons Ratio (x) = 0.40302 -0.10721
# Poissons Ratio (y) = 0.55624 0.47644
# Poissons Ratio (z) = -0.10345 0.33308
#
# Static dielectric constant tensor:
#      x y z
#    x 3.580590 0.000000 -0.071690 
#    y 0.000000 3.549730 0.000000 
#    z -0.071690 0.000000 3.644690 
# 
# 
# High freq. dielectric constant tensor:
#      x y z
#    x 1.759900 0.000000 -0.000960 
#    y 0.000000 1.754290 0.000000 
#    z -0.000960 0.000000 1.766500 
# 
# From -- ./inp_files/249246.got.cif
#   From: 2010.06.25/outbox.cif.g09.slc.cpg/sg12_125_cif.got.tgz:249246.got - 2010.06.28 00:19:55.
