data_PCOD8107549
_publ_section_title
;
Structure prediction by ZEFSAII (Michael W. Deem and Ramdas Pophale) SiO2 
 PCOD8107549
Probable space group: C 2/M
;
_chemical_formula_sum "Si O2"
_cell_formula_units_Z 56
_cell_length_a 20.332946
_cell_length_b 8.922061
_cell_length_c 22.144069
_cell_angle_alpha 90.000000
_cell_angle_beta 131.738166
_cell_angle_gamma 90.000000
_cell_volume 2997.610444
_symmetry_space_group_name_H-M "C 2/M"
_symmetry_group_IT_number 12
_symmetry_cell_setting 'monoclinic'
loop_
_space_group_symop_operation_xyz
x,y,z
-x,y,-z
-x,-y,-z
x,-y,z
1/2+x,1/2+y,z
1/2-x,1/2+y,-z
1/2-x,1/2-y,-z
1/2+x,1/2-y,z
loop_
_atom_site_type_symbol
_atom_site_label
_atom_site_fract_x
_atom_site_fract_y
_atom_site_fract_z
Si Si1 0.251337 0.823323 0.832887
Si Si2 0.616171 0.825040 0.415888
Si Si3 0.482630 0.670789 0.168228
Si Si4 0.687537 0.327553 0.010029
Si Si5 0.744679 0.674349 0.405655
Si Si6 0.325417 0.325983 0.762440
Si Si7 0.931271 0.675405 0.258570
O O1 0.302944 0.750899 0.919944
O O2 0.302424 0.780138 0.803649
O O3 0.151549 0.766155 0.767543
O O4 0.250781 0.000000 0.841211
O O5 0.661247 0.750462 0.385823
O O6 0.663259 0.771979 0.507181
O O7 0.512827 0.783791 0.352896
O O8 0.628624 0.000000 0.414215
O O9 0.483393 0.500000 0.193225
O O10 0.577204 0.716388 0.200252
O O11 0.454657 0.780642 0.204649
O O12 0.413615 0.688005 0.071569
O O13 0.716461 0.500000 0.033499
O O14 0.750000 0.250000 0.000000
O O15 0.730181 0.500000 0.407303
O O16 0.743811 0.710461 0.333900
O O17 0.319543 0.500000 0.778342
O O18 0.909045 0.500000 0.246665
#
# Coordination Sequence:
#
# PCOD8107549 Si02
#       7
#     8   8   8   8   8   8   8
#     4  12  26  41  58  81 115 155 196 242 291 343
#     4   9  18  31  53  88 118 146 188 235 282 335
#     4  10  21  37  61  88 115 148 189 234 282 343
#     4  11  22  38  61  89 118 149 188 237 287 340
#     4   9  17  32  56  84 117 152 186 230 283 341
#     4  10  21  39  60  84 116 155 192 232 287 345
#     4  11  21  35  58  86 117 151 192 239 285 341
#
# _framework density 18.681546999999998
#
# number of rings (size 3 to 8) (size 9 to 14) (size 15 to 20)
#    0.000    1.714    2.857    2.143    0.000    2.857 
#    0.000    3.571    0.000    4.286    0.000    0.000 
#    0.000    0.000    0.000    0.000    0.000    0.000 
#
# Total GULP energy -347224.270486 kJ/mol
# GULP energy per Si atom -12400.866803 kJ/mol
# Density = 1.863903 g / cm^3
# Si number density = 18.681547 Si / 1000 Ang^3
#
#
#
# Elastic Constant Matrix: (Units=GPa)
#
#
# Indices 1 2 3 4 5 6 
#
# 1 77.8129 29.5393 35.7596 0.0000 3.7465 0.0000
# 2 29.5393 80.8886 32.7306 0.0000 4.6089 0.0000
# 3 35.7596 32.7306 102.1128 0.0000 9.4296 0.0000
# 4 0.0000 0.0000 0.0000 25.2733 0.0000 -2.6103
# 5 3.7465 4.6089 9.4296 0.0000 25.4361 0.0000
# 6 0.0000 0.0000 0.0000 -2.6103 0.0000 32.7553
#
#
#
# Elastic Compliance Matrix: (Units=1/GPa)
#
#
# Indices 1 2 3 4 5 6 
#
# 1 0.016489 -0.004234 -0.004415 0.000000 -0.000025 0.000000
# 2 -0.004234 0.015313 -0.003341 0.000000 -0.000912 0.000000
# 3 -0.004415 -0.003341 0.012730 0.000000 -0.003464 0.000000
# 4 0.000000 0.000000 0.000000 0.039896 0.000000 0.003179
# 5 -0.000025 -0.000912 -0.003464 0.000000 0.040767 0.000000
# 6 0.000000 0.000000 0.000000 0.003179 0.000000 0.030783
#
#
# Mechanical properties :
#
#
# Convention : Reuss Voigt Hill
#
# Bulk Modulus (GPa) = 48.65809 50.76371 49.71090
# Shear Modulus (GPa) = 26.76548 27.54523 27.15535
#
# Velocity S-wave (km/s) = 3.78924 3.84404 3.81674
# Velocity P-wave (km/s) = 6.72659 6.85086 6.78901
#
# Compressibility (1/GPa) = 0.02055157
#
# Stress axis : x y z
#
# Youngs Moduli (GPa) = 60.64793 65.30506 78.55402
#
# Poissons Ratio (x) = 0.27647 0.34681
# Poissons Ratio (y) = 0.25675 0.26248
# Poissons Ratio (z) = 0.26776 0.21821
#
# Static dielectric constant tensor:
#      x y z
#    x 3.215470 0.000000 -0.164710 
#    y 0.000000 3.550810 0.000000 
#    z -0.164710 0.000000 1.558350 
# 
# 
# High freq. dielectric constant tensor:
#      x y z
#    x 1.704550 0.000000 0.012880 
#    y 0.000000 1.726990 0.000000 
#    z 0.012880 0.000000 1.744300 
# 
# From -- ./inp_files/314454.got.cif
#   From: 2010.06.25/outbox.cif.g09.slc.cpg/sg12_158_cif.got.tgz:314454.got - 2010.06.28 00:19:55.
