data_PCOD8107534
_publ_section_title
;
Structure prediction by ZEFSAII (Michael W. Deem and Ramdas Pophale) SiO2 
 PCOD8107534
Probable space group: C 2/M
;
_chemical_formula_sum "Si O2"
_cell_formula_units_Z 64
_cell_length_a 9.550710
_cell_length_b 25.804781
_cell_length_c 17.130490
_cell_angle_alpha 90.000000
_cell_angle_beta 44.740451
_cell_angle_gamma 90.000000
_cell_volume 2971.764137
_symmetry_space_group_name_H-M "C 2/M"
_symmetry_group_IT_number 12
_symmetry_cell_setting 'monoclinic'
loop_
_space_group_symop_operation_xyz
x,y,z
-x,y,-z
-x,-y,-z
x,-y,z
1/2+x,1/2+y,z
1/2-x,1/2+y,-z
1/2-x,1/2-y,-z
1/2+x,1/2-y,z
loop_
_atom_site_type_symbol
_atom_site_label
_atom_site_fract_x
_atom_site_fract_y
_atom_site_fract_z
Si Si1 0.378853 0.208221 0.128336
Si Si2 0.609782 0.884801 0.755892
Si Si3 0.564410 0.722930 0.748757
Si Si4 0.772852 0.189983 0.571772
Si Si5 0.957054 0.940127 0.696288
Si Si6 0.778104 0.643679 0.571097
Si Si7 0.208405 0.442753 0.929808
Si Si8 0.217976 0.942070 0.919969
O O1 0.424737 0.157389 0.161869
O O2 0.424030 0.258443 0.165440
O O3 0.153830 0.206385 0.190094
O O4 0.500000 0.211208 0.000000
O O5 0.715174 0.863193 0.637277
O O6 0.395113 0.907564 0.814252
O O7 0.758317 0.930313 0.724137
O O8 0.628657 0.767184 0.663556
O O9 0.702710 0.672593 0.679422
O O10 0.733654 0.185037 0.495069
O O11 0.000000 0.205039 0.500000
O O12 0.144926 0.905373 0.598133
O O13 0.896532 0.920464 0.807885
O O14 0.022010 0.000000 0.663698
O O15 0.000000 0.623830 0.500000
O O16 0.178034 0.500000 0.903990
O O17 0.251381 0.446428 0.001617
O O18 0.000000 0.411282 0.000000
O O19 0.218184 0.000000 0.881916
O O20 0.000000 0.915645 0.000000
#
# Coordination Sequence:
#
# PCOD8107534 Si02
#       8
#     8   8   8   8   8   8   8   8
#     4  11  24  41  66  99 135 169 207 263 329 406
#     4  11  22  39  63  95 129 173 218 266 325 392
#     4  11  22  43  66  97 129 171 215 268 330 388
#     4  11  22  42  65  94 125 166 228 276 321 389
#     4  11  22  39  63  94 129 168 222 269 316 389
#     4  12  24  41  65  93 124 171 224 274 328 375
#     4   9  17  31  57  86 115 160 213 260 307 378
#     4  10  21  37  60  93 131 172 221 273 326 383
#
# _framework density 21.53603
#
# number of rings (size 3 to 8) (size 9 to 14) (size 15 to 20)
#    0.000    1.250    3.750    3.000    1.750    1.250 
#    0.000    6.875    0.000    0.000    0.000    0.000 
#    0.000    0.000    0.000    0.000    0.000    0.000 
#
# Total GULP energy -396624.711533 kJ/mol
# GULP energy per Si atom -12394.522235 kJ/mol
# Density = 2.148701 g / cm^3
# Si number density = 21.536030 Si / 1000 Ang^3
#
#
#
# Elastic Constant Matrix: (Units=GPa)
#
#
# Indices 1 2 3 4 5 6 
#
# 1 75.0424 12.4582 33.2985 0.0000 -18.1239 0.0000
# 2 12.4582 70.1762 30.7554 0.0000 -6.4136 0.0000
# 3 33.2985 30.7554 111.5315 0.0000 -14.0441 0.0000
# 4 0.0000 0.0000 0.0000 20.9069 0.0000 -1.6537
# 5 -18.1239 -6.4136 -14.0441 0.0000 49.2635 0.0000
# 6 0.0000 0.0000 0.0000 -1.6537 0.0000 30.9152
#
#
#
# Elastic Compliance Matrix: (Units=1/GPa)
#
#
# Indices 1 2 3 4 5 6 
#
# 1 0.016417 -0.000675 -0.004114 0.000000 0.004779 0.000000
# 2 -0.000675 0.016272 -0.004201 0.000000 0.000673 0.000000
# 3 -0.004114 -0.004201 0.011506 0.000000 0.001220 0.000000
# 4 0.000000 0.000000 0.000000 0.048034 0.000000 0.002569
# 5 0.004779 0.000673 0.001220 0.000000 0.022493 0.000000
# 6 0.000000 0.000000 0.000000 0.002569 0.000000 0.032484
#
#
# Mechanical properties :
#
#
# Convention : Reuss Voigt Hill
#
# Bulk Modulus (GPa) = 38.14323 45.53050 41.83686
# Shear Modulus (GPa) = 28.74803 32.23299 30.49051
#
# Velocity S-wave (km/s) = 3.65757 3.87292 3.76678
# Velocity P-wave (km/s) = 5.96547 6.41769 6.19571
#
# Compressibility (1/GPa) = 0.02621698
#
# Stress axis : x y z
#
# Youngs Moduli (GPa) = 60.91075 61.45430 86.90907
#
# Poissons Ratio (x) = 0.04148 0.35751
# Poissons Ratio (y) = 0.04111 0.36510
# Poissons Ratio (z) = 0.25056 0.25817
#
# Static dielectric constant tensor:
#      x y z
#    x 3.731780 0.000000 0.077450 
#    y 0.000000 3.998490 0.000000 
#    z 0.077450 0.000000 4.138490 
# 
# 
# High freq. dielectric constant tensor:
#      x y z
#    x 1.836230 0.000000 -0.007770 
#    y 0.000000 1.835830 0.000000 
#    z -0.007770 0.000000 1.855700 
# 
# From -- ./inp_files/260306.got.cif
#   From: 2010.06.25/outbox.cif.g09.slc.cpg/sg12_131_cif.got.tgz:260306.got - 2010.06.28 00:19:55.
