data_PCOD8107965
_publ_section_title
;
Structure prediction by ZEFSAII (Michael W. Deem and Ramdas Pophale) SiO2 
 PCOD8107965
Probable space group: C 2/M
;
_chemical_formula_sum "Si O2"
_cell_formula_units_Z 48
_cell_length_a 14.166553
_cell_length_b 27.377334
_cell_length_c 8.528426
_cell_angle_alpha 90.000000
_cell_angle_beta 136.609494
_cell_angle_gamma 90.000000
_cell_volume 2272.271249
_symmetry_space_group_name_H-M "C 2/M"
_symmetry_group_IT_number 12
_symmetry_cell_setting 'monoclinic'
loop_
_space_group_symop_operation_xyz
x,y,z
-x,y,-z
-x,-y,-z
x,-y,z
1/2+x,1/2+y,z
1/2-x,1/2+y,-z
1/2-x,1/2-y,-z
1/2+x,1/2-y,z
loop_
_atom_site_type_symbol
_atom_site_label
_atom_site_fract_x
_atom_site_fract_y
_atom_site_fract_z
Si Si1 0.191941 0.857002 0.550085
Si Si2 0.534112 0.701239 0.866712
Si Si3 0.035030 0.685195 0.214305
Si Si4 0.122168 0.945475 0.261317
Si Si5 0.654397 0.945677 0.720119
Si Si6 0.273851 0.145109 0.010140
O O1 0.306774 0.831769 0.573073
O O2 0.147175 0.910856 0.440471
O O3 0.229902 0.857040 0.776995
O O4 0.058441 0.823952 0.375463
O O5 0.498449 0.757893 0.813031
O O6 0.689618 0.685820 0.008228
O O7 0.500000 0.681760 0.000000
O O8 0.000000 0.665613 0.000000
O O9 0.934701 0.659513 0.217807
O O10 0.267018 0.946995 0.348726
O O11 0.082664 0.000000 0.273438
O O12 0.000000 0.925980 0.000000
O O13 0.500000 0.927956 0.500000
O O14 0.653975 0.000000 0.796495
O O15 0.738073 0.909072 0.933992
#
# Coordination Sequence:
#
# PCOD8107965 Si02
#       6
#     8   8   8   8   8   8
#     4  11  21  37  59  85 116 148 188 238 287 333
#     4  11  22  38  58  81 114 155 194 230 279 339
#     4   9  21  38  56  82 115 150 189 235 283 336
#     4  10  21  38  59  83 114 152 192 232 280 341
#     4  10  21  38  59  84 114 149 190 232 279 341
#     4  11  22  37  59  87 116 146 188 239 287 334
#
# _framework density 21.124238999999999
#
# number of rings (size 3 to 8) (size 9 to 14) (size 15 to 20)
#    0.000    1.667    0.000    5.000    0.000    0.667 
#    0.000    6.667    0.000   11.000    0.000    0.000 
#    0.000    0.000    0.000    0.000    0.000    0.000 
#
# Total GULP energy -297470.044790 kJ/mol
# GULP energy per Si atom -12394.585200 kJ/mol
# Density = 2.107616 g / cm^3
# Si number density = 21.124239 Si / 1000 Ang^3
#
#
#
# Elastic Constant Matrix: (Units=GPa)
#
#
# Indices 1 2 3 4 5 6 
#
# 1 92.6347 31.1482 20.3870 0.0000 7.5177 0.0000
# 2 31.1482 104.3322 17.4375 0.0000 -8.4402 0.0000
# 3 20.3870 17.4375 44.6266 0.0000 -0.1516 0.0000
# 4 0.0000 0.0000 0.0000 28.1399 0.0000 19.0600
# 5 7.5177 -8.4402 -0.1516 0.0000 34.5614 0.0000
# 6 0.0000 0.0000 0.0000 19.0600 0.0000 1.7524
#
#
#
# Elastic Compliance Matrix: (Units=1/GPa)
#
#
# Indices 1 2 3 4 5 6 
#
# 1 0.013316 -0.003489 -0.004732 0.000000 -0.003769 0.000000
# 2 -0.003489 0.011387 -0.002843 0.000000 0.003527 0.000000
# 3 -0.004732 -0.002843 0.025683 0.000000 0.000448 0.000000
# 4 0.000000 0.000000 0.000000 -0.005581 0.000000 0.060706
# 5 -0.003769 0.003527 0.000448 0.000000 0.030617 0.000000
# 6 0.000000 0.000000 0.000000 0.060706 0.000000 -0.089625
#
#
# Mechanical properties :
#
#
# Convention : Reuss Voigt Hill
#
# Bulk Modulus (GPa) = 35.39183 42.17099 38.78141
# Shear Modulus (GPa) = 288.26356 24.39879 156.33118
#
# Velocity S-wave (km/s) = 11.69433 3.40224 8.61198
# Velocity P-wave (km/s) = 14.11147 5.95317 10.82991
#
# Compressibility (1/GPa) = 0.02825511
#
# Stress axis : x y z
#
# Youngs Moduli (GPa) = 75.09881 87.81877 38.93682
#
# Poissons Ratio (x) = 0.30643 0.18427
# Poissons Ratio (y) = 0.26205 0.11071
# Poissons Ratio (z) = 0.35540 0.24970
#
# Static dielectric constant tensor:
#      x y z
#    x 4.067110 0.000000 0.332180 
#    y 0.000000 3.944300 0.000000 
#    z 0.332180 0.000000 3.699320 
# 
# 
# High freq. dielectric constant tensor:
#      x y z
#    x 1.832740 0.000000 0.022890 
#    y 0.000000 1.835410 0.000000 
#    z 0.022890 0.000000 1.815840 
# 
# From -- ./inp_files/67305.got.cif
#   From: 2010.06.25/outbox.cif.g09.slc.cpg/sg12_34_cif.got.tgz:67305.got - 2010.06.28 00:19:55.
