data_PCOD8107781
_publ_section_title
;
Structure prediction by ZEFSAII (Michael W. Deem and Ramdas Pophale) SiO2 
 PCOD8107781
Probable space group: C 2/M
;
_chemical_formula_sum "Si O2"
_cell_formula_units_Z 48
_cell_length_a 14.681170
_cell_length_b 8.938478
_cell_length_c 18.853150
_cell_angle_alpha 90.000000
_cell_angle_beta 93.205233
_cell_angle_gamma 90.000000
_cell_volume 2470.178006
_symmetry_space_group_name_H-M "C 2/M"
_symmetry_group_IT_number 12
_symmetry_cell_setting 'monoclinic'
loop_
_space_group_symop_operation_xyz
x,y,z
-x,y,-z
-x,-y,-z
x,-y,z
1/2+x,1/2+y,z
1/2-x,1/2+y,-z
1/2-x,1/2-y,-z
1/2+x,1/2-y,z
loop_
_atom_site_type_symbol
_atom_site_label
_atom_site_fract_x
_atom_site_fract_y
_atom_site_fract_z
Si Si1 0.228065 0.176698 0.262282
Si Si2 0.847863 0.177001 0.508677
Si Si3 0.737578 0.824257 0.895153
Si Si4 0.587740 0.830136 0.348201
Si Si5 0.603422 0.323747 0.992292
Si Si6 0.610809 0.830687 0.627963
O O1 0.253668 0.231804 0.185027
O O2 0.135754 0.258141 0.282104
O O3 0.306603 0.227529 0.320084
O O4 0.212221 0.000000 0.262763
O O5 0.750000 0.250000 0.500000
O O6 0.896081 0.234330 0.580989
O O7 0.903240 0.226078 0.441198
O O8 0.840809 0.000000 0.511808
O O9 0.647916 0.747243 0.923992
O O10 0.721381 0.000000 0.899162
O O11 0.831536 0.778735 0.938932
O O12 0.479849 0.825656 0.328153
O O13 0.622126 0.000000 0.361095
O O14 0.600237 0.500000 0.980739
O O15 0.500000 0.262790 0.000000
O O16 0.630278 0.000000 0.602637
#
# Coordination Sequence:
#
# PCOD8107781 Si02
#       6
#     8   8   8   8   8   8
#     4  10  21  38  57  78 111 150 183 225 277 332
#     4  12  23  37  59  83 108 142 186 234 282 331
#     4   9  19  35  55  81 111 145 186 224 269 326
#     4  11  23  38  57  82 110 144 186 231 280 334
#     4   9  18  34  56  82 112 145 181 225 275 322
#     4  10  22  39  57  79 110 146 184 230 284 333
#
# _framework density 19.431798000000001
#
# number of rings (size 3 to 8) (size 9 to 14) (size 15 to 20)
#    0.000    1.833    1.667    2.500    0.000    5.667 
#    0.000    0.000    0.000    0.000    0.000    0.000 
#    0.000    0.000    0.000    0.000    0.000    0.000 
#
# Total GULP energy -297640.219248 kJ/mol
# GULP energy per Si atom -12401.675802 kJ/mol
# Density = 1.938757 g / cm^3
# Si number density = 19.431798 Si / 1000 Ang^3
#
#
#
# Elastic Constant Matrix: (Units=GPa)
#
#
# Indices 1 2 3 4 5 6 
#
# 1 116.4141 33.8742 39.7376 0.0000 -28.4909 0.0000
# 2 33.8742 77.9108 43.6914 0.0000 -12.4168 0.0000
# 3 39.7376 43.6914 124.3944 0.0000 -30.2627 0.0000
# 4 0.0000 0.0000 0.0000 29.1786 0.0000 -8.5595
# 5 -28.4909 -12.4168 -30.2627 0.0000 26.4590 0.0000
# 6 0.0000 0.0000 0.0000 -8.5595 0.0000 29.7459
#
#
#
# Elastic Compliance Matrix: (Units=1/GPa)
#
#
# Indices 1 2 3 4 5 6 
#
# 1 0.012518 -0.003642 0.000199 0.000000 0.011998 0.000000
# 2 -0.003642 0.017086 -0.005322 0.000000 -0.001991 0.000000
# 3 0.000199 -0.005322 0.012870 0.000000 0.012438 0.000000
# 4 0.000000 0.000000 0.000000 0.037431 0.000000 0.010771
# 5 0.011998 -0.001991 0.012438 0.000000 0.064005 0.000000
# 6 0.000000 0.000000 0.000000 0.010771 0.000000 0.036718
#
#
# Mechanical properties :
#
#
# Convention : Reuss Voigt Hill
#
# Bulk Modulus (GPa) = 40.08867 61.48062 50.78465
# Shear Modulus (GPa) = 24.21616 30.50443 27.36030
#
# Velocity S-wave (km/s) = 3.53400 3.96639 3.75643
# Velocity P-wave (km/s) = 6.10962 7.25839 6.70864
#
# Compressibility (1/GPa) = 0.02494470
#
# Stress axis : x y z
#
# Youngs Moduli (GPa) = 79.88348 58.52752 77.69777
#
# Poissons Ratio (x) = 0.21317 -0.01548
# Poissons Ratio (y) = 0.29096 0.41350
# Poissons Ratio (z) = -0.01592 0.31148
#
# Static dielectric constant tensor:
#      x y z
#    x 3.707060 0.000000 -0.035720 
#    y 0.000000 3.543020 0.000000 
#    z -0.035720 0.000000 3.592150 
# 
# 
# High freq. dielectric constant tensor:
#      x y z
#    x 1.766290 0.000000 -0.008840 
#    y 0.000000 1.751520 0.000000 
#    z -0.008840 0.000000 1.748620 
# 
# From -- ./inp_files/267630.got.cif
#   From: 2010.06.25/outbox.cif.g09.slc.cpg/sg12_134_cif.got.tgz:267630.got - 2010.06.28 00:19:55.
