data_PCOD8107876
_publ_section_title
;
Structure prediction by ZEFSAII (Michael W. Deem and Ramdas Pophale) SiO2 
 PCOD8107876
Probable space group: C 2/M
;
_chemical_formula_sum "Si O2"
_cell_formula_units_Z 64
_cell_length_a 30.149162
_cell_length_b 8.756893
_cell_length_c 15.946748
_cell_angle_alpha 90.000000
_cell_angle_beta 47.249563
_cell_angle_gamma 90.000000
_cell_volume 3091.585052
_symmetry_space_group_name_H-M "C 2/M"
_symmetry_group_IT_number 12
_symmetry_cell_setting 'monoclinic'
loop_
_space_group_symop_operation_xyz
x,y,z
-x,y,-z
-x,-y,-z
x,-y,z
1/2+x,1/2+y,z
1/2-x,1/2+y,-z
1/2-x,1/2-y,-z
1/2+x,1/2-y,z
loop_
_atom_site_type_symbol
_atom_site_label
_atom_site_fract_x
_atom_site_fract_y
_atom_site_fract_z
Si Si1 0.337562 0.677563 0.822873
Si Si2 0.002391 0.324166 0.197513
Si Si3 0.203840 0.677642 0.954265
Si Si4 0.930032 0.679698 0.581697
Si Si5 0.184723 0.179248 0.584620
Si Si6 0.909672 0.178933 0.434877
Si Si7 0.093705 0.323789 0.822480
Si Si8 0.391859 0.678787 0.023823
O O1 0.354665 0.500000 0.798697
O O2 0.275127 0.710513 0.853213
O O3 0.392695 0.771605 0.711825
O O4 0.327033 0.727837 0.931484
O O5 0.019947 0.500000 0.188566
O O6 0.967777 0.266205 0.323950
O O7 0.962680 0.300270 0.165764
O O8 0.062605 0.224847 0.109434
O O9 0.191794 0.500000 0.985690
O O10 0.172081 0.736421 0.909966
O O11 0.924469 0.500000 0.575334
O O12 0.899276 0.765148 0.542604
O O13 0.000000 0.729632 0.500000
O O14 0.250000 0.250000 0.500000
O O15 0.149488 0.219864 0.543931
O O16 0.152855 0.253541 0.705147
O O17 0.188347 0.000000 0.594167
O O18 0.922865 0.000000 0.415399
O O19 0.105000 0.500000 0.828674
O O20 0.079714 0.235164 0.925712
O O21 0.381275 0.500000 0.039018
#
# Coordination Sequence:
#
# PCOD8107876 Si02
#       8
#     8   8   8   8   8   8   8   8
#     4  10  22  42  66  90 119 155 198 251 307 359
#     4  10  21  38  60  84 118 158 196 242 297 356
#     4  10  22  41  64  89 120 158 199 247 303 363
#     4  11  25  42  63  91 124 164 206 252 306 366
#     4  10  21  38  61  88 119 157 199 245 299 358
#     4  10  22  40  61  88 120 156 201 251 301 358
#     4  10  21  38  58  83 116 155 197 243 296 351
#     4  12  24  36  57  88 119 155 199 244 292 351
#
# _framework density 20.701353999999998
#
# number of rings (size 3 to 8) (size 9 to 14) (size 15 to 20)
#    0.000    1.625    0.000    4.125    1.750    8.000 
#    0.000    1.250    0.000    0.000    0.000    0.000 
#    0.000    0.000    0.000    0.000    0.000    0.000 
#
# Total GULP energy -396963.716774 kJ/mol
# GULP energy per Si atom -12405.116149 kJ/mol
# Density = 2.065424 g / cm^3
# Si number density = 20.701354 Si / 1000 Ang^3
#
#
#
# Elastic Constant Matrix: (Units=GPa)
#
#
# Indices 1 2 3 4 5 6 
#
# 1 57.6468 34.8356 21.3758 -0.0001 -9.9219 -0.0001
# 2 34.8356 79.4997 24.3047 0.0001 -14.1583 0.0000
# 3 21.3758 24.3047 79.6182 -0.0001 -14.9263 0.0000
# 4 -0.0001 0.0001 -0.0001 40.7772 0.0000 1.7537
# 5 -9.9219 -14.1583 -14.9263 0.0000 32.0374 0.0000
# 6 -0.0001 0.0000 0.0000 1.7537 0.0000 33.8109
#
#
#
# Elastic Compliance Matrix: (Units=1/GPa)
#
#
# Indices 1 2 3 4 5 6 
#
# 1 0.024616 -0.009417 -0.003380 0.000000 0.001887 0.000000
# 2 -0.009417 0.018110 -0.002242 0.000000 0.004042 0.000000
# 3 -0.003380 -0.002242 0.015088 0.000000 0.004992 0.000000
# 4 0.000000 0.000000 0.000000 0.024578 0.000000 -0.001275
# 5 0.001887 0.004042 0.004992 0.000000 0.035910 0.000000
# 6 0.000000 0.000000 0.000000 -0.001275 0.000000 0.029642
#
#
# Mechanical properties :
#
#
# Convention : Reuss Voigt Hill
#
# Bulk Modulus (GPa) = 36.05581 41.97741 39.01661
# Shear Modulus (GPa) = 26.69959 30.40836 28.55397
#
# Velocity S-wave (km/s) = 3.59521 3.83679 3.71796
# Velocity P-wave (km/s) = 5.88973 6.32057 6.10895
#
# Compressibility (1/GPa) = 0.02773478
#
# Stress axis : x y z
#
# Youngs Moduli (GPa) = 40.62439 55.21675 66.27856
#
# Poissons Ratio (x) = 0.51996 0.22405
# Poissons Ratio (y) = 0.38255 0.14863
# Poissons Ratio (z) = 0.13733 0.12382
#
# Static dielectric constant tensor:
#      x y z
#    x 3.838480 0.000000 -0.045860 
#    y 0.000000 3.813860 0.000000 
#    z -0.045860 0.000000 3.701940 
# 
# 
# High freq. dielectric constant tensor:
#      x y z
#    x 1.816070 0.000000 -0.002880 
#    y 0.000000 1.822720 0.000000 
#    z -0.002880 0.000000 1.805110 
# 
# From -- ./inp_files/249854.got.cif
#   From: 2010.06.25/outbox.cif.g09.slc.cpg/sg12_125_cif.got.tgz:249854.got - 2010.06.28 00:19:55.
