data_PCOD8107532
_publ_section_title
;
Structure prediction by ZEFSAII (Michael W. Deem and Ramdas Pophale) SiO2 
 PCOD8107532
Probable space group: C 2/M
;
_chemical_formula_sum "Si O2"
_cell_formula_units_Z 64
_cell_length_a 14.677863
_cell_length_b 19.095037
_cell_length_c 12.429982
_cell_angle_alpha 90.000000
_cell_angle_beta 67.817407
_cell_angle_gamma 90.000000
_cell_volume 3225.952303
_symmetry_space_group_name_H-M "C 2/M"
_symmetry_group_IT_number 12
_symmetry_cell_setting 'monoclinic'
loop_
_space_group_symop_operation_xyz
x,y,z
-x,y,-z
-x,-y,-z
x,-y,z
1/2+x,1/2+y,z
1/2-x,1/2+y,-z
1/2-x,1/2-y,-z
1/2+x,1/2-y,z
loop_
_atom_site_type_symbol
_atom_site_label
_atom_site_fract_x
_atom_site_fract_y
_atom_site_fract_z
Si Si1 0.400699 0.807469 0.983701
Si Si2 0.615436 0.079673 0.434225
Si Si3 0.241278 0.811338 0.233873
Si Si4 0.808750 0.341667 0.803767
Si Si5 0.098534 0.921391 0.224589
Si Si6 0.577211 0.577929 0.560054
Si Si7 0.603951 0.354689 0.000577
Si Si8 0.235574 0.328336 0.541918
O O1 0.311053 0.824732 0.101852
O O2 0.405470 0.725230 0.955444
O O3 0.500000 0.833400 0.000000
O O4 0.377393 0.845309 0.880524
O O5 0.500000 0.083439 0.500000
O O6 0.647305 0.104279 0.301255
O O7 0.656604 0.130138 0.507832
O O8 0.653262 0.000000 0.432905
O O9 0.190723 0.735299 0.249125
O O10 0.156839 0.869412 0.276323
O O11 0.300863 0.823056 0.318127
O O12 0.695135 0.362709 0.878061
O O13 0.982191 0.913241 0.300904
O O14 0.133801 0.000000 0.235316
O O15 0.124455 0.904739 0.090817
O O16 0.500000 0.589753 0.500000
O O17 0.623686 0.500000 0.532057
O O18 0.659888 0.635541 0.518851
O O19 0.500000 0.379626 0.000000
O O20 0.250000 0.250000 0.500000
#
# Coordination Sequence:
#
# PCOD8107532 Si02
#       8
#     8   8   8   8   8   8   8   8
#     4  10  21  37  67  95 124 167 207 269 330 374
#     4  11  28  49  66  91 132 181 223 269 328 385
#     4  11  21  41  62  96 130 159 218 272 318 382
#     4  11  21  43  67  93 129 167 213 272 323 386
#     4  11  22  37  60  90 128 169 205 256 324 390
#     4  10  22  39  60  89 129 168 199 254 329 385
#     4  10  21  37  60  93 129 164 203 255 322 391
#     4  12  25  40  67  99 126 168 224 271 315 389
#
# _framework density 19.839103000000001
#
# number of rings (size 3 to 8) (size 9 to 14) (size 15 to 20)
#    0.000    1.250    5.000    1.125    3.500    3.750 
#    0.000    0.000    0.000    0.750    0.000    0.000 
#    0.000    0.000    0.000    0.000    0.000    0.000 
#
# Total GULP energy -396763.581957 kJ/mol
# GULP energy per Si atom -12398.861936 kJ/mol
# Density = 1.979395 g / cm^3
# Si number density = 19.839103 Si / 1000 Ang^3
#
#
#
# Elastic Constant Matrix: (Units=GPa)
#
#
# Indices 1 2 3 4 5 6 
#
# 1 98.4548 49.2017 32.4023 0.0000 7.6736 0.0000
# 2 49.2017 124.2462 47.0695 0.0000 0.4413 0.0000
# 3 32.4023 47.0695 108.8744 0.0000 16.8239 0.0000
# 4 0.0000 0.0000 0.0000 12.3217 0.0000 0.8325
# 5 7.6736 0.4413 16.8239 0.0000 33.4576 0.0000
# 6 0.0000 0.0000 0.0000 0.8325 0.0000 28.1207
#
#
#
# Elastic Compliance Matrix: (Units=1/GPa)
#
#
# Indices 1 2 3 4 5 6 
#
# 1 0.013145 -0.004594 -0.001593 0.000000 -0.002153 0.000000
# 2 -0.004594 0.011373 -0.004000 0.000000 0.002915 0.000000
# 3 -0.001593 -0.004000 0.012278 0.000000 -0.005756 0.000000
# 4 0.000000 0.000000 0.000000 0.081320 0.000000 -0.002407
# 5 -0.002153 0.002915 -0.005756 0.000000 0.033238 0.000000
# 6 0.000000 0.000000 0.000000 -0.002407 0.000000 0.035632
#
#
# Mechanical properties :
#
#
# Convention : Reuss Voigt Hill
#
# Bulk Modulus (GPa) = 60.89820 65.43582 63.16701
# Shear Modulus (GPa) = 23.49241 28.30679 25.89960
#
# Velocity S-wave (km/s) = 3.44488 3.78142 3.61707
# Velocity P-wave (km/s) = 6.82536 7.21945 7.02517
#
# Compressibility (1/GPa) = 0.01642085
#
# Stress axis : x y z
#
# Youngs Moduli (GPa) = 76.07456 87.92872 81.44823
#
# Poissons Ratio (x) = 0.40396 0.12976
# Poissons Ratio (y) = 0.34950 0.32579
# Poissons Ratio (z) = 0.12120 0.35171
#
# Static dielectric constant tensor:
#      x y z
#    x 3.890910 0.000000 0.137370 
#    y 0.000000 3.591920 0.000000 
#    z 0.137370 0.000000 3.788970 
# 
# 
# High freq. dielectric constant tensor:
#      x y z
#    x 1.769890 0.000000 0.004680 
#    y 0.000000 1.766050 0.000000 
#    z 0.004680 0.000000 1.786650 
# 
# From -- ./inp_files/147627.got.cif
#   From: 2010.06.25/outbox.cif.g09.slc.cpg/sg12_74_cif.got.tgz:147627.got - 2010.06.28 00:19:55.
