data_PCOD8107652
_publ_section_title
;
Structure prediction by ZEFSAII (Michael W. Deem and Ramdas Pophale) SiO2 
 PCOD8107652
Probable space group: C 2/M
;
_chemical_formula_sum "Si O2"
_cell_formula_units_Z 48
_cell_length_a 31.194845
_cell_length_b 14.859060
_cell_length_c 14.776121
_cell_angle_alpha 90.000000
_cell_angle_beta 18.686681
_cell_angle_gamma 90.000000
_cell_volume 2194.407837
_symmetry_space_group_name_H-M "C 2/M"
_symmetry_group_IT_number 12
_symmetry_cell_setting 'monoclinic'
loop_
_space_group_symop_operation_xyz
x,y,z
-x,y,-z
-x,-y,-z
x,-y,z
1/2+x,1/2+y,z
1/2-x,1/2+y,-z
1/2-x,1/2-y,-z
1/2+x,1/2-y,z
loop_
_atom_site_type_symbol
_atom_site_label
_atom_site_fract_x
_atom_site_fract_y
_atom_site_fract_z
Si Si1 0.649682 0.329149 0.800395
Si Si2 0.999889 0.795653 0.601449
Si Si3 0.000126 0.398862 0.344647
Si Si4 0.791704 0.098430 0.700539
Si Si5 0.350316 0.329182 0.399088
Si Si6 0.708501 0.598439 0.866992
O O1 0.681654 0.370975 0.636722
O O2 0.749977 0.249962 0.623999
O O3 0.663728 0.401622 0.851791
O O4 0.499991 0.289472 0.100170
O O5 0.999853 0.686900 0.588318
O O6 0.000000 0.836652 0.500000
O O7 0.131987 0.827778 0.391278
O O8 0.867718 0.827806 0.919688
O O9 0.000141 0.500000 0.391042
O O10 0.868010 0.387293 0.548179
O O11 0.132201 0.387290 0.019795
O O12 0.836326 0.098315 0.506527
O O13 0.829202 0.000000 0.664511
O O14 0.671042 0.500000 0.980853
#
# Coordination Sequence:
#
# PCOD8107652 Si02
#       6
#     8   8   8   8   8   8
#     4  10  21  37  62  94 129 171 216 262 315 374
#     4  12  25  43  69  95 124 166 213 268 328 382
#     4  10  24  44  66  92 128 170 210 260 321 382
#     4  11  24  42  64  95 132 170 213 263 316 379
#     4  10  21  37  62  94 129 171 216 262 315 374
#     4  11  24  42  64  95 132 170 213 263 316 379
#
# _framework density 21.873781999999999
#
# number of rings (size 3 to 8) (size 9 to 14) (size 15 to 20)
#    0.000    1.333    1.667    3.500    2.333    5.000 
#    0.000    5.000    0.000    3.000    0.000    0.000 
#    0.000    0.000    0.000    0.000    0.000    0.000 
#
# Total GULP energy -297373.301351 kJ/mol
# GULP energy per Si atom -12390.554223 kJ/mol
# Density = 2.182400 g / cm^3
# Si number density = 21.873782 Si / 1000 Ang^3
#
#
#
# Elastic Constant Matrix: (Units=GPa)
#
#
# Indices 1 2 3 4 5 6 
#
# 1 137.5694 40.9140 54.3341 0.0000 17.2373 0.0000
# 2 40.9140 126.4412 43.5499 0.0000 -0.7013 0.0000
# 3 54.3341 43.5499 145.9129 -0.0001 -19.3887 0.0000
# 4 0.0000 0.0000 -0.0001 23.8600 0.0000 -2.1724
# 5 17.2373 -0.7013 -19.3887 0.0000 22.3335 0.0000
# 6 0.0000 0.0000 0.0000 -2.1724 0.0000 16.2655
#
#
#
# Elastic Compliance Matrix: (Units=1/GPa)
#
#
# Indices 1 2 3 4 5 6 
#
# 1 0.011899 -0.001953 -0.005738 0.000000 -0.014227 0.000000
# 2 -0.001953 0.009238 -0.002025 0.000000 0.000039 0.000000
# 3 -0.005738 -0.002025 0.011502 0.000000 0.014350 0.000000
# 4 0.000000 0.000000 0.000000 0.042427 0.000000 0.005667
# 5 -0.014227 0.000039 0.014350 0.000000 0.068216 0.000000
# 6 0.000000 0.000000 0.000000 0.005667 0.000000 0.062237
#
#
# Mechanical properties :
#
#
# Convention : Reuss Voigt Hill
#
# Bulk Modulus (GPa) = 75.72050 76.39108 76.05579
# Shear Modulus (GPa) = 21.80051 30.56683 26.18367
#
# Velocity S-wave (km/s) = 3.16040 3.74226 3.46357
# Velocity P-wave (km/s) = 6.92890 7.32612 7.13028
#
# Compressibility (1/GPa) = 0.01320646
#
# Stress axis : x y z
#
# Youngs Moduli (GPa) = 84.04185 108.24452 86.94511
#
# Poissons Ratio (x) = 0.21136 0.49893
# Poissons Ratio (y) = 0.16411 0.17606
# Poissons Ratio (z) = 0.48227 0.21920
#
# Static dielectric constant tensor:
#      x y z
#    x 3.815180 0.000000 -0.091700 
#    y 0.000000 3.946250 0.000000 
#    z -0.091700 0.000000 4.136070 
# 
# 
# High freq. dielectric constant tensor:
#      x y z
#    x 1.849450 0.000000 -0.008190 
#    y 0.000000 1.848540 0.000000 
#    z -0.008190 0.000000 1.878140 
# 
# From -- ./inp_files/251439.got.cif
#   From: 2010.06.25/outbox.cif.g09.slc.cpg/sg12_126_cif.got.tgz:251439.got - 2010.06.28 00:19:55.
