data_PCOD8107776
_publ_section_title
;
Structure prediction by ZEFSAII (Michael W. Deem and Ramdas Pophale) SiO2 
 PCOD8107776
Probable space group: C 2/M
;
_chemical_formula_sum "Si O2"
_cell_formula_units_Z 64
_cell_length_a 14.556714
_cell_length_b 9.028179
_cell_length_c 27.261054
_cell_angle_alpha 90.000000
_cell_angle_beta 108.596388
_cell_angle_gamma 90.000000
_cell_volume 3395.608372
_symmetry_space_group_name_H-M "C 2/M"
_symmetry_group_IT_number 12
_symmetry_cell_setting 'monoclinic'
loop_
_space_group_symop_operation_xyz
x,y,z
-x,y,-z
-x,-y,-z
x,-y,z
1/2+x,1/2+y,z
1/2-x,1/2+y,-z
1/2-x,1/2-y,-z
1/2+x,1/2-y,z
loop_
_atom_site_type_symbol
_atom_site_label
_atom_site_fract_x
_atom_site_fract_y
_atom_site_fract_z
Si Si1 0.219369 0.674037 0.141193
Si Si2 0.421639 0.674564 0.129183
Si Si3 0.518815 0.826352 0.058127
Si Si4 0.378764 0.325388 0.788095
Si Si5 0.535067 0.664931 0.394890
Si Si6 0.659868 0.332072 0.594126
Si Si7 0.149395 0.324973 0.494868
Si Si8 0.338319 0.670722 0.672131
O O1 0.226175 0.500000 0.151685
O O2 0.320164 0.732966 0.134844
O O3 0.129599 0.715302 0.090442
O O4 0.200817 0.750647 0.190350
O O5 0.416055 0.500000 0.120369
O O6 0.440232 0.747499 0.079500
O O7 0.511157 0.720302 0.179568
O O8 0.500624 0.000000 0.060050
O O9 0.500000 0.769869 0.000000
O O10 0.365689 0.500000 0.790180
O O11 0.359236 0.267468 0.729840
O O12 0.570226 0.500000 0.417473
O O13 0.418950 0.673535 0.375970
O O14 0.576580 0.786887 0.438814
O O15 0.565229 0.693584 0.343875
O O16 0.681977 0.500000 0.581080
O O17 0.614788 0.241628 0.540791
O O18 0.756608 0.262151 0.631057
O O19 0.159228 0.500000 0.501575
O O20 0.250000 0.250000 0.500000
O O21 0.306191 0.500000 0.669039
#
# Coordination Sequence:
#
# PCOD8107776 Si02
#       8
#     8   8   8   8   8   8   8   8
#     4   9  18  33  53  76 103 138 179 220 266 317
#     4   9  18  33  53  76 103 137 181 223 262 314
#     4   9  18  32  49  74 110 145 176 216 267 317
#     4   9  19  35  54  76 102 135 176 220 268 314
#     4  10  22  39  58  81 110 142 176 215 264 320
#     4  11  23  38  58  84 110 140 179 218 262 320
#     4  12  23  37  59  83 110 143 178 217 265 317
#     4  10  21  38  57  77 106 141 173 215 270 321
#
# _framework density 18.847874000000001
#
# number of rings (size 3 to 8) (size 9 to 14) (size 15 to 20)
#    0.000    2.125    1.250    1.875    0.000    5.250 
#    0.000    2.500    0.000    0.000    0.000    0.000 
#    0.000    0.000    0.000    0.000    0.000    0.000 
#
# Total GULP energy -396796.846879 kJ/mol
# GULP energy per Si atom -12399.901465 kJ/mol
# Density = 1.880498 g / cm^3
# Si number density = 18.847874 Si / 1000 Ang^3
#
#
#
# Elastic Constant Matrix: (Units=GPa)
#
#
# Indices 1 2 3 4 5 6 
#
# 1 127.1692 29.1738 38.2618 0.0000 -27.0664 0.0000
# 2 29.1738 66.7038 32.6442 0.0000 -12.0484 0.0000
# 3 38.2618 32.6442 113.9486 0.0000 -28.7635 0.0000
# 4 0.0000 0.0000 0.0000 27.2590 0.0000 -6.2280
# 5 -27.0664 -12.0484 -28.7635 0.0000 23.6535 0.0000
# 6 0.0000 0.0000 0.0000 -6.2280 0.0000 23.0734
#
#
#
# Elastic Compliance Matrix: (Units=1/GPa)
#
#
# Indices 1 2 3 4 5 6 
#
# 1 0.010837 -0.002719 -0.000114 0.000000 0.010876 0.000000
# 2 -0.002719 0.018392 -0.004006 0.000000 0.001385 0.000000
# 3 -0.000114 -0.004006 0.013583 0.000000 0.014346 0.000000
# 4 0.000000 0.000000 0.000000 0.039096 0.000000 0.010553
# 5 0.010876 0.001385 0.014346 0.000000 0.072874 0.000000
# 6 0.000000 0.000000 0.000000 0.010553 0.000000 0.046188
#
#
# Mechanical properties :
#
#
# Convention : Reuss Voigt Hill
#
# Bulk Modulus (GPa) = 34.32619 56.44235 45.38427
# Shear Modulus (GPa) = 22.28562 28.64663 25.46612
#
# Velocity S-wave (km/s) = 3.44233 3.90280 3.67977
# Velocity P-wave (km/s) = 5.83535 7.09369 6.49506
#
# Compressibility (1/GPa) = 0.02913228
#
# Stress axis : x y z
#
# Youngs Moduli (GPa) = 92.28011 54.37243 73.61921
#
# Poissons Ratio (x) = 0.14784 0.00842
# Poissons Ratio (y) = 0.25092 0.29494
# Poissons Ratio (z) = 0.01055 0.21783
#
# Static dielectric constant tensor:
#      x y z
#    x 3.711220 0.000000 -0.082640 
#    y 0.000000 3.425440 0.000000 
#    z -0.082640 0.000000 3.589800 
# 
# 
# High freq. dielectric constant tensor:
#      x y z
#    x 1.741040 0.000000 -0.009950 
#    y 0.000000 1.726910 0.000000 
#    z -0.009950 0.000000 1.723480 
# 
# From -- ./inp_files/359964.got.cif
#   From: 2010.06.25/outbox.cif.g09.slc.cpg/sg12_180_cif.got.tgz:359964.got - 2010.06.28 00:19:55.
