data_PCOD8107616
_publ_section_title
;
Structure prediction by ZEFSAII (Michael W. Deem and Ramdas Pophale) SiO2 
 PCOD8107616
Probable space group: C 2/M
;
_chemical_formula_sum "Si O2"
_cell_formula_units_Z 64
_cell_length_a 11.109835
_cell_length_b 16.785865
_cell_length_c 15.563351
_cell_angle_alpha 90.000000
_cell_angle_beta 91.209736
_cell_angle_gamma 90.000000
_cell_volume 2901.734255
_symmetry_space_group_name_H-M "C 2/M"
_symmetry_group_IT_number 12
_symmetry_cell_setting 'monoclinic'
loop_
_space_group_symop_operation_xyz
x,y,z
-x,y,-z
-x,-y,-z
x,-y,z
1/2+x,1/2+y,z
1/2-x,1/2+y,-z
1/2-x,1/2-y,-z
1/2+x,1/2-y,z
loop_
_atom_site_type_symbol
_atom_site_label
_atom_site_fract_x
_atom_site_fract_y
_atom_site_fract_z
Si Si1 0.197318 0.406991 0.643855
Si Si2 0.552586 0.839320 0.335955
Si Si3 0.383211 0.663802 0.952299
Si Si4 0.865958 0.341845 0.981276
Si Si5 0.106389 0.169275 0.250609
Si Si6 0.683623 0.089729 0.197029
Si Si7 0.756895 0.840286 0.472124
Si Si8 0.889843 0.091596 0.326588
O O1 0.174079 0.500000 0.662562
O O2 0.262114 0.363715 0.724697
O O3 0.269478 0.397006 0.555492
O O4 0.078988 0.353500 0.629283
O O5 0.575942 0.752118 0.296615
O O6 0.570183 0.902965 0.259214
O O7 0.639212 0.861336 0.415669
O O8 0.376175 0.748396 0.001130
O O9 0.408646 0.672901 0.851832
O O10 0.500000 0.619967 0.000000
O O11 0.250152 0.622622 0.966498
O O12 0.833173 0.351528 0.881814
O O13 0.000000 0.381535 0.000000
O O14 0.021337 0.102032 0.290180
O O15 0.798809 0.121529 0.251213
O O16 0.698293 0.000000 0.163368
O O17 0.750000 0.750000 0.500000
O O18 0.872584 0.856663 0.413106
O O19 0.864311 0.000000 0.348534
#
# Coordination Sequence:
#
# PCOD8107616 Si02
#       8
#     8   8   8   8   8   8   8   8
#     4  12  27  43  66 101 141 175 220 288 353 401
#     4  11  24  41  67  98 131 177 222 274 330 410
#     4  10  22  39  64  95 129 176 225 282 335 412
#     4  10  21  37  61  96 129 164 221 278 346 403
#     4  12  24  41  70  96 134 175 230 283 334 403
#     4  10  21  40  63  91 129 171 214 267 337 410
#     4  11  22  44  68  99 130 176 230 274 326 410
#     4  10  23  41  64  91 130 175 220 270 334 401
#
# _framework density 22.055776000000002
#
# number of rings (size 3 to 8) (size 9 to 14) (size 15 to 20)
#    0.000    1.250    2.500    3.000    3.500    3.750 
#    0.000    2.500    0.000    3.375    0.000    0.000 
#    0.000    0.000    0.000    0.000    0.000    0.000 
#
# Total GULP energy -396651.847995 kJ/mol
# GULP energy per Si atom -12395.370250 kJ/mol
# Density = 2.200558 g / cm^3
# Si number density = 22.055776 Si / 1000 Ang^3
#
#
#
# Elastic Constant Matrix: (Units=GPa)
#
#
# Indices 1 2 3 4 5 6 
#
# 1 112.0477 14.8827 28.1442 0.0000 -13.2838 0.0000
# 2 14.8827 74.6919 19.0438 0.0000 2.5839 0.0000
# 3 28.1442 19.0438 105.5299 0.0000 0.1479 0.0000
# 4 0.0000 0.0000 0.0000 22.9087 0.0000 -0.3188
# 5 -13.2838 2.5839 0.1479 0.0000 28.0286 0.0000
# 6 0.0000 0.0000 0.0000 -0.3188 0.0000 26.4649
#
#
#
# Elastic Compliance Matrix: (Units=1/GPa)
#
#
# Indices 1 2 3 4 5 6 
#
# 1 0.010363 -0.001608 -0.002481 0.000000 0.005073 0.000000
# 2 -0.001608 0.014330 -0.002154 0.000000 -0.002072 0.000000
# 3 -0.002481 -0.002154 0.010528 0.000000 -0.001033 0.000000
# 4 0.000000 0.000000 0.000000 0.043659 0.000000 0.000526
# 5 0.005073 -0.002072 -0.001033 0.000000 0.038278 0.000000
# 6 0.000000 0.000000 0.000000 0.000526 0.000000 0.037792
#
#
# Mechanical properties :
#
#
# Convention : Reuss Voigt Hill
#
# Bulk Modulus (GPa) = 43.98550 46.26790 45.12670
# Shear Modulus (GPa) = 28.56926 30.82703 29.69814
#
# Velocity S-wave (km/s) = 3.60296 3.74262 3.67345
# Velocity P-wave (km/s) = 6.10693 6.30075 6.20460
#
# Compressibility (1/GPa) = 0.02273476
#
# Stress axis : x y z
#
# Youngs Moduli (GPa) = 96.49889 69.78557 94.98696
#
# Poissons Ratio (x) = 0.11220 0.23563
# Poissons Ratio (y) = 0.15516 0.20462
# Poissons Ratio (z) = 0.23938 0.15033
#
# Static dielectric constant tensor:
#      x y z
#    x 4.355890 0.000000 -0.053010 
#    y 0.000000 3.638530 0.000000 
#    z -0.053010 0.000000 4.118140 
# 
# 
# High freq. dielectric constant tensor:
#      x y z
#    x 1.875760 0.000000 -0.000730 
#    y 0.000000 1.844130 0.000000 
#    z -0.000730 0.000000 1.873890 
# 
# From -- ./inp_files/206687.got.cif
#   From: 2010.06.25/outbox.cif.g09.slc.cpg/sg12_104_cif.got.tgz:206687.got - 2010.06.28 00:19:55.
