data_PCOD8107347
_publ_section_title
;
Structure prediction by ZEFSAII (Michael W. Deem and Ramdas Pophale) SiO2 
 PCOD8107347
Probable space group: C 2/M
;
_chemical_formula_sum "Si O2"
_cell_formula_units_Z 64
_cell_length_a 9.891220
_cell_length_b 15.887646
_cell_length_c 35.084447
_cell_angle_alpha 90.000000
_cell_angle_beta 35.520548
_cell_angle_gamma 90.000000
_cell_volume 3203.290756
_symmetry_space_group_name_H-M "C 2/M"
_symmetry_group_IT_number 12
_symmetry_cell_setting 'monoclinic'
loop_
_space_group_symop_operation_xyz
x,y,z
-x,y,-z
-x,-y,-z
x,-y,z
1/2+x,1/2+y,z
1/2-x,1/2+y,-z
1/2-x,1/2-y,-z
1/2+x,1/2-y,z
loop_
_atom_site_type_symbol
_atom_site_label
_atom_site_fract_x
_atom_site_fract_y
_atom_site_fract_z
Si Si1 0.426660 0.201239 0.431795
Si Si2 0.508223 0.094688 0.935369
Si Si3 0.125852 0.293478 0.643350
Si Si4 0.294963 0.096439 0.522616
Si Si5 0.197720 0.902521 0.338224
Si Si6 0.645488 0.233712 0.845788
Si Si7 0.868488 0.719481 0.237259
Si Si8 0.616978 0.595145 0.085765
O O1 0.250000 0.250000 0.500000
O O2 0.697668 0.228500 0.375353
O O3 0.328788 0.200258 0.411701
O O4 0.375229 0.107395 0.460180
O O5 0.511789 0.166977 0.902847
O O6 0.724113 0.108163 0.913851
O O7 0.521016 0.000000 0.914747
O O8 0.267616 0.104896 0.013086
O O9 0.151526 0.383527 0.658683
O O10 0.857847 0.276248 0.711727
O O11 0.500000 0.138041 0.500000
O O12 0.055260 0.140643 0.592972
O O13 0.257977 0.000000 0.540504
O O14 0.306661 0.864674 0.274841
O O15 0.177087 0.000000 0.335465
O O16 0.573926 0.201686 0.820135
O O17 0.574556 0.331033 0.870131
O O18 0.922182 0.230489 0.790066
O O19 0.506376 0.500000 0.112062
#
# Coordination Sequence:
#
# PCOD8107347 Si02
#       8
#     8   8   8   8   8   8   8   8
#     4  12  21  35  64  89 113 150 200 253 312 380
#     4   9  19  38  64  97 131 165 206 258 318 371
#     4  12  23  41  59  87 122 160 204 250 309 372
#     4  10  21  37  59  88 119 150 191 251 320 381
#     4  11  24  42  62  87 123 161 203 261 317 367
#     4  12  22  39  65  94 125 167 219 259 302 370
#     4  12  24  41  60  86 124 168 209 256 301 367
#     4   9  19  38  65  95 131 168 204 256 320 375
#
# _framework density 19.979454
#
# number of rings (size 3 to 8) (size 9 to 14) (size 15 to 20)
#    0.000    1.125    5.000    3.000    0.000    1.500 
#    0.000    1.875    0.000    4.500    0.000    0.000 
#    0.000    0.000    0.000    0.000    0.000    0.000 
#
# Total GULP energy -396499.940845 kJ/mol
# GULP energy per Si atom -12390.623151 kJ/mol
# Density = 1.993398 g / cm^3
# Si number density = 19.979454 Si / 1000 Ang^3
#
#
#
# Elastic Constant Matrix: (Units=GPa)
#
#
# Indices 1 2 3 4 5 6 
#
# 1 114.4509 43.3156 43.9827 -0.0086 15.7448 0.0078
# 2 43.3156 92.6169 46.6361 -0.0168 11.8196 0.0005
# 3 43.9827 46.6361 85.0627 -0.0497 11.1709 -0.0070
# 4 -0.0086 -0.0168 -0.0497 31.8950 0.0058 3.6999
# 5 15.7448 11.8196 11.1709 0.0058 41.5449 -0.0030
# 6 0.0078 0.0005 -0.0070 3.6999 -0.0030 26.6270
#
#
#
# Elastic Compliance Matrix: (Units=1/GPa)
#
#
# Indices 1 2 3 4 5 6 
#
# 1 0.011841 -0.003179 -0.004052 -0.000004 -0.002493 -0.000004
# 2 -0.003179 0.015950 -0.006907 -0.000003 -0.001476 -0.000001
# 3 -0.004052 -0.006907 0.017807 0.000023 -0.001287 0.000003
# 4 -0.000004 -0.000003 0.000023 0.031867 -0.000009 -0.004428
# 5 -0.002493 -0.001476 -0.001287 -0.000009 0.025781 0.000005
# 6 -0.000004 -0.000001 0.000003 -0.004428 0.000005 0.038171
#
#
# Mechanical properties :
#
#
# Convention : Reuss Voigt Hill
#
# Bulk Modulus (GPa) = 57.73168 62.22215 59.97691
# Shear Modulus (GPa) = 28.49521 30.55978 29.52750
#
# Velocity S-wave (km/s) = 3.78064 3.91520 3.84851
# Velocity P-wave (km/s) = 6.92935 7.18673 7.05921
#
# Compressibility (1/GPa) = 0.01732151
#
# Stress axis : x y z
#
# Youngs Moduli (GPa) = 84.45419 62.69419 56.15729
#
# Poissons Ratio (x) = 0.19932 0.22754
# Poissons Ratio (y) = 0.26850 0.38789
# Poissons Ratio (z) = 0.34220 0.43304
#
# Static dielectric constant tensor:
#      x y z
#    x 4.081590 -0.000440 0.295670 
#    y -0.000440 4.247430 -0.000150 
#    z 0.295670 -0.000150 4.019280 
# 
# 
# High freq. dielectric constant tensor:
#      x y z
#    x 1.779960 0.000000 0.001260 
#    y 0.000000 1.773230 0.000000 
#    z 0.001260 0.000000 1.784120 
# 
# From -- ./inp_files/372891.got.cif
#   From: 2010.06.25/outbox.cif.g09.slc.cpg/sg12_187_cif.got.tgz:372891.got - 2010.06.28 00:19:55.
