data_PCOD8107296
_publ_section_title
;
Structure prediction by ZEFSAII (Michael W. Deem and Ramdas Pophale) SiO2 
 PCOD8107296
Probable space group: C 2/M
;
_chemical_formula_sum "Si O2"
_cell_formula_units_Z 48
_cell_length_a 19.421052
_cell_length_b 9.092731
_cell_length_c 25.868960
_cell_angle_alpha 90.000000
_cell_angle_beta 147.092826
_cell_angle_gamma 90.000000
_cell_volume 2481.815204
_symmetry_space_group_name_H-M "C 2/M"
_symmetry_group_IT_number 12
_symmetry_cell_setting 'monoclinic'
loop_
_space_group_symop_operation_xyz
x,y,z
-x,y,-z
-x,-y,-z
x,-y,z
1/2+x,1/2+y,z
1/2-x,1/2+y,-z
1/2-x,1/2-y,-z
1/2+x,1/2-y,z
loop_
_atom_site_type_symbol
_atom_site_label
_atom_site_fract_x
_atom_site_fract_y
_atom_site_fract_z
Si Si1 0.816083 0.327941 0.617194
Si Si2 0.157943 0.827274 0.981625
Si Si3 0.608878 0.668250 0.235179
Si Si4 0.207309 0.669625 0.739803
Si Si5 0.855829 0.327839 0.921475
Si Si6 0.082153 0.670122 0.429155
O O1 0.801522 0.500000 0.614713
O O2 0.889740 0.267038 0.713075
O O3 0.897899 0.285507 0.618195
O O4 0.675764 0.260411 0.525006
O O5 0.013582 0.790610 0.875796
O O6 0.185297 0.000000 0.999638
O O7 0.250000 0.750000 0.000000
O O8 0.188715 0.761845 0.056858
O O9 0.603092 0.500000 0.249739
O O10 0.732598 0.698813 0.278461
O O11 0.229250 0.500000 0.770684
O O12 0.269399 0.778542 0.819699
O O13 0.059540 0.708051 0.642903
O O14 0.836805 0.500000 0.919698
O O15 0.000000 0.287847 0.000000
O O16 0.114385 0.500000 0.457767
#
# Coordination Sequence:
#
# PCOD8107296 Si02
#       6
#     8   8   8   8   8   8
#     4  10  21  37  59  86 117 150 187 238 294 347
#     4  11  24  41  61  87 120 158 201 244 293 349
#     4  10  22  39  59  84 116 153 193 240 291 346
#     4  10  21  39  62  86 113 154 202 241 287 346
#     4  11  23  39  60  88 122 158 195 242 295 347
#     4   9  20  39  61  85 111 148 194 237 288 350
#
# _framework density 19.340682999999999
#
# number of rings (size 3 to 8) (size 9 to 14) (size 15 to 20)
#    0.000    1.833    1.667    1.500    2.333    4.667 
#    0.000    3.333    0.000    0.000    0.000    0.000 
#    0.000    0.000    0.000    0.000    0.000    0.000 
#
# Total GULP energy -297739.232994 kJ/mol
# GULP energy per Si atom -12405.801375 kJ/mol
# Density = 1.929666 g / cm^3
# Si number density = 19.340683 Si / 1000 Ang^3
#
#
#
# Elastic Constant Matrix: (Units=GPa)
#
#
# Indices 1 2 3 4 5 6 
#
# 1 82.1862 31.9957 13.3312 -0.0006 9.3905 0.0000
# 2 31.9957 72.8863 26.0717 -0.0005 -1.8984 0.0001
# 3 13.3312 26.0717 47.1824 -0.0003 1.2426 0.0001
# 4 -0.0006 -0.0005 -0.0003 38.4258 0.0001 -6.2610
# 5 9.3905 -1.8984 1.2426 0.0001 38.4708 0.0000
# 6 0.0000 0.0001 0.0001 -6.2610 0.0000 31.5516
#
#
#
# Elastic Compliance Matrix: (Units=1/GPa)
#
#
# Indices 1 2 3 4 5 6 
#
# 1 0.015298 -0.006621 -0.000557 0.000000 -0.004043 0.000000
# 2 -0.006621 0.020017 -0.009266 0.000000 0.002903 0.000000
# 3 -0.000557 -0.009266 0.026503 0.000000 -0.001177 0.000000
# 4 0.000000 0.000000 0.000000 0.026894 0.000000 0.005337
# 5 -0.004043 0.002903 -0.001177 0.000000 0.027162 0.000000
# 6 0.000000 0.000000 0.000000 0.005337 0.000000 0.032753
#
#
# Mechanical properties :
#
#
# Convention : Reuss Voigt Hill
#
# Bulk Modulus (GPa) = 34.56866 38.33913 36.45390
# Shear Modulus (GPa) = 26.15632 30.41340 28.28486
#
# Velocity S-wave (km/s) = 3.68149 3.96979 3.82835
# Velocity P-wave (km/s) = 5.99862 6.39362 6.19927
#
# Compressibility (1/GPa) = 0.02892793
#
# Stress axis : x y z
#
# Youngs Moduli (GPa) = 65.37007 49.95774 37.73147
#
# Poissons Ratio (x) = 0.33079 0.02102
# Poissons Ratio (y) = 0.43284 0.34964
# Poissons Ratio (z) = 0.03641 0.46293
#
# Static dielectric constant tensor:
#      x y z
#    x 3.680400 0.000000 0.058490 
#    y 0.000000 3.536040 0.000000 
#    z 0.058490 0.000000 3.556890 
# 
# 
# High freq. dielectric constant tensor:
#      x y z
#    x 1.760000 0.000000 0.002280 
#    y 0.000000 1.755640 0.000000 
#    z 0.002280 0.000000 1.752690 
# 
# From -- ./inp_files/221593.got.cif
#   From: 2010.06.25/outbox.cif.g09.slc.cpg/sg12_111_cif.got.tgz:221593.got - 2010.06.28 00:19:55.
