data_PCOD8107505
_publ_section_title
;
Structure prediction by ZEFSAII (Michael W. Deem and Ramdas Pophale) SiO2 
 PCOD8107505
Probable space group: C 2/M
;
_chemical_formula_sum "Si O2"
_cell_formula_units_Z 64
_cell_length_a 24.580387
_cell_length_b 17.433933
_cell_length_c 14.293180
_cell_angle_alpha 90.000000
_cell_angle_beta 149.927703
_cell_angle_gamma 90.000000
_cell_volume 3069.239241
_symmetry_space_group_name_H-M "C 2/M"
_symmetry_group_IT_number 12
_symmetry_cell_setting 'monoclinic'
loop_
_space_group_symop_operation_xyz
x,y,z
-x,y,-z
-x,-y,-z
x,-y,z
1/2+x,1/2+y,z
1/2-x,1/2+y,-z
1/2-x,1/2-y,-z
1/2+x,1/2-y,z
loop_
_atom_site_type_symbol
_atom_site_label
_atom_site_fract_x
_atom_site_fract_y
_atom_site_fract_z
Si Si1 0.386576 0.917788 0.885032
Si Si2 0.658534 0.412915 0.448636
Si Si3 0.082757 0.256863 0.038519
Si Si4 0.757607 0.587350 0.126339
Si Si5 0.040065 0.172976 0.789230
Si Si6 0.441038 0.814505 0.316912
Si Si7 0.269873 0.318484 0.601670
Si Si8 0.877332 0.587822 0.497394
O O1 0.284417 0.905068 0.664029
O O2 0.386397 0.843206 0.951782
O O3 0.370390 0.000000 0.914282
O O4 0.500000 0.921953 0.000000
O O5 0.618277 0.500000 0.386307
O O6 0.577920 0.367006 0.399680
O O7 0.649692 0.378519 0.330166
O O8 0.185872 0.212745 0.233817
O O9 0.031852 0.212993 0.877245
O O10 0.000000 0.264983 0.000000
O O11 0.776900 0.500000 0.120353
O O12 0.824091 0.647948 0.162349
O O13 0.791631 0.594206 0.285154
O O14 0.631589 0.607768 0.926788
O O15 0.068043 0.235159 0.752454
O O16 0.500000 0.792019 0.500000
O O17 0.506945 0.879515 0.360343
O O18 0.250000 0.250000 0.500000
O O19 0.160651 0.363292 0.468920
O O20 0.892340 0.500000 0.551280
#
# Coordination Sequence:
#
# PCOD8107505 Si02
#       8
#     8   8   8   8   8   8   8   8
#     4   9  20  38  57  79 117 169 214 252 291 343
#     4  11  23  38  59  91 131 170 209 252 308 373
#     4  11  22  37  58  90 129 167 208 249 298 368
#     4  10  21  41  64  89 123 154 201 270 331 377
#     4  12  23  39  64  94 125 167 206 255 320 383
#     4  10  23  41  65  91 117 158 211 269 319 376
#     4  12  21  36  57  90 129 165 209 252 300 371
#     4  10  21  37  60  90 120 160 209 260 319 372
#
# _framework density 20.852073000000001
#
# number of rings (size 3 to 8) (size 9 to 14) (size 15 to 20)
#    0.000    1.375    3.750    2.250    0.000    1.500 
#    0.000    3.125    0.000    3.000    0.000    0.000 
#    0.000    0.000    0.000    0.000    0.000    0.000 
#
# Total GULP energy -396612.337451 kJ/mol
# GULP energy per Si atom -12394.135545 kJ/mol
# Density = 2.080461 g / cm^3
# Si number density = 20.852073 Si / 1000 Ang^3
#
#
#
# Elastic Constant Matrix: (Units=GPa)
#
#
# Indices 1 2 3 4 5 6 
#
# 1 85.9137 51.0729 22.6011 0.0000 10.9509 0.0000
# 2 51.0729 153.6106 36.4898 0.0000 4.6802 0.0000
# 3 22.6011 36.4898 83.4787 0.0000 18.7521 0.0000
# 4 0.0000 0.0000 0.0000 23.3520 0.0000 6.0925
# 5 10.9509 4.6802 18.7521 0.0000 25.5263 0.0000
# 6 0.0000 0.0000 0.0000 6.0925 0.0000 34.4609
#
#
#
# Elastic Compliance Matrix: (Units=1/GPa)
#
#
# Indices 1 2 3 4 5 6 
#
# 1 0.015336 -0.004717 -0.000966 0.000000 -0.005005 0.000000
# 2 -0.004717 0.008746 -0.003162 0.000000 0.002743 0.000000
# 3 -0.000966 -0.003162 0.016048 0.000000 -0.010795 0.000000
# 4 0.000000 0.000000 0.000000 0.044894 0.000000 -0.007937
# 5 -0.005005 0.002743 -0.010795 0.000000 0.048749 0.000000
# 6 0.000000 0.000000 0.000000 -0.007937 0.000000 0.030422
#
#
# Mechanical properties :
#
#
# Convention : Reuss Voigt Hill
#
# Bulk Modulus (GPa) = 44.56451 60.37005 52.46728
# Shear Modulus (GPa) = 26.40425 30.85712 28.63069
#
# Velocity S-wave (km/s) = 3.56232 3.85100 3.70947
# Velocity P-wave (km/s) = 6.19179 6.98485 6.60024
#
# Compressibility (1/GPa) = 0.02243938
#
# Stress axis : x y z
#
# Youngs Moduli (GPa) = 65.20758 114.34040 62.31429
#
# Poissons Ratio (x) = 0.53933 0.06019
# Poissons Ratio (y) = 0.30758 0.19704
# Poissons Ratio (z) = 0.06299 0.36155
#
# Static dielectric constant tensor:
#      x y z
#    x 3.606640 0.000000 0.119050 
#    y 0.000000 4.313660 0.000000 
#    z 0.119050 0.000000 3.907710 
# 
# 
# High freq. dielectric constant tensor:
#      x y z
#    x 1.789300 0.000000 0.018460 
#    y 0.000000 1.841660 0.000000 
#    z 0.018460 0.000000 1.807370 
# 
# From -- ./inp_files/241510.got.cif
#   From: 2010.06.25/outbox.cif.g09.slc.cpg/sg12_121_cif.got.tgz:241510.got - 2010.06.28 00:19:55.
