data_PCOD8107437
_publ_section_title
;
Structure prediction by ZEFSAII (Michael W. Deem and Ramdas Pophale) SiO2 
 PCOD8107437
Probable space group: C 2/M
;
_chemical_formula_sum "Si O2"
_cell_formula_units_Z 64
_cell_length_a 17.985171
_cell_length_b 8.764603
_cell_length_c 30.240140
_cell_angle_alpha 90.000000
_cell_angle_beta 138.255822
_cell_angle_gamma 90.000000
_cell_volume 3173.790288
_symmetry_space_group_name_H-M "C 2/M"
_symmetry_group_IT_number 12
_symmetry_cell_setting 'monoclinic'
loop_
_space_group_symop_operation_xyz
x,y,z
-x,y,-z
-x,-y,-z
x,-y,z
1/2+x,1/2+y,z
1/2-x,1/2+y,-z
1/2-x,1/2-y,-z
1/2+x,1/2-y,z
loop_
_atom_site_type_symbol
_atom_site_label
_atom_site_fract_x
_atom_site_fract_y
_atom_site_fract_z
Si Si1 0.582050 0.323343 0.424590
Si Si2 0.264808 0.176383 0.180591
Si Si3 0.369419 0.678696 0.061588
Si Si4 0.327635 0.322528 0.692250
Si Si5 0.264759 0.823150 0.576721
Si Si6 0.852708 0.676085 0.315591
Si Si7 0.557430 0.177284 0.815630
Si Si8 0.530841 0.177005 0.063485
O O1 0.592527 0.500000 0.416324
O O2 0.627362 0.223854 0.403982
O O3 0.652116 0.287395 0.499798
O O4 0.454703 0.279198 0.377562
O O5 0.326557 0.216219 0.253443
O O6 0.347540 0.215594 0.177547
O O7 0.159015 0.284665 0.129061
O O8 0.226793 0.000000 0.162949
O O9 0.353613 0.500000 0.054707
O O10 0.420197 0.728039 0.130579
O O11 0.453437 0.722904 0.060283
O O12 0.250000 0.750000 0.000000
O O13 0.358726 0.500000 0.704318
O O14 0.257799 0.275803 0.618028
O O15 0.255199 0.283347 0.703239
O O16 0.439591 0.223931 0.742808
O O17 0.275953 0.000000 0.594021
O O18 0.886143 0.500000 0.336360
O O19 0.556136 0.000000 0.827220
O O20 0.509477 0.000000 0.064116
O O21 0.500000 0.220013 0.000000
#
# Coordination Sequence:
#
# PCOD8107437 Si02
#       8
#     8   8   8   8   8   8   8   8
#     4  10  21  37  60  87 113 149 198 247 297 355
#     4  10  22  40  62  88 118 155 196 240 296 356
#     4  12  25  42  64  90 124 162 202 247 295 352
#     4  11  23  38  59  88 121 158 199 242 292 353
#     4  10  21  38  59  84 117 154 194 244 298 354
#     4  10  22  39  58  84 119 155 193 241 296 353
#     4  11  23  40  64  92 122 157 198 246 300 353
#     4  11  24  41  63  92 123 156 198 247 298 352
#
# _framework density 20.165161999999999
#
# number of rings (size 3 to 8) (size 9 to 14) (size 15 to 20)
#    0.000    1.375    0.000    5.250    0.000    9.500 
#    0.000    2.500    0.000    0.000    0.000    0.000 
#    0.000    0.000    0.000    0.000    0.000    0.000 
#
# Total GULP energy -397058.274849 kJ/mol
# GULP energy per Si atom -12408.071089 kJ/mol
# Density = 2.011927 g / cm^3
# Si number density = 20.165162 Si / 1000 Ang^3
#
#
#
# Elastic Constant Matrix: (Units=GPa)
#
#
# Indices 1 2 3 4 5 6 
#
# 1 109.4696 57.9076 48.0453 0.0000 -3.1565 0.0000
# 2 57.9076 93.0215 44.7644 0.0000 -0.1966 0.0000
# 3 48.0453 44.7644 104.7403 0.0000 2.3277 0.0000
# 4 0.0000 0.0000 0.0000 32.9717 0.0000 6.9277
# 5 -3.1565 -0.1966 2.3277 0.0000 38.4717 0.0000
# 6 0.0000 0.0000 0.0000 6.9277 0.0000 30.8429
#
#
#
# Elastic Compliance Matrix: (Units=1/GPa)
#
#
# Indices 1 2 3 4 5 6 
#
# 1 0.014666 -0.007396 -0.003597 0.000000 0.001383 0.000000
# 2 -0.007396 0.017270 -0.003982 0.000000 -0.000278 0.000000
# 3 -0.003597 -0.003982 0.012924 0.000000 -0.001097 0.000000
# 4 0.000000 0.000000 0.000000 0.031831 0.000000 -0.007150
# 5 0.001383 -0.000278 -0.001097 0.000000 0.026172 0.000000
# 6 0.000000 0.000000 0.000000 -0.007150 0.000000 0.034028
#
#
# Mechanical properties :
#
#
# Convention : Reuss Voigt Hill
#
# Bulk Modulus (GPa) = 67.07287 67.62955 67.35121
# Shear Modulus (GPa) = 29.10173 30.89155 29.99664
#
# Velocity S-wave (km/s) = 3.80303 3.91823 3.86106
# Velocity P-wave (km/s) = 7.25383 7.35396 7.30406
#
# Compressibility (1/GPa) = 0.01490916
#
# Stress axis : x y z
#
# Youngs Moduli (GPa) = 68.18547 57.90397 77.37624
#
# Poissons Ratio (x) = 0.42824 0.27834
# Poissons Ratio (y) = 0.50428 0.30813
# Poissons Ratio (z) = 0.24528 0.23059
#
# Static dielectric constant tensor:
#      x y z
#    x 3.669330 0.000000 -0.079260 
#    y 0.000000 3.708200 0.000000 
#    z -0.079260 0.000000 3.741120 
# 
# 
# High freq. dielectric constant tensor:
#      x y z
#    x 1.795170 0.000000 -0.002490 
#    y 0.000000 1.795060 0.000000 
#    z -0.002490 0.000000 1.800060 
# 
# From -- ./inp_files/378321.got.cif
#   From: 2010.06.25/outbox.cif.g09.slc.cpg/sg12_190_cif.got.tgz:378321.got - 2010.06.28 00:19:55.
