data_PCOD8107681
_publ_section_title
;
Structure prediction by ZEFSAII (Michael W. Deem and Ramdas Pophale) SiO2 
 PCOD8107681
Probable space group: C 2/M
;
_chemical_formula_sum "Si O2"
_cell_formula_units_Z 32
_cell_length_a 17.925283
_cell_length_b 17.496805
_cell_length_c 14.834924
_cell_angle_alpha 90.000000
_cell_angle_beta 20.029713
_cell_angle_gamma 90.000000
_cell_volume 1593.602759
_symmetry_space_group_name_H-M "C 2/M"
_symmetry_group_IT_number 12
_symmetry_cell_setting 'monoclinic'
loop_
_space_group_symop_operation_xyz
x,y,z
-x,y,-z
-x,-y,-z
x,-y,z
1/2+x,1/2+y,z
1/2-x,1/2+y,-z
1/2-x,1/2-y,-z
1/2+x,1/2-y,z
loop_
_atom_site_type_symbol
_atom_site_label
_atom_site_fract_x
_atom_site_fract_y
_atom_site_fract_z
Si Si1 0.077220 0.209796 0.761153
Si Si2 0.169150 0.806484 0.227987
Si Si3 0.950192 0.337820 0.450533
Si Si4 0.313077 0.586887 0.950591
O O1 0.250000 0.250000 0.500000
O O2 0.197082 0.171258 0.712206
O O3 0.969127 0.137784 0.834841
O O4 0.904464 0.273419 0.993181
O O5 0.191805 0.884372 0.146891
O O6 0.000000 0.823295 0.500000
O O7 0.067788 0.739660 0.279729
O O8 0.000000 0.343837 0.500000
O O9 0.065015 0.408846 0.270238
O O10 0.395052 0.500000 0.859086
#
# Coordination Sequence:
#
# PCOD8107681 Si02
#       4
#     8   8   8   8
#     4  11  19  41  67  87 119 164 213 250 299 360
#     4  10  21  37  63  94 120 160 206 257 300 366
#     4  10  21  39  64  90 118 158 213 258 298 358
#     4  11  23  38  58  92 132 164 196 253 316 365
#
# _framework density 20.080286999999998
#
# number of rings (size 3 to 8) (size 9 to 14) (size 15 to 20)
#    0.000    1.500    5.000    1.500    0.000   11.000 
#    0.000    1.250    0.000    1.500    0.000    0.000 
#    0.000    0.000    0.000    0.000    0.000    0.000 
#
# Total GULP energy -198253.398270 kJ/mol
# GULP energy per Si atom -12390.837392 kJ/mol
# Density = 2.003458 g / cm^3
# Si number density = 20.080287 Si / 1000 Ang^3
#
#
#
# Elastic Constant Matrix: (Units=GPa)
#
#
# Indices 1 2 3 4 5 6 
#
# 1 126.0199 51.6293 70.7776 -0.0452 -13.9813 0.0208
# 2 51.6293 122.4476 44.5171 -0.2880 6.3539 0.0795
# 3 70.7776 44.5171 141.8097 -0.2259 -2.6972 0.1173
# 4 -0.0452 -0.2880 -0.2259 18.1586 0.1333 -4.9854
# 5 -13.9813 6.3539 -2.6972 0.1333 35.3857 -0.0449
# 6 0.0208 0.0795 0.1173 -4.9854 -0.0449 15.4562
#
#
#
# Elastic Compliance Matrix: (Units=1/GPa)
#
#
# Indices 1 2 3 4 5 6 
#
# 1 0.013053 -0.003902 -0.005186 -0.000130 0.005463 0.000016
# 2 -0.003902 0.010512 -0.001420 0.000167 -0.003538 0.000006
# 3 -0.005186 -0.001420 0.010066 0.000087 -0.001027 -0.000037
# 4 -0.000130 0.000167 0.000087 0.060426 -0.000277 0.019488
# 5 0.005463 -0.003538 -0.001027 -0.000277 0.030977 0.000019
# 6 0.000016 0.000006 -0.000037 0.019488 0.000019 0.070985
#
#
# Mechanical properties :
#
#
# Convention : Reuss Voigt Hill
#
# Bulk Modulus (GPa) = 79.26420 80.45834 79.86127
# Shear Modulus (GPa) = 22.59998 28.69031 25.64514
#
# Velocity S-wave (km/s) = 3.35846 3.78402 3.57757
# Velocity P-wave (km/s) = 7.38907 7.69721 7.54471
#
# Compressibility (1/GPa) = 0.01261604
#
# Stress axis : x y z
#
# Youngs Moduli (GPa) = 76.61353 95.12895 99.34152
#
# Poissons Ratio (x) = 0.37118 0.51518
# Poissons Ratio (y) = 0.29894 0.14102
# Poissons Ratio (z) = 0.39732 0.13504
#
# Static dielectric constant tensor:
#      x y z
#    x 3.619490 -0.000040 -0.196260 
#    y -0.000040 3.403700 0.000260 
#    z -0.196260 0.000260 3.963090 
# 
# 
# High freq. dielectric constant tensor:
#      x y z
#    x 1.782760 -0.000010 -0.000530 
#    y -0.000010 1.746400 0.000020 
#    z -0.000530 0.000020 1.799590 
# 
# From -- ./inp_files/9956.got.cif
#   From: 2010.06.25/outbox.cif.g09.slc.cpg/sg12_5_cif.got.tgz:9956.got - 2010.06.28 00:19:55.
