data_PCOD8107767
_publ_section_title
;
Structure prediction by ZEFSAII (Michael W. Deem and Ramdas Pophale) SiO2 
 PCOD8107767
Probable space group: C 2/M
;
_chemical_formula_sum "Si O2"
_cell_formula_units_Z 64
_cell_length_a 30.494711
_cell_length_b 8.677889
_cell_length_c 18.884264
_cell_angle_alpha 90.000000
_cell_angle_beta 140.095468
_cell_angle_gamma 90.000000
_cell_volume 3205.843496
_symmetry_space_group_name_H-M "C 2/M"
_symmetry_group_IT_number 12
_symmetry_cell_setting 'monoclinic'
loop_
_space_group_symop_operation_xyz
x,y,z
-x,y,-z
-x,-y,-z
x,-y,z
1/2+x,1/2+y,z
1/2-x,1/2+y,-z
1/2-x,1/2-y,-z
1/2+x,1/2-y,z
loop_
_atom_site_type_symbol
_atom_site_label
_atom_site_fract_x
_atom_site_fract_y
_atom_site_fract_z
Si Si1 0.599022 0.817956 0.669997
Si Si2 0.218135 0.821232 0.303923
Si Si3 0.352926 0.320801 0.519714
Si Si4 0.739240 0.183409 0.909391
Si Si5 0.845471 0.820645 0.924484
Si Si6 0.545204 0.817655 0.453601
Si Si7 0.374503 0.820569 0.694290
Si Si8 0.513188 0.180938 0.938191
O O1 0.668504 0.749079 0.789173
O O2 0.586733 0.760463 0.574530
O O3 0.534324 0.770328 0.638087
O O4 0.604160 0.000000 0.673169
O O5 0.297451 0.780725 0.409499
O O6 0.197145 0.781467 0.198299
O O7 0.175163 0.712250 0.302041
O O8 0.205347 0.000000 0.306364
O O9 0.337919 0.500000 0.490400
O O10 0.426265 0.273043 0.578887
O O11 0.350594 0.283044 0.599638
O O12 0.801728 0.238915 0.937236
O O13 0.735872 0.000000 0.908774
O O14 0.750000 0.250000 0.000000
O O15 0.859848 0.000000 0.948755
O O16 0.918310 0.738936 0.013740
O O17 0.552876 0.000000 0.451706
O O18 0.451058 0.772382 0.810309
O O19 0.369478 0.000000 0.667875
O O20 0.518912 0.000000 0.954157
O O21 0.500000 0.254524 0.000000
#
# Coordination Sequence:
#
# PCOD8107767 Si02
#       8
#     8   8   8   8   8   8   8   8
#     4   8  16  34  62  85 109 144 189 238 287 345
#     4  11  22  39  62  86 113 150 194 240 289 348
#     4  12  25  38  54  83 121 156 190 236 290 347
#     4  10  21  38  56  83 118 153 191 234 285 341
#     4  10  22  38  62  90 118 153 195 242 292 348
#     4   9  17  35  62  87 107 142 190 239 291 346
#     4  11  23  40  60  83 115 154 192 238 289 345
#     4  10  21  39  62  87 116 150 193 243 288 340
#
# _framework density 19.963543999999999
#
# number of rings (size 3 to 8) (size 9 to 14) (size 15 to 20)
#    0.000    1.875    1.250    3.750    0.000    5.250 
#    0.000    7.500    0.000    0.000    0.000    0.000 
#    0.000    0.000    0.000    0.000    0.000    0.000 
#
# Total GULP energy -396883.564094 kJ/mol
# GULP energy per Si atom -12402.611378 kJ/mol
# Density = 1.991811 g / cm^3
# Si number density = 19.963544 Si / 1000 Ang^3
#
#
#
# Elastic Constant Matrix: (Units=GPa)
#
#
# Indices 1 2 3 4 5 6 
#
# 1 105.9085 6.0931 39.3757 0.0000 7.5095 0.0000
# 2 6.0931 24.0727 14.7456 0.0000 0.2707 0.0000
# 3 39.3757 14.7456 69.2033 0.0000 11.1036 0.0000
# 4 0.0000 0.0000 0.0000 19.1856 0.0000 -5.9388
# 5 7.5095 0.2707 11.1036 0.0000 33.9528 0.0000
# 6 0.0000 0.0000 0.0000 -5.9388 0.0000 29.0706
#
#
#
# Elastic Compliance Matrix: (Units=1/GPa)
#
#
# Indices 1 2 3 4 5 6 
#
# 1 0.012016 0.001282 -0.007052 0.000000 -0.000362 0.000000
# 2 0.001282 0.048227 -0.011502 0.000000 0.003093 0.000000
# 3 -0.007052 -0.011502 0.021792 0.000000 -0.005475 0.000000
# 4 0.000000 0.000000 0.000000 0.055641 0.000000 0.011367
# 5 -0.000362 0.003093 -0.005475 0.000000 0.031299 0.000000
# 6 0.000000 0.000000 0.000000 0.011367 0.000000 0.036721
#
#
# Mechanical properties :
#
#
# Convention : Reuss Voigt Hill
#
# Bulk Modulus (GPa) = 21.05642 35.51258 28.28450
# Shear Modulus (GPa) = 19.52594 25.70646 22.61620
#
# Velocity S-wave (km/s) = 3.13082 3.59231 3.36947
# Velocity P-wave (km/s) = 4.86207 5.91891 5.41633
#
# Compressibility (1/GPa) = 0.04749146
#
# Stress axis : x y z
#
# Youngs Moduli (GPa) = 83.22326 20.73528 45.88830
#
# Poissons Ratio (x) = -0.02659 0.32361
# Poissons Ratio (y) = -0.10673 0.52781
# Poissons Ratio (z) = 0.58690 0.23850
#
# Static dielectric constant tensor:
#      x y z
#    x 3.735780 0.000000 0.134520 
#    y 0.000000 3.329900 0.000000 
#    z 0.134520 0.000000 3.841650 
# 
# 
# High freq. dielectric constant tensor:
#      x y z
#    x 1.790160 0.000000 0.006740 
#    y 0.000000 1.756230 0.000000 
#    z 0.006740 0.000000 1.782690 
# 
# From -- ./inp_files/295789.got.cif
#   From: 2010.06.25/outbox.cif.g09.slc.cpg/sg12_148_cif.got.tgz:295789.got - 2010.06.28 00:19:55.
