data_PCOD8107332
_publ_section_title
;
Structure prediction by ZEFSAII (Michael W. Deem and Ramdas Pophale) SiO2 
 PCOD8107332
Probable space group: C 2/M
;
_chemical_formula_sum "Si O2"
_cell_formula_units_Z 48
_cell_length_a 9.213618
_cell_length_b 20.241154
_cell_length_c 13.503786
_cell_angle_alpha 90.000000
_cell_angle_beta 97.292950
_cell_angle_gamma 90.000000
_cell_volume 2498.005082
_symmetry_space_group_name_H-M "C 2/M"
_symmetry_group_IT_number 12
_symmetry_cell_setting 'monoclinic'
loop_
_space_group_symop_operation_xyz
x,y,z
-x,y,-z
-x,-y,-z
x,-y,z
1/2+x,1/2+y,z
1/2-x,1/2+y,-z
1/2-x,1/2-y,-z
1/2+x,1/2-y,z
loop_
_atom_site_type_symbol
_atom_site_label
_atom_site_fract_x
_atom_site_fract_y
_atom_site_fract_z
Si Si1 0.609698 0.135845 0.709282
Si Si2 0.864063 0.760453 0.425967
Si Si3 0.227456 0.374709 0.286361
Si Si4 0.843306 0.824954 0.107295
Si Si5 0.794365 0.500000 0.589508
Si Si6 0.674941 0.309143 0.114518
Si Si7 0.641615 0.000000 0.617301
O O1 0.603135 0.190350 0.622457
O O2 0.446759 0.130219 0.737838
O O3 0.719525 0.150848 0.806360
O O4 0.677472 0.067322 0.677082
O O5 0.750000 0.750000 0.500000
O O6 0.804597 0.810253 0.338406
O O7 0.000000 0.788855 0.500000
O O8 0.292824 0.381932 0.180420
O O9 0.268517 0.436953 0.357886
O O10 0.732111 0.764891 0.112852
O O11 0.011023 0.804794 0.144593
O O12 0.827121 0.847031 0.991620
O O13 0.751035 0.500000 0.470052
O O14 0.967629 0.500000 0.589496
#
# Coordination Sequence:
#
# PCOD8107332 Si02
#       7
#     8   8   8   8   4   8   4
#     4  11  22  38  62  89 115 156 199 243 293 345
#     4  12  24  36  55  87 118 150 192 244 290 344
#     4  11  22  39  61  87 118 155 197 243 293 346
#     4  10  21  37  59  87 120 154 189 244 299 353
#     4   9  20  40  59  83 119 162 198 236 290 344
#     4  10  21  37  59  88 119 152 193 241 301 351
#     4   9  20  38  62  82 118 161 201 239 282 348
#
# _framework density 19.215333999999999
#
# number of rings (size 3 to 8) (size 9 to 14) (size 15 to 20)
#    0.000    1.500    3.333    2.000    4.667    2.000 
#    0.000    2.083    0.000    5.000    0.000    0.000 
#    0.000    0.000    0.000    0.000    0.000    0.000 
#
# Total GULP energy -297460.769782 kJ/mol
# GULP energy per Si atom -12394.198741 kJ/mol
# Density = 1.917160 g / cm^3
# Si number density = 19.215334 Si / 1000 Ang^3
#
#
#
# Elastic Constant Matrix: (Units=GPa)
#
#
# Indices 1 2 3 4 5 6 
#
# 1 111.5887 16.2726 49.5621 0.0000 -3.4887 0.0000
# 2 16.2726 80.0782 30.8697 0.0000 -6.8815 0.0000
# 3 49.5621 30.8697 115.6756 0.0000 -9.5252 0.0000
# 4 0.0000 0.0000 0.0000 26.6158 0.0000 -0.6653
# 5 -3.4887 -6.8815 -9.5252 0.0000 43.9303 0.0000
# 6 0.0000 0.0000 0.0000 -0.6653 0.0000 14.1253
#
#
#
# Elastic Compliance Matrix: (Units=1/GPa)
#
#
# Indices 1 2 3 4 5 6 
#
# 1 0.011085 -0.000482 -0.004637 0.000000 -0.000201 0.000000
# 2 -0.000482 0.014026 -0.003420 0.000000 0.001417 0.000000
# 3 -0.004637 -0.003420 0.011678 0.000000 0.001628 0.000000
# 4 0.000000 0.000000 0.000000 0.037616 0.000000 0.001772
# 5 -0.000201 0.001417 0.001628 0.000000 0.023322 0.000000
# 6 0.000000 0.000000 0.000000 0.001772 0.000000 0.070879
#
#
# Mechanical properties :
#
#
# Convention : Reuss Voigt Hill
#
# Bulk Modulus (GPa) = 50.73314 55.63904 53.18609
# Shear Modulus (GPa) = 26.00709 30.97682 28.49196
#
# Velocity S-wave (km/s) = 3.68292 4.01944 3.85486
# Velocity P-wave (km/s) = 6.67420 7.11053 6.89582
#
# Compressibility (1/GPa) = 0.01971098
#
# Stress axis : x y z
#
# Youngs Moduli (GPa) = 90.21019 71.29699 85.62773
#
# Poissons Ratio (x) = 0.03438 0.39709
# Poissons Ratio (y) = 0.04350 0.29282
# Poissons Ratio (z) = 0.41834 0.24381
#
# Static dielectric constant tensor:
#      x y z
#    x 3.516300 0.000000 -0.141360 
#    y 0.000000 3.334380 0.000000 
#    z -0.141360 0.000000 3.756980 
# 
# 
# High freq. dielectric constant tensor:
#      x y z
#    x 1.751240 0.000000 -0.007230 
#    y 0.000000 1.720050 0.000000 
#    z -0.007230 0.000000 1.764930 
# 
# From -- ./inp_files/196039.got.cif
#   From: 2010.06.25/outbox.cif.g09.slc.cpg/sg12_99_cif.got.tgz:196039.got - 2010.06.28 00:19:55.
