data_PCOD8107170
_publ_section_title
;
Structure prediction by ZEFSAII (Michael W. Deem and Ramdas Pophale) SiO2 
 PCOD8107170
Probable space group: C 2/M
;
_chemical_formula_sum "Si O2"
_cell_formula_units_Z 48
_cell_length_a 29.300720
_cell_length_b 8.878202
_cell_length_c 18.923734
_cell_angle_alpha 90.000000
_cell_angle_beta 30.633130
_cell_angle_gamma 90.000000
_cell_volume 2508.346965
_symmetry_space_group_name_H-M "C 2/M"
_symmetry_group_IT_number 12
_symmetry_cell_setting 'monoclinic'
loop_
_space_group_symop_operation_xyz
x,y,z
-x,y,-z
-x,-y,-z
x,-y,z
1/2+x,1/2+y,z
1/2-x,1/2+y,-z
1/2-x,1/2-y,-z
1/2+x,1/2-y,z
loop_
_atom_site_type_symbol
_atom_site_label
_atom_site_fract_x
_atom_site_fract_y
_atom_site_fract_z
Si Si1 0.093868 0.173865 0.838858
Si Si2 0.749410 0.823149 0.108493
Si Si3 0.114258 0.823116 0.190895
Si Si4 0.653362 0.177529 0.622717
Si Si5 0.912899 0.822158 0.430390
Si Si6 0.742461 0.176621 0.278312
O O1 0.095943 0.278266 0.767427
O O2 0.172834 0.220083 0.786776
O O3 0.102949 0.000000 0.803819
O O4 0.000000 0.206356 0.000000
O O5 0.657852 0.750692 0.201963
O O6 0.765528 0.774071 0.167776
O O7 0.737764 0.000000 0.118277
O O8 0.834034 0.767970 0.948947
O O9 0.011310 0.773666 0.324727
O O10 0.123472 0.000000 0.186926
O O11 0.750000 0.250000 0.500000
O O12 0.603674 0.237888 0.620454
O O13 0.664262 0.000000 0.602262
O O14 0.843132 0.770392 0.582599
O O15 0.905042 0.000000 0.428440
O O16 0.720587 0.000000 0.312977
#
# Coordination Sequence:
#
# PCOD8107170 Si02
#       6
#     8   8   8   8   8   8
#     4  10  22  39  62  88 118 158 197 237 288 346
#     4   9  19  37  60  84 114 150 190 238 288 343
#     4   9  20  38  60  85 112 148 193 236 287 347
#     4  12  24  40  61  86 119 156 196 241 290 346
#     4  11  23  38  60  86 116 154 194 240 291 347
#     4  10  21  37  58  85 117 153 194 238 285 345
#
# _framework density 19.136109000000001
#
# number of rings (size 3 to 8) (size 9 to 14) (size 15 to 20)
#    0.000    1.833    1.667    2.000    2.333    3.000 
#    0.000    3.333    0.000    0.000    0.000    0.000 
#    0.000    0.000    0.000    0.000    0.000    0.000 
#
# Total GULP energy -297691.265605 kJ/mol
# GULP energy per Si atom -12403.802734 kJ/mol
# Density = 1.909255 g / cm^3
# Si number density = 19.136109 Si / 1000 Ang^3
#
#
#
# Elastic Constant Matrix: (Units=GPa)
#
#
# Indices 1 2 3 4 5 6 
#
# 1 72.5482 26.6755 43.7606 -0.0069 2.5447 0.0016
# 2 26.6755 64.4326 34.6715 -0.0129 -2.2830 0.0051
# 3 43.7606 34.6715 110.8019 -0.0186 -11.2707 0.0081
# 4 -0.0069 -0.0129 -0.0186 33.0861 0.0082 1.5174
# 5 2.5447 -2.2830 -11.2707 0.0082 38.2109 -0.0023
# 6 0.0016 0.0051 0.0081 1.5174 -0.0023 33.0498
#
#
#
# Elastic Compliance Matrix: (Units=1/GPa)
#
#
# Indices 1 2 3 4 5 6 
#
# 1 0.019643 -0.004677 -0.006656 -0.000001 -0.003551 0.000001
# 2 -0.004677 0.019790 -0.004323 0.000004 0.000219 -0.000002
# 3 -0.006656 -0.004323 0.013428 0.000004 0.004146 -0.000002
# 4 -0.000001 0.000004 0.000004 0.030288 -0.000005 -0.001391
# 5 -0.003551 0.000219 0.004146 -0.000005 0.027643 0.000001
# 6 0.000001 -0.000002 -0.000002 -0.001391 0.000001 0.030321
#
#
# Mechanical properties :
#
#
# Convention : Reuss Voigt Hill
#
# Bulk Modulus (GPa) = 46.40351 50.88867 48.64609
# Shear Modulus (GPa) = 27.83840 30.38102 29.10971
#
# Velocity S-wave (km/s) = 3.81827 3.98883 3.90448
# Velocity P-wave (km/s) = 6.61368 6.91846 6.76778
#
# Compressibility (1/GPa) = 0.02155009
#
# Stress axis : x y z
#
# Youngs Moduli (GPa) = 50.90977 50.52938 74.46984
#
# Poissons Ratio (x) = 0.23631 0.49564
# Poissons Ratio (y) = 0.23808 0.32197
# Poissons Ratio (z) = 0.33883 0.21846
#
# Static dielectric constant tensor:
#      x y z
#    x 3.480590 -0.000010 0.014890 
#    y -0.000010 3.470280 0.000020 
#    z 0.014890 0.000020 3.701550 
# 
# 
# High freq. dielectric constant tensor:
#      x y z
#    x 1.752110 0.000000 0.001520 
#    y 0.000000 1.738990 0.000000 
#    z 0.001520 0.000000 1.752100 
# 
# From -- ./inp_files/244707.got.cif
#   From: 2010.06.25/outbox.cif.g09.slc.cpg/sg12_123_cif.got.tgz:244707.got - 2010.06.28 00:19:55.
