data_PCOD8107542
_publ_section_title
;
Structure prediction by ZEFSAII (Michael W. Deem and Ramdas Pophale) SiO2 
 PCOD8107542
Probable space group: C 2/M
;
_chemical_formula_sum "Si O2"
_cell_formula_units_Z 64
_cell_length_a 11.243323
_cell_length_b 18.356159
_cell_length_c 28.813542
_cell_angle_alpha 90.000000
_cell_angle_beta 147.261639
_cell_angle_gamma 90.000000
_cell_volume 3215.975495
_symmetry_space_group_name_H-M "C 2/M"
_symmetry_group_IT_number 12
_symmetry_cell_setting 'monoclinic'
loop_
_space_group_symop_operation_xyz
x,y,z
-x,y,-z
-x,-y,-z
x,-y,z
1/2+x,1/2+y,z
1/2-x,1/2+y,-z
1/2-x,1/2-y,-z
1/2+x,1/2-y,z
loop_
_atom_site_type_symbol
_atom_site_label
_atom_site_fract_x
_atom_site_fract_y
_atom_site_fract_z
Si Si1 0.371547 0.581516 0.631014
Si Si2 0.167950 0.655399 0.305478
Si Si3 0.185729 0.166735 0.473947
Si Si4 0.613023 0.276359 0.821401
Si Si5 0.115110 0.416069 0.194378
Si Si6 0.554860 0.916986 0.362614
Si Si7 0.543830 0.223135 0.903439
Si Si8 0.890876 0.919850 0.737057
O O1 0.347925 0.500000 0.602347
O O2 0.253304 0.637599 0.557448
O O3 0.626129 0.599147 0.726280
O O4 0.260318 0.589098 0.644953
O O5 0.428111 0.654080 0.393667
O O6 0.063038 0.604975 0.230636
O O7 0.077976 0.626759 0.323619
O O8 0.088155 0.738133 0.271764
O O9 0.250000 0.250000 0.500000
O O10 0.301969 0.119528 0.550727
O O11 0.581944 0.259370 0.865681
O O12 0.586779 0.363077 0.808742
O O13 0.836614 0.252067 0.867939
O O14 0.049168 0.500000 0.163167
O O15 0.979419 0.363984 0.114220
O O16 0.295818 0.911405 0.286047
O O17 0.635003 0.000000 0.383748
O O18 0.750000 0.250000 0.000000
O O19 0.001991 0.000000 0.775591
#
# Coordination Sequence:
#
# PCOD8107542 Si02
#       8
#     8   8   8   8   8   8   8   8
#     4   9  18  35  58  81 107 149 203 248 289 346
#     4  10  22  37  60  84 113 159 205 248 294 353
#     4  11  23  36  53  81 116 156 204 256 304 349
#     4  11  22  40  65  88 123 157 200 241 293 362
#     4   9  18  37  64  89 109 149 204 242 281 350
#     4  11  23  38  54  83 122 155 194 254 315 351
#     4  11  23  39  63  95 126 155 185 239 305 366
#     4  10  21  37  61  86 114 154 202 249 295 351
#
# _framework density 19.900649999999999
#
# number of rings (size 3 to 8) (size 9 to 14) (size 15 to 20)
#    0.000    1.750    1.250    3.000    1.750    2.500 
#    2.250    2.500    0.000    8.250    0.000    0.000 
#    0.000    0.000    0.000    0.000    0.000    0.000 
#
# Total GULP energy -396555.563921 kJ/mol
# GULP energy per Si atom -12392.361373 kJ/mol
# Density = 1.985535 g / cm^3
# Si number density = 19.900650 Si / 1000 Ang^3
#
#
#
# Elastic Constant Matrix: (Units=GPa)
#
#
# Indices 1 2 3 4 5 6 
#
# 1 114.4692 27.8184 20.6597 0.0001 -15.1355 0.0000
# 2 27.8184 130.0145 46.4925 0.0000 -20.2314 0.0000
# 3 20.6597 46.4925 75.4323 -0.0008 -12.9953 -0.0001
# 4 0.0001 0.0000 -0.0008 30.3226 -0.0001 -3.8742
# 5 -15.1355 -20.2314 -12.9953 -0.0001 24.0083 0.0000
# 6 0.0000 0.0000 -0.0001 -3.8742 0.0000 26.9459
#
#
#
# Elastic Compliance Matrix: (Units=1/GPa)
#
#
# Indices 1 2 3 4 5 6 
#
# 1 0.009816 -0.000892 -0.001326 0.000000 0.004719 0.000000
# 2 -0.000892 0.010663 -0.005378 0.000000 0.005512 0.000000
# 3 -0.001326 -0.005378 0.017657 0.000000 0.004189 0.000000
# 4 0.000000 0.000000 0.000000 0.033596 0.000000 0.004830
# 5 0.004719 0.005512 0.004189 0.000000 0.051540 0.000000
# 6 0.000000 0.000000 0.000000 0.004830 0.000000 0.037806
#
#
# Mechanical properties :
#
#
# Convention : Reuss Voigt Hill
#
# Bulk Modulus (GPa) = 43.58436 56.65079 50.11757
# Shear Modulus (GPa) = 27.18605 31.25171 29.21888
#
# Velocity S-wave (km/s) = 3.70007 3.96711 3.83592
# Velocity P-wave (km/s) = 6.34055 7.03651 6.69758
#
# Compressibility (1/GPa) = 0.02294401
#
# Stress axis : x y z
#
# Youngs Moduli (GPa) = 101.87481 93.77943 56.63572
#
# Poissons Ratio (x) = 0.08364 0.07509
# Poissons Ratio (y) = 0.09086 0.30461
# Poissons Ratio (z) = 0.13506 0.50438
#
# Static dielectric constant tensor:
#      x y z
#    x 6.823450 0.000180 -5.083230 
#    y 0.000180 3.682090 -0.000320 
#    z -5.083230 -0.000320 12.160470 
# 
# 
# High freq. dielectric constant tensor:
#      x y z
#    x 1.799360 0.000000 -0.008570 
#    y 0.000000 1.784090 0.000000 
#    z -0.008570 0.000000 1.741680 
# 
# From -- ./inp_files/374476.got.cif
#   From: 2010.06.25/outbox.cif.g09.slc.cpg/sg12_188_cif.got.tgz:374476.got - 2010.06.28 00:19:55.
