data_PCOD8107896
_publ_section_title
;
Structure prediction by ZEFSAII (Michael W. Deem and Ramdas Pophale) SiO2 
 PCOD8107896
Probable space group: C 2/M
;
_chemical_formula_sum "Si O2"
_cell_formula_units_Z 64
_cell_length_a 30.577708
_cell_length_b 8.777575
_cell_length_c 14.775469
_cell_angle_alpha 90.000000
_cell_angle_beta 131.229178
_cell_angle_gamma 90.000000
_cell_volume 2982.527319
_symmetry_space_group_name_H-M "C 2/M"
_symmetry_group_IT_number 12
_symmetry_cell_setting 'monoclinic'
loop_
_space_group_symop_operation_xyz
x,y,z
-x,y,-z
-x,-y,-z
x,-y,z
1/2+x,1/2+y,z
1/2-x,1/2+y,-z
1/2-x,1/2-y,-z
1/2+x,1/2-y,z
loop_
_atom_site_type_symbol
_atom_site_label
_atom_site_fract_x
_atom_site_fract_y
_atom_site_fract_z
Si Si1 0.794776 0.675166 0.402747
Si Si2 0.946755 0.320521 0.867487
Si Si3 0.309364 0.327640 0.957658
Si Si4 0.332178 0.670753 0.777203
Si Si5 0.306945 0.322245 0.231982
Si Si6 0.002952 0.820805 0.399292
Si Si7 0.917581 0.676363 0.630973
Si Si8 0.112191 0.322346 0.793796
O O1 0.791457 0.500000 0.363157
O O2 0.730334 0.717591 0.353909
O O3 0.811205 0.784217 0.342781
O O4 0.847139 0.696041 0.546362
O O5 0.953091 0.500000 0.876713
O O6 0.883936 0.282394 0.822232
O O7 0.948103 0.262588 0.764977
O O8 0.000000 0.249128 0.000000
O O9 0.315182 0.500000 0.002512
O O10 0.323229 0.317386 0.871548
O O11 0.244363 0.269631 0.887765
O O12 0.353139 0.217159 0.068512
O O13 0.349878 0.500000 0.771975
O O14 0.296300 0.500000 0.204966
O O15 0.366097 0.272425 0.263618
O O16 0.953522 0.729553 0.277836
O O17 0.000000 0.770020 0.500000
O O18 0.062161 0.772031 0.429088
O O19 0.993988 0.000000 0.377687
O O20 0.932779 0.500000 0.635089
O O21 0.116139 0.500000 0.778390
#
# Coordination Sequence:
#
# PCOD8107896 Si02
#       8
#     8   8   8   8   8   8   8   8
#     4   9  19  38  62  87 120 158 203 254 309 371
#     4  10  23  41  61  89 126 163 204 257 309 365
#     4  10  21  38  58  85 121 158 202 253 306 365
#     4   9  20  38  61  89 119 156 199 250 307 365
#     4  11  21  35  56  86 122 159 201 250 309 366
#     4  11  25  43  62  89 123 158 202 258 312 367
#     4  10  22  41  64  90 121 165 210 254 311 373
#     4  12  24  37  57  83 116 160 206 253 307 368
#
# _framework density 21.458310999999998
#
# number of rings (size 3 to 8) (size 9 to 14) (size 15 to 20)
#    0.000    1.750    0.000    4.875    1.750    7.250 
#    0.000    0.000    0.000    0.000    0.000    0.000 
#    0.000    0.000    0.000    0.000    0.000    0.000 
#
# Total GULP energy -396770.706880 kJ/mol
# GULP energy per Si atom -12399.084590 kJ/mol
# Density = 2.140947 g / cm^3
# Si number density = 21.458311 Si / 1000 Ang^3
#
#
#
# Elastic Constant Matrix: (Units=GPa)
#
#
# Indices 1 2 3 4 5 6 
#
# 1 93.3542 27.5978 42.9555 0.0000 16.3926 0.0000
# 2 27.5978 70.9533 26.1205 0.0000 -2.7902 0.0000
# 3 42.9555 26.1205 126.4575 0.0000 14.6485 0.0000
# 4 0.0000 0.0000 0.0000 23.4395 0.0000 3.6770
# 5 16.3926 -2.7902 14.6485 0.0000 28.0858 0.0000
# 6 0.0000 0.0000 0.0000 3.6770 0.0000 34.8138
#
#
#
# Elastic Compliance Matrix: (Units=1/GPa)
#
#
# Indices 1 2 3 4 5 6 
#
# 1 0.014969 -0.004947 -0.003187 0.000000 -0.007566 0.000000
# 2 -0.004947 0.017193 -0.002558 0.000000 0.005929 0.000000
# 3 -0.003187 -0.002558 0.009933 0.000000 -0.003575 0.000000
# 4 0.000000 0.000000 0.000000 0.043382 0.000000 -0.004582
# 5 -0.007566 0.005929 -0.003575 0.000000 0.042475 0.000000
# 6 0.000000 0.000000 0.000000 -0.004582 0.000000 0.029208
#
#
# Mechanical properties :
#
#
# Convention : Reuss Voigt Hill
#
# Bulk Modulus (GPa) = 48.28053 53.79027 51.03540
# Shear Modulus (GPa) = 26.96213 30.20724 28.58468
#
# Velocity S-wave (km/s) = 3.54854 3.75603 3.65376
# Velocity P-wave (km/s) = 6.27201 6.62813 6.45252
#
# Compressibility (1/GPa) = 0.02071228
#
# Stress axis : x y z
#
# Youngs Moduli (GPa) = 66.80416 58.16451 100.67863
#
# Poissons Ratio (x) = 0.28773 0.32081
# Poissons Ratio (y) = 0.33047 0.25751
# Poissons Ratio (z) = 0.21287 0.14877
#
# Static dielectric constant tensor:
#      x y z
#    x 3.751700 0.000000 0.209240 
#    y 0.000000 3.734330 0.000000 
#    z 0.209240 0.000000 4.077820 
# 
# 
# High freq. dielectric constant tensor:
#      x y z
#    x 1.835370 0.000000 0.012930 
#    y 0.000000 1.833860 0.000000 
#    z 0.012930 0.000000 1.851060 
# 
# From -- ./inp_files/250033.got.cif
#   From: 2010.06.25/outbox.cif.g09.slc.cpg/sg12_126_cif.got.tgz:250033.got - 2010.06.28 00:19:55.
