data_PCOD8107054
_publ_section_title
;
Structure prediction by ZEFSAII (Michael W. Deem and Ramdas Pophale) SiO2 
 PCOD8107054
Probable space group: C 2/M
;
_chemical_formula_sum "Si O2"
_cell_formula_units_Z 64
_cell_length_a 9.190307
_cell_length_b 21.060658
_cell_length_c 21.044080
_cell_angle_alpha 90.000000
_cell_angle_beta 49.834153
_cell_angle_gamma 90.000000
_cell_volume 3112.633084
_symmetry_space_group_name_H-M "C 2/M"
_symmetry_group_IT_number 12
_symmetry_cell_setting 'monoclinic'
loop_
_space_group_symop_operation_xyz
x,y,z
-x,y,-z
-x,-y,-z
x,-y,z
1/2+x,1/2+y,z
1/2-x,1/2+y,-z
1/2-x,1/2-y,-z
1/2+x,1/2-y,z
loop_
_atom_site_type_symbol
_atom_site_label
_atom_site_fract_x
_atom_site_fract_y
_atom_site_fract_z
Si Si1 0.212498 0.863653 0.443663
Si Si2 0.339738 0.336905 0.305418
Si Si3 0.955521 0.724504 0.699263
Si Si4 0.690243 0.430467 0.984847
Si Si5 0.267887 0.430411 0.686768
Si Si6 0.702001 0.573481 0.579638
Si Si7 0.066591 0.926907 0.831201
Si Si8 0.108860 0.630132 0.179120
O O1 0.359374 0.810103 0.381074
O O2 0.220883 0.921829 0.392256
O O3 0.264670 0.893671 0.496753
O O4 0.000000 0.833391 0.500000
O O5 0.208713 0.284484 0.307108
O O6 0.493507 0.298277 0.304850
O O7 0.213147 0.383749 0.386496
O O8 0.447944 0.381090 0.224745
O O9 0.879810 0.698342 0.789143
O O10 0.795449 0.500000 0.957523
O O11 0.815768 0.375309 0.915029
O O12 0.500000 0.441301 0.000000
O O13 0.621436 0.409149 0.074265
O O14 0.191101 0.500000 0.722529
O O15 0.476805 0.421251 0.656595
O O16 0.114891 0.384436 0.761599
O O17 0.772095 0.500000 0.562152
O O18 0.266156 0.917852 0.812810
O O19 0.058494 0.000000 0.811409
#
# Coordination Sequence:
#
# PCOD8107054 Si02
#       8
#     8   8   8   8   8   8   8   8
#     4   9  19  36  57  84 112 145 179 227 274 332
#     4  11  24  40  58  80 111 150 190 232 273 330
#     4  10  24  39  57  81 110 152 192 230 270 323
#     4   8  13  24  49  83 116 145 178 225 277 329
#     4   9  16  28  52  83 114 145 176 220 275 329
#     4  10  21  37  58  82 110 144 183 231 287 335
#     4   9  17  32  55  85 116 146 182 230 282 326
#     4   9  16  29  52  85 116 147 185 224 270 330
#
# _framework density 20.56137
#
# number of rings (size 3 to 8) (size 9 to 14) (size 15 to 20)
#    0.000    2.625    0.000    2.625    5.250    2.500 
#    0.000    3.125    0.000    0.750    0.000    3.500 
#    0.000    0.000    0.000    0.000    0.000    0.000 
#
# Total GULP energy -396457.587332 kJ/mol
# GULP energy per Si atom -12389.299604 kJ/mol
# Density = 2.051457 g / cm^3
# Si number density = 20.561370 Si / 1000 Ang^3
#
#
#
# Elastic Constant Matrix: (Units=GPa)
#
#
# Indices 1 2 3 4 5 6 
#
# 1 46.6672 24.2621 25.2664 0.0000 8.6399 -0.0001
# 2 24.2621 97.7422 38.7503 0.0000 17.7126 0.0000
# 3 25.2664 38.7503 103.1385 0.0000 6.6361 0.0000
# 4 0.0000 0.0000 0.0000 15.6974 0.0000 4.8126
# 5 8.6399 17.7126 6.6361 0.0000 26.0046 0.0000
# 6 -0.0001 0.0000 0.0000 4.8126 0.0000 14.9543
#
#
#
# Elastic Compliance Matrix: (Units=1/GPa)
#
#
# Indices 1 2 3 4 5 6 
#
# 1 0.026998 -0.003859 -0.004835 0.000000 -0.005108 0.000000
# 2 -0.003859 0.014042 -0.003861 0.000000 -0.007297 0.000000
# 3 -0.004835 -0.003861 0.012260 0.000000 0.001108 0.000000
# 4 0.000000 0.000000 0.000000 0.070678 0.000000 -0.022746
# 5 -0.005108 -0.007297 0.001108 0.000000 0.044839 0.000000
# 6 0.000000 0.000000 0.000000 -0.022746 0.000000 0.074190
#
#
# Mechanical properties :
#
#
# Convention : Reuss Voigt Hill
#
# Bulk Modulus (GPa) = 35.47468 47.12283 41.29875
# Shear Modulus (GPa) = 18.01709 21.94920 19.98314
#
# Velocity S-wave (km/s) = 2.96338 3.27080 3.12088
# Velocity P-wave (km/s) = 5.38510 6.10181 5.75463
#
# Compressibility (1/GPa) = 0.02818912
#
# Stress axis : x y z
#
# Youngs Moduli (GPa) = 37.03947 71.21550 81.56920
#
# Poissons Ratio (x) = 0.27482 0.39442
# Poissons Ratio (y) = 0.14294 0.31492
# Poissons Ratio (z) = 0.17910 0.27495
#
# Static dielectric constant tensor:
#      x y z
#    x 3.496120 0.000000 0.059450 
#    y 0.000000 3.528540 0.000000 
#    z 0.059450 0.000000 4.147830 
# 
# 
# High freq. dielectric constant tensor:
#      x y z
#    x 1.777940 0.000000 0.005470 
#    y 0.000000 1.788300 0.000000 
#    z 0.005470 0.000000 1.805290 
# 
# From -- ./inp_files/302298.got.cif
#   From: 2010.06.25/outbox.cif.g09.slc.cpg/sg12_152_cif.got.tgz:302298.got - 2010.06.28 00:19:55.
