data_PCOD8107485
_publ_section_title
;
Structure prediction by ZEFSAII (Michael W. Deem and Ramdas Pophale) SiO2 
 PCOD8107485
Probable space group: C 2/M
;
_chemical_formula_sum "Si O2"
_cell_formula_units_Z 36
_cell_length_a 32.830808
_cell_length_b 10.430567
_cell_length_c 5.120476
_cell_angle_alpha 90.000000
_cell_angle_beta 107.867748
_cell_angle_gamma 90.000000
_cell_volume 1668.901047
_symmetry_space_group_name_H-M "C 2/M"
_symmetry_group_IT_number 12
_symmetry_cell_setting 'monoclinic'
loop_
_space_group_symop_operation_xyz
x,y,z
-x,y,-z
-x,-y,-z
x,-y,z
1/2+x,1/2+y,z
1/2-x,1/2+y,-z
1/2-x,1/2-y,-z
1/2+x,1/2-y,z
loop_
_atom_site_type_symbol
_atom_site_label
_atom_site_fract_x
_atom_site_fract_y
_atom_site_fract_z
Si Si1 0.769515 0.500000 0.314477
Si Si2 0.378757 0.143458 0.981644
Si Si3 0.028742 0.000000 0.806579
Si Si4 0.029690 0.722302 0.808309
Si Si5 0.713179 0.500000 0.703309
Si Si6 0.833515 0.266478 0.392665
O O1 0.751738 0.500000 0.572918
O O2 0.796070 0.370705 0.326971
O O3 0.731162 0.500000 0.031685
O O4 0.368211 0.206716 0.684184
O O5 0.359381 0.000000 0.956950
O O6 0.430000 0.128323 0.113106
O O7 0.357762 0.228587 0.165595
O O8 0.053227 0.136096 0.854418
O O9 0.000000 0.000000 0.500000
O O10 0.000000 0.000000 0.000000
O O11 0.000000 0.698257 0.500000
O O12 0.000000 0.699113 0.000000
O O13 0.684667 0.625167 0.602020
#
# Coordination Sequence:
#
# PCOD8107485 Si02
#       6
#     4   8   4   8   4   8
#     4  12  22  46  69  96 136 168 208 262 326 390
#     4  12  24  43  65  90 132 179 212 263 328 384
#     4   8  16  32  52  78 112 148 194 252 318 364
#     4  10  21  37  60  89 120 163 216 266 311 373
#     4  12  26  42  71 106 124 164 222 268 310 384
#     4  12  25  44  67  97 134 171 213 261 329 388
#
# _framework density 21.571081
#
# number of rings (size 3 to 8) (size 9 to 14) (size 15 to 20)
#    0.000    0.889    2.222    5.333    0.000    2.667 
#    0.000    2.222    0.000    0.000    0.000    0.000 
#    0.000    0.000    0.000    0.000    0.000    0.000 
#
# Total GULP energy -223174.540335 kJ/mol
# GULP energy per Si atom -12398.585574 kJ/mol
# Density = 2.152198 g / cm^3
# Si number density = 21.571081 Si / 1000 Ang^3
#
#
#
# Elastic Constant Matrix: (Units=GPa)
#
#
# Indices 1 2 3 4 5 6 
#
# 1 89.2525 35.0637 21.8008 0.0000 -1.1146 0.0000
# 2 35.0637 132.1780 20.7259 0.0000 9.1854 0.0000
# 3 21.8008 20.7259 128.6404 0.0000 1.8836 0.0000
# 4 0.0000 0.0000 0.0000 13.6232 0.0000 0.5780
# 5 -1.1146 9.1854 1.8836 0.0000 42.8667 0.0000
# 6 0.0000 0.0000 0.0000 0.5780 0.0000 19.1928
#
#
#
# Elastic Compliance Matrix: (Units=1/GPa)
#
#
# Indices 1 2 3 4 5 6 
#
# 1 0.012899 -0.003235 -0.001681 0.000000 0.001102 0.000000
# 2 -0.003235 0.008685 -0.000823 0.000000 -0.001909 0.000000
# 3 -0.001681 -0.000823 0.008194 0.000000 -0.000227 0.000000
# 4 0.000000 0.000000 0.000000 0.073498 0.000000 -0.002213
# 5 0.001102 -0.001909 -0.000227 0.000000 0.023776 0.000000
# 6 0.000000 0.000000 0.000000 -0.002213 0.000000 0.052169
#
#
# Mechanical properties :
#
#
# Convention : Reuss Voigt Hill
#
# Bulk Modulus (GPa) = 54.64166 56.13906 55.39036
# Shear Modulus (GPa) = 25.40630 33.30189 29.35410
#
# Velocity S-wave (km/s) = 3.43562 3.93341 3.69291
# Velocity P-wave (km/s) = 6.41280 6.83452 6.62701
#
# Compressibility (1/GPa) = 0.01830105
#
# Stress axis : x y z
#
# Youngs Moduli (GPa) = 77.52291 115.13514 122.03380
#
# Poissons Ratio (x) = 0.37245 0.20514
# Poissons Ratio (y) = 0.25078 0.10046
# Poissons Ratio (z) = 0.13032 0.09478
#
# Static dielectric constant tensor:
#      x y z
#    x 3.723350 0.000000 -0.208420 
#    y 0.000000 4.381970 0.000000 
#    z -0.208420 0.000000 4.175910 
# 
# 
# High freq. dielectric constant tensor:
#      x y z
#    x 1.836340 0.000000 -0.011440 
#    y 0.000000 1.860940 0.000000 
#    z -0.011440 0.000000 1.865690 
# 
# From -- ./inp_files/30693.got.cif
#   From: 2010.06.25/outbox.cif.g09.slc.cpg/sg12_16_cif.got.tgz:30693.got - 2010.06.28 00:19:55.
