data_PCOD8107991
_publ_section_title
;
Structure prediction by ZEFSAII (Michael W. Deem and Ramdas Pophale) SiO2 
 PCOD8107991
Probable space group: C 2/M
;
_chemical_formula_sum "Si O2"
_cell_formula_units_Z 56
_cell_length_a 10.219849
_cell_length_b 8.672174
_cell_length_c 33.502744
_cell_angle_alpha 90.000000
_cell_angle_beta 112.511252
_cell_angle_gamma 90.000000
_cell_volume 2743.044476
_symmetry_space_group_name_H-M "C 2/M"
_symmetry_group_IT_number 12
_symmetry_cell_setting 'monoclinic'
loop_
_space_group_symop_operation_xyz
x,y,z
-x,y,-z
-x,-y,-z
x,-y,z
1/2+x,1/2+y,z
1/2-x,1/2+y,-z
1/2-x,1/2-y,-z
1/2+x,1/2-y,z
loop_
_atom_site_type_symbol
_atom_site_label
_atom_site_fract_x
_atom_site_fract_y
_atom_site_fract_z
Si Si1 0.411392 0.319480 0.905510
Si Si2 0.557371 0.678461 0.236063
Si Si3 0.902874 0.182375 0.524147
Si Si4 0.230337 0.321598 0.186299
Si Si5 0.859713 0.677847 0.672464
Si Si6 0.033552 0.179167 0.622701
Si Si7 0.211715 0.318656 0.953161
O O1 0.442155 0.500000 0.911268
O O2 0.320129 0.283345 0.855976
O O3 0.327558 0.261639 0.934767
O O4 0.559184 0.232284 0.920020
O O5 0.586899 0.500000 0.229833
O O6 0.392559 0.718545 0.213578
O O7 0.641881 0.784502 0.215316
O O8 0.609316 0.714842 0.286340
O O9 0.750000 0.250000 0.500000
O O10 0.000000 0.247534 0.500000
O O11 0.966623 0.238049 0.573589
O O12 0.894966 0.000000 0.521487
O O13 0.209088 0.500000 0.172613
O O14 0.882264 0.500000 0.687078
O O15 0.700760 0.708834 0.639233
O O16 0.968064 0.719978 0.650232
O O17 0.999914 0.000000 0.626846
O O18 0.214550 0.500000 0.957234
O O19 0.250000 0.250000 0.000000
#
# Coordination Sequence:
#
# PCOD8107991 Si02
#       7
#     8   8   8   8   8   8   8
#     4  11  24  41  62  90 122 157 200 247 296 352
#     4  11  24  41  62  89 121 156 195 242 295 349
#     4  10  21  38  59  84 116 152 192 240 291 345
#     4  11  24  41  62  89 120 156 198 242 292 350
#     4  11  23  39  61  87 116 153 196 240 289 347
#     4  10  22  39  58  84 118 153 192 240 292 347
#     4  11  24  41  63  91 123 160 202 248 298 353
#
# _framework density 20.415271000000001
#
# number of rings (size 3 to 8) (size 9 to 14) (size 15 to 20)
#    0.000    1.286    0.000    5.143    0.000   15.143 
#    0.000    0.000    0.000    0.000    0.000    0.000 
#    0.000    0.000    0.000    0.000    0.000    0.000 
#
# Total GULP energy -347407.858856 kJ/mol
# GULP energy per Si atom -12407.423531 kJ/mol
# Density = 2.036881 g / cm^3
# Si number density = 20.415271 Si / 1000 Ang^3
#
#
#
# Elastic Constant Matrix: (Units=GPa)
#
#
# Indices 1 2 3 4 5 6 
#
# 1 109.0239 34.1288 18.6539 0.0000 -6.4660 0.0000
# 2 34.1288 37.6337 16.2815 0.0000 -0.3942 0.0000
# 3 18.6539 16.2815 111.1179 0.0000 -4.1611 0.0000
# 4 0.0000 0.0000 0.0000 32.1522 0.0000 0.6177
# 5 -6.4660 -0.3942 -4.1611 0.0000 44.8085 0.0000
# 6 0.0000 0.0000 0.0000 0.6177 0.0000 37.1806
#
#
#
# Elastic Compliance Matrix: (Units=1/GPa)
#
#
# Indices 1 2 3 4 5 6 
#
# 1 0.012965 -0.011558 -0.000418 0.000000 0.001730 0.000000
# 2 -0.011558 0.038676 -0.003789 0.000000 -0.001680 0.000000
# 3 -0.000418 -0.003789 0.009655 0.000000 0.000803 0.000000
# 4 0.000000 0.000000 0.000000 0.031112 0.000000 -0.000517
# 5 0.001730 -0.001680 0.000803 0.000000 0.022627 0.000000
# 6 0.000000 0.000000 0.000000 -0.000517 0.000000 0.026904
#
#
# Mechanical properties :
#
#
# Convention : Reuss Voigt Hill
#
# Bulk Modulus (GPa) = 33.59807 43.98931 38.79369
# Shear Modulus (GPa) = 27.26417 35.40901 31.33659
#
# Velocity S-wave (km/s) = 3.65839 4.16918 3.92210
# Velocity P-wave (km/s) = 5.85987 6.69104 6.28920
#
# Compressibility (1/GPa) = 0.02976361
#
# Stress axis : x y z
#
# Youngs Moduli (GPa) = 77.13290 25.85613 103.57385
#
# Poissons Ratio (x) = 0.29885 0.04330
# Poissons Ratio (y) = 0.89152 0.39249
# Poissons Ratio (z) = 0.03225 0.09798
#
# Static dielectric constant tensor:
#      x y z
#    x 3.876430 0.000000 0.065520 
#    y 0.000000 3.728660 0.000000 
#    z 0.065520 0.000000 4.010990 
# 
# 
# High freq. dielectric constant tensor:
#      x y z
#    x 1.815570 0.000000 0.000310 
#    y 0.000000 1.800020 0.000000 
#    z 0.000310 0.000000 1.814790 
# 
# From -- ./inp_files/373641.got.cif
#   From: 2010.06.25/outbox.cif.g09.slc.cpg/sg12_187_cif.got.tgz:373641.got - 2010.06.28 00:19:55.
