data_PCOD8107453
_publ_section_title
;
Structure prediction by ZEFSAII (Michael W. Deem and Ramdas Pophale) SiO2 
 PCOD8107453
Probable space group: C 2/M
;
_chemical_formula_sum "Si O2"
_cell_formula_units_Z 64
_cell_length_a 8.959946
_cell_length_b 18.085873
_cell_length_c 30.419168
_cell_angle_alpha 90.000000
_cell_angle_beta 140.636600
_cell_angle_gamma 90.000000
_cell_volume 3126.393337
_symmetry_space_group_name_H-M "C 2/M"
_symmetry_group_IT_number 12
_symmetry_cell_setting 'monoclinic'
loop_
_space_group_symop_operation_xyz
x,y,z
-x,y,-z
-x,-y,-z
x,-y,z
1/2+x,1/2+y,z
1/2-x,1/2+y,-z
1/2-x,1/2-y,-z
1/2+x,1/2-y,z
loop_
_atom_site_type_symbol
_atom_site_label
_atom_site_fract_x
_atom_site_fract_y
_atom_site_fract_z
Si Si1 0.488826 0.416254 0.402243
Si Si2 0.478101 0.662353 0.054898
Si Si3 0.238111 0.164640 0.809656
Si Si4 0.588796 0.334085 0.345958
Si Si5 0.772704 0.816856 0.422816
Si Si6 0.047339 0.583972 0.440571
Si Si7 0.142938 0.220359 0.880716
Si Si8 0.823973 0.417762 0.082715
O O1 0.412691 0.500000 0.374386
O O2 0.417104 0.361116 0.346022
O O3 0.341465 0.387513 0.409786
O O4 0.764854 0.410735 0.477431
O O5 0.605907 0.737687 0.067303
O O6 0.367156 0.667360 0.078462
O O7 0.676855 0.598018 0.094453
O O8 0.261224 0.642991 0.972863
O O9 0.116265 0.174972 0.829416
O O10 0.414211 0.228420 0.833233
O O11 0.397008 0.090475 0.846795
O O12 0.026669 0.156418 0.727654
O O13 0.661560 0.249161 0.369339
O O14 0.791018 0.395285 0.399360
O O15 0.586948 0.851277 0.413998
O O16 0.000000 0.784276 0.500000
O O17 0.049238 0.500000 0.421848
O O18 0.769263 0.500000 0.053695
#
# Coordination Sequence:
#
# PCOD8107453 Si02
#       8
#     8   8   8   8   8   8   8   8
#     4  10  21  38  60  84 113 152 197 241 299 360
#     4   9  18  35  64  88 112 149 185 247 281 336
#     4  10  24  37  58  80 119 156 184 241 282 357
#     4  12  23  35  58  86 116 157 195 244 291 346
#     4  10  21  37  60  88 115 144 194 256 300 339
#     4  10  21  38  59  84 114 152 195 243 297 357
#     4   9  20  39  59  89 113 144 197 231 297 336
#     4  10  21  38  58  88 119 153 192 232 285 339
#
# _framework density 20.470872
#
# number of rings (size 3 to 8) (size 9 to 14) (size 15 to 20)
#    0.000    2.000    0.000    3.375    3.500   15.000 
#    0.000    1.875    0.000    0.000    0.000    0.000 
#    0.000    0.000    0.000    0.000    0.000    0.000 
#
# Total GULP energy -396533.366555 kJ/mol
# GULP energy per Si atom -12391.667705 kJ/mol
# Density = 2.042428 g / cm^3
# Si number density = 20.470872 Si / 1000 Ang^3
#
#
#
# Elastic Constant Matrix: (Units=GPa)
#
#
# Indices 1 2 3 4 5 6 
#
# 1 102.5487 33.8244 46.4334 0.0002 -21.2171 0.0001
# 2 33.8244 100.0367 49.5652 0.0002 -11.0795 0.0000
# 3 46.4334 49.5652 82.1492 0.0008 -24.8490 0.0007
# 4 0.0002 0.0002 0.0008 14.7342 0.0005 -3.3559
# 5 -21.2171 -11.0795 -24.8490 0.0005 25.3711 0.0003
# 6 0.0001 0.0000 0.0007 -3.3559 0.0003 1.8312
#
#
#
# Elastic Compliance Matrix: (Units=1/GPa)
#
#
# Indices 1 2 3 4 5 6 
#
# 1 0.013767 -0.001467 -0.005127 0.000000 0.005851 0.000001
# 2 -0.001467 0.014592 -0.009121 0.000002 -0.003787 0.000008
# 3 -0.005127 -0.009121 0.025680 -0.000008 0.016881 -0.000027
# 4 0.000000 0.000002 -0.000008 0.116493 -0.000012 0.213484
# 5 0.005851 -0.003787 0.016881 -0.000012 0.059188 -0.000039
# 6 0.000001 0.000008 -0.000027 0.213484 -0.000039 0.937304
#
#
# Mechanical properties :
#
#
# Convention : Reuss Voigt Hill
#
# Bulk Modulus (GPa) = 44.22635 60.48673 52.35654
# Shear Modulus (GPa) = 4.14597 18.71476 11.43036
#
# Velocity S-wave (km/s) = 1.42468 3.02688 2.36555
# Velocity P-wave (km/s) = 4.93535 6.46744 5.75263
#
# Compressibility (1/GPa) = 0.02261095
#
# Stress axis : x y z
#
# Youngs Moduli (GPa) = 72.63610 68.53174 38.94064
#
# Poissons Ratio (x) = 0.10052 0.19964
# Poissons Ratio (y) = 0.10654 0.35516
# Poissons Ratio (z) = 0.37239 0.62505
#
# Static dielectric constant tensor:
#      x y z
#    x 3.859690 0.000000 -0.038680 
#    y 0.000000 3.541450 0.000000 
#    z -0.038680 0.000000 3.487510 
# 
# 
# High freq. dielectric constant tensor:
#      x y z
#    x 1.810520 0.000000 -0.002980 
#    y 0.000000 1.790170 0.000000 
#    z -0.002980 0.000000 1.775370 
# 
# From -- ./inp_files/372968.got.cif
#   From: 2010.06.25/outbox.cif.g09.slc.cpg/sg12_187_cif.got.tgz:372968.got - 2010.06.28 00:19:55.
