data_PCOD8107958
_publ_section_title
;
Structure prediction by ZEFSAII (Michael W. Deem and Ramdas Pophale) SiO2 
 PCOD8107958
Probable space group: C 2/M
;
_chemical_formula_sum "Si O2"
_cell_formula_units_Z 48
_cell_length_a 24.934835
_cell_length_b 8.883216
_cell_length_c 12.327335
_cell_angle_alpha 90.000000
_cell_angle_beta 71.080142
_cell_angle_gamma 90.000000
_cell_volume 2583.001610
_symmetry_space_group_name_H-M "C 2/M"
_symmetry_group_IT_number 12
_symmetry_cell_setting 'monoclinic'
loop_
_space_group_symop_operation_xyz
x,y,z
-x,y,-z
-x,-y,-z
x,-y,z
1/2+x,1/2+y,z
1/2-x,1/2+y,-z
1/2-x,1/2-y,-z
1/2+x,1/2-y,z
loop_
_atom_site_type_symbol
_atom_site_label
_atom_site_fract_x
_atom_site_fract_y
_atom_site_fract_z
Si Si1 0.621532 0.821683 0.209273
Si Si2 0.185359 0.823023 0.362517
Si Si3 0.501314 0.177990 0.376677
Si Si4 0.800370 0.174514 0.264490
Si Si5 0.306370 0.323621 0.009865
Si Si6 0.389531 0.674863 0.383980
O O1 0.665793 0.768558 0.270581
O O2 0.558624 0.766431 0.281140
O O3 0.625617 0.000000 0.196343
O O4 0.638563 0.746555 0.084349
O O5 0.249870 0.776723 0.344196
O O6 0.147559 0.773069 0.489040
O O7 0.181246 0.000000 0.342633
O O8 0.500000 0.243623 0.500000
O O9 0.448534 0.237126 0.342453
O O10 0.498565 0.000000 0.382058
O O11 0.813056 0.213298 0.131805
O O12 0.856434 0.214734 0.295676
O O13 0.783788 0.000000 0.291483
O O14 0.303518 0.500000 0.988686
O O15 0.250000 0.250000 0.000000
O O16 0.403603 0.500000 0.382807
#
# Coordination Sequence:
#
# PCOD8107958 Si02
#       6
#     8   8   8   8   8   8
#     4  11  22  37  58  84 115 148 188 236 284 334
#     4  11  21  33  56  88 117 146 185 233 284 341
#     4  10  21  38  59  83 112 150 191 232 284 337
#     4  10  22  39  57  81 117 155 186 229 286 341
#     4  11  22  37  59  84 114 150 192 234 281 335
#     4  10  22  38  57  85 117 150 189 231 284 343
#
# _framework density 18.583031999999999
#
# number of rings (size 3 to 8) (size 9 to 14) (size 15 to 20)
#    0.000    1.500    3.333    2.000    0.000    3.667 
#    0.000    0.833    0.000    5.000    0.000    0.000 
#    0.000    0.000    0.000    0.000    0.000    0.000 
#
# Total GULP energy -297729.776587 kJ/mol
# GULP energy per Si atom -12405.407358 kJ/mol
# Density = 1.854074 g / cm^3
# Si number density = 18.583032 Si / 1000 Ang^3
#
#
#
# Elastic Constant Matrix: (Units=GPa)
#
#
# Indices 1 2 3 4 5 6 
#
# 1 122.8815 30.3313 50.7047 0.0000 -9.7641 0.0000
# 2 30.3313 50.7560 32.6133 0.0000 -8.9573 0.0000
# 3 50.7047 32.6133 97.9768 0.0000 -11.2238 0.0000
# 4 0.0000 0.0000 0.0000 28.1679 0.0000 -3.3673
# 5 -9.7641 -8.9573 -11.2238 0.0000 35.2102 0.0000
# 6 0.0000 0.0000 0.0000 -3.3673 0.0000 34.6739
#
#
#
# Elastic Compliance Matrix: (Units=1/GPa)
#
#
# Indices 1 2 3 4 5 6 
#
# 1 0.010874 -0.003573 -0.004356 0.000000 0.000718 0.000000
# 2 -0.003573 0.026751 -0.006632 0.000000 0.003701 0.000000
# 3 -0.004356 -0.006632 0.014880 0.000000 0.001848 0.000000
# 4 0.000000 0.000000 0.000000 0.035918 0.000000 0.003488
# 5 0.000718 0.003701 0.001848 0.000000 0.030131 0.000000
# 6 0.000000 0.000000 0.000000 0.003488 0.000000 0.029179
#
#
# Mechanical properties :
#
#
# Convention : Reuss Voigt Hill
#
# Bulk Modulus (GPa) = 42.76314 55.43477 49.09895
# Shear Modulus (GPa) = 27.07826 30.14140 28.60983
#
# Velocity S-wave (km/s) = 3.82140 4.03176 3.92799
# Velocity P-wave (km/s) = 6.52171 7.18116 6.85936
#
# Compressibility (1/GPa) = 0.02338463
#
# Stress axis : x y z
#
# Youngs Moduli (GPa) = 91.95980 37.38114 67.20358
#
# Poissons Ratio (x) = 0.13355 0.29275
# Poissons Ratio (y) = 0.32853 0.44569
# Poissons Ratio (z) = 0.40059 0.24791
#
# Static dielectric constant tensor:
#      x y z
#    x 3.419360 0.000000 -0.075600 
#    y 0.000000 3.371730 0.000000 
#    z -0.075600 0.000000 3.633700 
# 
# 
# High freq. dielectric constant tensor:
#      x y z
#    x 1.718640 0.000000 -0.004720 
#    y 0.000000 1.722960 0.000000 
#    z -0.004720 0.000000 1.724200 
# 
# From -- ./inp_files/172031.got.cif
#   From: 2010.06.25/outbox.cif.g09.slc.cpg/sg12_87_cif.got.tgz:172031.got - 2010.06.28 00:19:55.
