data_PCOD8107917
_publ_section_title
;
Structure prediction by ZEFSAII (Michael W. Deem and Ramdas Pophale) SiO2 
 PCOD8107917
Probable space group: C 2/M
;
_chemical_formula_sum "Si O2"
_cell_formula_units_Z 48
_cell_length_a 38.070138
_cell_length_b 8.415769
_cell_length_c 7.650921
_cell_angle_alpha 90.000000
_cell_angle_beta 90.265194
_cell_angle_gamma 90.000000
_cell_volume 2451.248399
_symmetry_space_group_name_H-M "C 2/M"
_symmetry_group_IT_number 12
_symmetry_cell_setting 'monoclinic'
loop_
_space_group_symop_operation_xyz
x,y,z
-x,y,-z
-x,-y,-z
x,-y,z
1/2+x,1/2+y,z
1/2-x,1/2+y,-z
1/2-x,1/2-y,-z
1/2+x,1/2-y,z
loop_
_atom_site_type_symbol
_atom_site_label
_atom_site_fract_x
_atom_site_fract_y
_atom_site_fract_z
Si Si1 0.289751 0.816905 0.202883
Si Si2 0.333056 0.315042 0.512628
Si Si3 0.039373 0.810915 0.807583
Si Si4 0.539097 0.689017 0.195367
Si Si5 0.912434 0.189521 0.497508
Si Si6 0.214918 0.315770 0.193023
O O1 0.313869 0.710973 0.328001
O O2 0.248976 0.785979 0.245330
O O3 0.298068 0.000000 0.241400
O O4 0.298059 0.769681 0.002270
O O5 0.332339 0.500000 0.560228
O O6 0.372596 0.249047 0.497258
O O7 0.315443 0.219089 0.669793
O O8 0.067758 0.741493 0.672702
O O9 0.000159 0.752357 0.755699
O O10 0.039964 0.000000 0.803393
O O11 0.049242 0.749851 0.001879
O O12 0.539724 0.500000 0.199671
O O13 0.567363 0.757769 0.332310
O O14 0.913296 0.000000 0.495396
O O15 0.225520 0.500000 0.198548
#
# Coordination Sequence:
#
# PCOD8107917 Si02
#       6
#     8   8   8   8   8   8
#     4  10  21  38  59  79 100 130 170 214 256 300
#     4  11  22  33  49  76 110 143 170 203 251 307
#     4   8  13  22  37  56  81 119 165 206 242 284
#     4   8  13  22  37  56  81 119 165 206 242 284
#     4   9  17  26  37  59  93 131 164 195 239 295
#     4  10  21  38  59  79 100 130 170 214 256 300
#
# _framework density 19.581859000000001
#
# number of rings (size 3 to 8) (size 9 to 14) (size 15 to 20)
#    0.000    2.667    0.000    3.500    0.000    5.333 
#    0.000    3.333    0.000    0.000    0.000    0.000 
#    0.000   10.667    0.000   29.333    0.000   24.000 
#
# Total GULP energy -297565.972132 kJ/mol
# GULP energy per Si atom -12398.582172 kJ/mol
# Density = 1.953729 g / cm^3
# Si number density = 19.581859 Si / 1000 Ang^3
#
#
#
# Elastic Constant Matrix: (Units=GPa)
#
#
# Indices 1 2 3 4 5 6 
#
# 1 142.0013 4.7762 95.8511 0.0000 -6.2460 0.0000
# 2 4.7762 21.8735 9.4279 0.0000 0.6594 0.0000
# 3 95.8511 9.4279 152.6556 0.0000 -3.6294 0.0000
# 4 0.0000 0.0000 0.0000 14.6153 0.0000 -1.6160
# 5 -6.2460 0.6594 -3.6294 0.0000 18.4792 0.0000
# 6 0.0000 0.0000 0.0000 -1.6160 0.0000 13.2115
#
#
#
# Elastic Compliance Matrix: (Units=1/GPa)
#
#
# Indices 1 2 3 4 5 6 
#
# 1 0.012358 0.000554 -0.007731 0.000000 0.002639 0.000000
# 2 0.000554 0.047086 -0.003307 0.000000 -0.002142 0.000000
# 3 -0.007731 -0.003307 0.011604 0.000000 -0.000216 0.000000
# 4 0.000000 0.000000 0.000000 0.069360 0.000000 0.008484
# 5 0.002639 -0.002142 -0.000216 0.000000 0.055041 0.000000
# 6 0.000000 0.000000 0.000000 0.008484 0.000000 0.076729
#
#
# Mechanical properties :
#
#
# Convention : Reuss Voigt Hill
#
# Bulk Modulus (GPa) = 19.96767 59.62674 39.79720
# Shear Modulus (GPa) = 16.13740 23.02622 19.58181
#
# Velocity S-wave (km/s) = 2.87383 3.43285 3.16570
# Velocity P-wave (km/s) = 4.60771 6.79917 5.80774
#
# Compressibility (1/GPa) = 0.05008096
#
# Stress axis : x y z
#
# Youngs Moduli (GPa) = 80.91884 21.23759 86.17710
#
# Poissons Ratio (x) = -0.01177 0.66624
# Poissons Ratio (y) = -0.04485 0.28498
# Poissons Ratio (z) = 0.62558 0.07023
#
# Static dielectric constant tensor:
#      x y z
#    x 3.652100 0.000000 -0.008050 
#    y 0.000000 3.036950 0.000000 
#    z -0.008050 0.000000 3.864590 
# 
# 
# High freq. dielectric constant tensor:
#      x y z
#    x 1.757500 0.000000 -0.000740 
#    y 0.000000 1.714630 0.000000 
#    z -0.000740 0.000000 1.777970 
# 
# From -- ./inp_files/108554.got.cif
#   From: 2010.06.25/outbox.cif.g09.slc.cpg/sg12_55_cif.got.tgz:108554.got - 2010.06.28 00:19:55.
