data_PCOD8107948
_publ_section_title
;
Structure prediction by ZEFSAII (Michael W. Deem and Ramdas Pophale) SiO2 
 PCOD8107948
Probable space group: C 2/M
;
_chemical_formula_sum "Si O2"
_cell_formula_units_Z 48
_cell_length_a 20.583175
_cell_length_b 15.544578
_cell_length_c 12.760021
_cell_angle_alpha 90.000000
_cell_angle_beta 143.597132
_cell_angle_gamma 90.000000
_cell_volume 2422.889127
_symmetry_space_group_name_H-M "C 2/M"
_symmetry_group_IT_number 12
_symmetry_cell_setting 'monoclinic'
loop_
_space_group_symop_operation_xyz
x,y,z
-x,y,-z
-x,-y,-z
x,-y,z
1/2+x,1/2+y,z
1/2-x,1/2+y,-z
1/2-x,1/2-y,-z
1/2+x,1/2-y,z
loop_
_atom_site_type_symbol
_atom_site_label
_atom_site_fract_x
_atom_site_fract_y
_atom_site_fract_z
Si Si1 0.117917 0.400046 0.122434
Si Si2 0.002177 0.745382 0.383716
Si Si3 0.192666 0.812642 0.503935
Si Si4 0.012515 0.901782 0.130697
Si Si5 0.628219 0.901446 0.894916
Si Si6 0.132202 0.902149 0.869295
O O1 0.109561 0.500000 0.132966
O O2 0.214581 0.368196 0.321215
O O3 0.148623 0.379400 0.042683
O O4 0.000000 0.357834 0.000000
O O5 0.960118 0.665561 0.260921
O O6 0.931029 0.832679 0.283056
O O7 0.000000 0.714915 0.500000
O O8 0.125606 0.762496 0.506473
O O9 0.250000 0.750000 0.500000
O O10 0.111586 0.868791 0.328994
O O11 0.900195 0.888936 0.050620
O O12 0.040040 0.000000 0.144854
O O13 0.000000 0.855634 0.000000
O O14 0.586102 0.000000 0.827157
O O15 0.739034 0.886825 0.973809
O O16 0.101437 0.000000 0.792778
#
# Coordination Sequence:
#
# PCOD8107948 Si02
#       6
#     8   8   8   8   8   8
#     4  10  21  39  61  82 109 149 196 245 292 339
#     4  11  23  37  56  84 116 148 187 237 291 346
#     4  11  23  36  55  85 115 148 189 233 285 342
#     4   9  19  36  57  82 113 148 185 228 279 335
#     4  10  21  38  59  82 112 152 194 236 285 339
#     4   9  19  36  58  83 111 147 189 231 280 340
#
# _framework density 19.811059
#
# number of rings (size 3 to 8) (size 9 to 14) (size 15 to 20)
#    0.000    2.000    0.000    3.000    0.000    6.000 
#    0.000    0.833    0.000    0.000    0.000    0.000 
#    0.000    0.000    0.000    0.000    0.000    0.000 
#
# Total GULP energy -297558.736408 kJ/mol
# GULP energy per Si atom -12398.280684 kJ/mol
# Density = 1.976597 g / cm^3
# Si number density = 19.811059 Si / 1000 Ang^3
#
#
#
# Elastic Constant Matrix: (Units=GPa)
#
#
# Indices 1 2 3 4 5 6 
#
# 1 145.7877 33.0674 69.5150 0.0000 0.4895 0.0000
# 2 33.0674 66.0898 39.4751 0.0000 -6.1944 0.0000
# 3 69.5150 39.4751 128.8895 0.0000 -8.6485 0.0000
# 4 0.0000 0.0000 0.0000 32.5533 0.0000 1.4491
# 5 0.4895 -6.1944 -8.6485 0.0000 34.9973 0.0000
# 6 0.0000 0.0000 0.0000 1.4491 0.0000 24.5988
#
#
#
# Elastic Compliance Matrix: (Units=1/GPa)
#
#
# Indices 1 2 3 4 5 6 
#
# 1 0.009551 -0.002192 -0.004591 0.000000 -0.001656 0.000000
# 2 -0.002192 0.019148 -0.004528 0.000000 0.002301 0.000000
# 3 -0.004591 -0.004528 0.011767 0.000000 0.002171 0.000000
# 4 0.000000 0.000000 0.000000 0.030800 0.000000 -0.001814
# 5 -0.001656 0.002301 0.002171 0.000000 0.029540 0.000000
# 6 0.000000 0.000000 0.000000 -0.001814 0.000000 0.040759
#
#
# Mechanical properties :
#
#
# Convention : Reuss Voigt Hill
#
# Bulk Modulus (GPa) = 56.03996 69.43133 62.73565
# Shear Modulus (GPa) = 29.38842 31.67719 30.53281
#
# Velocity S-wave (km/s) = 3.85572 4.00304 3.93007
# Velocity P-wave (km/s) = 6.94051 7.51589 7.23393
#
# Compressibility (1/GPa) = 0.01784441
#
# Stress axis : x y z
#
# Youngs Moduli (GPa) = 104.69943 52.22560 84.98222
#
# Poissons Ratio (x) = 0.11447 0.39017
# Poissons Ratio (y) = 0.22948 0.38479
# Poissons Ratio (z) = 0.48069 0.23647
#
# Static dielectric constant tensor:
#      x y z
#    x 3.967860 0.000000 -0.053900 
#    y 0.000000 3.641550 0.000000 
#    z -0.053900 0.000000 3.034930 
# 
# 
# High freq. dielectric constant tensor:
#      x y z
#    x 1.795080 0.000000 -0.001280 
#    y 0.000000 1.775320 0.000000 
#    z -0.001280 0.000000 1.757200 
# 
# From -- ./inp_files/167637.got.cif
#   From: 2010.06.25/outbox.cif.g09.slc.cpg/sg12_84_cif.got.tgz:167637.got - 2010.06.28 00:19:55.
