data_PCOD8107738
_publ_section_title
;
Structure prediction by ZEFSAII (Michael W. Deem and Ramdas Pophale) SiO2 
 PCOD8107738
Probable space group: C 2/M
;
_chemical_formula_sum "Si O2"
_cell_formula_units_Z 48
_cell_length_a 5.269230
_cell_length_b 15.542011
_cell_length_c 28.280397
_cell_angle_alpha 90.000000
_cell_angle_beta 106.523001
_cell_angle_gamma 90.000000
_cell_volume 2220.368987
_symmetry_space_group_name_H-M "C 2/M"
_symmetry_group_IT_number 12
_symmetry_cell_setting 'monoclinic'
loop_
_space_group_symop_operation_xyz
x,y,z
-x,y,-z
-x,-y,-z
x,-y,z
1/2+x,1/2+y,z
1/2-x,1/2+y,-z
1/2-x,1/2-y,-z
1/2+x,1/2-y,z
loop_
_atom_site_type_symbol
_atom_site_label
_atom_site_fract_x
_atom_site_fract_y
_atom_site_fract_z
Si Si1 0.796338 0.899551 0.030353
Si Si2 0.715216 0.899168 0.652708
Si Si3 0.527299 0.152956 0.180866
Si Si4 0.612177 0.803855 0.554522
Si Si5 0.800208 0.397169 0.708489
Si Si6 0.463033 0.654434 0.138758
O O1 0.871619 0.843300 0.079774
O O2 0.817841 0.000000 0.044400
O O3 0.500000 0.874408 0.000000
O O4 0.000000 0.874385 0.000000
O O5 0.629590 0.876133 0.595256
O O6 0.498804 0.863740 0.678267
O O7 0.007003 0.863375 0.680105
O O8 0.722625 0.000000 0.656949
O O9 0.614941 0.150689 0.239539
O O10 0.498369 0.249990 0.160849
O O11 0.244469 0.105460 0.159085
O O12 0.745313 0.105440 0.159528
O O13 0.500000 0.845518 0.500000
O O14 0.407554 0.731052 0.561028
O O15 0.811695 0.500000 0.715739
#
# Coordination Sequence:
#
# PCOD8107738 Si02
#       6
#     8   8   8   8   8   8
#     4  10  21  38  60  85 111 143 185 229 280 340
#     4  10  21  39  60  88 118 154 203 248 301 354
#     4  10  21  38  53  80 114 147 187 230 284 340
#     4  10  21  39  59  88 124 158 201 246 300 360
#     4  10  21  38  59  82 116 152 194 247 291 347
#     4  10  21  38  56  81 115 146 184 234 273 347
#
# _framework density 21.618029
#
# number of rings (size 3 to 8) (size 9 to 14) (size 15 to 20)
#    0.000    2.000    0.000    3.000    0.000    1.667 
#   18.000   10.000    0.000    6.000    0.000    0.000 
#    0.000    0.000    0.000    0.000    0.000    0.000 
#
# Total GULP energy -297553.193246 kJ/mol
# GULP energy per Si atom -12398.049719 kJ/mol
# Density = 2.156883 g / cm^3
# Si number density = 21.618029 Si / 1000 Ang^3
#
#
#
# Elastic Constant Matrix: (Units=GPa)
#
#
# Indices 1 2 3 4 5 6 
#
# 1 229.3683 12.5518 90.0342 0.0000 -5.0029 0.0000
# 2 12.5518 24.2517 32.9659 0.0000 -0.0079 0.0000
# 3 90.0342 32.9659 209.2648 0.0000 -5.7239 0.0000
# 4 0.0000 0.0000 0.0000 30.9808 0.0000 0.2183
# 5 -5.0029 -0.0079 -5.7239 0.0000 43.3899 0.0000
# 6 0.0000 0.0000 0.0000 0.2183 0.0000 3.7438
#
#
#
# Elastic Compliance Matrix: (Units=1/GPa)
#
#
# Indices 1 2 3 4 5 6 
#
# 1 0.005253 0.000436 -0.002321 0.000000 0.000300 0.000000
# 2 0.000436 0.052557 -0.008496 0.000000 -0.001061 0.000000
# 3 -0.002321 -0.008496 0.007134 0.000000 0.000672 0.000000
# 4 0.000000 0.000000 0.000000 0.032291 0.000000 -0.001883
# 5 0.000300 -0.001061 0.000672 0.000000 0.023170 0.000000
# 6 0.000000 0.000000 0.000000 -0.001883 0.000000 0.267216
#
#
# Mechanical properties :
#
#
# Convention : Reuss Voigt Hill
#
# Bulk Modulus (GPa) = 22.63337 81.55429 52.09383
# Shear Modulus (GPa) = 11.81724 37.44510 24.63117
#
# Velocity S-wave (km/s) = 2.34057 4.16639 3.37913
# Velocity P-wave (km/s) = 4.21862 7.80719 6.27491
#
# Compressibility (1/GPa) = 0.04418254
#
# Stress axis : x y z
#
# Youngs Moduli (GPa) = 190.35179 19.02693 140.17704
#
# Poissons Ratio (x) = -0.00829 0.32530
# Poissons Ratio (y) = -0.08293 1.19093
# Poissons Ratio (z) = 0.44174 0.16165
#
# Static dielectric constant tensor:
#      x y z
#    x 9.325700 0.000000 -0.101820 
#    y 0.000000 3.353440 0.000000 
#    z -0.101820 0.000000 3.936800 
# 
# 
# High freq. dielectric constant tensor:
#      x y z
#    x 1.886820 0.000000 -0.001790 
#    y 0.000000 1.805840 0.000000 
#    z -0.001790 0.000000 1.860650 
# 
# From -- ./inp_files/331060.got.cif
#   From: 2010.06.25/outbox.cif.g09.slc.cpg/sg12_166_cif.got.tgz:331060.got - 2010.06.28 00:19:55.
