data_PCOD8107712
_publ_section_title
;
Structure prediction by ZEFSAII (Michael W. Deem and Ramdas Pophale) SiO2 
 PCOD8107712
Probable space group: C 2/M
;
_chemical_formula_sum "Si O2"
_cell_formula_units_Z 48
_cell_length_a 16.627407
_cell_length_b 15.254820
_cell_length_c 14.431336
_cell_angle_alpha 90.000000
_cell_angle_beta 37.847143
_cell_angle_gamma 90.000000
_cell_volume 2245.913671
_symmetry_space_group_name_H-M "C 2/M"
_symmetry_group_IT_number 12
_symmetry_cell_setting 'monoclinic'
loop_
_space_group_symop_operation_xyz
x,y,z
-x,y,-z
-x,-y,-z
x,-y,z
1/2+x,1/2+y,z
1/2-x,1/2+y,-z
1/2-x,1/2-y,-z
1/2+x,1/2-y,z
loop_
_atom_site_type_symbol
_atom_site_label
_atom_site_fract_x
_atom_site_fract_y
_atom_site_fract_z
Si Si1 0.910005 0.093715 0.170178
Si Si2 0.630850 0.783223 0.820346
Si Si3 0.965735 0.404820 0.638226
Si Si4 0.968009 0.097454 0.317024
Si Si5 0.332579 0.899452 0.384834
Si Si6 0.889626 0.777784 0.679197
O O1 0.825474 0.182622 0.242865
O O2 0.002233 0.099205 0.176955
O O3 0.827936 0.000000 0.251365
O O4 0.000000 0.088130 0.000000
O O5 0.604337 0.838551 0.751881
O O6 0.754977 0.819958 0.764048
O O7 0.500000 0.787198 0.000000
O O8 0.904047 0.500000 0.724574
O O9 0.868180 0.321681 0.737972
O O10 0.000000 0.411578 0.500000
O O11 0.093592 0.384909 0.584832
O O12 0.817699 0.128832 0.464779
O O13 0.067582 0.162064 0.275245
O O14 0.986077 0.000000 0.342354
O O15 0.344088 0.000000 0.341655
O O16 0.000000 0.779462 0.500000
#
# Coordination Sequence:
#
# PCOD8107712 Si02
#       6
#     8   8   8   8   8   8
#     4   9  20  39  61  88 121 160 202 245 304 367
#     4  11  24  41  62  89 126 166 201 247 308 367
#     4   9  20  36  57  91 125 151 193 254 309 356
#     4  10  21  37  64  93 120 158 206 256 300 355
#     4  10  21  39  63  91 121 161 205 250 305 361
#     4  11  22  37  61  93 122 156 204 256 301 352
#
# _framework density 21.372149
#
# number of rings (size 3 to 8) (size 9 to 14) (size 15 to 20)
#    0.000    2.000    1.667    1.000    4.667    3.333 
#    0.000    7.500    0.000    8.000    0.000    0.000 
#    0.000    0.000    0.000    0.000    0.000    0.000 
#
# Total GULP energy -297376.395293 kJ/mol
# GULP energy per Si atom -12390.683137 kJ/mol
# Density = 2.132351 g / cm^3
# Si number density = 21.372149 Si / 1000 Ang^3
#
#
#
# Elastic Constant Matrix: (Units=GPa)
#
#
# Indices 1 2 3 4 5 6 
#
# 1 147.4294 57.8262 50.7690 0.0000 9.4385 0.0001
# 2 57.8262 111.4659 44.8122 0.0001 19.2581 0.0000
# 3 50.7690 44.8122 76.8426 0.0001 9.7329 0.0001
# 4 0.0000 0.0001 0.0001 17.0008 0.0000 7.6011
# 5 9.4385 19.2581 9.7329 0.0000 31.0239 -0.0001
# 6 0.0001 0.0000 0.0001 7.6011 -0.0001 33.2312
#
#
#
# Elastic Compliance Matrix: (Units=1/GPa)
#
#
# Indices 1 2 3 4 5 6 
#
# 1 0.009572 -0.003247 -0.004495 0.000000 0.000514 0.000000
# 2 -0.003247 0.013737 -0.005114 0.000000 -0.005935 0.000000
# 3 -0.004495 -0.005114 0.019152 0.000000 -0.001466 0.000000
# 4 0.000000 0.000000 0.000000 0.065522 0.000000 -0.014987
# 5 0.000514 -0.005935 -0.001466 0.000000 0.036221 0.000000
# 6 0.000000 0.000000 0.000000 -0.014987 0.000000 0.033520
#
#
# Mechanical properties :
#
#
# Convention : Reuss Voigt Hill
#
# Bulk Modulus (GPa) = 59.71023 71.39475 65.55249
# Shear Modulus (GPa) = 23.92125 28.40654 26.16389
#
# Velocity S-wave (km/s) = 3.34918 3.64969 3.50266
# Velocity P-wave (km/s) = 6.55401 7.15810 6.86270
#
# Compressibility (1/GPa) = 0.01674755
#
# Stress axis : x y z
#
# Youngs Moduli (GPa) = 104.47521 72.79433 52.21461
#
# Poissons Ratio (x) = 0.23637 0.23472
# Poissons Ratio (y) = 0.33924 0.26703
# Poissons Ratio (z) = 0.46965 0.37228
#
# Static dielectric constant tensor:
#      x y z
#    x 3.948430 0.000000 0.254000 
#    y 0.000000 4.628960 0.000000 
#    z 0.254000 0.000000 3.370900 
# 
# 
# High freq. dielectric constant tensor:
#      x y z
#    x 1.845790 0.000000 0.021160 
#    y 0.000000 1.861380 0.000000 
#    z 0.021160 0.000000 1.791060 
# 
# From -- ./inp_files/225119.got.cif
#   From: 2010.06.25/outbox.cif.g09.slc.cpg/sg12_113_cif.got.tgz:225119.got - 2010.06.28 00:19:55.
