data_PCOD8107988
_publ_section_title
;
Structure prediction by ZEFSAII (Michael W. Deem and Ramdas Pophale) SiO2 
 PCOD8107988
Probable space group: C 2/M
;
_chemical_formula_sum "Si O2"
_cell_formula_units_Z 48
_cell_length_a 10.197013
_cell_length_b 8.787412
_cell_length_c 28.367651
_cell_angle_alpha 90.000000
_cell_angle_beta 68.965436
_cell_angle_gamma 90.000000
_cell_volume 2372.511987
_symmetry_space_group_name_H-M "C 2/M"
_symmetry_group_IT_number 12
_symmetry_cell_setting 'monoclinic'
loop_
_space_group_symop_operation_xyz
x,y,z
-x,y,-z
-x,-y,-z
x,-y,z
1/2+x,1/2+y,z
1/2-x,1/2+y,-z
1/2-x,1/2-y,-z
1/2+x,1/2-y,z
loop_
_atom_site_type_symbol
_atom_site_label
_atom_site_fract_x
_atom_site_fract_y
_atom_site_fract_z
Si Si1 0.689959 0.677340 0.200093
Si Si2 0.486504 0.177404 0.857206
Si Si3 0.100630 0.320854 0.027607
Si Si4 0.602970 0.177390 0.306177
Si Si5 0.157578 0.320789 0.471425
Si Si6 0.780264 0.677458 0.363258
O O1 0.664183 0.500000 0.213261
O O2 0.617992 0.722402 0.160466
O O3 0.618684 0.776283 0.250019
O O4 0.854205 0.715639 0.176996
O O5 0.462616 0.227548 0.914029
O O6 0.452895 0.000000 0.853797
O O7 0.114878 0.500000 0.021610
O O8 0.250000 0.250000 0.000000
O O9 0.000000 0.255476 0.000000
O O10 0.712825 0.273608 0.322534
O O11 0.445035 0.215010 0.342606
O O12 0.636391 0.000000 0.307980
O O13 0.168687 0.500000 0.473822
O O14 0.250000 0.250000 0.500000
O O15 0.206966 0.270860 0.413825
O O16 0.000000 0.263371 0.500000
O O17 0.753237 0.500000 0.374765
#
# Coordination Sequence:
#
# PCOD8107988 Si02
#       6
#     8   8   8   8   8   8
#     4  11  23  39  61  87 115 152 196 238 287 347
#     4  10  22  39  58  84 118 152 190 239 290 342
#     4  10  21  38  59  84 116 152 191 238 289 342
#     4  11  24  41  61  88 121 154 193 242 292 344
#     4  11  24  41  62  90 122 156 197 244 293 346
#     4  11  24  41  62  89 120 156 198 241 289 347
#
# _framework density 20.231722000000001
#
# number of rings (size 3 to 8) (size 9 to 14) (size 15 to 20)
#    0.000    1.333    0.000    5.000    0.000   15.667 
#    0.000    0.000    0.000    0.000    0.000    0.000 
#    0.000    0.000    0.000    0.000    0.000    0.000 
#
# Total GULP energy -297774.314682 kJ/mol
# GULP energy per Si atom -12407.263112 kJ/mol
# Density = 2.018567 g / cm^3
# Si number density = 20.231722 Si / 1000 Ang^3
#
#
#
# Elastic Constant Matrix: (Units=GPa)
#
#
# Indices 1 2 3 4 5 6 
#
# 1 114.4210 46.5314 25.2452 0.0000 5.8916 0.0000
# 2 46.5314 41.7435 21.5168 0.0000 -9.0834 0.0000
# 3 25.2452 21.5168 106.6132 0.0000 -1.4670 0.0000
# 4 0.0000 0.0000 0.0000 36.6935 0.0000 4.5192
# 5 5.8916 -9.0834 -1.4670 0.0000 43.2152 0.0000
# 6 0.0000 0.0000 0.0000 4.5192 0.0000 37.1207
#
#
#
# Elastic Compliance Matrix: (Units=1/GPa)
#
#
# Indices 1 2 3 4 5 6 
#
# 1 0.017752 -0.021287 -0.000002 0.000000 -0.006895 0.000000
# 2 -0.021287 0.053606 -0.005586 0.000000 0.013980 0.000000
# 3 -0.000002 -0.005586 0.010496 0.000000 -0.000817 0.000000
# 4 0.000000 0.000000 0.000000 0.027668 0.000000 -0.003368
# 5 -0.006895 0.013980 -0.000817 0.000000 0.026991 0.000000
# 6 0.000000 0.000000 0.000000 -0.003368 0.000000 0.027349
#
#
# Mechanical properties :
#
#
# Convention : Reuss Voigt Hill
#
# Bulk Modulus (GPa) = 35.58242 49.92939 42.75591
# Shear Modulus (GPa) = 22.02836 34.70484 28.36660
#
# Velocity S-wave (km/s) = 3.30328 4.14619 3.74851
# Velocity P-wave (km/s) = 5.67226 6.90316 6.31776
#
# Compressibility (1/GPa) = 0.02810377
#
# Stress axis : x y z
#
# Youngs Moduli (GPa) = 56.33169 18.65465 95.27169
#
# Poissons Ratio (x) = 0.39711 0.00021
# Poissons Ratio (y) = 1.19915 0.53217
# Poissons Ratio (z) = 0.00012 0.10420
#
# Static dielectric constant tensor:
#      x y z
#    x 3.820410 0.000000 -0.012040 
#    y 0.000000 3.640430 0.000000 
#    z -0.012040 0.000000 3.783380 
# 
# 
# High freq. dielectric constant tensor:
#      x y z
#    x 1.806790 0.000000 0.000850 
#    y 0.000000 1.793230 0.000000 
#    z 0.000850 0.000000 1.807980 
# 
# From -- ./inp_files/334785.got.cif
#   From: 2010.06.25/outbox.cif.g09.slc.cpg/sg12_168_cif.got.tgz:334785.got - 2010.06.28 00:19:55.
