data_PCOD8107223
_publ_section_title
;
Structure prediction by ZEFSAII (Michael W. Deem and Ramdas Pophale) SiO2 
 PCOD8107223
Probable space group: C 2/M
;
_chemical_formula_sum "Si O2"
_cell_formula_units_Z 56
_cell_length_a 14.667152
_cell_length_b 9.007928
_cell_length_c 24.341254
_cell_angle_alpha 90.000000
_cell_angle_beta 116.746813
_cell_angle_gamma 90.000000
_cell_volume 2871.884970
_symmetry_space_group_name_H-M "C 2/M"
_symmetry_group_IT_number 12
_symmetry_cell_setting 'monoclinic'
loop_
_space_group_symop_operation_xyz
x,y,z
-x,y,-z
-x,-y,-z
x,-y,z
1/2+x,1/2+y,z
1/2-x,1/2+y,-z
1/2-x,1/2-y,-z
1/2+x,1/2-y,z
loop_
_atom_site_type_symbol
_atom_site_label
_atom_site_fract_x
_atom_site_fract_y
_atom_site_fract_z
Si Si1 0.401025 0.825892 0.507603
Si Si2 0.226753 0.828613 0.936908
Si Si3 0.903295 0.166723 0.936562
Si Si4 0.625668 0.828751 0.816993
Si Si5 0.676616 0.325993 0.408081
Si Si6 0.828315 0.166441 0.803905
Si Si7 0.595680 0.173360 0.278857
O O1 0.500000 0.768999 0.500000
O O2 0.395483 0.746715 0.565108
O O3 0.296508 0.786797 0.447324
O O4 0.411656 0.000000 0.521614
O O5 0.326502 0.799575 0.927958
O O6 0.132758 0.760903 0.876550
O O7 0.204903 0.000000 0.941591
O O8 0.250000 0.750000 0.000000
O O9 0.918806 0.175654 0.874799
O O10 0.860211 0.000000 0.938569
O O11 0.000000 0.198241 0.000000
O O12 0.719786 0.795266 0.802218
O O13 0.522907 0.781360 0.757846
O O14 0.621616 0.000000 0.832721
O O15 0.658158 0.500000 0.406043
O O16 0.644650 0.265782 0.340768
O O17 0.847142 0.285515 0.761873
O O18 0.825860 0.000000 0.778177
O O19 0.610604 0.000000 0.294506
#
# Coordination Sequence:
#
# PCOD8107223 Si02
#       7
#     8   8   8   8   8   8   8
#     4   9  19  38  63  88 119 158 195 232 278 331
#     4  11  22  35  54  79 107 139 181 233 289 349
#     4   9  19  36  56  79 107 140 180 229 291 353
#     4   9  21  41  58  77 108 149 190 234 289 349
#     4  10  21  37  58  88 121 152 194 239 280 333
#     4   9  19  37  57  78 109 145 187 234 286 346
#     4  11  23  38  59  84 116 154 194 238 287 343
#
# _framework density 19.499388
#
# number of rings (size 3 to 8) (size 9 to 14) (size 15 to 20)
#    0.000    2.286    0.000    3.000    2.000    5.714 
#    0.000    5.714    0.000    0.000    0.000    0.000 
#    0.000    0.000    0.000    0.000    0.000    0.000 
#
# Total GULP energy -347055.328930 kJ/mol
# GULP energy per Si atom -12394.833176 kJ/mol
# Density = 1.945501 g / cm^3
# Si number density = 19.499388 Si / 1000 Ang^3
#
#
#
# Elastic Constant Matrix: (Units=GPa)
#
#
# Indices 1 2 3 4 5 6 
#
# 1 94.0183 31.6736 48.4251 0.0000 -4.6912 0.0000
# 2 31.6736 64.3265 40.1448 0.0000 -1.0218 0.0000
# 3 48.4251 40.1448 130.6536 0.0000 -0.0415 0.0000
# 4 0.0000 0.0000 0.0000 37.3738 0.0000 -5.0434
# 5 -4.6912 -1.0218 -0.0415 0.0000 26.0179 0.0000
# 6 0.0000 0.0000 0.0000 -5.0434 0.0000 29.9450
#
#
#
# Elastic Compliance Matrix: (Units=1/GPa)
#
#
# Indices 1 2 3 4 5 6 
#
# 1 0.014303 -0.004574 -0.003895 0.000000 0.002393 0.000000
# 2 -0.004574 0.020711 -0.004669 0.000000 -0.000019 0.000000
# 3 -0.003895 -0.004669 0.010532 0.000000 -0.000869 0.000000
# 4 0.000000 0.000000 0.000000 0.027379 0.000000 0.004611
# 5 0.002393 -0.000019 -0.000869 0.000000 0.038864 0.000000
# 6 0.000000 0.000000 0.000000 0.004611 0.000000 0.034171
#
#
# Mechanical properties :
#
#
# Convention : Reuss Voigt Hill
#
# Bulk Modulus (GPa) = 51.89185 58.83171 55.36178
# Shear Modulus (GPa) = 27.98649 29.91766 28.95208
#
# Velocity S-wave (km/s) = 3.79258 3.92125 3.85745
# Velocity P-wave (km/s) = 6.77112 7.12307 6.94932
#
# Compressibility (1/GPa) = 0.01927085
#
# Stress axis : x y z
#
# Youngs Moduli (GPa) = 69.91743 48.28376 94.95198
#
# Poissons Ratio (x) = 0.22083 0.36984
# Poissons Ratio (y) = 0.31977 0.44328
# Poissons Ratio (z) = 0.27233 0.22541
#
# Static dielectric constant tensor:
#      x y z
#    x 3.562890 0.000000 0.114860 
#    y 0.000000 6.978560 0.000000 
#    z 0.114860 0.000000 3.705420 
# 
# 
# High freq. dielectric constant tensor:
#      x y z
#    x 1.749770 0.000000 0.003030 
#    y 0.000000 1.756180 0.000000 
#    z 0.003030 0.000000 1.766690 
# 
# From -- ./inp_files/338203.got.cif
#   From: 2010.06.25/outbox.cif.g09.slc.cpg/sg12_170_cif.got.tgz:338203.got - 2010.06.28 00:19:55.
