data_PCOD8107591
_publ_section_title
;
Structure prediction by ZEFSAII (Michael W. Deem and Ramdas Pophale) SiO2 
 PCOD8107591
Probable space group: C 2/M
;
_chemical_formula_sum "Si O2"
_cell_formula_units_Z 56
_cell_length_a 8.777651
_cell_length_b 20.949151
_cell_length_c 18.052665
_cell_angle_alpha 90.000000
_cell_angle_beta 55.896488
_cell_angle_gamma 90.000000
_cell_volume 2748.716925
_symmetry_space_group_name_H-M "C 2/M"
_symmetry_group_IT_number 12
_symmetry_cell_setting 'monoclinic'
loop_
_space_group_symop_operation_xyz
x,y,z
-x,y,-z
-x,-y,-z
x,-y,z
1/2+x,1/2+y,z
1/2-x,1/2+y,-z
1/2-x,1/2-y,-z
1/2+x,1/2-y,z
loop_
_atom_site_type_symbol
_atom_site_label
_atom_site_fract_x
_atom_site_fract_y
_atom_site_fract_z
Si Si1 0.094138 0.930162 0.052230
Si Si2 0.714999 0.073670 0.426699
Si Si3 0.196710 0.197484 0.073809
Si Si4 0.251102 0.429531 0.248703
Si Si5 0.675691 0.760762 0.808020
Si Si6 0.305824 0.319227 0.514099
Si Si7 0.011902 0.673912 0.716994
O O1 0.950671 0.930410 0.158368
O O2 0.237040 0.873070 0.030012
O O3 0.192026 0.000000 0.022082
O O4 0.000000 0.915043 0.000000
O O5 0.500000 0.080913 0.500000
O O6 0.763516 0.095257 0.329880
O O7 0.821388 0.125092 0.448357
O O8 0.778480 0.000000 0.425032
O O9 0.320129 0.205822 0.112993
O O10 0.978099 0.204845 0.150388
O O11 0.250000 0.250000 0.000000
O O12 0.164395 0.500000 0.273818
O O13 0.113602 0.387960 0.236213
O O14 0.623476 0.813606 0.761777
O O15 0.875309 0.732330 0.733564
O O16 0.500000 0.312444 0.500000
O O17 0.250000 0.250000 0.500000
O O18 0.151246 0.340864 0.613657
#
# Coordination Sequence:
#
# PCOD8107591 Si02
#       7
#     8   8   8   8   8   8   8
#     4  10  21  37  61  92 122 159 205 253 304 367
#     4  10  21  40  65  90 121 167 215 259 312 385
#     4  11  21  38  60  90 124 159 205 259 308 369
#     4  10  21  39  65  89 119 164 210 254 310 372
#     4  10  23  36  59  87 119 162 205 251 313 371
#     4  12  26  39  59  91 129 165 207 265 324 376
#     4  11  22  40  58  87 120 161 205 257 309 371
#
# _framework density 20.373141
#
# number of rings (size 3 to 8) (size 9 to 14) (size 15 to 20)
#    0.000    1.429    2.857    2.571    4.000    1.429 
#    0.000    0.714    0.000    1.714    0.000    0.000 
#    0.000    0.000    0.000    0.000    0.000    0.000 
#
# Total GULP energy -347186.379920 kJ/mol
# GULP energy per Si atom -12399.513569 kJ/mol
# Density = 2.032677 g / cm^3
# Si number density = 20.373141 Si / 1000 Ang^3
#
#
#
# Elastic Constant Matrix: (Units=GPa)
#
#
# Indices 1 2 3 4 5 6 
#
# 1 108.3072 54.8981 21.5019 0.0000 24.6384 0.0000
# 2 54.8981 146.2601 19.2439 0.0000 28.7227 0.0000
# 3 21.5019 19.2439 87.7536 0.0000 21.7270 0.0000
# 4 0.0000 0.0000 0.0000 27.8955 0.0000 7.8984
# 5 24.6384 28.7227 21.7270 0.0000 36.6936 0.0000
# 6 0.0000 0.0000 0.0000 7.8984 0.0000 22.2360
#
#
#
# Elastic Compliance Matrix: (Units=1/GPa)
#
#
# Indices 1 2 3 4 5 6 
#
# 1 0.012347 -0.003534 -0.001034 0.000000 -0.004912 0.000000
# 2 -0.003534 0.009095 0.000055 0.000000 -0.004779 0.000000
# 3 -0.001034 0.000055 0.013447 0.000000 -0.007311 0.000000
# 4 0.000000 0.000000 0.000000 0.039857 0.000000 -0.014157
# 5 -0.004912 -0.004779 -0.007311 0.000000 0.038620 0.000000
# 6 0.000000 0.000000 0.000000 -0.014157 0.000000 0.050001
#
#
# Mechanical properties :
#
#
# Convention : Reuss Voigt Hill
#
# Bulk Modulus (GPa) = 38.66671 59.28986 48.97828
# Shear Modulus (GPa) = 27.62225 33.81016 30.71621
#
# Velocity S-wave (km/s) = 3.68614 4.07817 3.88710
# Velocity P-wave (km/s) = 6.09404 7.16523 6.65123
#
# Compressibility (1/GPa) = 0.02586204
#
# Stress axis : x y z
#
# Youngs Moduli (GPa) = 80.99237 109.95378 74.36597
#
# Poissons Ratio (x) = 0.38854 0.07691
# Poissons Ratio (y) = 0.28620 -0.00406
# Poissons Ratio (z) = 0.08376 -0.00600
#
# Static dielectric constant tensor:
#      x y z
#    x 3.549830 0.000000 0.064070 
#    y 0.000000 3.963340 0.000000 
#    z 0.064070 0.000000 3.862360 
# 
# 
# High freq. dielectric constant tensor:
#      x y z
#    x 1.773650 0.000000 0.009800 
#    y 0.000000 1.803670 0.000000 
#    z 0.009800 0.000000 1.808670 
# 
# From -- ./inp_files/257980.got.cif
#   From: 2010.06.25/outbox.cif.g09.slc.cpg/sg12_129_cif.got.tgz:257980.got - 2010.06.28 00:19:55.
