data_PCOD8107352
_publ_section_title
;
Structure prediction by ZEFSAII (Michael W. Deem and Ramdas Pophale) SiO2 
 PCOD8107352
Probable space group: C 2/M
;
_chemical_formula_sum "Si O2"
_cell_formula_units_Z 48
_cell_length_a 14.781338
_cell_length_b 8.662366
_cell_length_c 18.679233
_cell_angle_alpha 90.000000
_cell_angle_beta 86.800906
_cell_angle_gamma 90.000000
_cell_volume 2387.987256
_symmetry_space_group_name_H-M "C 2/M"
_symmetry_group_IT_number 12
_symmetry_cell_setting 'monoclinic'
loop_
_space_group_symop_operation_xyz
x,y,z
-x,y,-z
-x,-y,-z
x,-y,z
1/2+x,1/2+y,z
1/2-x,1/2+y,-z
1/2-x,1/2-y,-z
1/2+x,1/2-y,z
loop_
_atom_site_type_symbol
_atom_site_label
_atom_site_fract_x
_atom_site_fract_y
_atom_site_fract_z
Si Si1 0.397490 0.817412 0.494697
Si Si2 0.587995 0.674140 0.146384
Si Si3 0.612620 0.324812 0.860371
Si Si4 0.738337 0.680246 0.604383
Si Si5 0.151096 0.680623 0.002712
Si Si6 0.757615 0.821859 0.755469
O O1 0.500000 0.749680 0.500000
O O2 0.352027 0.760200 0.422965
O O3 0.330981 0.760924 0.561857
O O4 0.403677 0.000000 0.491937
O O5 0.613970 0.500000 0.120567
O O6 0.483777 0.682832 0.175224
O O7 0.646358 0.720737 0.213054
O O8 0.604153 0.790765 0.080685
O O9 0.650502 0.500000 0.859272
O O10 0.596866 0.266058 0.941957
O O11 0.680858 0.212475 0.817054
O O12 0.726645 0.500000 0.592542
O O13 0.744701 0.715373 0.687540
O O14 0.153281 0.500000 0.986576
O O15 0.250000 0.750000 0.000000
O O16 0.752422 0.000000 0.732620
#
# Coordination Sequence:
#
# PCOD8107352 Si02
#       6
#     8   8   8   8   8   8
#     4   9  19  38  63  90 119 153 192 235 281 338
#     4  10  23  41  60  84 116 153 195 245 300 352
#     4  11  23  40  61  86 116 152 195 248 301 353
#     4  10  21  37  59  88 121 154 191 237 286 340
#     4  12  23  37  60  86 114 152 197 247 299 352
#     4  11  23  40  60  83 118 159 196 238 288 350
#
# _framework density 20.100608999999999
#
# number of rings (size 3 to 8) (size 9 to 14) (size 15 to 20)
#    0.000    1.500    1.667    3.500    0.000    6.333 
#    0.000    3.333    0.000    0.000    0.000    0.000 
#    0.000    0.000    0.000    0.000    0.000    0.000 
#
# Total GULP energy -297669.755993 kJ/mol
# GULP energy per Si atom -12402.906500 kJ/mol
# Density = 2.005486 g / cm^3
# Si number density = 20.100609 Si / 1000 Ang^3
#
#
#
# Elastic Constant Matrix: (Units=GPa)
#
#
# Indices 1 2 3 4 5 6 
#
# 1 129.0752 31.3323 28.5704 0.0000 28.7102 0.0000
# 2 31.3323 48.3219 17.0276 0.0000 2.3893 0.0000
# 3 28.5704 17.0276 86.4629 0.0000 25.2168 0.0000
# 4 0.0000 0.0000 0.0000 30.8523 0.0000 -1.0519
# 5 28.7102 2.3893 25.2168 0.0000 22.3363 0.0000
# 6 0.0000 0.0000 0.0000 -1.0519 0.0000 24.8692
#
#
#
# Elastic Compliance Matrix: (Units=1/GPa)
#
#
# Indices 1 2 3 4 5 6 
#
# 1 0.013745 -0.009017 0.003139 0.000000 -0.020246 0.000000
# 2 -0.009017 0.028375 -0.007609 0.000000 0.017145 0.000000
# 3 0.003139 -0.007609 0.019331 0.000000 -0.025044 0.000000
# 4 0.000000 0.000000 0.000000 0.032459 0.000000 0.001373
# 5 -0.020246 0.017145 -0.025044 0.000000 0.097234 0.000000
# 6 0.000000 0.000000 0.000000 0.001373 0.000000 0.040268
#
#
# Mechanical properties :
#
#
# Convention : Reuss Voigt Hill
#
# Bulk Modulus (GPa) = 29.00536 46.41341 37.70938
# Shear Modulus (GPa) = 18.52684 28.07354 23.30019
#
# Velocity S-wave (km/s) = 3.03925 3.74123 3.40836
# Velocity P-wave (km/s) = 5.17470 6.46553 5.85579
#
# Compressibility (1/GPa) = 0.03447639
#
# Stress axis : x y z
#
# Youngs Moduli (GPa) = 72.75433 35.24259 51.73012
#
# Poissons Ratio (x) = 0.31779 -0.16237
# Poissons Ratio (y) = 0.65604 0.39360
# Poissons Ratio (z) = -0.22836 0.26815
#
# Static dielectric constant tensor:
#      x y z
#    x 3.848680 0.000000 0.102090 
#    y 0.000000 3.642390 0.000000 
#    z 0.102090 0.000000 3.576620 
# 
# 
# High freq. dielectric constant tensor:
#      x y z
#    x 1.794800 0.000000 0.010860 
#    y 0.000000 1.786550 0.000000 
#    z 0.010860 0.000000 1.772990 
# 
# From -- ./inp_files/267629.got.cif
#   From: 2010.06.25/outbox.cif.g09.slc.cpg/sg12_134_cif.got.tgz:267629.got - 2010.06.28 00:19:55.
