data_PCOD8107530
_publ_section_title
;
Structure prediction by ZEFSAII (Michael W. Deem and Ramdas Pophale) SiO2 
 PCOD8107530
Probable space group: C 2/M
;
_chemical_formula_sum "Si O2"
_cell_formula_units_Z 64
_cell_length_a 25.398929
_cell_length_b 17.375383
_cell_length_c 22.735298
_cell_angle_alpha 90.000000
_cell_angle_beta 19.218858
_cell_angle_gamma 90.000000
_cell_volume 3302.786687
_symmetry_space_group_name_H-M "C 2/M"
_symmetry_group_IT_number 12
_symmetry_cell_setting 'monoclinic'
loop_
_space_group_symop_operation_xyz
x,y,z
-x,y,-z
-x,-y,-z
x,-y,z
1/2+x,1/2+y,z
1/2-x,1/2+y,-z
1/2-x,1/2-y,-z
1/2+x,1/2-y,z
loop_
_atom_site_type_symbol
_atom_site_label
_atom_site_fract_x
_atom_site_fract_y
_atom_site_fract_z
Si Si1 0.404543 0.820448 0.454139
Si Si2 0.868024 0.088199 0.400168
Si Si3 0.112373 0.911378 0.757447
Si Si4 0.885150 0.310980 0.871380
Si Si5 0.355752 0.208418 0.315361
Si Si6 0.944472 0.227436 0.992157
Si Si7 0.590157 0.715699 0.346237
Si Si8 0.156796 0.090147 0.180471
O O1 0.292318 0.892235 0.592033
O O2 0.548726 0.846677 0.259369
O O3 0.291494 0.766353 0.533757
O O4 0.475382 0.777077 0.435462
O O5 0.893729 0.109484 0.305038
O O6 0.713417 0.126034 0.593560
O O7 0.026669 0.109875 0.268363
O O8 0.826686 0.000000 0.449739
O O9 0.071214 0.000000 0.814100
O O10 0.982193 0.857889 0.927125
O O11 0.022515 0.264879 0.761794
O O12 0.750000 0.250000 0.000000
O O13 0.823940 0.380987 0.976767
O O14 0.453662 0.208000 0.150601
O O15 0.756919 0.242913 0.184279
O O16 0.000000 0.233109 0.000000
O O17 0.500000 0.689456 0.500000
O O18 0.615177 0.638264 0.282551
O O19 0.166555 0.000000 0.186155
#
# Coordination Sequence:
#
# PCOD8107530 Si02
#       8
#     8   8   8   8   8   8   8   8
#     4  11  22  35  65  91 122 157 205 251 305 368
#     4  10  21  37  60  92 127 164 197 238 312 376
#     4  10  23  41  63  93 129 161 196 252 319 374
#     4  12  21  34  60  92 125 161 201 253 308 368
#     4  11  20  37  61  88 121 157 202 252 299 360
#     4  11  25  41  64  91 116 162 214 259 303 363
#     4  12  24  43  65  88 120 161 217 259 299 365
#     4  11  25  40  60  93 131 166 204 255 313 366
#
# _framework density 19.377576000000001
#
# number of rings (size 3 to 8) (size 9 to 14) (size 15 to 20)
#    0.000    1.000    5.000    1.875    7.000    1.500 
#    0.000    0.625    0.000    2.250    0.000    0.000 
#    0.000    0.000    0.000    0.000    0.000    0.000 
#
# Total GULP energy -396724.738750 kJ/mol
# GULP energy per Si atom -12397.648086 kJ/mol
# Density = 1.933347 g / cm^3
# Si number density = 19.377576 Si / 1000 Ang^3
#
#
#
# Elastic Constant Matrix: (Units=GPa)
#
#
# Indices 1 2 3 4 5 6 
#
# 1 115.6247 42.6245 39.1982 -0.0327 -1.4854 0.0206
# 2 42.6245 64.8295 30.9629 -0.0383 -2.7530 0.0213
# 3 39.1982 30.9629 101.7819 -0.0904 6.3794 0.0817
# 4 -0.0327 -0.0383 -0.0904 29.4995 0.0411 2.6190
# 5 -1.4854 -2.7530 6.3794 0.0411 40.6176 -0.0081
# 6 0.0206 0.0213 0.0817 2.6190 -0.0081 15.4222
#
#
#
# Elastic Compliance Matrix: (Units=1/GPa)
#
#
# Indices 1 2 3 4 5 6 
#
# 1 0.011980 -0.006603 -0.002630 -0.000005 0.000404 0.000008
# 2 -0.006603 0.021867 -0.004228 0.000005 0.001905 0.000001
# 3 -0.002630 -0.004228 0.012269 0.000038 -0.002310 -0.000063
# 4 -0.000005 0.000005 0.000038 0.034418 -0.000042 -0.005845
# 5 0.000404 0.001905 -0.002310 -0.000042 0.025127 0.000029
# 6 0.000008 0.000001 -0.000063 -0.005845 0.000029 0.065835
#
#
# Mechanical properties :
#
#
# Convention : Reuss Voigt Hill
#
# Bulk Modulus (GPa) = 52.10484 56.42303 54.26393
# Shear Modulus (GPa) = 24.41214 28.40455 26.40835
#
# Velocity S-wave (km/s) = 3.55324 3.83279 3.69566
# Velocity P-wave (km/s) = 6.61677 6.98341 6.80256
#
# Compressibility (1/GPa) = 0.01919208
#
# Stress axis : x y z
#
# Youngs Moduli (GPa) = 83.47404 45.73095 81.50575
#
# Poissons Ratio (x) = 0.30197 0.21438
# Poissons Ratio (y) = 0.55120 0.34465
# Poissons Ratio (z) = 0.21955 0.19337
#
# Static dielectric constant tensor:
#      x y z
#    x 3.746000 -0.000110 -0.182870 
#    y -0.000110 3.502930 0.000230 
#    z -0.182870 0.000230 3.889810 
# 
# 
# High freq. dielectric constant tensor:
#      x y z
#    x 1.756420 -0.000010 -0.006260 
#    y -0.000010 1.738250 0.000010 
#    z -0.006260 0.000010 1.768430 
# 
# From -- ./inp_files/326075.got.cif
#   From: 2010.06.25/outbox.cif.g09.slc.cpg/sg12_164_cif.got.tgz:326075.got - 2010.06.28 00:19:55.
