data_PCOD8107854
_publ_section_title
;
Structure prediction by ZEFSAII (Michael W. Deem and Ramdas Pophale) SiO2 
 PCOD8107854
Probable space group: C 2/M
;
_chemical_formula_sum "Si O2"
_cell_formula_units_Z 64
_cell_length_a 14.254743
_cell_length_b 8.875378
_cell_length_c 26.804767
_cell_angle_alpha 90.000000
_cell_angle_beta 103.320523
_cell_angle_gamma 90.000000
_cell_volume 3300.001644
_symmetry_space_group_name_H-M "C 2/M"
_symmetry_group_IT_number 12
_symmetry_cell_setting 'monoclinic'
loop_
_space_group_symop_operation_xyz
x,y,z
-x,y,-z
-x,-y,-z
x,-y,z
1/2+x,1/2+y,z
1/2-x,1/2+y,-z
1/2-x,1/2-y,-z
1/2+x,1/2-y,z
loop_
_atom_site_type_symbol
_atom_site_label
_atom_site_fract_x
_atom_site_fract_y
_atom_site_fract_z
Si Si1 0.886976 0.666153 0.496049
Si Si2 0.581290 0.676613 0.403730
Si Si3 0.930637 0.177607 0.141405
Si Si4 0.374864 0.177838 0.384685
Si Si5 0.214866 0.677971 0.128932
Si Si6 0.042817 0.177721 0.057209
Si Si7 0.693407 0.822605 0.328394
Si Si8 0.398011 0.823888 0.787697
O O1 0.850906 0.500000 0.507770
O O2 0.862627 0.782208 0.537652
O O3 0.840121 0.713543 0.437391
O O4 0.000000 0.661641 0.500000
O O5 0.560542 0.500000 0.400532
O O6 0.482632 0.768287 0.387706
O O7 0.645019 0.722968 0.364971
O O8 0.822852 0.241667 0.135223
O O9 0.969598 0.227504 0.091976
O O10 0.999021 0.244114 0.192827
O O11 0.931229 0.000000 0.147798
O O12 0.305003 0.271735 0.339671
O O13 0.369334 0.000000 0.372978
O O14 0.213173 0.500000 0.122029
O O15 0.147218 0.748376 0.078039
O O16 0.176792 0.728209 0.178673
O O17 0.057256 0.000000 0.057908
O O18 0.000000 0.237842 0.000000
O O19 0.645202 0.776825 0.270493
O O20 0.684272 0.000000 0.338152
O O21 0.416428 0.000000 0.793422
#
# Coordination Sequence:
#
# PCOD8107854 Si02
#       8
#     8   8   8   8   8   8   8   8
#     4   8  16  33  55  77 105 139 173 213 261 316
#     4  11  22  36  56  81 108 140 177 217 265 321
#     4   9  18  33  54  77 103 139 177 215 261 311
#     4  10  21  38  58  81 109 140 175 217 267 323
#     4   9  18  34  54  76 102 134 176 219 261 309
#     4   9  18  32  49  75 112 146 176 212 254 304
#     4  11  23  38  55  78 108 140 177 222 273 327
#     4   9  20  37  54  74 101 132 170 220 268 311
#
# _framework density 19.393929
#
# number of rings (size 3 to 8) (size 9 to 14) (size 15 to 20)
#    0.000    2.500    0.000    2.625    0.000    6.500 
#    0.000    1.250    0.000    0.000    0.000    0.000 
#    0.000    0.000    0.000    0.000    0.000    0.000 
#
# Total GULP energy -396802.412798 kJ/mol
# GULP energy per Si atom -12400.075400 kJ/mol
# Density = 1.934979 g / cm^3
# Si number density = 19.393929 Si / 1000 Ang^3
#
#
#
# Elastic Constant Matrix: (Units=GPa)
#
#
# Indices 1 2 3 4 5 6 
#
# 1 90.3652 22.2568 34.6315 0.0000 16.1681 0.0000
# 2 22.2568 47.6794 33.7843 0.0000 7.0787 0.0000
# 3 34.6315 33.7843 112.7310 0.0000 19.6233 0.0000
# 4 0.0000 0.0000 0.0000 25.9830 0.0000 5.2193
# 5 16.1681 7.0787 19.6233 0.0000 25.5167 0.0000
# 6 0.0000 0.0000 0.0000 5.2193 0.0000 30.3001
#
#
#
# Elastic Compliance Matrix: (Units=1/GPa)
#
#
# Indices 1 2 3 4 5 6 
#
# 1 0.013957 -0.004217 -0.001949 0.000000 -0.006175 0.000000
# 2 -0.004217 0.027948 -0.007153 0.000000 0.000420 0.000000
# 3 -0.001949 -0.007153 0.012761 0.000000 -0.006594 0.000000
# 4 0.000000 0.000000 0.000000 0.039866 0.000000 -0.006867
# 5 -0.006175 0.000420 -0.006594 0.000000 0.048057 0.000000
# 6 0.000000 0.000000 0.000000 -0.006867 0.000000 0.034186
#
#
# Mechanical properties :
#
#
# Convention : Reuss Voigt Hill
#
# Bulk Modulus (GPa) = 35.67996 48.01341 41.84669
# Shear Modulus (GPa) = 23.50101 27.03350 25.26725
#
# Velocity S-wave (km/s) = 3.48483 3.73757 3.61341
# Velocity P-wave (km/s) = 5.88468 6.59064 6.24764
#
# Compressibility (1/GPa) = 0.02802693
#
# Stress axis : x y z
#
# Youngs Moduli (GPa) = 71.65103 35.78024 78.36333
#
# Poissons Ratio (x) = 0.15090 0.15271
# Poissons Ratio (y) = 0.30218 0.56056
# Poissons Ratio (z) = 0.13963 0.25595
#
# Static dielectric constant tensor:
#      x y z
#    x 3.557020 0.000000 0.076110 
#    y 0.000000 3.413380 0.000000 
#    z 0.076110 0.000000 3.752110 
# 
# 
# High freq. dielectric constant tensor:
#      x y z
#    x 1.755000 0.000000 0.008490 
#    y 0.000000 1.749060 0.000000 
#    z 0.008490 0.000000 1.753240 
# 
# From -- ./inp_files/359978.got.cif
#   From: 2010.06.25/outbox.cif.g09.slc.cpg/sg12_180_cif.got.tgz:359978.got - 2010.06.28 00:19:55.
