data_PCOD8107411
_publ_section_title
;
Structure prediction by ZEFSAII (Michael W. Deem and Ramdas Pophale) SiO2 
 PCOD8107411
Probable space group: C 2/M
;
_chemical_formula_sum "Si O2"
_cell_formula_units_Z 64
_cell_length_a 16.762426
_cell_length_b 14.844513
_cell_length_c 12.123057
_cell_angle_alpha 90.000000
_cell_angle_beta 87.073556
_cell_angle_gamma 90.000000
_cell_volume 3012.646966
_symmetry_space_group_name_H-M "C 2/M"
_symmetry_group_IT_number 12
_symmetry_cell_setting 'monoclinic'
loop_
_space_group_symop_operation_xyz
x,y,z
-x,y,-z
-x,-y,-z
x,-y,z
1/2+x,1/2+y,z
1/2-x,1/2+y,-z
1/2-x,1/2-y,-z
1/2+x,1/2-y,z
loop_
_atom_site_type_symbol
_atom_site_label
_atom_site_fract_x
_atom_site_fract_y
_atom_site_fract_z
Si Si1 0.669921 0.793581 0.051846
Si Si2 0.418924 0.393739 0.565739
Si Si3 0.737546 0.394816 0.545570
Si Si4 0.617303 0.239825 0.830337
Si Si5 0.266600 0.395815 0.205779
Si Si6 0.342879 0.900779 0.336661
Si Si7 0.060926 0.237705 0.243027
Si Si8 0.521091 0.099384 0.377997
O O1 0.693237 0.880587 0.124855
O O2 0.620206 0.728075 0.135814
O O3 0.750000 0.750000 0.000000
O O4 0.613639 0.811841 0.949426
O O5 0.500000 0.365621 0.500000
O O6 0.412420 0.500000 0.585087
O O7 0.345077 0.354888 0.498606
O O8 0.419978 0.349010 0.685428
O O9 0.725290 0.500000 0.552169
O O10 0.755094 0.361104 0.668505
O O11 0.811115 0.368960 0.459444
O O12 0.658080 0.337418 0.840308
O O13 0.675625 0.177177 0.750412
O O14 0.530402 0.258936 0.789198
O O15 0.291306 0.500000 0.202404
O O16 0.437533 0.911870 0.322446
O O17 0.304919 0.000000 0.310702
O O18 0.077522 0.330034 0.310909
O O19 0.500000 0.136853 0.500000
O O20 0.564020 0.000000 0.380946
#
# Coordination Sequence:
#
# PCOD8107411 Si02
#       8
#     8   8   8   8   8   8   8   8
#     4  10  24  42  59  84 118 161 213 266 300 352
#     4  10  21  37  59  92 129 162 200 248 306 382
#     4   9  19  35  58  88 123 159 198 245 306 370
#     4  10  22  41  62  87 119 161 210 262 308 364
#     4  10  22  40  62  91 126 166 205 257 318 375
#     4   9  19  35  57  86 120 156 196 248 308 367
#     4  11  22  38  63  88 118 165 208 252 315 369
#     4   9  19  34  54  85 123 154 191 241 296 369
#
# _framework density 21.243777999999999
#
# number of rings (size 3 to 8) (size 9 to 14) (size 15 to 20)
#    0.000    2.250    0.000    1.500    5.250    4.000 
#    0.000    2.500    0.000    7.500    0.000    0.000 
#    0.000    0.000    0.000    0.000    0.000    0.000 
#
# Total GULP energy -396534.987091 kJ/mol
# GULP energy per Si atom -12391.718347 kJ/mol
# Density = 2.119543 g / cm^3
# Si number density = 21.243778 Si / 1000 Ang^3
#
#
#
# Elastic Constant Matrix: (Units=GPa)
#
#
# Indices 1 2 3 4 5 6 
#
# 1 53.6923 22.7421 29.3385 0.0000 -3.6546 0.0000
# 2 22.7421 80.0052 51.2509 0.0000 -0.5868 0.0000
# 3 29.3385 51.2509 158.4459 0.0000 2.0428 0.0000
# 4 0.0000 0.0000 0.0000 27.9953 0.0000 5.3224
# 5 -3.6546 -0.5868 2.0428 0.0000 41.6849 0.0000
# 6 0.0000 0.0000 0.0000 5.3224 0.0000 15.0074
#
#
#
# Elastic Compliance Matrix: (Units=1/GPa)
#
#
# Indices 1 2 3 4 5 6 
#
# 1 0.022149 -0.004588 -0.002643 0.000000 0.002007 0.000000
# 2 -0.004588 0.016726 -0.004561 0.000000 0.000057 0.000000
# 3 -0.002643 -0.004561 0.008285 0.000000 -0.000702 0.000000
# 4 0.000000 0.000000 0.000000 0.038303 0.000000 -0.013584
# 5 0.002007 0.000057 -0.000702 0.000000 0.024201 0.000000
# 6 0.000000 0.000000 0.000000 -0.013584 0.000000 0.071452
#
#
# Mechanical properties :
#
#
# Convention : Reuss Voigt Hill
#
# Bulk Modulus (GPa) = 42.41809 55.42293 48.92051
# Shear Modulus (GPa) = 23.52303 29.52499 26.52401
#
# Velocity S-wave (km/s) = 3.33121 3.73207 3.53732
# Velocity P-wave (km/s) = 5.89971 6.68706 6.30569
#
# Compressibility (1/GPa) = 0.02357485
#
# Stress axis : x y z
#
# Youngs Moduli (GPa) = 45.14927 59.78802 120.69829
#
# Poissons Ratio (x) = 0.27432 0.31900
# Poissons Ratio (y) = 0.20715 0.55054
# Poissons Ratio (z) = 0.11933 0.27271
#
# Static dielectric constant tensor:
#      x y z
#    x 3.805880 0.000000 0.197690 
#    y 0.000000 3.813160 0.000000 
#    z 0.197690 0.000000 4.303820 
# 
# 
# High freq. dielectric constant tensor:
#      x y z
#    x 1.830330 0.000000 0.003430 
#    y 0.000000 1.816440 0.000000 
#    z 0.003430 0.000000 1.836240 
# 
# From -- ./inp_files/156638.got.cif
#   From: 2010.06.25/outbox.cif.g09.slc.cpg/sg12_79_cif.got.tgz:156638.got - 2010.06.28 00:19:55.
