data_PCOD8107596
_publ_section_title
;
Structure prediction by ZEFSAII (Michael W. Deem and Ramdas Pophale) SiO2 
 PCOD8107596
Probable space group: C 2/M
;
_chemical_formula_sum "Si O2"
_cell_formula_units_Z 56
_cell_length_a 22.442497
_cell_length_b 10.468795
_cell_length_c 28.114639
_cell_angle_alpha 90.000000
_cell_angle_beta 22.136169
_cell_angle_gamma 90.000000
_cell_volume 2488.981896
_symmetry_space_group_name_H-M "C 2/M"
_symmetry_group_IT_number 12
_symmetry_cell_setting 'monoclinic'
loop_
_space_group_symop_operation_xyz
x,y,z
-x,y,-z
-x,-y,-z
x,-y,z
1/2+x,1/2+y,z
1/2-x,1/2+y,-z
1/2-x,1/2-y,-z
1/2+x,1/2-y,z
loop_
_atom_site_type_symbol
_atom_site_label
_atom_site_fract_x
_atom_site_fract_y
_atom_site_fract_z
Si Si1 0.024168 0.645496 0.544520
Si Si2 0.488382 0.295357 0.060248
Si Si3 0.702994 0.639594 0.255905
Si Si4 0.662510 0.276342 0.183245
Si Si5 0.172388 0.139396 0.728062
Si Si6 0.366604 0.141064 0.431557
Si Si7 0.378618 0.647235 0.889195
O O1 0.956901 0.500000 0.585407
O O2 0.146671 0.692246 0.411857
O O3 0.126097 0.649121 0.517128
O O4 0.883564 0.748067 0.651237
O O5 0.391832 0.163566 0.121650
O O6 0.384049 0.371372 0.175656
O O7 0.500000 0.367143 0.000000
O O8 0.660587 0.276406 0.955423
O O9 0.662839 0.500000 0.306985
O O10 0.656037 0.636683 0.235107
O O11 0.541354 0.159249 0.280018
O O12 0.609434 0.357162 0.176774
O O13 0.039485 0.205905 0.793345
O O14 0.186853 0.000000 0.694835
O O15 0.250000 0.250000 0.500000
O O16 0.306679 0.000000 0.460232
O O17 0.343671 0.500000 0.932344
O O18 0.250000 0.750000 0.000000
#
# Coordination Sequence:
#
# PCOD8107596 Si02
#       7
#     8   8   8   8   8   8   8
#     4   9  20  40  62  86 120 164 210 254 309 372
#     4  10  22  39  60  90 123 162 206 259 313 366
#     4  10  22  40  64  94 125 160 209 262 312 370
#     4  10  21  39  63  92 126 165 205 251 311 374
#     4  10  21  39  62  88 123 163 207 254 306 372
#     4  10  21  37  61  92 126 165 209 258 310 372
#     4  11  22  38  61  90 124 162 202 249 310 374
#
# _framework density 22.49916
#
# number of rings (size 3 to 8) (size 9 to 14) (size 15 to 20)
#    0.000    2.000    1.429    1.286    0.000    9.714 
#    0.000    6.429    0.000    0.000    0.000    0.000 
#    0.000    0.000    0.000    0.000    0.000    0.000 
#
# Total GULP energy -346887.521962 kJ/mol
# GULP energy per Si atom -12388.840070 kJ/mol
# Density = 2.244795 g / cm^3
# Si number density = 22.499160 Si / 1000 Ang^3
#
#
#
# Elastic Constant Matrix: (Units=GPa)
#
#
# Indices 1 2 3 4 5 6 
#
# 1 85.6352 21.1378 38.5986 0.0075 11.3611 0.0015
# 2 21.1378 140.1088 59.8279 -0.0142 -2.4850 0.0003
# 3 38.5986 59.8279 165.5192 -0.0513 4.1193 -0.0023
# 4 0.0075 -0.0142 -0.0513 26.1414 0.0059 -3.3758
# 5 11.3611 -2.4850 4.1193 0.0059 40.1282 0.0024
# 6 0.0015 0.0003 -0.0023 -3.3758 0.0024 15.5164
#
#
#
# Elastic Compliance Matrix: (Units=1/GPa)
#
#
# Indices 1 2 3 4 5 6 
#
# 1 0.013631 -0.000949 -0.002745 -0.000009 -0.003636 -0.000003
# 2 -0.000949 0.008534 -0.002891 -0.000001 0.001094 -0.000001
# 3 -0.002745 -0.002891 0.007732 0.000015 -0.000195 0.000005
# 4 -0.000009 -0.000001 0.000015 0.039359 -0.000005 0.008563
# 5 -0.003636 0.001094 -0.000195 -0.000005 0.026037 -0.000005
# 6 -0.000003 -0.000001 0.000005 0.008563 -0.000005 0.066311
#
#
# Mechanical properties :
#
#
# Convention : Reuss Voigt Hill
#
# Bulk Modulus (GPa) = 59.78164 70.04352 64.91258
# Shear Modulus (GPa) = 27.72378 34.47047 31.09712
#
# Velocity S-wave (km/s) = 3.51410 3.91842 3.72176
# Velocity P-wave (km/s) = 6.56456 7.18827 6.88349
#
# Compressibility (1/GPa) = 0.01672754
#
# Stress axis : x y z
#
# Youngs Moduli (GPa) = 73.35961 117.17548 129.34015
#
# Poissons Ratio (x) = 0.11117 0.35509
# Poissons Ratio (y) = 0.06960 0.37389
# Poissons Ratio (z) = 0.20140 0.33872
#
# Static dielectric constant tensor:
#      x y z
#    x 4.260770 -0.000010 0.011250 
#    y -0.000010 3.683930 0.000040 
#    z 0.011250 0.000040 4.232240 
# 
# 
# High freq. dielectric constant tensor:
#      x y z
#    x 1.905970 0.000000 -0.003010 
#    y 0.000000 1.848870 0.000000 
#    z -0.003010 0.000000 1.899370 
# 
# From -- ./inp_files/382842.got.cif
#   From: 2010.06.25/outbox.cif.g09.slc.cpg/sg12_192_cif.got.tgz:382842.got - 2010.06.28 00:19:55.
