data_PCOD8107719
_publ_section_title
;
Structure prediction by ZEFSAII (Michael W. Deem and Ramdas Pophale) SiO2 
 PCOD8107719
Probable space group: C 2/M
;
_chemical_formula_sum "Si O2"
_cell_formula_units_Z 64
_cell_length_a 26.651525
_cell_length_b 23.438518
_cell_length_c 8.239718
_cell_angle_alpha 90.000000
_cell_angle_beta 145.255426
_cell_angle_gamma 90.000000
_cell_volume 2933.443026
_symmetry_space_group_name_H-M "C 2/M"
_symmetry_group_IT_number 12
_symmetry_cell_setting 'monoclinic'
loop_
_space_group_symop_operation_xyz
x,y,z
-x,y,-z
-x,-y,-z
x,-y,z
1/2+x,1/2+y,z
1/2-x,1/2+y,-z
1/2-x,1/2-y,-z
1/2+x,1/2-y,z
loop_
_atom_site_type_symbol
_atom_site_label
_atom_site_fract_x
_atom_site_fract_y
_atom_site_fract_z
Si Si1 0.919440 0.432951 0.494866
Si Si2 0.916730 0.859896 0.172082
Si Si3 0.593756 0.436796 0.168894
Si Si4 0.771903 0.140149 0.320332
Si Si5 0.266153 0.856274 0.155281
Si Si6 0.537057 0.759933 0.841373
Si Si7 0.083976 0.378254 0.868571
Si Si8 0.864678 0.744826 0.574014
O O1 0.906242 0.500000 0.474044
O O2 0.842499 0.402932 0.395728
O O3 0.912654 0.411434 0.292599
O O4 0.018556 0.413988 0.815880
O O5 0.922110 0.792691 0.148511
O O6 0.000000 0.879712 0.500000
O O7 0.913871 0.894555 0.000095
O O8 0.827968 0.876219 0.030069
O O9 0.624200 0.500000 0.195125
O O10 0.662966 0.413240 0.485431
O O11 0.500000 0.440215 0.000000
O O12 0.819226 0.196715 0.509480
O O13 0.742861 0.152073 0.060095
O O14 0.684770 0.127160 0.198280
O O15 0.291603 0.797701 0.311005
O O16 0.541618 0.814995 0.737196
O O17 0.437067 0.744042 0.625588
O O18 0.590666 0.778417 0.144441
#
# Coordination Sequence:
#
# PCOD8107719 Si02
#       8
#     8   8   8   8   8   8   8   8
#     4  10  22  43  67  93 134 179 223 275 327 393
#     4  12  26  42  69 103 135 178 227 281 351 407
#     4  11  25  47  69  94 132 177 228 284 338 407
#     4  11  23  40  67  99 132 175 226 276 339 408
#     4  11  24  41  67  98 138 172 226 280 341 404
#     4  11  23  38  67  97 143 177 219 277 347 406
#     4  10  21  37  64  98 128 171 227 275 326 397
#     4  11  22  40  64  98 140 180 215 276 351 404
#
# _framework density 21.817367000000001
#
# number of rings (size 3 to 8) (size 9 to 14) (size 15 to 20)
#    0.000    1.125    2.500    4.125    3.500    5.250 
#    0.000    0.000    0.000    0.750    0.000    0.000 
#    0.000    0.000    0.000    0.000    0.000    0.000 
#
# Total GULP energy -396725.177500 kJ/mol
# GULP energy per Si atom -12397.661797 kJ/mol
# Density = 2.176771 g / cm^3
# Si number density = 21.817367 Si / 1000 Ang^3
#
#
#
# Elastic Constant Matrix: (Units=GPa)
#
#
# Indices 1 2 3 4 5 6 
#
# 1 81.0546 25.5786 36.1421 0.0000 34.6472 0.0000
# 2 25.5786 140.4303 29.4141 0.0000 19.3431 0.0000
# 3 36.1421 29.4141 109.8929 0.0000 26.4420 0.0000
# 4 0.0000 0.0000 0.0000 49.4657 0.0000 0.6851
# 5 34.6472 19.3431 26.4420 0.0000 46.6359 0.0000
# 6 0.0000 0.0000 0.0000 0.6851 0.0000 13.8874
#
#
#
# Elastic Compliance Matrix: (Units=1/GPa)
#
#
# Indices 1 2 3 4 5 6 
#
# 1 0.019250 -0.001196 -0.003114 0.000000 -0.012040 0.000000
# 2 -0.001196 0.007837 -0.001315 0.000000 -0.001616 0.000000
# 3 -0.003114 -0.001315 0.011334 0.000000 -0.003567 0.000000
# 4 0.000000 0.000000 0.000000 0.020230 0.000000 -0.000998
# 5 -0.012040 -0.001616 -0.003567 0.000000 0.033080 0.000000
# 6 0.000000 0.000000 0.000000 -0.000998 0.000000 0.072057
#
#
# Mechanical properties :
#
#
# Convention : Reuss Voigt Hill
#
# Bulk Modulus (GPa) = 36.80424 57.07192 46.93808
# Shear Modulus (GPa) = 27.15985 38.01400 32.58693
#
# Velocity S-wave (km/s) = 3.53210 4.17870 3.86894
# Velocity P-wave (km/s) = 5.79139 7.03547 6.44352
#
# Compressibility (1/GPa) = 0.02717078
#
# Stress axis : x y z
#
# Youngs Moduli (GPa) = 51.94924 127.60108 88.22721
#
# Poissons Ratio (x) = 0.15256 0.27473
# Poissons Ratio (y) = 0.06211 0.11606
# Poissons Ratio (z) = 0.16177 0.16786
#
# Static dielectric constant tensor:
#      x y z
#    x 3.868350 0.000000 0.475490 
#    y 0.000000 3.961390 0.000000 
#    z 0.475490 0.000000 4.387690 
# 
# 
# High freq. dielectric constant tensor:
#      x y z
#    x 1.853840 0.000000 0.023420 
#    y 0.000000 1.849410 0.000000 
#    z 0.023420 0.000000 1.866970 
# 
# From -- ./inp_files/113659.got.cif
#   From: 2010.06.25/outbox.cif.g09.slc.cpg/sg12_57_cif.got.tgz:113659.got - 2010.06.28 00:19:55.
