data_PCOD8107430
_publ_section_title
;
Structure prediction by ZEFSAII (Michael W. Deem and Ramdas Pophale) SiO2 
 PCOD8107430
Probable space group: C 2/M
;
_chemical_formula_sum "Si O2"
_cell_formula_units_Z 40
_cell_length_a 13.204673
_cell_length_b 10.593667
_cell_length_c 12.384606
_cell_angle_alpha 90.000000
_cell_angle_beta 105.325535
_cell_angle_gamma 90.000000
_cell_volume 1670.826105
_symmetry_space_group_name_H-M "C 2/M"
_symmetry_group_IT_number 12
_symmetry_cell_setting 'monoclinic'
loop_
_space_group_symop_operation_xyz
x,y,z
-x,y,-z
-x,-y,-z
x,-y,z
1/2+x,1/2+y,z
1/2-x,1/2+y,-z
1/2-x,1/2-y,-z
1/2+x,1/2-y,z
loop_
_atom_site_type_symbol
_atom_site_label
_atom_site_fract_x
_atom_site_fract_y
_atom_site_fract_z
Si Si1 0.044843 0.266139 0.774925
Si Si2 0.195118 0.279055 0.640792
Si Si3 0.845331 0.641128 0.829574
Si Si4 0.619080 0.359020 0.998652
Si Si5 0.613363 0.364216 0.422020
O O1 0.121435 0.341235 0.713089
O O2 0.965778 0.355857 0.818774
O O3 0.978542 0.167931 0.686335
O O4 0.121626 0.186208 0.875257
O O5 0.263592 0.162522 0.709029
O O6 0.277808 0.376723 0.614814
O O7 0.120090 0.232261 0.523012
O O8 0.829433 0.500000 0.873681
O O9 0.825104 0.750808 0.913181
O O10 0.671342 0.500000 0.025417
O O11 0.500000 0.370590 0.000000
O O12 0.588971 0.500000 0.465088
#
# Coordination Sequence:
#
# PCOD8107430 Si02
#       5
#     8   8   8   8   8
#     4  10  21  37  60  86 114 151 196 240 289 347
#     4  10  22  38  57  86 118 150 191 241 295 347
#     4  10  22  39  59  87 122 155 192 242 295 346
#     4   9  19  36  58  85 118 154 194 241 290 343
#     4  10  21  38  59  83 114 151 193 240 289 345
#
# _framework density 23.940252999999998
#
# number of rings (size 3 to 8) (size 9 to 14) (size 15 to 20)
#    0.000    2.200    0.000    1.800    0.000   14.000 
#    0.000    0.000    0.000    7.200    0.000    0.000 
#    0.000    0.000    0.000    0.000    0.000    0.000 
#
# Total GULP energy -247837.315523 kJ/mol
# GULP energy per Si atom -12391.865776 kJ/mol
# Density = 2.388576 g / cm^3
# Si number density = 23.940253 Si / 1000 Ang^3
#
#
#
# Elastic Constant Matrix: (Units=GPa)
#
#
# Indices 1 2 3 4 5 6 
#
# 1 53.5792 -2.6241 31.4516 0.0000 -11.8998 0.0000
# 2 -2.6241 127.9719 46.9676 0.0000 15.5231 0.0000
# 3 31.4516 46.9676 137.6648 0.0000 -5.1276 0.0000
# 4 0.0000 0.0000 0.0000 5.9773 0.0000 -1.4781
# 5 -11.8998 15.5231 -5.1276 0.0000 41.6734 0.0000
# 6 0.0000 0.0000 0.0000 -1.4781 0.0000 -7.5916
#
#
#
# Elastic Compliance Matrix: (Units=1/GPa)
#
#
# Indices 1 2 3 4 5 6 
#
# 1 0.023329 0.001979 -0.005811 0.000000 0.005209 0.000000
# 2 0.001979 0.009714 -0.003898 0.000000 -0.003533 0.000000
# 3 -0.005811 -0.003898 0.009959 0.000000 0.001018 0.000000
# 4 0.000000 0.000000 0.000000 0.159616 0.000000 -0.031077
# 5 0.005209 -0.003533 0.001018 0.000000 0.026925 0.000000
# 6 0.000000 0.000000 0.000000 -0.031077 0.000000 -0.125675
#
#
# Mechanical properties :
#
#
# Convention : Reuss Voigt Hill
#
# Bulk Modulus (GPa) = 36.30701 52.31176 44.30939
# Shear Modulus (GPa) = 38.90775 24.23988 31.57382
#
# Velocity S-wave (km/s) = 4.03575 3.18546 3.63555
# Velocity P-wave (km/s) = 6.07577 5.95214 6.01427
#
# Compressibility (1/GPa) = 0.02754289
#
# Stress axis : x y z
#
# Youngs Moduli (GPa) = 42.86496 102.94502 100.40730
#
# Poissons Ratio (x) = -0.20375 0.58348
# Poissons Ratio (y) = -0.08484 0.39138
# Poissons Ratio (z) = 0.24909 0.40127
#
# Static dielectric constant tensor:
#      x y z
#    x 4.525520 0.000000 -0.193100 
#    y 0.000000 3.876530 0.000000 
#    z -0.193100 0.000000 4.430510 
# 
# 
# High freq. dielectric constant tensor:
#      x y z
#    x 1.963210 0.000000 -0.006290 
#    y 0.000000 1.906460 0.000000 
#    z -0.006290 0.000000 1.957720 
# 
# From -- ./inp_files/141101.got.cif
#   From: 2010.06.25/outbox.cif.g09.slc.cpg/sg12_71_cif.got.tgz:141101.got - 2010.06.28 00:19:55.
