data_PCOD8107295
_publ_section_title
;
Structure prediction by ZEFSAII (Michael W. Deem and Ramdas Pophale) SiO2 
 PCOD8107295
Probable space group: C 2/M
;
_chemical_formula_sum "Si O2"
_cell_formula_units_Z 40
_cell_length_a 14.286722
_cell_length_b 16.491667
_cell_length_c 21.042847
_cell_angle_alpha 90.000000
_cell_angle_beta 157.031605
_cell_angle_gamma 90.000000
_cell_volume 1934.705449
_symmetry_space_group_name_H-M "C 2/M"
_symmetry_group_IT_number 12
_symmetry_cell_setting 'monoclinic'
loop_
_space_group_symop_operation_xyz
x,y,z
-x,y,-z
-x,-y,-z
x,-y,z
1/2+x,1/2+y,z
1/2-x,1/2+y,-z
1/2-x,1/2-y,-z
1/2+x,1/2-y,z
loop_
_atom_site_type_symbol
_atom_site_label
_atom_site_fract_x
_atom_site_fract_y
_atom_site_fract_z
Si Si1 0.553477 0.175485 0.226565
Si Si2 0.413871 0.301915 0.556498
Si Si3 0.223115 0.673975 0.678264
Si Si4 0.334188 0.095834 0.837996
Si Si5 0.407948 0.407863 0.011671
O O1 0.766961 0.151957 0.408914
O O2 0.579648 0.273941 0.238510
O O3 0.573615 0.129646 0.172099
O O4 0.299862 0.154441 0.099657
O O5 0.250000 0.250000 0.500000
O O6 0.614143 0.240364 0.656993
O O7 0.565183 0.372547 0.685911
O O8 0.361619 0.601042 0.798558
O O9 0.000000 0.635455 0.500000
O O10 0.331460 0.000000 0.831348
O O11 0.500000 0.125081 0.000000
O O12 0.313123 0.500000 0.956275
O O13 0.500000 0.384596 0.000000
#
# Coordination Sequence:
#
# PCOD8107295 Si02
#       5
#     8   8   8   8   8
#     4  10  21  39  62  85 114 155 199 245 295 348
#     4  10  21  37  59  86 116 152 195 241 291 352
#     4   9  20  37  57  82 109 146 193 236 283 337
#     4  10  22  39  60  89 120 153 199 251 299 347
#     4  11  23  37  56  85 119 153 189 232 289 357
#
# _framework density 20.674982
#
# number of rings (size 3 to 8) (size 9 to 14) (size 15 to 20)
#    0.000    2.000    0.000    4.200    0.000   12.400 
#    0.000    1.000    0.000    0.000    0.000    0.000 
#    0.000    0.000    0.000    0.000    0.000    0.000 
#
# Total GULP energy -247851.714649 kJ/mol
# GULP energy per Si atom -12392.585732 kJ/mol
# Density = 2.062792 g / cm^3
# Si number density = 20.674982 Si / 1000 Ang^3
#
#
#
# Elastic Constant Matrix: (Units=GPa)
#
#
# Indices 1 2 3 4 5 6 
#
# 1 115.9268 41.0384 67.8891 0.0000 -0.1408 0.0049
# 2 41.0384 36.8579 50.1180 0.1021 -5.4776 -0.0312
# 3 67.8891 50.1180 154.8963 -0.0605 -18.9247 0.0265
# 4 0.0000 0.1021 -0.0605 32.6982 0.0289 3.7730
# 5 -0.1408 -5.4776 -18.9247 0.0289 39.4243 0.0243
# 6 0.0049 -0.0312 0.0265 3.7730 0.0243 18.0217
#
#
#
# Elastic Compliance Matrix: (Units=1/GPa)
#
#
# Indices 1 2 3 4 5 6 
#
# 1 0.014923 -0.013694 -0.002481 0.000044 -0.003040 -0.000029
# 2 -0.013694 0.061039 -0.013510 -0.000238 0.001947 0.000176
# 3 -0.002481 -0.013510 0.012412 0.000069 0.004072 -0.000061
# 4 0.000044 -0.000238 0.000069 0.031341 -0.000019 -0.006562
# 5 -0.003040 0.001947 0.004072 -0.000019 0.027580 -0.000035
# 6 -0.000029 0.000176 -0.000061 -0.006562 -0.000035 0.056863
#
#
# Mechanical properties :
#
#
# Convention : Reuss Voigt Hill
#
# Bulk Modulus (GPa) = 34.47808 69.53022 52.00415
# Shear Modulus (GPa) = 18.30186 27.93786 23.11986
#
# Velocity S-wave (km/s) = 2.97849 3.67998 3.34766
# Velocity P-wave (km/s) = 5.34237 7.19440 6.33642
#
# Compressibility (1/GPa) = 0.02900393
#
# Stress axis : x y z
#
# Youngs Moduli (GPa) = 67.00973 16.38301 80.56478
#
# Poissons Ratio (x) = 0.22434 0.19991
# Poissons Ratio (y) = 0.91762 1.08844
# Poissons Ratio (z) = 0.16628 0.22134
#
# Static dielectric constant tensor:
#      x y z
#    x 2.297280 -0.006080 -1.490020 
#    y -0.006080 3.674630 -0.005490 
#    z -1.490020 -0.005490 2.778450 
# 
# 
# High freq. dielectric constant tensor:
#      x y z
#    x 1.807130 0.000010 -0.003810 
#    y 0.000010 1.787130 -0.000010 
#    z -0.003810 -0.000010 1.828050 
# 
# From -- ./inp_files/60809.got.cif
#   From: 2010.06.25/outbox.cif.g09.slc.cpg/sg12_31_cif.got.tgz:60809.got - 2010.06.28 00:19:55.
