data_PCOD8107740
_publ_section_title
;
Structure prediction by ZEFSAII (Michael W. Deem and Ramdas Pophale) SiO2 
 PCOD8107740
Probable space group: C 2/M
;
_chemical_formula_sum "Si O2"
_cell_formula_units_Z 56
_cell_length_a 29.845521
_cell_length_b 8.982324
_cell_length_c 12.445105
_cell_angle_alpha 90.000000
_cell_angle_beta 74.310427
_cell_angle_gamma 90.000000
_cell_volume 3212.002707
_symmetry_space_group_name_H-M "C 2/M"
_symmetry_group_IT_number 12
_symmetry_cell_setting 'monoclinic'
loop_
_space_group_symop_operation_xyz
x,y,z
-x,y,-z
-x,-y,-z
x,-y,z
1/2+x,1/2+y,z
1/2-x,1/2+y,-z
1/2-x,1/2-y,-z
1/2+x,1/2-y,z
loop_
_atom_site_type_symbol
_atom_site_label
_atom_site_fract_x
_atom_site_fract_y
_atom_site_fract_z
Si Si1 0.194574 0.823277 0.367857
Si Si2 0.946204 0.672376 0.413712
Si Si3 0.297104 0.826422 0.007101
Si Si4 0.137870 0.176338 0.198073
Si Si5 0.297662 0.172731 0.257609
Si Si6 0.641162 0.676030 0.611849
Si Si7 0.948257 0.672721 0.659835
O O1 0.166217 0.764490 0.283313
O O2 0.247368 0.764495 0.327097
O O3 0.170981 0.761549 0.491569
O O4 0.193946 0.000000 0.365813
O O5 0.933572 0.500000 0.407871
O O6 0.911841 0.769547 0.363366
O O7 0.941016 0.720004 0.541008
O O8 0.998631 0.703520 0.339956
O O9 0.304443 0.799508 0.127822
O O10 0.293829 0.000000 0.981418
O O11 0.250000 0.750000 0.000000
O O12 0.341113 0.753111 0.920560
O O13 0.084395 0.226439 0.244198
O O14 0.140999 0.000000 0.182924
O O15 0.337580 0.262815 0.292232
O O16 0.302274 0.000000 0.284311
O O17 0.641783 0.500000 0.614287
O O18 0.935733 0.500000 0.683821
#
# Coordination Sequence:
#
# PCOD8107740 Si02
#       7
#     8   8   8   8   8   8   8
#     4   9  18  33  50  75 109 142 173 212 260 314
#     4   9  18  33  53  77 109 143 176 217 265 319
#     4  11  22  37  57  79 105 141 184 227 267 312
#     4  11  20  34  55  80 112 142 175 222 271 316
#     4  10  21  38  54  71 105 147 183 218 262 314
#     4  11  21  33  52  80 111 141 179 220 263 319
#     4   9  18  33  53  80 108 139 180 219 262 320
#
# _framework density 17.434605000000001
#
# number of rings (size 3 to 8) (size 9 to 14) (size 15 to 20)
#    0.000    2.000    2.857    2.571    0.000    1.714 
#    0.000    2.143    0.000    0.857    0.000    6.000 
#    0.000    0.000    0.000    0.000    0.000    0.000 
#
# Total GULP energy -347284.217918 kJ/mol
# GULP energy per Si atom -12403.007783 kJ/mol
# Density = 1.739492 g / cm^3
# Si number density = 17.434605 Si / 1000 Ang^3
#
#
#
# Elastic Constant Matrix: (Units=GPa)
#
#
# Indices 1 2 3 4 5 6 
#
# 1 126.1913 55.3826 55.8964 0.0000 -4.1037 0.0000
# 2 55.3826 78.7033 51.5144 0.0000 -0.4709 0.0000
# 3 55.8964 51.5144 86.3832 0.0000 -8.8865 0.0000
# 4 0.0000 0.0000 0.0000 26.6917 0.0000 -2.8356
# 5 -4.1037 -0.4709 -8.8865 0.0000 26.3212 0.0000
# 6 0.0000 0.0000 0.0000 -2.8356 0.0000 31.4737
#
#
#
# Elastic Compliance Matrix: (Units=1/GPa)
#
#
# Indices 1 2 3 4 5 6 
#
# 1 0.012519 -0.005782 -0.004623 0.000000 0.000287 0.000000
# 2 -0.005782 0.023917 -0.010951 0.000000 -0.004171 0.000000
# 3 -0.004623 -0.010951 0.021760 0.000000 0.006430 0.000000
# 4 0.000000 0.000000 0.000000 0.037827 0.000000 0.003408
# 5 0.000287 -0.004171 0.006430 0.000000 0.040133 0.000000
# 6 0.000000 0.000000 0.000000 0.003408 0.000000 0.032080
#
#
# Mechanical properties :
#
#
# Convention : Reuss Voigt Hill
#
# Bulk Modulus (GPa) = 64.58049 68.54049 66.56049
# Shear Modulus (GPa) = 23.13639 25.46293 24.29966
#
# Velocity S-wave (km/s) = 3.64681 3.82577 3.73736
# Velocity P-wave (km/s) = 7.40636 7.67552 7.54214
#
# Compressibility (1/GPa) = 0.01548455
#
# Stress axis : x y z
#
# Youngs Moduli (GPa) = 79.87708 41.81073 45.95588
#
# Poissons Ratio (x) = 0.24174 0.21247
# Poissons Ratio (y) = 0.46183 0.50326
# Poissons Ratio (z) = 0.36930 0.45786
#
# Static dielectric constant tensor:
#      x y z
#    x 3.232650 0.000000 -0.111500 
#    y 0.000000 3.120050 0.000000 
#    z -0.111500 0.000000 3.226820 
# 
# 
# High freq. dielectric constant tensor:
#      x y z
#    x 1.673640 0.000000 -0.009730 
#    y 0.000000 1.667530 0.000000 
#    z -0.009730 0.000000 1.658760 
# 
# From -- ./inp_files/186389.got.cif
#   From: 2010.06.25/outbox.cif.g09.slc.cpg/sg12_94_cif.got.tgz:186389.got - 2010.06.28 00:19:55.
