data_PCOD8107376
_publ_section_title
;
Structure prediction by ZEFSAII (Michael W. Deem and Ramdas Pophale) SiO2 
 PCOD8107376
Probable space group: C 2/M
;
_chemical_formula_sum "Si O2"
_cell_formula_units_Z 40
_cell_length_a 22.975638
_cell_length_b 8.376959
_cell_length_c 10.106786
_cell_angle_alpha 90.000000
_cell_angle_beta 91.055371
_cell_angle_gamma 90.000000
_cell_volume 1944.882465
_symmetry_space_group_name_H-M "C 2/M"
_symmetry_group_IT_number 12
_symmetry_cell_setting 'monoclinic'
loop_
_space_group_symop_operation_xyz
x,y,z
-x,y,-z
-x,-y,-z
x,-y,z
1/2+x,1/2+y,z
1/2-x,1/2+y,-z
1/2-x,1/2-y,-z
1/2+x,1/2-y,z
loop_
_atom_site_type_symbol
_atom_site_label
_atom_site_fract_x
_atom_site_fract_y
_atom_site_fract_z
Si Si1 0.864184 0.687056 0.257128
Si Si2 0.253617 0.186740 0.850020
Si Si3 0.128118 0.815375 0.224246
Si Si4 0.067317 0.813271 0.496379
Si Si5 0.437582 0.184948 0.019809
O O1 0.851933 0.500000 0.236543
O O2 0.804089 0.780865 0.237163
O O3 0.893497 0.716942 0.399075
O O4 0.907370 0.758886 0.147749
O O5 0.303686 0.274736 0.767398
O O6 0.266602 0.000000 0.856632
O O7 0.250000 0.250000 0.000000
O O8 0.094528 0.770032 0.356267
O O9 0.118935 0.000000 0.189274
O O10 0.102494 0.707058 0.108117
O O11 0.000000 0.756514 0.500000
O O12 0.071870 0.000000 0.528563
O O13 0.447498 0.000000 0.048386
O O14 0.500000 0.269994 0.000000
#
# Coordination Sequence:
#
# PCOD8107376 Si02
#       5
#     8   8   8   8   8
#     4  11  23  39  63  93 125 165 209 256 312 372
#     4  12  24  41  65  92 126 163 205 261 315 371
#     4  11  23  39  63  92 123 165 210 256 313 372
#     4  10  23  43  64  91 129 169 210 257 309 369
#     4  10  21  37  59  89 123 160 206 260 313 369
#
# _framework density 20.566794999999999
#
# number of rings (size 3 to 8) (size 9 to 14) (size 15 to 20)
#    0.000    1.200    2.000    4.200    0.000    4.000 
#    0.000    0.000    0.000    0.000    0.000    0.000 
#    0.000    0.000    0.000    0.000    0.000    0.000 
#
# Total GULP energy -248074.433217 kJ/mol
# GULP energy per Si atom -12403.721661 kJ/mol
# Density = 2.051998 g / cm^3
# Si number density = 20.566795 Si / 1000 Ang^3
#
#
#
# Elastic Constant Matrix: (Units=GPa)
#
#
# Indices 1 2 3 4 5 6 
#
# 1 99.1724 18.4718 11.1257 0.0000 -16.9964 0.0000
# 2 18.4718 38.1655 25.6454 0.0000 -8.3222 0.0000
# 3 11.1257 25.6454 79.9701 0.0000 -12.1663 0.0000
# 4 0.0000 0.0000 0.0000 23.0247 0.0000 7.5629
# 5 -16.9964 -8.3222 -12.1663 0.0000 45.3957 0.0000
# 6 0.0000 0.0000 0.0000 7.5629 0.0000 24.5072
#
#
#
# Elastic Compliance Matrix: (Units=1/GPa)
#
#
# Indices 1 2 3 4 5 6 
#
# 1 0.011601 -0.005251 0.000609 0.000000 0.003544 0.000000
# 2 -0.005251 0.036284 -0.010626 0.000000 0.001838 0.000000
# 3 0.000609 -0.010626 0.016227 0.000000 0.002629 0.000000
# 4 0.000000 0.000000 0.000000 0.048331 0.000000 -0.014915
# 5 0.003544 0.001838 0.002629 0.000000 0.024397 0.000000
# 6 0.000000 0.000000 0.000000 -0.014915 0.000000 0.045407
#
#
# Mechanical properties :
#
#
# Convention : Reuss Voigt Hill
#
# Bulk Modulus (GPa) = 29.78251 36.42152 33.10201
# Shear Modulus (GPa) = 22.32403 29.38986 25.85695
#
# Velocity S-wave (km/s) = 3.29818 3.78431 3.54957
# Velocity P-wave (km/s) = 5.38667 6.06976 5.73839
#
# Compressibility (1/GPa) = 0.03357676
#
# Stress axis : x y z
#
# Youngs Moduli (GPa) = 86.20280 27.56048 61.62420
#
# Poissons Ratio (x) = 0.14473 -0.03754
# Poissons Ratio (y) = 0.45267 0.65479
# Poissons Ratio (z) = -0.05252 0.29285
#
# Static dielectric constant tensor:
#      x y z
#    x 4.135810 0.000000 -0.290140 
#    y 0.000000 3.592230 0.000000 
#    z -0.290140 0.000000 3.699800 
# 
# 
# High freq. dielectric constant tensor:
#      x y z
#    x 1.825480 0.000000 -0.006650 
#    y 0.000000 1.798480 0.000000 
#    z -0.006650 0.000000 1.802740 
# 
# From -- ./inp_files/92794.got.cif
#   From: 2010.06.25/outbox.cif.g09.slc.cpg/sg12_47_cif.got.tgz:92794.got - 2010.06.28 00:19:55.
