data_PCOD8107576
_publ_section_title
;
Structure prediction by ZEFSAII (Michael W. Deem and Ramdas Pophale) SiO2 
 PCOD8107576
Probable space group: C 2/M
;
_chemical_formula_sum "Si O2"
_cell_formula_units_Z 56
_cell_length_a 8.835732
_cell_length_b 31.261420
_cell_length_c 20.294846
_cell_angle_alpha 90.000000
_cell_angle_beta 29.290468
_cell_angle_gamma 90.000000
_cell_volume 2742.563003
_symmetry_space_group_name_H-M "C 2/M"
_symmetry_group_IT_number 12
_symmetry_cell_setting 'monoclinic'
loop_
_space_group_symop_operation_xyz
x,y,z
-x,y,-z
-x,-y,-z
x,-y,z
1/2+x,1/2+y,z
1/2-x,1/2+y,-z
1/2-x,1/2-y,-z
1/2+x,1/2-y,z
loop_
_atom_site_type_symbol
_atom_site_label
_atom_site_fract_x
_atom_site_fract_y
_atom_site_fract_z
Si Si1 0.864017 0.396401 0.855338
Si Si2 0.309825 0.805964 0.847388
Si Si3 0.192242 0.188067 0.642999
Si Si4 0.346129 0.050580 0.365621
Si Si5 0.271908 0.887552 0.148850
Si Si6 0.713064 0.752996 0.273210
Si Si7 0.294781 0.949524 0.641167
O O1 0.971573 0.352283 0.777701
O O2 0.993520 0.434672 0.762294
O O3 0.014201 0.396581 0.870179
O O4 0.500000 0.403844 0.000000
O O5 0.239965 0.784574 0.805001
O O6 0.479659 0.774537 0.833017
O O7 0.000000 0.819739 0.000000
O O8 0.500000 0.163155 0.500000
O O9 0.337157 0.217887 0.644522
O O10 0.927062 0.156193 0.768817
O O11 0.064172 0.219713 0.634691
O O12 0.526713 0.066635 0.361709
O O13 0.000000 0.069359 0.500000
O O14 0.338850 0.000000 0.366857
O O15 0.037966 0.927012 0.231749
O O16 0.500000 0.883229 0.000000
O O17 0.500000 0.936580 0.500000
O O18 0.231863 0.000000 0.665793
#
# Coordination Sequence:
#
# PCOD8107576 Si02
#       7
#     8   8   8   8   8   8   8
#     4  11  24  42  62  92 133 166 215 263 319 381
#     4  10  21  37  61  90 126 165 209 259 316 379
#     4  11  24  42  64  91 126 166 213 265 323 384
#     4  10  22  42  69  99 129 167 211 255 313 380
#     4  12  26  42  65  95 131 171 218 268 322 383
#     4  10  22  40  62  89 121 164 214 265 316 378
#     4  10  22  43  71 101 133 169 212 260 316 381
#
# _framework density 20.418856999999999
#
# number of rings (size 3 to 8) (size 9 to 14) (size 15 to 20)
#    0.000    1.429    1.429    3.000    6.000    4.571 
#    0.000    0.714    0.000    0.000    0.000    0.000 
#    0.000    0.000    0.000    0.000    0.000    0.000 
#
# Total GULP energy -347108.389696 kJ/mol
# GULP energy per Si atom -12396.728203 kJ/mol
# Density = 2.037238 g / cm^3
# Si number density = 20.418857 Si / 1000 Ang^3
#
#
#
# Elastic Constant Matrix: (Units=GPa)
#
#
# Indices 1 2 3 4 5 6 
#
# 1 161.3254 38.8266 63.9616 0.0000 -7.0209 0.0000
# 2 38.8266 51.8801 41.7392 0.0012 -8.0580 0.0003
# 3 63.9616 41.7392 147.7869 -0.0058 -6.7439 -0.0016
# 4 0.0000 0.0012 -0.0058 31.0600 -0.0002 -1.1129
# 5 -7.0209 -8.0580 -6.7439 -0.0002 24.2073 0.0001
# 6 0.0000 0.0003 -0.0016 -1.1129 0.0001 71.7714
#
#
#
# Elastic Compliance Matrix: (Units=1/GPa)
#
#
# Indices 1 2 3 4 5 6 
#
# 1 0.008140 -0.004165 -0.002332 0.000000 0.000325 0.000000
# 2 -0.004165 0.028101 -0.005836 -0.000002 0.006520 0.000000
# 3 -0.002332 -0.005836 0.009424 0.000002 0.000007 0.000000
# 4 0.000000 -0.000002 0.000002 0.032214 0.000000 0.000500
# 5 0.000325 0.006520 0.000007 0.000000 0.043576 0.000000
# 6 0.000000 0.000000 0.000000 0.000500 0.000000 0.013941
#
#
# Mechanical properties :
#
#
# Convention : Reuss Voigt Hill
#
# Bulk Modulus (GPa) = 47.62302 72.22748 59.92525
# Shear Modulus (GPa) = 29.92924 39.83875 34.88400
#
# Velocity S-wave (km/s) = 3.83268 4.42189 4.13779
# Velocity P-wave (km/s) = 6.55436 7.84350 7.22773
#
# Compressibility (1/GPa) = 0.02099825
#
# Stress axis : x y z
#
# Youngs Moduli (GPa) = 122.85462 35.58647 106.11002
#
# Poissons Ratio (x) = 0.14823 0.24740
# Poissons Ratio (y) = 0.51174 0.61927
# Poissons Ratio (z) = 0.28645 0.20769
#
# Static dielectric constant tensor:
#      x y z
#    x 4.327220 0.000000 -0.003040 
#    y 0.000000 3.712830 0.000000 
#    z -0.003040 0.000000 3.639630 
# 
# 
# High freq. dielectric constant tensor:
#      x y z
#    x 1.818090 0.000000 -0.008610 
#    y 0.000000 1.803630 0.000000 
#    z -0.008610 0.000000 1.795060 
# 
# From -- ./inp_files/302995.got.cif
#   From: 2010.06.25/outbox.cif.g09.slc.cpg/sg12_152_cif.got.tgz:302995.got - 2010.06.28 00:19:55.
