data_PCOD8107205
_publ_section_title
;
Structure prediction by ZEFSAII (Michael W. Deem and Ramdas Pophale) SiO2 
 PCOD8107205
Probable space group: C 2/M
;
_chemical_formula_sum "Si O2"
_cell_formula_units_Z 36
_cell_length_a 13.206597
_cell_length_b 13.201192
_cell_length_c 13.896523
_cell_angle_alpha 90.000000
_cell_angle_beta 54.368472
_cell_angle_gamma 90.000000
_cell_volume 1969.170859
_symmetry_space_group_name_H-M "C 2/M"
_symmetry_group_IT_number 12
_symmetry_cell_setting 'monoclinic'
loop_
_space_group_symop_operation_xyz
x,y,z
-x,y,-z
-x,-y,-z
x,-y,z
1/2+x,1/2+y,z
1/2-x,1/2+y,-z
1/2-x,1/2-y,-z
1/2+x,1/2-y,z
loop_
_atom_site_type_symbol
_atom_site_label
_atom_site_fract_x
_atom_site_fract_y
_atom_site_fract_z
Si Si1 0.823689 0.617322 0.387054
Si Si2 0.569021 0.116248 0.134524
Si Si3 0.356153 0.213785 0.572295
Si Si4 0.500000 0.252650 0.000000
Si Si5 0.729468 0.382904 0.821894
O O1 0.790364 0.500000 0.392528
O O2 0.717412 0.680553 0.391736
O O3 0.827121 0.643631 0.497265
O O4 0.955606 0.645412 0.267189
O O5 0.569756 0.183842 0.039170
O O6 0.697852 0.136134 0.118757
O O7 0.558407 0.000000 0.107848
O O8 0.500000 0.242262 0.500000
O O9 0.317299 0.150391 0.686454
O O10 0.398664 0.321552 0.109071
O O11 0.695793 0.500000 0.827600
#
# Coordination Sequence:
#
# PCOD8107205 Si02
#       5
#     8   8   8   4   8
#     4  10  21  37  58  87 116 146 185 232 282 335
#     4  10  21  38  60  84 113 148 192 232 274 335
#     4  11  21  37  62  85 114 148 185 232 284 335
#     4  12  22  40  58  82 116 154 186 232 280 332
#     4  11  23  38  58  86 114 148 189 234 280 332
#
# _framework density 18.281804999999999
#
# number of rings (size 3 to 8) (size 9 to 14) (size 15 to 20)
#    0.000    1.333    4.444    2.000    0.000    1.333 
#    0.000    0.000    0.000    1.333    0.000    0.000 
#    0.000    0.000    0.000    0.000    0.000    0.000 
#
# Total GULP energy -223302.564863 kJ/mol
# GULP energy per Si atom -12405.698048 kJ/mol
# Density = 1.824020 g / cm^3
# Si number density = 18.281805 Si / 1000 Ang^3
#
#
#
# Elastic Constant Matrix: (Units=GPa)
#
#
# Indices 1 2 3 4 5 6 
#
# 1 76.8346 38.7318 11.9439 0.0000 -1.7674 0.0000
# 2 38.7318 92.5266 29.1305 0.0000 5.3756 0.0000
# 3 11.9439 29.1305 56.7168 0.0000 -3.3116 0.0000
# 4 0.0000 0.0000 0.0000 24.7424 0.0000 3.5796
# 5 -1.7674 5.3756 -3.3116 0.0000 33.0639 0.0000
# 6 0.0000 0.0000 0.0000 3.5796 0.0000 20.5018
#
#
#
# Elastic Compliance Matrix: (Units=1/GPa)
#
#
# Indices 1 2 3 4 5 6 
#
# 1 0.016635 -0.007182 0.000307 0.000000 0.002088 0.000000
# 2 -0.007182 0.016251 -0.007052 0.000000 -0.003732 0.000000
# 3 0.000307 -0.007052 0.021382 0.000000 0.003305 0.000000
# 4 0.000000 0.000000 0.000000 0.041464 0.000000 -0.007239
# 5 0.002088 -0.003732 0.003305 0.000000 0.031294 0.000000
# 6 0.000000 0.000000 0.000000 -0.007239 0.000000 0.050040
#
#
# Mechanical properties :
#
#
# Convention : Reuss Voigt Hill
#
# Bulk Modulus (GPa) = 37.85733 42.85448 40.35591
# Shear Modulus (GPa) = 23.39457 25.41307 24.40382
#
# Velocity S-wave (km/s) = 3.58112 3.73241 3.65755
# Velocity P-wave (km/s) = 6.15238 6.48587 6.32133
#
# Compressibility (1/GPa) = 0.02641496
#
# Stress axis : x y z
#
# Youngs Moduli (GPa) = 60.11256 61.53421 46.76858
#
# Poissons Ratio (x) = 0.44192 -0.01437
# Poissons Ratio (y) = 0.43171 0.32983
# Poissons Ratio (z) = -0.01847 0.43396
#
# Static dielectric constant tensor:
#      x y z
#    x 3.359070 0.000000 0.002120 
#    y 0.000000 3.356770 0.000000 
#    z 0.002120 0.000000 3.329930 
# 
# 
# High freq. dielectric constant tensor:
#      x y z
#    x 1.712050 0.000000 0.000980 
#    y 0.000000 1.714320 0.000000 
#    z 0.000980 0.000000 1.714190 
# 
# From -- ./inp_files/127943.got.cif
#   From: 2010.06.25/outbox.cif.g09.slc.cpg/sg12_64_cif.got.tgz:127943.got - 2010.06.28 00:19:55.
