data_PCOD8107793
_publ_section_title
;
Structure prediction by ZEFSAII (Michael W. Deem and Ramdas Pophale) SiO2 
 PCOD8107793
Probable space group: C 2/M
;
_chemical_formula_sum "Si O2"
_cell_formula_units_Z 56
_cell_length_a 14.425202
_cell_length_b 8.473497
_cell_length_c 25.557375
_cell_angle_alpha 90.000000
_cell_angle_beta 66.905790
_cell_angle_gamma 90.000000
_cell_volume 2873.578735
_symmetry_space_group_name_H-M "C 2/M"
_symmetry_group_IT_number 12
_symmetry_cell_setting 'monoclinic'
loop_
_space_group_symop_operation_xyz
x,y,z
-x,y,-z
-x,-y,-z
x,-y,z
1/2+x,1/2+y,z
1/2-x,1/2+y,-z
1/2-x,1/2-y,-z
1/2+x,1/2-y,z
loop_
_atom_site_type_symbol
_atom_site_label
_atom_site_fract_x
_atom_site_fract_y
_atom_site_fract_z
Si Si1 0.769013 0.680894 0.136835
Si Si2 0.178755 0.684809 0.260042
Si Si3 0.258463 0.685726 0.354949
Si Si4 0.443003 0.313961 0.562987
Si Si5 0.477024 0.687198 0.343025
Si Si6 0.826874 0.316860 0.940855
Si Si7 0.524506 0.317089 0.935449
O O1 0.745625 0.500000 0.127943
O O2 0.730867 0.717252 0.203012
O O3 0.715454 0.796707 0.107818
O O4 0.887847 0.710216 0.107507
O O5 0.190797 0.500000 0.246637
O O6 0.235890 0.737151 0.300416
O O7 0.060868 0.729401 0.288511
O O8 0.255487 0.500000 0.361492
O O9 0.171924 0.754309 0.411569
O O10 0.367573 0.749843 0.348973
O O11 0.500000 0.241586 0.500000
O O12 0.439797 0.500000 0.559810
O O13 0.503958 0.260460 0.601228
O O14 0.486578 0.500000 0.333841
O O15 0.847069 0.500000 0.947997
O O16 0.928308 0.216117 0.921092
O O17 0.750000 0.250000 0.000000
O O18 0.555533 0.500000 0.925809
O O19 0.500000 0.265371 0.000000
#
# Coordination Sequence:
#
# PCOD8107793 Si02
#       7
#     8   8   8   8   8   8   8
#     4  12  25  41  62  87 117 153 192 237 291 350
#     4  10  21  38  57  80 110 142 186 239 288 340
#     4   9  19  35  56  79 107 147 188 233 283 334
#     4   9  18  32  51  79 115 151 188 232 280 334
#     4   9  18  35  56  78 109 149 190 232 285 343
#     4  12  24  40  62  88 117 150 188 231 283 342
#     4  11  23  40  63  88 117 152 189 232 283 342
#
# _framework density 19.487894000000001
#
# number of rings (size 3 to 8) (size 9 to 14) (size 15 to 20)
#    0.000    1.714    1.429    3.429    0.000    3.714 
#    0.000    4.286    0.000    0.000    0.000    0.000 
#    0.000    0.000    0.000    0.000    0.000    0.000 
#
# Total GULP energy -347318.147814 kJ/mol
# GULP energy per Si atom -12404.219565 kJ/mol
# Density = 1.944354 g / cm^3
# Si number density = 19.487894 Si / 1000 Ang^3
#
#
#
# Elastic Constant Matrix: (Units=GPa)
#
#
# Indices 1 2 3 4 5 6 
#
# 1 146.8023 14.4944 56.2892 0.0000 -15.7701 0.0000
# 2 14.4944 53.1278 30.5596 0.0000 -4.4933 0.0000
# 3 56.2892 30.5596 139.9421 0.0000 -15.4164 0.0000
# 4 0.0000 0.0000 0.0000 30.1073 0.0000 -5.0390
# 5 -15.7701 -4.4933 -15.4164 0.0000 23.4730 0.0000
# 6 0.0000 0.0000 0.0000 -5.0390 0.0000 29.7224
#
#
#
# Elastic Compliance Matrix: (Units=1/GPa)
#
#
# Indices 1 2 3 4 5 6 
#
# 1 0.008341 -0.000307 -0.002886 0.000000 0.003650 0.000000
# 2 -0.000307 0.021565 -0.004478 0.000000 0.000981 0.000000
# 3 -0.002886 -0.004478 0.009677 0.000000 0.003559 0.000000
# 4 0.000000 0.000000 0.000000 0.034185 0.000000 0.005795
# 5 0.003650 0.000981 0.003559 0.000000 0.047579 0.000000
# 6 0.000000 0.000000 0.000000 0.005795 0.000000 0.034627
#
#
# Mechanical properties :
#
#
# Convention : Reuss Voigt Hill
#
# Bulk Modulus (GPa) = 41.25201 60.28428 50.76814
# Shear Modulus (GPa) = 27.87153 32.56247 30.21700
#
# Velocity S-wave (km/s) = 3.78590 4.09211 3.94198
# Velocity P-wave (km/s) = 6.35017 7.30264 6.84300
#
# Compressibility (1/GPa) = 0.02424125
#
# Stress axis : x y z
#
# Youngs Moduli (GPa) = 119.89284 46.37182 103.34313
#
# Poissons Ratio (x) = 0.01423 0.29823
# Poissons Ratio (y) = 0.03680 0.46274
# Poissons Ratio (z) = 0.34600 0.20764
#
# Static dielectric constant tensor:
#      x y z
#    x 3.724420 0.000000 -0.009900 
#    y 0.000000 3.700400 0.000000 
#    z -0.009900 0.000000 3.664300 
# 
# 
# High freq. dielectric constant tensor:
#      x y z
#    x 1.765020 0.000000 -0.005060 
#    y 0.000000 1.758110 0.000000 
#    z -0.005060 0.000000 1.757640 
# 
# From -- ./inp_files/308929.got.cif
#   From: 2010.06.25/outbox.cif.g09.slc.cpg/sg12_155_cif.got.tgz:308929.got - 2010.06.28 00:19:55.
