data_PCOD8107845
_publ_section_title
;
Structure prediction by ZEFSAII (Michael W. Deem and Ramdas Pophale) SiO2 
 PCOD8107845
Probable space group: C 2/M
;
_chemical_formula_sum "Si O2"
_cell_formula_units_Z 48
_cell_length_a 14.330706
_cell_length_b 8.721735
_cell_length_c 19.095416
_cell_angle_alpha 90.000000
_cell_angle_beta 90.839657
_cell_angle_gamma 90.000000
_cell_volume 2386.453413
_symmetry_space_group_name_H-M "C 2/M"
_symmetry_group_IT_number 12
_symmetry_cell_setting 'monoclinic'
loop_
_space_group_symop_operation_xyz
x,y,z
-x,y,-z
-x,-y,-z
x,-y,z
1/2+x,1/2+y,z
1/2-x,1/2+y,-z
1/2-x,1/2-y,-z
1/2+x,1/2-y,z
loop_
_atom_site_type_symbol
_atom_site_label
_atom_site_fract_x
_atom_site_fract_y
_atom_site_fract_z
Si Si1 0.066990 0.321677 0.843718
Si Si2 0.392209 0.669068 0.018576
Si Si3 0.604498 0.318609 0.492518
Si Si4 0.220743 0.820072 0.763533
Si Si5 0.244757 0.319470 0.394346
Si Si6 0.869341 0.180304 0.866685
O O1 0.076162 0.500000 0.827418
O O2 0.114974 0.224856 0.781983
O O3 0.959543 0.274875 0.844151
O O4 0.120701 0.286528 0.917585
O O5 0.357068 0.500000 0.041899
O O6 0.339853 0.724257 0.946711
O O7 0.500000 0.658798 0.000000
O O8 0.500000 0.252034 0.500000
O O9 0.601355 0.500000 0.487330
O O10 0.666680 0.262819 0.559028
O O11 0.649432 0.255460 0.421444
O O12 0.239801 0.766455 0.684784
O O13 0.286093 0.722669 0.814989
O O14 0.238138 0.000000 0.773407
O O15 0.234038 0.500000 0.400054
O O16 0.892356 0.000000 0.863123
#
# Coordination Sequence:
#
# PCOD8107845 Si02
#       6
#     8   8   8   8   8   8
#     4  11  22  36  56  82 111 146 188 231 282 340
#     4   8  16  33  55  77 104 140 184 236 286 330
#     4   9  18  35  60  86 110 141 179 216 262 321
#     4  11  23  38  55  79 115 153 188 228 275 329
#     4   9  20  37  55  81 114 143 177 223 268 315
#     4  10  21  38  58  80 108 144 189 238 286 334
#
# _framework density 20.113529
#
# number of rings (size 3 to 8) (size 9 to 14) (size 15 to 20)
#    0.000    2.333    0.000    3.500    0.000    7.333 
#    0.000    1.667    0.000    0.000    0.000    0.000 
#    0.000    0.000    0.000    0.000    0.000    0.000 
#
# Total GULP energy -297599.748289 kJ/mol
# GULP energy per Si atom -12399.989512 kJ/mol
# Density = 2.006775 g / cm^3
# Si number density = 20.113529 Si / 1000 Ang^3
#
#
#
# Elastic Constant Matrix: (Units=GPa)
#
#
# Indices 1 2 3 4 5 6 
#
# 1 75.5532 10.8612 24.8756 0.0000 -12.7229 0.0000
# 2 10.8612 50.8443 25.7785 0.0000 -4.9110 0.0000
# 3 24.8756 25.7785 97.6839 0.0000 -17.4874 0.0000
# 4 0.0000 0.0000 0.0000 29.2727 0.0000 -1.9081
# 5 -12.7229 -4.9110 -17.4874 0.0000 28.7865 0.0000
# 6 0.0000 0.0000 0.0000 -1.9081 0.0000 30.7076
#
#
#
# Elastic Compliance Matrix: (Units=1/GPa)
#
#
# Indices 1 2 3 4 5 6 
#
# 1 0.015117 -0.001442 -0.002600 0.000000 0.004856 0.000000
# 2 -0.001442 0.022845 -0.005698 0.000000 -0.000201 0.000000
# 3 -0.002600 -0.005698 0.013490 0.000000 0.006074 0.000000
# 4 0.000000 0.000000 0.000000 0.034300 0.000000 0.002131
# 5 0.004856 -0.000201 0.006074 0.000000 0.040540 0.000000
# 6 0.000000 0.000000 0.000000 0.002131 0.000000 0.032698
#
#
# Mechanical properties :
#
#
# Convention : Reuss Voigt Hill
#
# Bulk Modulus (GPa) = 31.27606 38.56798 34.92202
# Shear Modulus (GPa) = 26.43731 28.59111 27.51421
#
# Velocity S-wave (km/s) = 3.62940 3.77435 3.70259
# Velocity P-wave (km/s) = 5.75734 6.18151 5.97319
#
# Compressibility (1/GPa) = 0.03197334
#
# Stress axis : x y z
#
# Youngs Moduli (GPa) = 66.15211 43.77285 74.12874
#
# Poissons Ratio (x) = 0.06312 0.19271
# Poissons Ratio (y) = 0.09540 0.42235
# Poissons Ratio (z) = 0.17197 0.24940
#
# Static dielectric constant tensor:
#      x y z
#    x 3.640200 0.000000 -0.017750 
#    y 0.000000 3.475900 0.000000 
#    z -0.017750 0.000000 3.890070 
# 
# 
# High freq. dielectric constant tensor:
#      x y z
#    x 1.783080 0.000000 -0.005210 
#    y 0.000000 1.779180 0.000000 
#    z -0.005210 0.000000 1.783210 
# 
# From -- ./inp_files/267610.got.cif
#   From: 2010.06.25/outbox.cif.g09.slc.cpg/sg12_134_cif.got.tgz:267610.got - 2010.06.28 00:19:55.
