data_PCOD8107210
_publ_section_title
;
Structure prediction by ZEFSAII (Michael W. Deem and Ramdas Pophale) SiO2 
 PCOD8107210
Probable space group: C 2/M
;
_chemical_formula_sum "Si O2"
_cell_formula_units_Z 56
_cell_length_a 20.624670
_cell_length_b 8.937766
_cell_length_c 30.781876
_cell_angle_alpha 90.000000
_cell_angle_beta 29.245784
_cell_angle_gamma 90.000000
_cell_volume 2772.211419
_symmetry_space_group_name_H-M "C 2/M"
_symmetry_group_IT_number 12
_symmetry_cell_setting 'monoclinic'
loop_
_space_group_symop_operation_xyz
x,y,z
-x,y,-z
-x,-y,-z
x,-y,z
1/2+x,1/2+y,z
1/2-x,1/2+y,-z
1/2-x,1/2-y,-z
1/2+x,1/2-y,z
loop_
_atom_site_type_symbol
_atom_site_label
_atom_site_fract_x
_atom_site_fract_y
_atom_site_fract_z
Si Si1 0.132069 0.172534 0.450476
Si Si2 0.164881 0.330426 0.269277
Si Si3 0.652352 0.176787 0.904931
Si Si4 0.128561 0.322840 0.545446
Si Si5 0.786685 0.828803 0.287940
Si Si6 0.947573 0.328383 0.886293
Si Si7 0.759295 0.828839 0.063483
O O1 0.122602 0.259035 0.500761
O O2 0.247994 0.246171 0.354634
O O3 0.000000 0.191201 0.500000
O O4 0.166133 0.000000 0.439758
O O5 0.191567 0.500000 0.238356
O O6 0.276539 0.229094 0.180946
O O7 0.175931 0.317498 0.315109
O O8 0.011852 0.284360 0.348406
O O9 0.744242 0.238799 0.889725
O O10 0.653259 0.000000 0.905189
O O11 0.500000 0.235358 0.000000
O O12 0.149417 0.500000 0.531002
O O13 0.250000 0.250000 0.500000
O O14 0.910400 0.743331 0.196267
O O15 0.821138 0.000000 0.278891
O O16 0.954501 0.500000 0.897441
O O17 0.883600 0.313852 0.875871
O O18 0.868273 0.238165 0.968354
O O19 0.795606 0.000000 0.051929
#
# Coordination Sequence:
#
# PCOD8107210 Si02
#       7
#     8   8   8   8   8   8   8
#     4  11  23  40  65  94 124 161 205 255 311 370
#     4  10  23  41  62  88 121 161 204 254 307 372
#     4  11  24  39  59  88 121 158 201 252 305 362
#     4  11  24  44  67  94 130 169 213 264 322 382
#     4  11  22  38  63  92 121 158 204 251 307 368
#     4  10  21  37  58  87 120 154 197 251 303 359
#     4  10  21  38  59  82 116 159 200 245 300 362
#
# _framework density 20.200481
#
# number of rings (size 3 to 8) (size 9 to 14) (size 15 to 20)
#    0.000    1.429    1.429    3.429    0.000    9.143 
#    0.000    1.429    0.000    0.000    0.000    0.000 
#    0.000    0.000    0.000    0.000    0.000    0.000 
#
# Total GULP energy -347232.214245 kJ/mol
# GULP energy per Si atom -12401.150509 kJ/mol
# Density = 2.015450 g / cm^3
# Si number density = 20.200481 Si / 1000 Ang^3
#
#
#
# Elastic Constant Matrix: (Units=GPa)
#
#
# Indices 1 2 3 4 5 6 
#
# 1 77.1736 53.0731 37.3296 0.0109 3.4932 -0.0914
# 2 53.0731 106.2415 50.5570 0.0205 -7.5478 -0.0486
# 3 37.3296 50.5570 98.7311 -0.0075 -4.8746 -0.0036
# 4 0.0109 0.0205 -0.0075 34.2791 0.0041 0.9128
# 5 3.4932 -7.5478 -4.8746 0.0041 34.4836 -0.0038
# 6 -0.0914 -0.0486 -0.0036 0.9128 -0.0038 34.0835
#
#
#
# Elastic Compliance Matrix: (Units=1/GPa)
#
#
# Indices 1 2 3 4 5 6 
#
# 1 0.021248 -0.009274 -0.003516 -0.000003 -0.004679 0.000043
# 2 -0.009274 0.016609 -0.004806 -0.000008 0.003895 -0.000001
# 3 -0.003516 -0.004806 0.013982 0.000007 0.001281 -0.000015
# 4 -0.000003 -0.000008 0.000007 0.029193 -0.000004 -0.000782
# 5 -0.004679 0.003895 0.001281 -0.000004 0.030507 -0.000003
# 6 0.000043 -0.000001 -0.000015 -0.000782 -0.000003 0.029361
#
#
# Mechanical properties :
#
#
# Convention : Reuss Voigt Hill
#
# Bulk Modulus (GPa) = 60.06968 62.67396 61.37182
# Shear Modulus (GPa) = 27.52672 29.98167 28.75420
#
# Velocity S-wave (km/s) = 3.69545 3.85672 3.77695
# Velocity P-wave (km/s) = 6.92891 7.13622 7.03333
#
# Compressibility (1/GPa) = 0.01664733
#
# Stress axis : x y z
#
# Youngs Moduli (GPa) = 47.06315 60.20761 71.51899
#
# Poissons Ratio (x) = 0.55835 0.25146
# Poissons Ratio (y) = 0.43645 0.34375
# Poissons Ratio (z) = 0.16547 0.28938
#
# Static dielectric constant tensor:
#      x y z
#    x 3.895920 -0.000020 -0.066190 
#    y -0.000020 3.793350 0.000000 
#    z -0.066190 0.000000 3.595450 
# 
# 
# High freq. dielectric constant tensor:
#      x y z
#    x 1.791190 0.000000 -0.001170 
#    y 0.000000 1.801830 0.000000 
#    z -0.001170 0.000000 1.790080 
# 
# From -- ./inp_files/329615.got.cif
#   From: 2010.06.25/outbox.cif.g09.slc.cpg/sg12_165_cif.got.tgz:329615.got - 2010.06.28 00:19:55.
