data_PCOD8107514
_publ_section_title
;
Structure prediction by ZEFSAII (Michael W. Deem and Ramdas Pophale) SiO2 
 PCOD8107514
Probable space group: C 2/M
;
_chemical_formula_sum "Si O2"
_cell_formula_units_Z 36
_cell_length_a 5.560813
_cell_length_b 27.981277
_cell_length_c 11.371640
_cell_angle_alpha 90.000000
_cell_angle_beta 107.048015
_cell_angle_gamma 90.000000
_cell_volume 1691.662815
_symmetry_space_group_name_H-M "C 2/M"
_symmetry_group_IT_number 12
_symmetry_cell_setting 'monoclinic'
loop_
_space_group_symop_operation_xyz
x,y,z
-x,y,-z
-x,-y,-z
x,-y,z
1/2+x,1/2+y,z
1/2-x,1/2+y,-z
1/2-x,1/2-y,-z
1/2+x,1/2-y,z
loop_
_atom_site_type_symbol
_atom_site_label
_atom_site_fract_x
_atom_site_fract_y
_atom_site_fract_z
Si Si1 0.906824 0.123251 0.734973
Si Si2 0.724230 0.052712 0.114733
Si Si3 0.000000 0.905070 0.500000
Si Si4 0.415761 0.277111 0.856992
Si Si5 0.028887 0.551664 0.347313
O O1 0.856757 0.175519 0.776153
O O2 0.648020 0.096948 0.675838
O O3 0.058500 0.092711 0.855363
O O4 0.035472 0.126696 0.623729
O O5 0.642712 0.047236 0.235516
O O6 0.817373 0.000000 0.083119
O O7 0.500000 0.071664 0.000000
O O8 0.751890 0.938648 0.474146
O O9 0.649102 0.251006 0.824158
O O10 0.500000 0.290455 0.000000
O O11 0.902675 0.500000 0.359715
#
# Coordination Sequence:
#
# PCOD8107514 Si02
#       5
#     8   8   4   8   8
#     4  11  23  38  66  89 127 169 220 267 327 390
#     4   9  20  35  55  91 133 168 210 261 323 393
#     4  10  23  40  58  92 130 170 220 264 317 384
#     4  10  25  46  71 100 130 166 218 279 340 402
#     4  10  21  37  60  90 130 174 216 262 316 385
#
# _framework density 21.280836000000001
#
# number of rings (size 3 to 8) (size 9 to 14) (size 15 to 20)
#    0.000    2.000    0.000    1.667    9.333    4.444 
#    0.000    4.444    0.000    0.000    0.000    0.000 
#    0.000    0.000    0.000    0.000    0.000    0.000 
#
# Total GULP energy -223052.486341 kJ/mol
# GULP energy per Si atom -12391.804797 kJ/mol
# Density = 2.123240 g / cm^3
# Si number density = 21.280836 Si / 1000 Ang^3
#
#
#
# Elastic Constant Matrix: (Units=GPa)
#
#
# Indices 1 2 3 4 5 6 
#
# 1 112.7975 71.3597 31.9646 0.0000 25.0938 0.0000
# 2 71.3597 164.9669 65.0793 0.0000 6.6332 0.0000
# 3 31.9646 65.0793 97.3509 0.0000 29.9349 0.0000
# 4 0.0000 0.0000 0.0000 -7.3455 0.0000 -12.1739
# 5 25.0938 6.6332 29.9349 0.0000 30.2917 0.0000
# 6 0.0000 0.0000 0.0000 -12.1739 0.0000 28.6870
#
#
#
# Elastic Compliance Matrix: (Units=1/GPa)
#
#
# Indices 1 2 3 4 5 6 
#
# 1 0.016742 -0.008844 0.005867 0.000000 -0.017731 0.000000
# 2 -0.008844 0.013523 -0.010743 0.000000 0.014982 0.000000
# 3 0.005867 -0.010743 0.023413 0.000000 -0.025645 0.000000
# 4 0.000000 0.000000 0.000000 -0.079925 0.000000 -0.033918
# 5 -0.017731 0.014982 -0.025645 0.000000 0.069763 0.000000
# 6 0.000000 0.000000 0.000000 -0.033918 0.000000 0.020465
#
#
# Mechanical properties :
#
#
# Convention : Reuss Voigt Hill
#
# Bulk Modulus (GPa) = 38.11172 79.10249 58.60711
# Shear Modulus (GPa) = 49.91604 24.10742 37.01173
#
# Velocity S-wave (km/s) = 4.84838 3.36939 4.17490
# Velocity P-wave (km/s) = 7.02070 7.23799 7.13017
#
# Compressibility (1/GPa) = 0.02623865
#
# Stress axis : x y z
#
# Youngs Moduli (GPa) = 59.72924 73.94716 42.71049
#
# Poissons Ratio (x) = 0.65397 -0.25058
# Poissons Ratio (y) = 0.52823 0.45885
# Poissons Ratio (z) = -0.35043 0.79443
#
# Static dielectric constant tensor:
#      x y z
#    x 3.967460 0.000000 -0.017040 
#    y 0.000000 3.727170 0.000000 
#    z -0.017040 0.000000 4.102470 
# 
# 
# High freq. dielectric constant tensor:
#      x y z
#    x 1.834880 0.000000 -0.001490 
#    y 0.000000 1.812600 0.000000 
#    z -0.001490 0.000000 1.850740 
# 
# From -- ./inp_files/114980.got.cif
#   From: 2010.06.25/outbox.cif.g09.slc.cpg/sg12_58_cif.got.tgz:114980.got - 2010.06.28 00:19:55.
