data_PCOD8107415
_publ_section_title
;
Structure prediction by ZEFSAII (Michael W. Deem and Ramdas Pophale) SiO2 
 PCOD8107415
Probable space group: C 2/M
;
_chemical_formula_sum "Si O2"
_cell_formula_units_Z 56
_cell_length_a 17.474022
_cell_length_b 14.769797
_cell_length_c 11.307743
_cell_angle_alpha 90.000000
_cell_angle_beta 88.172965
_cell_angle_gamma 90.000000
_cell_volume 2916.906408
_symmetry_space_group_name_H-M "C 2/M"
_symmetry_group_IT_number 12
_symmetry_cell_setting 'monoclinic'
loop_
_space_group_symop_operation_xyz
x,y,z
-x,y,-z
-x,-y,-z
x,-y,z
1/2+x,1/2+y,z
1/2-x,1/2+y,-z
1/2-x,1/2-y,-z
1/2+x,1/2-y,z
loop_
_atom_site_type_symbol
_atom_site_label
_atom_site_fract_x
_atom_site_fract_y
_atom_site_fract_z
Si Si1 0.877616 0.401019 0.335775
Si Si2 0.747133 0.395654 0.173783
Si Si3 0.858581 0.735350 0.750292
Si Si4 0.481870 0.734384 0.364447
Si Si5 0.724787 0.846213 0.455885
Si Si6 0.147041 0.899268 0.712825
Si Si7 0.769799 0.605427 0.900482
O O1 0.915600 0.500000 0.322594
O O2 0.833016 0.375617 0.217081
O O3 0.944141 0.332719 0.365788
O O4 0.813165 0.405230 0.440393
O O5 0.723960 0.500000 0.201546
O O6 0.688282 0.329158 0.242128
O O7 0.745594 0.375688 0.035159
O O8 0.837108 0.671076 0.642450
O O9 0.841428 0.671636 0.865567
O O10 0.946267 0.763286 0.727413
O O11 0.500000 0.707089 0.500000
O O12 0.425007 0.663900 0.306484
O O13 0.750000 0.750000 0.500000
O O14 0.798380 0.899574 0.404463
O O15 0.196911 0.866032 0.823111
O O16 0.115559 0.000000 0.736591
O O17 0.792171 0.500000 0.878677
#
# Coordination Sequence:
#
# PCOD8107415 Si02
#       7
#     8   8   8   8   8   8   8
#     4  11  22  37  59  83 113 153 192 233 285 335
#     4  10  21  39  63  88 111 145 195 244 282 329
#     4  11  21  35  60  83 116 154 187 231 288 338
#     4  12  24  39  52  83 128 155 182 231 281 350
#     4  11  17  36  57  81 113 143 192 245 277 325
#     4  10  21  37  60  83 111 152 192 235 287 333
#     4   9  20  40  64  87 110 142 196 248 282 327
#
# _framework density 19.198422000000001
#
# number of rings (size 3 to 8) (size 9 to 14) (size 15 to 20)
#    0.000    1.429    4.286    1.714    0.000    2.286 
#    0.000    2.857    0.000    5.143    0.000    0.000 
#    0.000    0.000    0.000    0.000    0.000    0.000 
#
# Total GULP energy -347149.093452 kJ/mol
# GULP energy per Si atom -12398.181909 kJ/mol
# Density = 1.915473 g / cm^3
# Si number density = 19.198422 Si / 1000 Ang^3
#
#
#
# Elastic Constant Matrix: (Units=GPa)
#
#
# Indices 1 2 3 4 5 6 
#
# 1 89.9121 31.2585 29.9112 0.0000 -6.3978 0.0000
# 2 31.2585 76.2557 28.2679 0.0000 -2.7337 0.0000
# 3 29.9112 28.2679 81.0072 0.0000 8.5200 0.0000
# 4 0.0000 0.0000 0.0000 25.8419 0.0000 4.1732
# 5 -6.3978 -2.7337 8.5200 0.0000 19.1345 0.0000
# 6 0.0000 0.0000 0.0000 4.1732 0.0000 21.4102
#
#
#
# Elastic Compliance Matrix: (Units=1/GPa)
#
#
# Indices 1 2 3 4 5 6 
#
# 1 0.014503 -0.004004 -0.004625 0.000000 0.006336 0.000000
# 2 -0.004004 0.016584 -0.004634 0.000000 0.003094 0.000000
# 3 -0.004625 -0.004634 0.016683 0.000000 -0.009637 0.000000
# 4 0.000000 0.000000 0.000000 0.039955 0.000000 -0.007788
# 5 0.006336 0.003094 -0.009637 0.000000 0.059113 0.000000
# 6 0.000000 0.000000 0.000000 -0.007788 0.000000 0.048225
#
#
# Mechanical properties :
#
#
# Convention : Reuss Voigt Hill
#
# Bulk Modulus (GPa) = 47.06952 47.33893 47.20423
# Shear Modulus (GPa) = 21.86573 23.79314 22.82943
#
# Velocity S-wave (km/s) = 3.37847 3.52423 3.45212
# Velocity P-wave (km/s) = 6.30788 6.42429 6.36635
#
# Compressibility (1/GPa) = 0.02124517
#
# Stress axis : x y z
#
# Youngs Moduli (GPa) = 68.95028 60.30022 59.94206
#
# Poissons Ratio (x) = 0.24142 0.27720
# Poissons Ratio (y) = 0.27605 0.27778
# Poissons Ratio (z) = 0.31886 0.27943
#
# Static dielectric constant tensor:
#      x y z
#    x 3.369720 0.000000 -0.076970 
#    y 0.000000 3.733360 0.000000 
#    z -0.076970 0.000000 3.876230 
# 
# 
# High freq. dielectric constant tensor:
#      x y z
#    x 1.720800 0.000000 0.005620 
#    y 0.000000 1.761800 0.000000 
#    z 0.005620 0.000000 1.749220 
# 
# From -- ./inp_files/143744.got.cif
#   From: 2010.06.25/outbox.cif.g09.slc.cpg/sg12_72_cif.got.tgz:143744.got - 2010.06.28 00:19:55.
