data_PCOD8107721
_publ_section_title
;
Structure prediction by ZEFSAII (Michael W. Deem and Ramdas Pophale) SiO2 
 PCOD8107721
Probable space group: C 2/M
;
_chemical_formula_sum "Si O2"
_cell_formula_units_Z 56
_cell_length_a 17.342349
_cell_length_b 14.936042
_cell_length_c 21.083624
_cell_angle_alpha 90.000000
_cell_angle_beta 152.571312
_cell_angle_gamma 90.000000
_cell_volume 2515.674055
_symmetry_space_group_name_H-M "C 2/M"
_symmetry_group_IT_number 12
_symmetry_cell_setting 'monoclinic'
loop_
_space_group_symop_operation_xyz
x,y,z
-x,y,-z
-x,-y,-z
x,-y,z
1/2+x,1/2+y,z
1/2-x,1/2+y,-z
1/2-x,1/2-y,-z
1/2+x,1/2-y,z
loop_
_atom_site_type_symbol
_atom_site_label
_atom_site_fract_x
_atom_site_fract_y
_atom_site_fract_z
Si Si1 0.047460 0.000000 0.929727
Si Si2 0.732160 0.000000 0.786206
Si Si3 0.564724 0.900394 0.201267
Si Si4 0.569657 0.839873 0.614925
Si Si5 0.292175 0.355013 0.039237
Si Si6 0.856106 0.899591 0.226132
Si Si7 0.906291 0.160841 0.499389
Si Si8 0.371673 0.227469 0.859805
O O1 0.079988 0.093954 0.915592
O O2 0.855203 0.000000 0.814373
O O3 0.169896 0.000000 0.078117
O O4 0.605851 0.915215 0.693315
O O5 0.709386 0.858784 0.351019
O O6 0.529633 0.835955 0.116226
O O7 0.621981 0.000000 0.222391
O O8 0.383670 0.906037 0.101751
O O9 0.500000 0.885040 0.500000
O O10 0.437032 0.764946 0.541023
O O11 0.748834 0.791965 0.731591
O O12 0.380601 0.367241 0.171964
O O13 0.250000 0.250000 0.000000
O O14 0.726486 0.835878 0.164750
O O15 0.025446 0.898392 0.392371
O O16 0.785174 0.000000 0.172478
O O17 0.000000 0.140516 0.500000
O O18 0.500000 0.281712 0.000000
#
# Coordination Sequence:
#
# PCOD8107721 Si02
#       8
#     4   4   8   8   8   8   8   8
#     4  11  28  52  68 111 130 180 254 293 366 408
#     4  11  27  42  86  92 130 180 244 324 334 398
#     4  12  22  40  64 100 137 186 219 279 341 417
#     4  10  21  42  64 107 132 170 228 294 346 396
#     4  12  28  45  68  93 142 181 226 294 355 423
#     4  11  21  38  60  96 133 177 218 277 330 416
#     4  10  21  37  65 100 145 173 224 272 334 417
#     4  11  22  32  62 100 140 175 227 265 338 415
#
# _framework density 22.260435000000001
#
# number of rings (size 3 to 8) (size 9 to 14) (size 15 to 20)
#    0.000    1.000    7.143    1.071    8.000    1.143 
#    0.000    0.714    6.286    0.000    0.000    0.000 
#    0.000    0.000    0.000    0.000    0.000    0.000 
#
# Total GULP energy -346920.830691 kJ/mol
# GULP energy per Si atom -12390.029668 kJ/mol
# Density = 2.220977 g / cm^3
# Si number density = 22.260435 Si / 1000 Ang^3
#
#
#
# Elastic Constant Matrix: (Units=GPa)
#
#
# Indices 1 2 3 4 5 6 
#
# 1 72.5001 13.5330 26.5433 0.0018 -15.4662 0.0025
# 2 13.5330 120.2897 21.9266 -0.0019 -14.8426 -0.0096
# 3 26.5433 21.9266 154.5242 -0.0141 -19.0380 -0.0095
# 4 0.0018 -0.0019 -0.0141 34.9901 0.0023 -10.4713
# 5 -15.4662 -14.8426 -19.0380 0.0023 28.9542 -0.0002
# 6 0.0025 -0.0096 -0.0095 -10.4713 -0.0002 38.8431
#
#
#
# Elastic Compliance Matrix: (Units=1/GPa)
#
#
# Indices 1 2 3 4 5 6 
#
# 1 0.016079 -0.000605 -0.001802 -0.000003 0.007094 -0.000002
# 2 -0.000605 0.008980 -0.000700 0.000001 0.003820 0.000002
# 3 -0.001802 -0.000700 0.007310 0.000004 0.003485 0.000003
# 4 -0.000003 0.000001 0.000004 0.031087 -0.000001 0.008381
# 5 0.007094 0.003820 0.003485 -0.000001 0.042576 0.000001
# 6 -0.000002 0.000002 0.000003 0.008381 0.000001 0.028004
#
#
# Mechanical properties :
#
#
# Convention : Reuss Voigt Hill
#
# Bulk Modulus (GPa) = 38.23345 52.36887 45.30116
# Shear Modulus (GPa) = 33.56406 39.57823 36.57115
#
# Velocity S-wave (km/s) = 3.88724 4.22116 4.05764
# Velocity P-wave (km/s) = 6.11231 6.87999 6.50748
#
# Compressibility (1/GPa) = 0.02615511
#
# Stress axis : x y z
#
# Youngs Moduli (GPa) = 62.19255 111.35537 136.80481
#
# Poissons Ratio (x) = 0.06739 0.24654
# Poissons Ratio (y) = 0.03764 0.09572
# Poissons Ratio (z) = 0.11208 0.07791
#
# Static dielectric constant tensor:
#      x y z
#    x 3.885470 -0.000130 -0.215500 
#    y -0.000130 4.140690 -0.000010 
#    z -0.215500 -0.000010 4.488480 
# 
# 
# High freq. dielectric constant tensor:
#      x y z
#    x 1.827860 0.000000 -0.015070 
#    y 0.000000 1.885200 0.000000 
#    z -0.015070 0.000000 1.899310 
# 
# From -- ./inp_files/316824.got.cif
#   From: 2010.06.25/outbox.cif.g09.slc.cpg/sg12_159_cif.got.tgz:316824.got - 2010.06.28 00:19:55.
