data_PCOD8107348
_publ_section_title
;
Structure prediction by ZEFSAII (Michael W. Deem and Ramdas Pophale) SiO2 
 PCOD8107348
Probable space group: C 2/M
;
_chemical_formula_sum "Si O2"
_cell_formula_units_Z 64
_cell_length_a 29.813995
_cell_length_b 9.187084
_cell_length_c 17.414063
_cell_angle_alpha 90.000000
_cell_angle_beta 42.160661
_cell_angle_gamma 90.000000
_cell_volume 3201.529844
_symmetry_space_group_name_H-M "C 2/M"
_symmetry_group_IT_number 12
_symmetry_cell_setting 'monoclinic'
loop_
_space_group_symop_operation_xyz
x,y,z
-x,y,-z
-x,-y,-z
x,-y,z
1/2+x,1/2+y,z
1/2-x,1/2+y,-z
1/2-x,1/2-y,-z
1/2+x,1/2-y,z
loop_
_atom_site_type_symbol
_atom_site_label
_atom_site_fract_x
_atom_site_fract_y
_atom_site_fract_z
Si Si1 0.795179 0.330528 0.295046
Si Si2 0.658235 0.829760 0.456883
Si Si3 0.007199 0.836031 0.906074
Si Si4 0.077854 0.669367 0.406256
Si Si5 0.810968 0.662861 0.007893
Si Si6 0.882430 0.667605 0.324060
Si Si7 0.344966 0.663741 0.824240
Si Si8 0.358235 0.335669 0.086428
O O1 0.793070 0.500000 0.276120
O O2 0.725367 0.260502 0.359013
O O3 0.815024 0.306853 0.359234
O O4 0.852973 0.249255 0.173798
O O5 0.605324 0.795487 0.456726
O O6 0.628172 0.776102 0.576054
O O7 0.676453 0.000000 0.436844
O O8 0.054688 0.748881 0.790166
O O9 0.035604 0.000000 0.878594
O O10 0.000000 0.765901 0.000000
O O11 0.934167 0.834969 0.960440
O O12 0.088088 0.500000 0.373307
O O13 0.119152 0.763625 0.293545
O O14 0.000000 0.712542 0.500000
O O15 0.839514 0.500000 0.983390
O O16 0.857252 0.740251 0.884797
O O17 0.733944 0.656092 0.084745
O O18 0.812482 0.754044 0.083642
O O19 0.902248 0.500000 0.299096
O O20 0.373374 0.500000 0.799175
O O21 0.331398 0.500000 0.130409
#
# Coordination Sequence:
#
# PCOD8107348 Si02
#       8
#     8   8   8   8   8   8   8   8
#     4  11  22  36  57  86 118 152 195 244 293 343
#     4  10  22  40  60  84 114 151 195 241 292 349
#     4  10  21  38  57  80 113 154 195 233 281 339
#     4  10  22  40  61  84 114 153 195 240 293 351
#     4  10  21  37  59  88 119 151 190 238 290 345
#     4  10  22  38  58  85 117 154 197 244 291 343
#     4  10  21  38  60  86 117 150 189 238 293 349
#     4  11  22  36  57  85 118 156 196 237 286 343
#
# _framework density 19.990442999999999
#
# number of rings (size 3 to 8) (size 9 to 14) (size 15 to 20)
#    0.000    1.750    1.250    2.625    0.000    7.500 
#    0.000    1.250    0.000    0.000    0.000    0.000 
#    0.000    0.000    0.000    0.000    0.000    0.000 
#
# Total GULP energy -396825.097009 kJ/mol
# GULP energy per Si atom -12400.784282 kJ/mol
# Density = 1.994494 g / cm^3
# Si number density = 19.990443 Si / 1000 Ang^3
#
#
#
# Elastic Constant Matrix: (Units=GPa)
#
#
# Indices 1 2 3 4 5 6 
#
# 1 85.9869 45.7571 43.8988 0.0065 10.8349 -0.0018
# 2 45.7571 116.3814 57.6467 0.0228 9.9211 -0.0103
# 3 43.8988 57.6467 107.2359 0.0077 13.3447 -0.0056
# 4 0.0065 0.0228 0.0077 34.2824 -0.0045 2.2207
# 5 10.8349 9.9211 13.3447 -0.0045 33.1166 0.0014
# 6 -0.0018 -0.0103 -0.0056 2.2207 0.0014 23.3621
#
#
#
# Elastic Compliance Matrix: (Units=1/GPa)
#
#
# Indices 1 2 3 4 5 6 
#
# 1 0.016241 -0.004137 -0.004124 0.000000 -0.002412 -0.000001
# 2 -0.004137 0.012797 -0.005135 -0.000007 -0.000411 0.000005
# 3 -0.004124 -0.005135 0.014123 0.000001 -0.002803 0.000001
# 4 0.000000 -0.000007 0.000001 0.029350 0.000006 -0.002790
# 5 -0.002412 -0.000411 -0.002803 0.000006 0.032238 -0.000004
# 6 -0.000001 0.000005 0.000001 -0.002790 -0.000004 0.043070
#
#
# Mechanical properties :
#
#
# Convention : Reuss Voigt Hill
#
# Bulk Modulus (GPa) = 61.09169 67.13437 64.11303
# Shear Modulus (GPa) = 27.76744 28.97231 28.36988
#
# Velocity S-wave (km/s) = 3.73102 3.81111 3.77128
# Velocity P-wave (km/s) = 7.01338 7.28163 7.14876
#
# Compressibility (1/GPa) = 0.01636884
#
# Stress axis : x y z
#
# Youngs Moduli (GPa) = 61.57428 78.14147 70.80739
#
# Poissons Ratio (x) = 0.32324 0.29204
# Poissons Ratio (y) = 0.25471 0.36358
# Poissons Ratio (z) = 0.25396 0.40124
#
# Static dielectric constant tensor:
#      x y z
#    x 3.653490 0.000000 0.159160 
#    y 0.000000 3.779160 0.000010 
#    z 0.159160 0.000010 3.581580 
# 
# 
# High freq. dielectric constant tensor:
#      x y z
#    x 1.779940 0.000000 0.008330 
#    y 0.000000 1.784420 0.000000 
#    z 0.008330 0.000000 1.776110 
# 
# From -- ./inp_files/295630.got.cif
#   From: 2010.06.25/outbox.cif.g09.slc.cpg/sg12_148_cif.got.tgz:295630.got - 2010.06.28 00:19:55.
