data_PCOD8107918
_publ_section_title
;
Structure prediction by ZEFSAII (Michael W. Deem and Ramdas Pophale) SiO2 
 PCOD8107918
Probable space group: C 2/M
;
_chemical_formula_sum "Si O2"
_cell_formula_units_Z 64
_cell_length_a 15.257943
_cell_length_b 9.271232
_cell_length_c 23.662374
_cell_angle_alpha 90.000000
_cell_angle_beta 90.771688
_cell_angle_gamma 90.000000
_cell_volume 3346.974161
_symmetry_space_group_name_H-M "C 2/M"
_symmetry_group_IT_number 12
_symmetry_cell_setting 'monoclinic'
loop_
_space_group_symop_operation_xyz
x,y,z
-x,y,-z
-x,-y,-z
x,-y,z
1/2+x,1/2+y,z
1/2-x,1/2+y,-z
1/2-x,1/2-y,-z
1/2+x,1/2-y,z
loop_
_atom_site_type_symbol
_atom_site_label
_atom_site_fract_x
_atom_site_fract_y
_atom_site_fract_z
Si Si1 0.759126 0.327562 0.864523
Si Si2 0.354495 0.167428 0.449572
Si Si3 0.415059 0.167599 0.328832
Si Si4 0.249794 0.667871 0.749794
Si Si5 0.908762 0.171195 0.928929
Si Si6 0.416541 0.330585 0.678263
Si Si7 0.650858 0.667940 0.442474
Si Si8 0.395056 0.329857 0.056020
O O1 0.766142 0.500000 0.864325
O O2 0.734632 0.270367 0.802808
O O3 0.851090 0.258657 0.883816
O O4 0.682662 0.269714 0.905569
O O5 0.405018 0.217690 0.393785
O O6 0.392099 0.251979 0.504149
O O7 0.253090 0.204333 0.439153
O O8 0.368641 0.000000 0.461373
O O9 0.326274 0.202520 0.295189
O O10 0.494441 0.254239 0.300889
O O11 0.437275 0.000000 0.325542
O O12 0.248977 0.500000 0.767890
O O13 0.341201 0.710672 0.721720
O O14 0.009855 0.217591 0.919406
O O15 0.895322 0.000000 0.920252
O O16 0.881213 0.222732 0.991585
O O17 0.431496 0.500000 0.677657
O O18 0.392235 0.274320 0.615494
O O19 0.633890 0.500000 0.450430
O O20 0.393371 0.500000 0.055310
#
# Coordination Sequence:
#
# PCOD8107918 Si02
#       8
#     8   8   8   8   8   8   8   8
#     4  11  22  35  54  84 115 141 178 233 276 308
#     4   9  17  32  54  79 107 139 172 214 268 325
#     4  10  21  38  59  80 106 140 181 226 273 323
#     4  10  22  42  59  73 103 149 189 222 267 327
#     4   9  17  35  60  83 110 151 188 213 258 326
#     4  10  21  38  59  79 104 140 182 224 270 324
#     4   9  17  32  54  79 106 138 174 215 264 324
#     4   8  17  34  57  83 114 148 183 219 261 319
#
# _framework density 19.121748
#
# number of rings (size 3 to 8) (size 9 to 14) (size 15 to 20)
#    0.000    2.500    1.250    1.500    0.000    3.500 
#    0.000    9.375    0.000    0.000    0.000    0.000 
#    0.000    0.000    0.000    0.000    0.000    0.000 
#
# Total GULP energy -396808.433966 kJ/mol
# GULP energy per Si atom -12400.263561 kJ/mol
# Density = 1.907823 g / cm^3
# Si number density = 19.121748 Si / 1000 Ang^3
#
#
#
# Elastic Constant Matrix: (Units=GPa)
#
#
# Indices 1 2 3 4 5 6 
#
# 1 83.7444 30.9319 24.2111 0.0000 -12.7665 0.0000
# 2 30.9319 44.5827 30.6462 0.0000 -3.2288 0.0000
# 3 24.2111 30.6462 78.2834 0.0000 -7.3541 0.0000
# 4 0.0000 0.0000 0.0000 33.9694 0.0000 1.2411
# 5 -12.7665 -3.2288 -7.3541 0.0000 13.9003 0.0000
# 6 0.0000 0.0000 0.0000 1.2411 0.0000 29.0134
#
#
#
# Elastic Compliance Matrix: (Units=1/GPa)
#
#
# Indices 1 2 3 4 5 6 
#
# 1 0.018465 -0.012003 0.000336 0.000000 0.014348 0.000000
# 2 -0.012003 0.038500 -0.012159 0.000000 -0.008514 0.000000
# 3 0.000336 -0.012159 0.018093 0.000000 0.007057 0.000000
# 4 0.000000 0.000000 0.000000 0.029484 0.000000 -0.001261
# 5 0.014348 -0.008514 0.007057 0.000000 0.086875 0.000000
# 6 0.000000 0.000000 0.000000 -0.001261 0.000000 0.034521
#
#
# Mechanical properties :
#
#
# Convention : Reuss Voigt Hill
#
# Bulk Modulus (GPa) = 36.48938 42.02099 39.25519
# Shear Modulus (GPa) = 17.68505 23.43137 20.55821
#
# Velocity S-wave (km/s) = 3.04446 3.50434 3.28246
# Velocity P-wave (km/s) = 5.61092 6.19653 5.91098
#
# Compressibility (1/GPa) = 0.02740523
#
# Stress axis : x y z
#
# Youngs Moduli (GPa) = 54.15756 25.97422 55.26939
#
# Poissons Ratio (x) = 0.31176 -0.01857
# Poissons Ratio (y) = 0.65004 0.67204
# Poissons Ratio (z) = -0.01820 0.31583
#
# Static dielectric constant tensor:
#      x y z
#    x 3.602710 0.000000 -0.165300 
#    y 0.000000 3.227900 0.000000 
#    z -0.165300 0.000000 3.678220 
# 
# 
# High freq. dielectric constant tensor:
#      x y z
#    x 1.749240 0.000000 -0.000790 
#    y 0.000000 1.721170 0.000000 
#    z -0.000790 0.000000 1.744050 
# 
# From -- ./inp_files/338812.got.cif
#   From: 2010.06.25/outbox.cif.g09.slc.cpg/sg12_170_cif.got.tgz:338812.got - 2010.06.28 00:19:55.
