data_PCOD8107976
_publ_section_title
;
Structure prediction by ZEFSAII (Michael W. Deem and Ramdas Pophale) SiO2 
 PCOD8107976
Probable space group: C 2/M
;
_chemical_formula_sum "Si O2"
_cell_formula_units_Z 56
_cell_length_a 18.574300
_cell_length_b 26.446897
_cell_length_c 6.371383
_cell_angle_alpha 90.000000
_cell_angle_beta 65.361190
_cell_angle_gamma 90.000000
_cell_volume 2844.872207
_symmetry_space_group_name_H-M "C 2/M"
_symmetry_group_IT_number 12
_symmetry_cell_setting 'monoclinic'
loop_
_space_group_symop_operation_xyz
x,y,z
-x,y,-z
-x,-y,-z
x,-y,z
1/2+x,1/2+y,z
1/2-x,1/2+y,-z
1/2-x,1/2-y,-z
1/2+x,1/2-y,z
loop_
_atom_site_type_symbol
_atom_site_label
_atom_site_fract_x
_atom_site_fract_y
_atom_site_fract_z
Si Si1 0.769766 0.442049 0.532618
Si Si2 0.678152 0.287427 0.572693
Si Si3 0.316327 0.123071 0.085738
Si Si4 0.687712 0.631060 0.895074
Si Si5 0.413192 0.942005 0.668930
Si Si6 0.083642 0.280362 0.962339
Si Si7 0.917023 0.805672 0.709675
O O1 0.753460 0.500000 0.490983
O O2 0.772230 0.408619 0.319703
O O3 0.697833 0.424985 0.779401
O O4 0.853891 0.435126 0.546016
O O5 0.750000 0.250000 0.500000
O O6 0.706632 0.334655 0.672434
O O7 0.600748 0.261032 0.763090
O O8 0.655388 0.304812 0.367217
O O9 0.351069 0.175906 0.125628
O O10 0.254647 0.138890 0.985095
O O11 0.386804 0.089910 0.902372
O O12 0.603723 0.648230 0.101241
O O13 0.500000 0.922188 0.500000
O O14 0.416800 0.000000 0.737394
O O15 0.080991 0.249795 0.185796
O O16 0.000000 0.304819 0.000000
O O17 0.000000 0.819351 0.500000
#
# Coordination Sequence:
#
# PCOD8107976 Si02
#       7
#     8   8   8   8   8   8   8
#     4  10  21  38  59  84 113 151 197 246 298 346
#     4  11  21  38  59  81 116 155 195 239 287 347
#     4  11  22  36  56  84 115 160 197 237 292 341
#     4  10  22  38  59  86 112 148 199 246 284 347
#     4   9  20  36  52  77 112 152 201 251 291 339
#     4  11  23  35  51  84 120 152 194 237 279 339
#     4  11  22  39  60  84 117 157 194 236 299 346
#
# _framework density 19.684540999999999
#
# number of rings (size 3 to 8) (size 9 to 14) (size 15 to 20)
#    0.000    1.571    1.429    3.857    2.000    4.571 
#    0.000    2.143    0.000    0.429    0.000    4.000 
#    0.000    0.000    0.000    0.000    0.000    0.000 
#
# Total GULP energy -347047.215509 kJ/mol
# GULP energy per Si atom -12394.543411 kJ/mol
# Density = 1.963974 g / cm^3
# Si number density = 19.684541 Si / 1000 Ang^3
#
#
#
# Elastic Constant Matrix: (Units=GPa)
#
#
# Indices 1 2 3 4 5 6 
#
# 1 66.5920 34.3149 33.9959 0.0000 5.6970 0.0000
# 2 34.3149 100.5135 54.7080 0.0000 -1.4184 0.0000
# 3 33.9959 54.7080 109.6372 0.0000 -2.5889 0.0000
# 4 0.0000 0.0000 0.0000 39.1436 0.0000 -6.0710
# 5 5.6970 -1.4184 -2.5889 0.0000 36.0172 0.0000
# 6 0.0000 0.0000 0.0000 -6.0710 0.0000 21.8492
#
#
#
# Elastic Compliance Matrix: (Units=1/GPa)
#
#
# Indices 1 2 3 4 5 6 
#
# 1 0.019703 -0.004676 -0.003861 0.000000 -0.003578 0.000000
# 2 -0.004676 0.014768 -0.005898 0.000000 0.000897 0.000000
# 3 -0.003861 -0.005898 0.013293 0.000000 0.001334 0.000000
# 4 0.000000 0.000000 0.000000 0.026698 0.000000 0.007418
# 5 -0.003578 0.000897 0.001334 0.000000 0.028462 0.000000
# 6 0.000000 0.000000 0.000000 0.007418 0.000000 0.047830
#
#
# Mechanical properties :
#
#
# Convention : Reuss Voigt Hill
#
# Bulk Modulus (GPa) = 52.92477 58.08671 55.50574
# Shear Modulus (GPa) = 26.89317 29.65025 28.27171
#
# Velocity S-wave (km/s) = 3.70023 3.88528 3.79389
# Velocity P-wave (km/s) = 6.72313 7.04983 6.88842
#
# Compressibility (1/GPa) = 0.01889475
#
# Stress axis : x y z
#
# Youngs Moduli (GPa) = 50.75269 67.71349 75.22876
#
# Poissons Ratio (x) = 0.31661 0.29045
# Poissons Ratio (y) = 0.23731 0.44371
# Poissons Ratio (z) = 0.19595 0.39938
#
# Static dielectric constant tensor:
#      x y z
#    x 3.323540 0.000000 -0.126130 
#    y 0.000000 3.686710 0.000000 
#    z -0.126130 0.000000 3.882520 
# 
# 
# High freq. dielectric constant tensor:
#      x y z
#    x 1.753430 0.000000 0.003490 
#    y 0.000000 1.758840 0.000000 
#    z 0.003490 0.000000 1.784090 
# 
# From -- ./inp_files/17644.got.cif
#   From: 2010.06.25/outbox.cif.g09.slc.cpg/sg12_9_cif.got.tgz:17644.got - 2010.06.28 00:19:55.
