data_PCOD8107850
_publ_section_title
;
Structure prediction by ZEFSAII (Michael W. Deem and Ramdas Pophale) SiO2 
 PCOD8107850
Probable space group: C 2/M
;
_chemical_formula_sum "Si O2"
_cell_formula_units_Z 64
_cell_length_a 25.657418
_cell_length_b 13.186540
_cell_length_c 17.157156
_cell_angle_alpha 90.000000
_cell_angle_beta 149.189430
_cell_angle_gamma 90.000000
_cell_volume 2973.238844
_symmetry_space_group_name_H-M "C 2/M"
_symmetry_group_IT_number 12
_symmetry_cell_setting 'monoclinic'
loop_
_space_group_symop_operation_xyz
x,y,z
-x,y,-z
-x,-y,-z
x,-y,z
1/2+x,1/2+y,z
1/2-x,1/2+y,-z
1/2-x,1/2-y,-z
1/2+x,1/2-y,z
loop_
_atom_site_type_symbol
_atom_site_label
_atom_site_fract_x
_atom_site_fract_y
_atom_site_fract_z
Si Si1 0.882841 0.381761 0.255860
Si Si2 0.812648 0.880915 0.078693
Si Si3 0.034438 0.610963 0.881369
Si Si4 0.232675 0.111796 0.812302
Si Si5 0.780934 0.316521 0.279818
Si Si6 0.516480 0.614175 0.262975
Si Si7 0.933079 0.308372 0.599698
Si Si8 0.044089 0.816745 0.973769
O O1 0.904407 0.500000 0.265438
O O2 0.849797 0.371846 0.303481
O O3 0.982083 0.317168 0.359720
O O4 0.791663 0.331356 0.087393
O O5 0.834300 0.860309 0.197710
O O6 0.906257 0.842230 0.147284
O O7 0.800620 0.000000 0.047647
O O8 0.006353 0.500000 0.880591
O O9 0.964522 0.625989 0.715188
O O10 0.020091 0.697551 0.928142
O O11 0.152027 0.612793 0.007107
O O12 0.210897 0.194230 0.718290
O O13 0.204818 0.000000 0.743424
O O14 0.827290 0.345195 0.424138
O O15 0.662969 0.348112 0.123405
O O16 0.540740 0.500000 0.322079
O O17 0.590665 0.693112 0.401334
O O18 0.517449 0.619923 0.170468
O O19 0.000000 0.848703 0.000000
#
# Coordination Sequence:
#
# PCOD8107850 Si02
#       8
#     8   8   8   8   8   8   8   8
#     4  11  21  34  54  84 120 152 181 218 271 333
#     4   9  16  29  53  79 104 141 185 222 257 311
#     4   9  18  35  58  83 110 142 181 225 276 333
#     4   9  17  32  55  80 108 146 188 226 266 319
#     4  11  23  35  53  84 117 147 183 228 278 327
#     4  10  21  38  58  80 109 148 192 229 267 323
#     4  11  22  34  54  85 120 151 175 216 278 340
#     4  10  22  40  62  83 105 140 190 242 279 317
#
# _framework density 21.525348000000001
#
# number of rings (size 3 to 8) (size 9 to 14) (size 15 to 20)
#    0.000    2.000    2.500    1.500    0.000    3.500 
#    0.000    2.500    0.000    5.250    0.000    0.000 
#    0.000    0.000    0.000    0.000    0.000    0.000 
#
# Total GULP energy -396637.447688 kJ/mol
# GULP energy per Si atom -12394.920240 kJ/mol
# Density = 2.147636 g / cm^3
# Si number density = 21.525348 Si / 1000 Ang^3
#
#
#
# Elastic Constant Matrix: (Units=GPa)
#
#
# Indices 1 2 3 4 5 6 
#
# 1 77.4476 -1.3181 7.8954 0.0000 -7.4356 0.0000
# 2 -1.3181 71.2044 -1.3609 0.0000 1.2063 0.0000
# 3 7.8954 -1.3609 65.0000 0.0000 -22.8053 0.0000
# 4 0.0000 0.0000 0.0000 15.5826 0.0000 -2.5405
# 5 -7.4356 1.2063 -22.8053 0.0000 18.5426 0.0000
# 6 0.0000 0.0000 0.0000 -2.5405 0.0000 17.8286
#
#
#
# Elastic Compliance Matrix: (Units=1/GPa)
#
#
# Indices 1 2 3 4 5 6 
#
# 1 0.013438 0.000157 0.000454 0.000000 0.005937 0.000000
# 2 0.000157 0.014061 -0.000041 0.000000 -0.000903 0.000000
# 3 0.000454 -0.000041 0.027078 0.000000 0.033487 0.000000
# 4 0.000000 0.000000 0.000000 0.065700 0.000000 0.009362
# 5 0.005937 -0.000903 0.033487 0.000000 0.097555 0.000000
# 6 0.000000 0.000000 0.000000 0.009362 0.000000 0.057424
#
#
# Mechanical properties :
#
#
# Convention : Reuss Voigt Hill
#
# Bulk Modulus (GPa) = 17.94812 24.89832 21.42322
# Shear Modulus (GPa) = 17.08292 24.28646 20.68469
#
# Velocity S-wave (km/s) = 2.82018 3.36262 3.10328
# Velocity P-wave (km/s) = 4.35440 5.16414 4.77646
#
# Compressibility (1/GPa) = 0.05571615
#
# Stress axis : x y z
#
# Youngs Moduli (GPa) = 74.41397 71.11630 36.93082
#
# Poissons Ratio (x) = -0.01116 -0.01676
# Poissons Ratio (y) = -0.01167 0.00153
# Poissons Ratio (z) = -0.03378 0.00295
#
# Static dielectric constant tensor:
#      x y z
#    x 3.462980 0.000000 -0.114580 
#    y 0.000000 4.028260 0.000000 
#    z -0.114580 0.000000 3.617400 
# 
# 
# High freq. dielectric constant tensor:
#      x y z
#    x 1.809110 0.000000 -0.020420 
#    y 0.000000 1.858350 0.000000 
#    z -0.020420 0.000000 1.813800 
# 
# From -- ./inp_files/290147.got.cif
#   From: 2010.06.25/outbox.cif.g09.slc.cpg/sg12_146_cif.got.tgz:290147.got - 2010.06.28 00:19:55.
