data_PCOD8107657
_publ_section_title
;
Structure prediction by ZEFSAII (Michael W. Deem and Ramdas Pophale) SiO2 
 PCOD8107657
Probable space group: C 2/M
;
_chemical_formula_sum "Si O2"
_cell_formula_units_Z 40
_cell_length_a 31.781369
_cell_length_b 7.668947
_cell_length_c 25.155737
_cell_angle_alpha 90.000000
_cell_angle_beta 161.881655
_cell_angle_gamma 90.000000
_cell_volume 1906.684737
_symmetry_space_group_name_H-M "C 2/M"
_symmetry_group_IT_number 12
_symmetry_cell_setting 'monoclinic'
loop_
_space_group_symop_operation_xyz
x,y,z
-x,y,-z
-x,-y,-z
x,-y,z
1/2+x,1/2+y,z
1/2-x,1/2+y,-z
1/2-x,1/2-y,-z
1/2+x,1/2-y,z
loop_
_atom_site_type_symbol
_atom_site_label
_atom_site_fract_x
_atom_site_fract_y
_atom_site_fract_z
Si Si1 0.872937 0.803632 0.184771
Si Si2 0.091752 0.202711 0.252238
Si Si3 0.795748 0.500000 0.288089
Si Si4 0.092022 0.304262 0.061566
Si Si5 0.400555 0.795204 0.620864
Si Si6 0.911898 0.500000 0.312964
O O1 0.877061 0.674522 0.239313
O O2 0.012069 0.799597 0.318846
O O3 0.851490 0.000000 0.180455
O O4 0.750000 0.750000 0.000000
O O5 0.245727 0.267723 0.429101
O O6 0.043794 0.241810 0.254493
O O7 0.077398 0.000000 0.221925
O O8 0.995581 0.306586 0.097290
O O9 0.717404 0.674703 0.209370
O O10 0.819318 0.500000 0.253637
O O11 0.931162 0.500000 0.484587
O O12 0.147624 0.500000 0.137630
O O13 0.000000 0.242496 0.000000
O O14 0.414690 0.000000 0.629416
#
# Coordination Sequence:
#
# PCOD8107657 Si02
#       6
#     8   8   4   8   8   4
#     4  12  25  43  70  99 135 176 224 284 344 407
#     4  10  21  37  62  96 135 176 214 274 342 411
#     4  11  27  50  74  94 141 187 232 289 336 400
#     4  11  25  42  69 102 133 176 228 275 339 413
#     4  10  21  38  62  96 137 172 217 274 344 408
#     4  11  28  50  70 104 132 183 243 284 339 403
#
# _framework density 20.978822000000001
#
# number of rings (size 3 to 8) (size 9 to 14) (size 15 to 20)
#    0.000    1.200    3.000    1.500    5.600    4.000 
#    0.000    2.000    0.000    0.000    0.000    0.000 
#    0.000    0.000    0.000    0.000    0.000    0.000 
#
# Total GULP energy -248126.241057 kJ/mol
# GULP energy per Si atom -12406.312053 kJ/mol
# Density = 2.093107 g / cm^3
# Si number density = 20.978822 Si / 1000 Ang^3
#
#
#
# Elastic Constant Matrix: (Units=GPa)
#
#
# Indices 1 2 3 4 5 6 
#
# 1 101.0916 59.7036 44.5143 0.0000 0.4299 0.0000
# 2 59.7036 154.1971 51.0488 -0.0005 3.7931 0.0007
# 3 44.5143 51.0488 64.8348 0.0000 2.2841 0.0000
# 4 0.0000 -0.0005 0.0000 19.2477 0.0000 0.6489
# 5 0.4299 3.7931 2.2841 0.0000 33.4513 0.0000
# 6 0.0000 0.0007 0.0000 0.6489 0.0000 31.7000
#
#
#
# Elastic Compliance Matrix: (Units=1/GPa)
#
#
# Indices 1 2 3 4 5 6 
#
# 1 0.015356 -0.003333 -0.007944 0.000000 0.000723 0.000000
# 2 -0.003333 0.009505 -0.005171 0.000000 -0.000682 0.000000
# 3 -0.007944 -0.005171 0.024985 0.000000 -0.001018 0.000000
# 4 0.000000 0.000000 0.000000 0.051990 0.000000 -0.001064
# 5 0.000723 -0.000682 -0.001018 0.000000 0.030032 0.000000
# 6 0.000000 0.000000 0.000000 -0.001064 0.000000 0.031568
#
#
# Mechanical properties :
#
#
# Convention : Reuss Voigt Hill
#
# Bulk Modulus (GPa) = 58.99998 70.07298 64.53648
# Shear Modulus (GPa) = 24.75494 27.87025 26.31260
#
# Velocity S-wave (km/s) = 3.43883 3.64881 3.54538
# Velocity P-wave (km/s) = 6.62964 7.15723 6.89848
#
# Compressibility (1/GPa) = 0.01694916
#
# Stress axis : x y z
#
# Youngs Moduli (GPa) = 65.12322 105.21300 40.02410
#
# Poissons Ratio (x) = 0.35072 0.31794
# Poissons Ratio (y) = 0.21709 0.20696
# Poissons Ratio (z) = 0.51731 0.54404
#
# Static dielectric constant tensor:
#      x y z
#    x 3.865060 0.000000 0.024520 
#    y 0.000000 3.961450 0.000000 
#    z 0.024520 0.000000 3.831840 
# 
# 
# High freq. dielectric constant tensor:
#      x y z
#    x 1.825850 0.000000 0.000090 
#    y 0.000000 1.835100 0.000000 
#    z 0.000090 0.000000 1.822010 
# 
# From -- ./inp_files/353144.got.cif
#   From: 2010.06.25/outbox.cif.g09.slc.cpg/sg12_177_cif.got.tgz:353144.got - 2010.06.28 00:19:55.
