data_PCOD8107962
_publ_section_title
;
Structure prediction by ZEFSAII (Michael W. Deem and Ramdas Pophale) SiO2 
 PCOD8107962
Probable space group: C 2/M
;
_chemical_formula_sum "Si O2"
_cell_formula_units_Z 64
_cell_length_a 22.090820
_cell_length_b 17.193943
_cell_length_c 20.440149
_cell_angle_alpha 90.000000
_cell_angle_beta 23.819618
_cell_angle_gamma 90.000000
_cell_volume 3135.455653
_symmetry_space_group_name_H-M "C 2/M"
_symmetry_group_IT_number 12
_symmetry_cell_setting 'monoclinic'
loop_
_space_group_symop_operation_xyz
x,y,z
-x,y,-z
-x,-y,-z
x,-y,z
1/2+x,1/2+y,z
1/2-x,1/2+y,-z
1/2-x,1/2-y,-z
1/2+x,1/2-y,z
loop_
_atom_site_type_symbol
_atom_site_label
_atom_site_fract_x
_atom_site_fract_y
_atom_site_fract_z
Si Si1 0.332849 0.673160 0.175174
Si Si2 0.326993 0.590394 0.801186
Si Si3 0.805176 0.411702 0.569708
Si Si4 0.169054 0.645922 0.833169
Si Si5 0.180694 0.335397 0.577767
Si Si6 0.155979 0.587430 0.239752
Si Si7 0.366347 0.909664 0.882799
Si Si8 0.835293 0.910493 0.544977
O O1 0.283883 0.640651 0.292551
O O2 0.326945 0.764714 0.190022
O O3 0.229629 0.647386 0.216798
O O4 0.500000 0.642313 0.000000
O O5 0.319547 0.500000 0.790270
O O6 0.228355 0.637412 0.847596
O O7 0.496073 0.621990 0.628554
O O8 0.261738 0.607077 0.937541
O O9 0.755953 0.500000 0.628337
O O10 0.760154 0.387184 0.540859
O O11 0.978970 0.399151 0.413212
O O12 0.273346 0.599172 0.679581
O O13 0.000000 0.612785 0.000000
O O14 0.250000 0.250000 0.500000
O O15 0.232874 0.364464 0.596276
O O16 0.999619 0.346146 0.758892
O O17 0.193879 0.500000 0.226130
O O18 0.213842 0.601491 0.108432
O O19 0.427030 0.000000 0.827909
O O20 0.832114 0.000000 0.528288
#
# Coordination Sequence:
#
# PCOD8107962 Si02
#       8
#     8   8   8   8   8   8   8   8
#     4  11  24  38  55  84 118 150 189 239 292 342
#     4  10  22  39  61  89 117 149 193 243 290 342
#     4  10  21  38  59  83 113 152 197 237 279 340
#     4  11  24  40  58  84 118 155 194 237 289 349
#     4  11  22  37  60  89 119 153 193 236 286 344
#     4   9  19  37  61  85 110 149 196 235 277 339
#     4   9  19  39  63  86 116 154 195 235 283 347
#     4  11  23  40  62  88 117 150 192 241 291 341
#
# _framework density 20.411707
#
# number of rings (size 3 to 8) (size 9 to 14) (size 15 to 20)
#    0.000    1.750    0.000    4.875    0.000   11.000 
#    0.000    2.500    0.000    0.000    0.000    0.000 
#    0.000    0.000    0.000    0.000    0.000    0.000 
#
# Total GULP energy -396830.344685 kJ/mol
# GULP energy per Si atom -12400.948271 kJ/mol
# Density = 2.036525 g / cm^3
# Si number density = 20.411707 Si / 1000 Ang^3
#
#
#
# Elastic Constant Matrix: (Units=GPa)
#
#
# Indices 1 2 3 4 5 6 
#
# 1 56.2351 -2.3843 16.3117 0.0065 13.1465 -0.0027
# 2 -2.3843 47.6014 18.9436 -0.0068 -1.6759 -0.0125
# 3 16.3117 18.9436 112.9976 -0.0112 20.9028 -0.0071
# 4 0.0065 -0.0068 -0.0112 29.1605 -0.0026 1.9815
# 5 13.1465 -1.6759 20.9028 -0.0026 35.2682 0.0189
# 6 -0.0027 -0.0125 -0.0071 1.9815 0.0189 2.9616
#
#
#
# Elastic Compliance Matrix: (Units=1/GPa)
#
#
# Indices 1 2 3 4 5 6 
#
# 1 0.019865 0.001572 -0.001994 -0.000010 -0.006148 0.000066
# 2 0.001572 0.023075 -0.004706 -0.000001 0.003300 0.000067
# 3 -0.001994 -0.004706 0.011041 0.000000 -0.006024 0.000043
# 4 -0.000010 -0.000001 0.000000 0.035926 0.000019 -0.024037
# 5 -0.006148 0.003300 -0.006024 0.000019 0.034373 -0.000238
# 6 0.000066 0.000067 0.000043 -0.024037 -0.000238 0.353744
#
#
# Mechanical properties :
#
#
# Convention : Reuss Voigt Hill
#
# Bulk Modulus (GPa) = 22.86967 31.39735 27.13351
# Shear Modulus (GPa) = 9.94322 25.74225 17.84274
#
# Velocity S-wave (km/s) = 2.20950 3.55512 2.95980
# Velocity P-wave (km/s) = 4.21162 5.68043 5.00025
#
# Compressibility (1/GPa) = 0.04372604
#
# Stress axis : x y z
#
# Youngs Moduli (GPa) = 50.34021 43.33610 90.57285
#
# Poissons Ratio (x) = -0.06812 0.18058
# Poissons Ratio (y) = -0.07913 0.42622
# Poissons Ratio (z) = 0.10037 0.20393
#
# Static dielectric constant tensor:
#      x y z
#    x 3.742960 -0.000040 0.099070 
#    y -0.000040 3.626360 0.000080 
#    z 0.099070 0.000080 3.871500 
# 
# 
# High freq. dielectric constant tensor:
#      x y z
#    x 1.807400 0.000000 0.013210 
#    y 0.000000 1.791510 0.000010 
#    z 0.013210 0.000010 1.802420 
# 
# From -- ./inp_files/326084.got.cif
#   From: 2010.06.25/outbox.cif.g09.slc.cpg/sg12_164_cif.got.tgz:326084.got - 2010.06.28 00:19:55.
