data_PCOD8107038
_publ_section_title
;
Structure prediction by ZEFSAII (Michael W. Deem and Ramdas Pophale) SiO2 
 PCOD8107038
Probable space group: C 2/M
;
_chemical_formula_sum "Si O2"
_cell_formula_units_Z 56
_cell_length_a 20.171075
_cell_length_b 21.730565
_cell_length_c 16.892136
_cell_angle_alpha 90.000000
_cell_angle_beta 159.943356
_cell_angle_gamma 90.000000
_cell_volume 2539.300779
_symmetry_space_group_name_H-M "C 2/M"
_symmetry_group_IT_number 12
_symmetry_cell_setting 'monoclinic'
loop_
_space_group_symop_operation_xyz
x,y,z
-x,y,-z
-x,-y,-z
x,-y,z
1/2+x,1/2+y,z
1/2-x,1/2+y,-z
1/2-x,1/2-y,-z
1/2+x,1/2-y,z
loop_
_atom_site_type_symbol
_atom_site_label
_atom_site_fract_x
_atom_site_fract_y
_atom_site_fract_z
Si Si1 0.316079 0.070380 0.239925
Si Si2 0.451176 0.246078 0.180619
Si Si3 0.977609 0.628890 0.658322
Si Si4 0.495507 0.840608 0.903745
Si Si5 0.277821 0.072532 0.936443
Si Si6 0.414434 0.623973 0.621581
Si Si7 0.398318 0.568773 0.769713
O O1 0.500000 0.079104 0.500000
O O2 0.342937 0.120153 0.200123
O O3 0.306817 0.000000 0.196595
O O4 0.106806 0.086536 0.043054
O O5 0.567830 0.197953 0.366435
O O6 0.447010 0.218523 0.086715
O O7 0.553182 0.311339 0.297117
O O8 0.250000 0.250000 0.000000
O O9 0.779315 0.607197 0.394059
O O10 0.037277 0.586858 0.800196
O O11 0.285411 0.869603 0.649591
O O12 0.500000 0.819175 0.000000
O O13 0.660007 0.893706 0.075540
O O14 0.082908 0.104430 0.750185
O O15 0.246684 0.000000 0.888837
O O16 0.406091 0.574336 0.682849
O O17 0.347178 0.500000 0.736731
#
# Coordination Sequence:
#
# PCOD8107038 Si02
#       7
#     8   8   8   8   8   8   8
#     4  10  21  37  57  87 131 169 205 267 335 385
#     4  11  21  44  69  93 127 174 226 274 326 396
#     4  11  21  36  62  92 122 165 219 270 320 392
#     4  11  26  44  66 100 140 174 215 283 347 392
#     4  11  22  40  68 100 133 174 224 273 329 407
#     4  12  22  41  71  94 126 175 230 268 330 392
#     4  11  21  35  62  95 123 164 221 270 319 393
#
# _framework density 22.053314
#
# number of rings (size 3 to 8) (size 9 to 14) (size 15 to 20)
#    0.000    1.000    7.143    2.143    0.000    2.000 
#    0.000    5.714    0.000    0.000    0.000    0.000 
#    0.000    0.000    0.000    0.000    0.000    0.000 
#
# Total GULP energy -346930.836868 kJ/mol
# GULP energy per Si atom -12390.387031 kJ/mol
# Density = 2.200312 g / cm^3
# Si number density = 22.053314 Si / 1000 Ang^3
#
#
#
# Elastic Constant Matrix: (Units=GPa)
#
#
# Indices 1 2 3 4 5 6 
#
# 1 52.3876 40.0913 17.3553 0.0000 22.7629 -0.0001
# 2 40.0913 111.8033 20.9304 0.0000 7.4120 0.0000
# 3 17.3553 20.9304 119.6450 -0.0002 21.9932 -0.0002
# 4 0.0000 0.0000 -0.0002 19.3268 -0.0001 10.7278
# 5 22.7629 7.4120 21.9932 -0.0001 33.3038 -0.0001
# 6 -0.0001 0.0000 -0.0002 10.7278 -0.0001 30.2753
#
#
#
# Elastic Compliance Matrix: (Units=1/GPa)
#
#
# Indices 1 2 3 4 5 6 
#
# 1 0.039036 -0.012566 0.001054 0.000000 -0.024580 0.000000
# 2 -0.012566 0.013329 -0.001756 0.000000 0.006781 0.000000
# 3 0.001054 -0.001756 0.009757 0.000000 -0.006773 0.000000
# 4 0.000000 0.000000 0.000000 0.064410 0.000000 -0.022823
# 5 -0.024580 0.006781 -0.006773 0.000000 0.049791 0.000000
# 6 0.000000 0.000000 0.000000 -0.022823 0.000000 0.041118
#
#
# Mechanical properties :
#
#
# Convention : Reuss Voigt Hill
#
# Bulk Modulus (GPa) = 28.09912 48.95444 38.52678
# Shear Modulus (GPa) = 19.54363 30.27843 24.91103
#
# Velocity S-wave (km/s) = 2.98014 3.70937 3.36457
# Velocity P-wave (km/s) = 4.96092 6.37121 5.70978
#
# Compressibility (1/GPa) = 0.03558831
#
# Stress axis : x y z
#
# Youngs Moduli (GPa) = 25.61752 75.02305 102.48678
#
# Poissons Ratio (x) = 0.94271 -0.10804
# Poissons Ratio (y) = 0.32190 0.17993
# Poissons Ratio (z) = -0.02700 0.13171
#
# Static dielectric constant tensor:
#      x y z
#    x 4.031820 0.000000 0.316690 
#    y 0.000000 4.553660 0.000000 
#    z 0.316690 0.000000 4.116770 
# 
# 
# High freq. dielectric constant tensor:
#      x y z
#    x 1.858880 0.000000 0.034200 
#    y 0.000000 1.856890 0.000000 
#    z 0.034200 0.000000 1.875570 
# 
# From -- ./inp_files/286053.got.cif
#   From: 2010.06.25/outbox.cif.g09.slc.cpg/sg12_144_cif.got.tgz:286053.got - 2010.06.28 00:19:55.
