data_PCOD8107609
_publ_section_title
;
Structure prediction by ZEFSAII (Michael W. Deem and Ramdas Pophale) SiO2 
 PCOD8107609
Probable space group: C 2/M
;
_chemical_formula_sum "Si O2"
_cell_formula_units_Z 40
_cell_length_a 21.026106
_cell_length_b 9.214504
_cell_length_c 27.762224
_cell_angle_alpha 90.000000
_cell_angle_beta 159.807901
_cell_angle_gamma 90.000000
_cell_volume 1856.592419
_symmetry_space_group_name_H-M "C 2/M"
_symmetry_group_IT_number 12
_symmetry_cell_setting 'monoclinic'
loop_
_space_group_symop_operation_xyz
x,y,z
-x,y,-z
-x,-y,-z
x,-y,z
1/2+x,1/2+y,z
1/2-x,1/2+y,-z
1/2-x,1/2-y,-z
1/2+x,1/2-y,z
loop_
_atom_site_type_symbol
_atom_site_label
_atom_site_fract_x
_atom_site_fract_y
_atom_site_fract_z
Si Si1 0.812051 0.336263 0.657749
Si Si2 0.565878 0.165689 0.357835
Si Si3 0.070295 0.167351 0.102065
Si Si4 0.917006 0.829346 0.333910
Si Si5 0.087115 0.833103 0.910579
O O1 0.807131 0.500000 0.674995
O O2 0.957848 0.330445 0.716709
O O3 0.605910 0.289678 0.495897
O O4 0.888695 0.226555 0.751945
O O5 0.750000 0.250000 0.500000
O O6 0.406882 0.248664 0.274457
O O7 0.578638 0.000000 0.385039
O O8 0.244404 0.267369 0.240995
O O9 0.912401 0.186668 0.030879
O O10 0.133620 0.000000 0.144856
O O11 0.000000 0.219832 0.000000
O O12 0.900519 0.000000 0.313873
O O13 0.105403 0.000000 0.909008
O O14 0.250000 0.750000 0.000000
#
# Coordination Sequence:
#
# PCOD8107609 Si02
#       5
#     8   8   8   8   8
#     4   9  20  38  60  89 127 165 202 251 311 369
#     4   9  17  31  54  86 124 163 201 246 301 362
#     4  10  24  45  65  88 123 168 209 253 317 378
#     4  10  21  37  61  94 126 161 207 259 312 367
#     4  11  25  43  65  92 124 164 209 258 312 373
#
# _framework density 21.544847000000001
#
# number of rings (size 3 to 8) (size 9 to 14) (size 15 to 20)
#    0.000    2.200    0.000    3.000    2.800    7.600 
#    0.000    4.000    0.000    0.000    0.000    0.000 
#    0.000    0.000    0.000    0.000    0.000    0.000 
#
# Total GULP energy -247918.013905 kJ/mol
# GULP energy per Si atom -12395.900695 kJ/mol
# Density = 2.149581 g / cm^3
# Si number density = 21.544847 Si / 1000 Ang^3
#
#
#
# Elastic Constant Matrix: (Units=GPa)
#
#
# Indices 1 2 3 4 5 6 
#
# 1 107.1814 57.5553 49.1597 -0.0019 4.5835 0.0019
# 2 57.5553 129.5056 51.9353 0.0330 1.0558 -0.0025
# 3 49.1597 51.9353 86.5263 -0.0219 8.3811 -0.0042
# 4 -0.0019 0.0330 -0.0219 36.1017 0.0068 5.6385
# 5 4.5835 1.0558 8.3811 0.0068 32.5437 0.0016
# 6 0.0019 -0.0025 -0.0042 5.6385 0.0016 33.8446
#
#
#
# Elastic Compliance Matrix: (Units=1/GPa)
#
#
# Indices 1 2 3 4 5 6 
#
# 1 0.014041 -0.004022 -0.005522 0.000001 -0.000425 -0.000002
# 2 -0.004022 0.011374 -0.004677 -0.000014 0.001402 0.000003
# 3 -0.005522 -0.004677 0.017857 0.000016 -0.003669 0.000000
# 4 0.000001 -0.000014 0.000016 0.028440 -0.000009 -0.004738
# 5 -0.000425 0.001402 -0.003669 -0.000009 0.031687 0.000000
# 6 -0.000002 0.000003 0.000000 -0.004738 0.000000 0.030336
#
#
# Mechanical properties :
#
#
# Convention : Reuss Voigt Hill
#
# Bulk Modulus (GPa) = 67.43593 71.16822 69.30207
# Shear Modulus (GPa) = 29.91866 31.46885 30.69375
#
# Velocity S-wave (km/s) = 3.73053 3.82595 3.77854
# Velocity P-wave (km/s) = 7.06569 7.25407 7.16050
#
# Compressibility (1/GPa) = 0.01482889
#
# Stress axis : x y z
#
# Youngs Moduli (GPa) = 71.22204 87.92353 55.99973
#
# Poissons Ratio (x) = 0.35364 0.30922
# Poissons Ratio (y) = 0.28646 0.26193
# Poissons Ratio (z) = 0.39327 0.41125
#
# Static dielectric constant tensor:
#      x y z
#    x 3.986460 -0.000030 -0.035640 
#    y -0.000030 3.916580 -0.000080 
#    z -0.035640 -0.000080 3.614160 
# 
# 
# High freq. dielectric constant tensor:
#      x y z
#    x 1.845840 0.000000 0.010430 
#    y 0.000000 1.848370 0.000000 
#    z 0.010430 0.000000 1.833200 
# 
# From -- ./inp_files/380892.got.cif
#   From: 2010.06.25/outbox.cif.g09.slc.cpg/sg12_191_cif.got.tgz:380892.got - 2010.06.28 00:19:55.
