data_PCOD8107502
_publ_section_title
;
Structure prediction by ZEFSAII (Michael W. Deem and Ramdas Pophale) SiO2 
 PCOD8107502
Probable space group: C 2/M
;
_chemical_formula_sum "Si O2"
_cell_formula_units_Z 56
_cell_length_a 13.022876
_cell_length_b 26.349795
_cell_length_c 8.973473
_cell_angle_alpha 90.000000
_cell_angle_beta 65.312512
_cell_angle_gamma 90.000000
_cell_volume 2797.803158
_symmetry_space_group_name_H-M "C 2/M"
_symmetry_group_IT_number 12
_symmetry_cell_setting 'monoclinic'
loop_
_space_group_symop_operation_xyz
x,y,z
-x,y,-z
-x,-y,-z
x,-y,z
1/2+x,1/2+y,z
1/2-x,1/2+y,-z
1/2-x,1/2-y,-z
1/2+x,1/2-y,z
loop_
_atom_site_type_symbol
_atom_site_label
_atom_site_fract_x
_atom_site_fract_y
_atom_site_fract_z
Si Si1 0.718445 0.851193 0.727816
Si Si2 0.896813 0.213614 0.464307
Si Si3 0.702743 0.805774 0.060252
Si Si4 0.388651 0.656464 0.167716
Si Si5 0.382047 0.442727 0.654295
Si Si6 0.528712 0.822280 0.638908
Si Si7 0.035028 0.054107 0.813531
O O1 0.783614 0.804103 0.614462
O O2 0.785225 0.903721 0.665272
O O3 0.601466 0.857273 0.706708
O O4 0.695738 0.838818 0.914060
O O5 0.902686 0.196844 0.289484
O O6 0.897705 0.274336 0.462496
O O7 0.000000 0.191086 0.500000
O O8 0.780314 0.834078 0.132859
O O9 0.579089 0.801583 0.205700
O O10 0.750000 0.750000 0.000000
O O11 0.376576 0.600637 0.252676
O O12 0.500000 0.658391 0.000000
O O13 0.500000 0.431784 0.500000
O O14 0.337539 0.500000 0.652824
O O15 0.415799 0.433360 0.805357
O O16 0.500000 0.851791 0.500000
O O17 0.085500 0.000000 0.718862
O O18 0.000000 0.044561 0.000000
#
# Coordination Sequence:
#
# PCOD8107502 Si02
#       7
#     8   8   8   8   8   8   8
#     4  12  22  38  61  83 115 154 193 238 292 349
#     4  11  21  36  56  82 113 149 190 233 285 342
#     4  12  24  38  56  83 117 154 196 242 287 341
#     4  11  20  33  54  81 111 146 188 232 284 341
#     4  10  21  37  60  90 119 148 187 237 293 350
#     4  11  24  40  56  80 114 154 197 238 284 342
#     4   9  17  30  49  77 110 139 172 220 277 333
#
# _framework density 20.015702999999998
#
# number of rings (size 3 to 8) (size 9 to 14) (size 15 to 20)
#    0.000    1.143    0.000    9.857    0.000    0.000 
#    0.000    0.000    0.000    3.000    0.000    0.000 
#    0.000    0.000    0.000    0.000    0.000    0.000 
#
# Total GULP energy -347061.488044 kJ/mol
# GULP energy per Si atom -12395.053144 kJ/mol
# Density = 1.997015 g / cm^3
# Si number density = 20.015703 Si / 1000 Ang^3
#
#
#
# Elastic Constant Matrix: (Units=GPa)
#
#
# Indices 1 2 3 4 5 6 
#
# 1 144.3569 55.4078 47.4768 0.0000 24.8436 0.0000
# 2 55.4078 99.1040 14.2624 0.0000 6.0975 0.0000
# 3 47.4768 14.2624 99.3212 0.0000 16.3213 0.0000
# 4 0.0000 0.0000 0.0000 16.9343 0.0000 0.4368
# 5 24.8436 6.0975 16.3213 0.0000 43.0086 0.0000
# 6 0.0000 0.0000 0.0000 0.4368 0.0000 29.2995
#
#
#
# Elastic Compliance Matrix: (Units=1/GPa)
#
#
# Indices 1 2 3 4 5 6 
#
# 1 0.010915 -0.005305 -0.003779 0.000000 -0.004119 0.000000
# 2 -0.005305 0.012919 0.000510 0.000000 0.001039 0.000000
# 3 -0.003779 0.000510 0.012216 0.000000 -0.002525 0.000000
# 4 0.000000 0.000000 0.000000 0.059075 0.000000 -0.000881
# 5 -0.004119 0.001039 -0.002525 0.000000 0.026441 0.000000
# 6 0.000000 0.000000 0.000000 -0.000881 0.000000 0.034143
#
#
# Mechanical properties :
#
#
# Convention : Reuss Voigt Hill
#
# Bulk Modulus (GPa) = 52.90318 64.11957 58.51138
# Shear Modulus (GPa) = 27.90806 32.89082 30.39944
#
# Velocity S-wave (km/s) = 3.73809 4.05810 3.90138
# Velocity P-wave (km/s) = 6.71709 7.35267 7.04206
#
# Compressibility (1/GPa) = 0.01890245
#
# Stress axis : x y z
#
# Youngs Moduli (GPa) = 91.61454 77.40417 81.85659
#
# Poissons Ratio (x) = 0.41066 0.30933
# Poissons Ratio (y) = 0.48605 -0.04175
# Poissons Ratio (z) = 0.34621 -0.03948
#
# Static dielectric constant tensor:
#      x y z
#    x 3.664300 0.000000 0.365950 
#    y 0.000000 4.067840 0.000000 
#    z 0.365950 0.000000 3.874000 
# 
# 
# High freq. dielectric constant tensor:
#      x y z
#    x 1.774320 0.000000 0.032440 
#    y 0.000000 1.763890 0.000000 
#    z 0.032440 0.000000 1.796950 
# 
# From -- ./inp_files/53205.got.cif
#   From: 2010.06.25/outbox.cif.g09.slc.cpg/sg12_27_cif.got.tgz:53205.got - 2010.06.28 00:19:55.
