data_PCOD8107785
_publ_section_title
;
Structure prediction by ZEFSAII (Michael W. Deem and Ramdas Pophale) SiO2 
 PCOD8107785
Probable space group: C 2/M
;
_chemical_formula_sum "Si O2"
_cell_formula_units_Z 56
_cell_length_a 15.168645
_cell_length_b 8.493146
_cell_length_c 27.705245
_cell_angle_alpha 90.000000
_cell_angle_beta 123.734246
_cell_angle_gamma 90.000000
_cell_volume 2968.270799
_symmetry_space_group_name_H-M "C 2/M"
_symmetry_group_IT_number 12
_symmetry_cell_setting 'monoclinic'
loop_
_space_group_symop_operation_xyz
x,y,z
-x,y,-z
-x,-y,-z
x,-y,z
1/2+x,1/2+y,z
1/2-x,1/2+y,-z
1/2-x,1/2-y,-z
1/2+x,1/2-y,z
loop_
_atom_site_type_symbol
_atom_site_label
_atom_site_fract_x
_atom_site_fract_y
_atom_site_fract_z
Si Si1 0.887334 0.685896 0.134132
Si Si2 0.907055 0.823643 0.330170
Si Si3 0.511856 0.686152 0.928120
Si Si4 0.844128 0.685183 0.945966
Si Si5 0.228822 0.321088 0.344136
Si Si6 0.995458 0.316331 0.263940
Si Si7 0.432357 0.815813 0.434974
O O1 0.864297 0.500000 0.128619
O O2 0.968900 0.727398 0.116577
O O3 0.779575 0.780435 0.093471
O O4 0.937913 0.751141 0.199166
O O5 0.782091 0.817286 0.306610
O O6 0.924404 0.715533 0.289088
O O7 0.973304 0.761908 0.397092
O O8 0.943975 0.000000 0.328880
O O9 0.504966 0.500000 0.918481
O O10 0.400682 0.750686 0.914928
O O11 0.607682 0.725886 0.993351
O O12 0.864649 0.500000 0.957785
O O13 0.221953 0.500000 0.361218
O O14 0.306984 0.225253 0.404191
O O15 0.112880 0.241091 0.306424
O O16 0.011174 0.500000 0.260807
O O17 0.500000 0.745953 0.500000
O O18 0.449851 0.000000 0.436243
#
# Coordination Sequence:
#
# PCOD8107785 Si02
#       7
#     8   8   8   8   8   8   8
#     4  11  23  38  57  84 115 149 189 233 280 335
#     4   9  19  34  55  80 109 143 181 224 273 325
#     4  11  22  39  61  86 114 146 187 235 285 338
#     4  11  22  39  61  85 114 149 186 232 286 337
#     4   8  18  35  54  78 108 143 178 223 275 322
#     4  10  21  38  57  79 110 147 186 227 273 326
#     4   9  17  32  56  83 109 141 182 226 273 325
#
# _framework density 18.866202999999999
#
# number of rings (size 3 to 8) (size 9 to 14) (size 15 to 20)
#    0.857    1.286    0.000    4.714    0.000    4.000 
#    0.000    2.143    0.000    0.000    0.000    0.000 
#    0.000    0.000    0.000    0.000    0.000    0.000 
#
# Total GULP energy -347065.464214 kJ/mol
# GULP energy per Si atom -12395.195150 kJ/mol
# Density = 1.882326 g / cm^3
# Si number density = 18.866203 Si / 1000 Ang^3
#
#
#
# Elastic Constant Matrix: (Units=GPa)
#
#
# Indices 1 2 3 4 5 6 
#
# 1 56.0013 13.6829 11.4017 0.0000 -10.6191 0.0000
# 2 13.6829 45.1144 8.8633 0.0000 1.6205 0.0000
# 3 11.4017 8.8633 60.4525 0.0000 -18.7324 0.0000
# 4 0.0000 0.0000 0.0000 21.6314 0.0000 -4.8076
# 5 -10.6191 1.6205 -18.7324 0.0000 29.5194 0.0000
# 6 0.0000 0.0000 0.0000 -4.8076 0.0000 28.0933
#
#
#
# Elastic Compliance Matrix: (Units=1/GPa)
#
#
# Indices 1 2 3 4 5 6 
#
# 1 0.021004 -0.006503 -0.000692 0.000000 0.007473 0.000000
# 2 -0.006503 0.025263 -0.004521 0.000000 -0.006595 0.000000
# 3 -0.000692 -0.004521 0.021578 0.000000 0.013692 0.000000
# 4 0.000000 0.000000 0.000000 0.048057 0.000000 0.008224
# 5 0.007473 -0.006595 0.013692 0.000000 0.045615 0.000000
# 6 0.000000 0.000000 0.000000 0.008224 0.000000 0.037003
#
#
# Mechanical properties :
#
#
# Convention : Reuss Voigt Hill
#
# Bulk Modulus (GPa) = 22.51603 25.49599 24.00601
# Shear Modulus (GPa) = 21.11876 24.35685 22.73780
#
# Velocity S-wave (km/s) = 3.34937 3.59699 3.47538
# Velocity P-wave (km/s) = 5.18827 5.54928 5.37181
#
# Compressibility (1/GPa) = 0.04441280
#
# Stress axis : x y z
#
# Youngs Moduli (GPa) = 47.61089 39.58328 46.34318
#
# Poissons Ratio (x) = 0.25740 0.03208
# Poissons Ratio (y) = 0.30960 0.20952
# Poissons Ratio (z) = 0.03296 0.17896
#
# Static dielectric constant tensor:
#      x y z
#    x 3.381780 0.000000 0.039660 
#    y 0.000000 3.361380 0.000000 
#    z 0.039660 0.000000 3.462850 
# 
# 
# High freq. dielectric constant tensor:
#      x y z
#    x 1.726480 0.000000 -0.001150 
#    y 0.000000 1.736140 0.000000 
#    z -0.001150 0.000000 1.719950 
# 
# From -- ./inp_files/360042.got.cif
#   From: 2010.06.25/outbox.cif.g09.slc.cpg/sg12_181_cif.got.tgz:360042.got - 2010.06.28 00:19:55.
