data_PCOD8107825
_publ_section_title
;
Structure prediction by ZEFSAII (Michael W. Deem and Ramdas Pophale) SiO2 
 PCOD8107825
Probable space group: C 2/M
;
_chemical_formula_sum "Si O2"
_cell_formula_units_Z 40
_cell_length_a 18.774519
_cell_length_b 15.165920
_cell_length_c 22.819824
_cell_angle_alpha 90.000000
_cell_angle_beta 16.651909
_cell_angle_gamma 90.000000
_cell_volume 1861.916048
_symmetry_space_group_name_H-M "C 2/M"
_symmetry_group_IT_number 12
_symmetry_cell_setting 'monoclinic'
loop_
_space_group_symop_operation_xyz
x,y,z
-x,y,-z
-x,-y,-z
x,-y,z
1/2+x,1/2+y,z
1/2-x,1/2+y,-z
1/2-x,1/2-y,-z
1/2+x,1/2-y,z
loop_
_atom_site_type_symbol
_atom_site_label
_atom_site_fract_x
_atom_site_fract_y
_atom_site_fract_z
Si Si1 0.141080 0.728836 0.771892
Si Si2 0.287169 0.400855 0.215165
Si Si3 0.589699 0.320847 0.231805
Si Si4 0.277395 0.596928 0.758890
Si Si5 0.154737 0.688467 0.496703
O O1 0.149659 0.831102 0.784256
O O2 0.312882 0.670443 0.680297
O O3 0.259386 0.730573 0.613820
O O4 0.865127 0.688152 0.987652
O O5 0.286818 0.500000 0.241310
O O6 0.014159 0.383077 0.403344
O O7 0.500000 0.388856 0.000000
O O8 0.563975 0.386313 0.307499
O O9 0.405355 0.355343 0.325998
O O10 0.505846 0.225527 0.322343
O O11 0.341326 0.500000 0.683042
O O12 0.000000 0.603940 0.000000
#
# Coordination Sequence:
#
# PCOD8107825 Si02
#       5
#     8   8   8   8   8
#     4  11  20  39  62  88 117 155 201 251 298 363
#     4  11  22  39  62  88 121 160 203 254 303 357
#     4  10  21  38  57  87 119 157 192 245 301 358
#     4   9  18  35  61  86 115 155 196 243 299 357
#     4  11  22  36  60  86 118 157 197 242 303 358
#
# _framework density 21.483246000000001
#
# number of rings (size 3 to 8) (size 9 to 14) (size 15 to 20)
#    0.000    1.600    4.000    1.800    0.000    2.400 
#    0.000    2.000    0.000    4.800    0.000    0.000 
#    0.000    0.000    0.000    0.000    0.000    0.000 
#
# Total GULP energy -247886.334605 kJ/mol
# GULP energy per Si atom -12394.316730 kJ/mol
# Density = 2.143435 g / cm^3
# Si number density = 21.483246 Si / 1000 Ang^3
#
#
#
# Elastic Constant Matrix: (Units=GPa)
#
#
# Indices 1 2 3 4 5 6 
#
# 1 94.1591 17.4594 34.0560 0.3016 -11.9432 -0.0442
# 2 17.4594 98.0111 8.8475 0.5267 2.4859 0.0452
# 3 34.0560 8.8475 92.3001 1.6703 -2.1786 0.2876
# 4 0.3016 0.5267 1.6703 4.5166 -0.0355 -9.9504
# 5 -11.9432 2.4859 -2.1786 -0.0355 35.9496 -0.0278
# 6 -0.0442 0.0452 0.2876 -9.9504 -0.0278 8.0770
#
#
#
# Elastic Compliance Matrix: (Units=1/GPa)
#
#
# Indices 1 2 3 4 5 6 
#
# 1 0.013185 -0.002040 -0.004549 -0.000960 0.004244 -0.000923
# 2 -0.002040 0.010627 -0.000314 0.000665 -0.001430 0.000755
# 3 -0.004549 -0.000314 0.012459 0.003096 -0.000729 0.003345
# 4 -0.000960 0.000665 0.003096 -0.128335 -0.000426 -0.158223
# 5 0.004244 -0.001430 -0.000729 -0.000426 0.029281 -0.000367
# 6 -0.000923 0.000755 0.003345 -0.158223 -0.000367 -0.071244
#
#
# Mechanical properties :
#
#
# Convention : Reuss Voigt Hill
#
# Bulk Modulus (GPa) = 44.51391 45.02179 44.76785
# Shear Modulus (GPa) = -44.35263 24.64911 -9.85176
#
# Velocity S-wave (km/s) = -4.54863 3.39095 -2.14377
# Velocity P-wave (km/s) = 2.61179 6.02774 3.84136
#
# Compressibility (1/GPa) = 0.02246489
#
# Stress axis : x y z
#
# Youngs Moduli (GPa) = 75.84479 94.09937 80.26281
#
# Poissons Ratio (x) = 0.19198 0.36510
# Poissons Ratio (y) = 0.15473 0.02521
# Poissons Ratio (z) = 0.34500 0.02955
#
# Static dielectric constant tensor:
#      x y z
#    x 4.001630 -0.000350 -0.081370 
#    y -0.000350 3.720170 0.001340 
#    z -0.081370 0.001340 4.072160 
# 
# 
# High freq. dielectric constant tensor:
#      x y z
#    x 1.836610 0.000000 -0.001990 
#    y 0.000000 1.809910 0.000160 
#    z -0.001990 0.000160 1.860120 
# 
# From -- ./inp_files/284646.got.cif
#   From: 2010.06.25/outbox.cif.g09.slc.cpg/sg12_143_cif.got.tgz:284646.got - 2010.06.28 00:19:55.
