data_PCOD8107954
_publ_section_title
;
Structure prediction by ZEFSAII (Michael W. Deem and Ramdas Pophale) SiO2 
 PCOD8107954
Probable space group: C 2/M
;
_chemical_formula_sum "Si O2"
_cell_formula_units_Z 56
_cell_length_a 32.339718
_cell_length_b 8.883827
_cell_length_c 12.410155
_cell_angle_alpha 90.000000
_cell_angle_beta 55.997816
_cell_angle_gamma 90.000000
_cell_volume 2955.810408
_symmetry_space_group_name_H-M "C 2/M"
_symmetry_group_IT_number 12
_symmetry_cell_setting 'monoclinic'
loop_
_space_group_symop_operation_xyz
x,y,z
-x,y,-z
-x,-y,-z
x,-y,z
1/2+x,1/2+y,z
1/2-x,1/2+y,-z
1/2-x,1/2-y,-z
1/2+x,1/2-y,z
loop_
_atom_site_type_symbol
_atom_site_label
_atom_site_fract_x
_atom_site_fract_y
_atom_site_fract_z
Si Si1 0.394810 0.326819 0.529139
Si Si2 0.523613 0.672564 0.077021
Si Si3 0.688093 0.177055 0.490735
Si Si4 0.003671 0.676397 0.670391
Si Si5 0.863737 0.171098 0.037035
Si Si6 0.710575 0.823841 0.698227
Si Si7 0.404431 0.326994 0.753029
O O1 0.393657 0.500000 0.495182
O O2 0.361285 0.234935 0.495293
O O3 0.450759 0.266301 0.447137
O O4 0.375940 0.307848 0.680626
O O5 0.509648 0.500000 0.125205
O O6 0.499989 0.782749 0.198882
O O7 0.500000 0.724651 0.000000
O O8 0.582916 0.692508 0.984144
O O9 0.686643 0.225937 0.618592
O O10 0.736287 0.245311 0.362133
O O11 0.690377 0.000000 0.475086
O O12 0.012616 0.500000 0.642766
O O13 0.953392 0.723480 0.682209
O O14 0.824984 0.279587 0.151837
O O15 0.844951 0.000000 0.076829
O O16 0.867543 0.217556 0.905079
O O17 0.720068 0.000000 0.687336
O O18 0.421802 0.500000 0.745976
#
# Coordination Sequence:
#
# PCOD8107954 Si02
#       7
#     8   8   8   8   8   8   8
#     4  11  22  37  59  82 110 147 190 233 276 328
#     4   9  19  35  53  78 110 148 190 228 270 326
#     4  10  22  39  58  84 113 141 180 230 279 328
#     4  11  22  34  52  81 115 150 186 228 278 327
#     4   9  18  34  57  81 108 143 183 226 276 326
#     4  10  21  38  59  83 112 144 180 222 276 337
#     4   9  20  39  58  80 110 149 192 230 271 328
#
# _framework density 18.945734999999999
#
# number of rings (size 3 to 8) (size 9 to 14) (size 15 to 20)
#    0.000    2.143    0.000    3.857    2.000    7.143 
#    0.000    0.714    0.000    0.000    0.000    0.000 
#    0.000    0.000    0.000    0.000    0.000    0.000 
#
# Total GULP energy -347250.859032 kJ/mol
# GULP energy per Si atom -12401.816394 kJ/mol
# Density = 1.890261 g / cm^3
# Si number density = 18.945735 Si / 1000 Ang^3
#
#
#
# Elastic Constant Matrix: (Units=GPa)
#
#
# Indices 1 2 3 4 5 6 
#
# 1 49.7116 23.0583 34.2186 0.0000 8.3759 0.0000
# 2 23.0583 68.3053 29.1538 0.0000 -4.9724 0.0000
# 3 34.2186 29.1538 95.3261 0.0000 -7.9767 0.0000
# 4 0.0000 0.0000 0.0000 32.2810 0.0000 -4.1927
# 5 8.3759 -4.9724 -7.9767 0.0000 21.1130 0.0000
# 6 0.0000 0.0000 0.0000 -4.1927 0.0000 29.5659
#
#
#
# Elastic Compliance Matrix: (Units=1/GPa)
#
#
# Indices 1 2 3 4 5 6 
#
# 1 0.035792 -0.008473 -0.011991 0.000000 -0.020725 0.000000
# 2 -0.008473 0.018934 -0.002163 0.000000 0.007004 0.000000
# 3 -0.011991 -0.002163 0.016328 0.000000 0.010416 0.000000
# 4 0.000000 0.000000 0.000000 0.031559 0.000000 0.004475
# 5 -0.020725 0.007004 0.010416 0.000000 0.061171 0.000000
# 6 0.000000 0.000000 0.000000 0.004475 0.000000 0.034457
#
#
# Mechanical properties :
#
#
# Convention : Reuss Voigt Hill
#
# Bulk Modulus (GPa) = 38.76095 42.91161 40.83628
# Shear Modulus (GPa) = 19.83378 25.05280 22.44329
#
# Velocity S-wave (km/s) = 3.23905 3.64035 3.44555
# Velocity P-wave (km/s) = 5.87299 6.35362 6.11802
#
# Compressibility (1/GPa) = 0.02579916
#
# Stress axis : x y z
#
# Youngs Moduli (GPa) = 27.93904 52.81639 61.24562
#
# Poissons Ratio (x) = 0.44754 0.73439
# Poissons Ratio (y) = 0.23674 0.13246
# Poissons Ratio (z) = 0.33501 0.11423
#
# Static dielectric constant tensor:
#      x y z
#    x 3.348330 0.000000 0.175770 
#    y 0.000000 3.406220 0.000000 
#    z 0.175770 0.000000 3.544450 
# 
# 
# High freq. dielectric constant tensor:
#      x y z
#    x 1.722420 0.000000 0.011570 
#    y 0.000000 1.737770 0.000000 
#    z 0.011570 0.000000 1.740140 
# 
# From -- ./inp_files/187250.got.cif
#   From: 2010.06.25/outbox.cif.g09.slc.cpg/sg12_94_cif.got.tgz:187250.got - 2010.06.28 00:19:55.
