data_PCOD8107254
_publ_section_title
;
Structure prediction by ZEFSAII (Michael W. Deem and Ramdas Pophale) SiO2 
 PCOD8107254
Probable space group: C 2/M
;
_chemical_formula_sum "Si O2"
_cell_formula_units_Z 56
_cell_length_a 16.015653
_cell_length_b 18.260133
_cell_length_c 11.077719
_cell_angle_alpha 90.000000
_cell_angle_beta 118.334402
_cell_angle_gamma 90.000000
_cell_volume 2851.521264
_symmetry_space_group_name_H-M "C 2/M"
_symmetry_group_IT_number 12
_symmetry_cell_setting 'monoclinic'
loop_
_space_group_symop_operation_xyz
x,y,z
-x,y,-z
-x,-y,-z
x,-y,z
1/2+x,1/2+y,z
1/2-x,1/2+y,-z
1/2-x,1/2-y,-z
1/2+x,1/2-y,z
loop_
_atom_site_type_symbol
_atom_site_label
_atom_site_fract_x
_atom_site_fract_y
_atom_site_fract_z
Si Si1 0.278666 0.833342 0.847470
Si Si2 0.225322 0.165703 0.199193
Si Si3 0.039758 0.324499 0.893644
Si Si4 0.892400 0.584124 0.440594
Si Si5 0.383163 0.083293 0.708812
Si Si6 0.141715 0.085957 0.908981
Si Si7 0.528081 0.327697 0.157695
O O1 0.248901 0.749803 0.807928
O O2 0.322163 0.864151 0.753003
O O3 0.189231 0.883599 0.819373
O O4 0.347825 0.835782 0.013120
O O5 0.322655 0.129511 0.307890
O O6 0.141922 0.161077 0.244607
O O7 0.187599 0.125527 0.054949
O O8 0.008572 0.248446 0.806517
O O9 0.994128 0.392782 0.790896
O O10 0.000000 0.323568 0.000000
O O11 0.889830 0.500000 0.396737
O O12 0.852482 0.591780 0.549208
O O13 0.000000 0.614186 0.500000
O O14 0.373420 0.000000 0.747176
O O15 0.029132 0.104534 0.822517
O O16 0.156368 0.000000 0.930046
O O17 0.500000 0.321509 0.000000
#
# Coordination Sequence:
#
# PCOD8107254 Si02
#       7
#     8   8   8   8   8   8   8
#     4  11  21  36  59  89 123 154 196 244 310 360
#     4  11  21  39  63  84 116 163 201 246 301 353
#     4   9  16  33  55  83 118 150 185 240 290 351
#     4  10  24  42  59  87 119 155 206 254 293 349
#     4  10  21  37  59  83 122 163 195 245 301 358
#     4  11  23  34  57  93 124 154 195 249 305 365
#     4   9  17  35  55  84 116 150 191 243 295 350
#
# _framework density 19.638641
#
# number of rings (size 3 to 8) (size 9 to 14) (size 15 to 20)
#    0.000    1.857    5.714    1.286    2.000    6.857 
#    0.000    0.000    0.000    0.000    0.000    3.000 
#    0.000    0.000    0.000    0.000    0.000    0.000 
#
# Total GULP energy -347034.959405 kJ/mol
# GULP energy per Si atom -12394.105693 kJ/mol
# Density = 1.959394 g / cm^3
# Si number density = 19.638641 Si / 1000 Ang^3
#
#
#
# Elastic Constant Matrix: (Units=GPa)
#
#
# Indices 1 2 3 4 5 6 
#
# 1 96.6076 36.6229 13.1998 0.0000 8.2573 0.0000
# 2 36.6229 130.4184 22.3923 0.0000 -5.3121 0.0000
# 3 13.1998 22.3923 39.0256 0.0000 4.3458 0.0000
# 4 0.0000 0.0000 0.0000 20.4214 0.0000 8.0488
# 5 8.2573 -5.3121 4.3458 0.0000 22.0795 0.0000
# 6 0.0000 0.0000 0.0000 8.0488 0.0000 26.1958
#
#
#
# Elastic Compliance Matrix: (Units=1/GPa)
#
#
# Indices 1 2 3 4 5 6 
#
# 1 0.012291 -0.003374 -0.001655 0.000000 -0.005083 0.000000
# 2 -0.003374 0.009641 -0.004897 0.000000 0.004545 0.000000
# 3 -0.001655 -0.004897 0.029707 0.000000 -0.006406 0.000000
# 4 0.000000 0.000000 0.000000 0.055715 0.000000 -0.017119
# 5 -0.005083 0.004545 -0.006406 0.000000 0.049546 0.000000
# 6 0.000000 0.000000 0.000000 -0.017119 0.000000 0.043434
#
#
# Mechanical properties :
#
#
# Convention : Reuss Voigt Hill
#
# Bulk Modulus (GPa) = 31.45965 45.60906 38.53435
# Shear Modulus (GPa) = 21.66546 26.66178 24.16362
#
# Velocity S-wave (km/s) = 3.32506 3.68858 3.51153
# Velocity P-wave (km/s) = 5.54936 6.43548 6.00878
#
# Compressibility (1/GPa) = 0.03178675
#
# Stress axis : x y z
#
# Youngs Moduli (GPa) = 81.36123 103.72329 33.66202
#
# Poissons Ratio (x) = 0.34999 0.05572
# Poissons Ratio (y) = 0.27453 0.16483
# Poissons Ratio (z) = 0.13466 0.50790
#
# Static dielectric constant tensor:
#      x y z
#    x 4.097570 0.000000 0.297900 
#    y 0.000000 3.716120 0.000000 
#    z 0.297900 0.000000 3.346040 
# 
# 
# High freq. dielectric constant tensor:
#      x y z
#    x 1.775230 0.000000 -0.000920 
#    y 0.000000 1.771120 0.000000 
#    z -0.000920 0.000000 1.715780 
# 
# From -- ./inp_files/145678.got.cif
#   From: 2010.06.25/outbox.cif.g09.slc.cpg/sg12_73_cif.got.tgz:145678.got - 2010.06.28 00:19:55.
