data_PCOD8107150
_publ_section_title
;
Structure prediction by ZEFSAII (Michael W. Deem and Ramdas Pophale) SiO2 
 PCOD8107150
Probable space group: C 2/M
;
_chemical_formula_sum "Si O2"
_cell_formula_units_Z 64
_cell_length_a 20.014801
_cell_length_b 9.140061
_cell_length_c 23.960723
_cell_angle_alpha 90.000000
_cell_angle_beta 52.613040
_cell_angle_gamma 90.000000
_cell_volume 3482.756165
_symmetry_space_group_name_H-M "C 2/M"
_symmetry_group_IT_number 12
_symmetry_cell_setting 'monoclinic'
loop_
_space_group_symop_operation_xyz
x,y,z
-x,y,-z
-x,-y,-z
x,-y,z
1/2+x,1/2+y,z
1/2-x,1/2+y,-z
1/2-x,1/2-y,-z
1/2+x,1/2-y,z
loop_
_atom_site_type_symbol
_atom_site_label
_atom_site_fract_x
_atom_site_fract_y
_atom_site_fract_z
Si Si1 0.094037 0.170504 0.232377
Si Si2 0.688607 0.831920 0.489745
Si Si3 0.560806 0.167617 0.643994
Si Si4 0.232617 0.173382 0.846757
Si Si5 0.685555 0.668505 0.993696
Si Si6 0.216767 0.331937 0.641324
Si Si7 0.359512 0.170135 0.203973
Si Si8 0.027014 0.167704 0.144522
O O1 0.176855 0.255956 0.208789
O O2 0.075708 0.202555 0.176997
O O3 0.018373 0.226975 0.309296
O O4 0.107967 0.000000 0.237041
O O5 0.750000 0.750000 0.500000
O O6 0.594753 0.815794 0.562905
O O7 0.702198 0.760128 0.421656
O O8 0.715113 0.000000 0.472784
O O9 0.632004 0.217255 0.652143
O O10 0.534350 0.000000 0.669439
O O11 0.194990 0.221585 0.925427
O O12 0.167975 0.233890 0.834239
O O13 0.239746 0.000000 0.836991
O O14 0.709278 0.500000 0.987247
O O15 0.750000 0.750000 0.000000
O O16 0.590225 0.697543 0.061333
O O17 0.234913 0.500000 0.618241
O O18 0.206185 0.304195 0.712376
O O19 0.450853 0.220941 0.177547
O O20 0.363798 0.000000 0.185418
O O21 0.994596 0.000000 0.160644
#
# Coordination Sequence:
#
# PCOD8107150 Si02
#       8
#     8   8   8   8   8   8   8   8
#     4  11  21  34  57  85 112 145 187 233 276 328
#     4   9  17  28  46  75 110 145 181 225 274 324
#     4   9  17  31  50  78 113 144 181 227 276 327
#     4  11  24  40  59  82 112 150 186 228 284 338
#     4  10  21  38  60  84 112 145 183 231 281 332
#     4   9  18  32  51  76 109 147 183 225 276 327
#     4  11  23  39  58  82 115 151 189 232 277 331
#     4  10  21  37  58  85 113 144 186 232 279 332
#
# _framework density 18.376249999999999
#
# number of rings (size 3 to 8) (size 9 to 14) (size 15 to 20)
#    0.000    2.000    2.500    2.250    0.000    5.500 
#    0.000    2.500    0.000    0.750    0.000    5.250 
#    0.000    0.000    0.000    0.000    0.000    0.000 
#
# Total GULP energy -396815.923202 kJ/mol
# GULP energy per Si atom -12400.497600 kJ/mol
# Density = 1.833442 g / cm^3
# Si number density = 18.376250 Si / 1000 Ang^3
#
#
#
# Elastic Constant Matrix: (Units=GPa)
#
#
# Indices 1 2 3 4 5 6 
#
# 1 43.7389 26.1856 11.8541 -0.0001 3.9749 -0.0006
# 2 26.1856 86.7544 43.7002 -0.0002 -0.4585 -0.0009
# 3 11.8541 43.7002 97.3973 0.0000 -1.1267 -0.0003
# 4 -0.0001 -0.0002 0.0000 32.7292 0.0000 -1.3769
# 5 3.9749 -0.4585 -1.1267 0.0000 20.1531 -0.0001
# 6 -0.0006 -0.0009 -0.0003 -1.3769 -0.0001 30.7825
#
#
#
# Elastic Compliance Matrix: (Units=1/GPa)
#
#
# Indices 1 2 3 4 5 6 
#
# 1 0.028590 -0.008881 0.000438 0.000000 -0.005816 0.000000
# 2 -0.008881 0.017651 -0.006818 0.000000 0.001772 0.000000
# 3 0.000438 -0.006818 0.013279 0.000000 0.000501 0.000000
# 4 0.000000 0.000000 0.000000 0.030611 0.000000 0.001369
# 5 -0.005816 0.001772 0.000501 0.000000 0.050836 0.000000
# 6 0.000000 0.000000 0.000000 0.001369 0.000000 0.032547
#
#
# Mechanical properties :
#
#
# Convention : Reuss Voigt Hill
#
# Bulk Modulus (GPa) = 34.48616 43.48563 38.98590
# Shear Modulus (GPa) = 23.39704 26.47635 24.93669
#
# Velocity S-wave (km/s) = 3.57209 3.79989 3.68775
# Velocity P-wave (km/s) = 5.98503 6.55497 6.27647
#
# Compressibility (1/GPa) = 0.02899714
#
# Stress axis : x y z
#
# Youngs Moduli (GPa) = 34.97786 56.65336 75.30669
#
# Poissons Ratio (x) = 0.50311 -0.03296
# Poissons Ratio (y) = 0.31062 0.51347
# Poissons Ratio (z) = -0.01531 0.38629
#
# Static dielectric constant tensor:
#      x y z
#    x 3.053890 0.000000 0.080590 
#    y 0.000000 3.494130 0.000000 
#    z 0.080590 0.000000 3.905690 
# 
# 
# High freq. dielectric constant tensor:
#      x y z
#    x 1.673160 0.000000 -0.001410 
#    y 0.000000 1.721100 0.000000 
#    z -0.001410 0.000000 1.729370 
# 
# From -- ./inp_files/345961.got.cif
#   From: 2010.06.25/outbox.cif.g09.slc.cpg/sg12_173_cif.got.tgz:345961.got - 2010.06.28 00:19:55.
