data_PCOD8107045
_publ_section_title
;
Structure prediction by ZEFSAII (Michael W. Deem and Ramdas Pophale) SiO2 
 PCOD8107045
Probable space group: C 2/M
;
_chemical_formula_sum "Si O2"
_cell_formula_units_Z 64
_cell_length_a 17.003852
_cell_length_b 17.519491
_cell_length_c 16.004252
_cell_angle_alpha 90.000000
_cell_angle_beta 135.973090
_cell_angle_gamma 90.000000
_cell_volume 3313.496965
_symmetry_space_group_name_H-M "C 2/M"
_symmetry_group_IT_number 12
_symmetry_cell_setting 'monoclinic'
loop_
_space_group_symop_operation_xyz
x,y,z
-x,y,-z
-x,-y,-z
x,-y,z
1/2+x,1/2+y,z
1/2-x,1/2+y,-z
1/2-x,1/2-y,-z
1/2+x,1/2-y,z
loop_
_atom_site_type_symbol
_atom_site_label
_atom_site_fract_x
_atom_site_fract_y
_atom_site_fract_z
Si Si1 0.545449 0.677598 0.117955
Si Si2 0.625254 0.222782 0.923501
Si Si3 0.941901 0.417801 0.542382
Si Si4 0.760260 0.298656 0.749693
Si Si5 0.178161 0.806559 0.502929
Si Si6 0.380546 0.088795 0.954894
Si Si7 0.187419 0.089360 0.361676
Si Si8 0.049353 0.726901 0.682807
O O1 0.429428 0.716252 0.057520
O O2 0.632176 0.744457 0.161291
O O3 0.598850 0.622112 0.227193
O O4 0.500000 0.633249 0.000000
O O5 0.555330 0.232678 0.785896
O O6 0.750000 0.250000 0.000000
O O7 0.619712 0.137355 0.958730
O O8 0.933618 0.500000 0.583204
O O9 0.814757 0.383960 0.434376
O O10 0.000000 0.432070 0.500000
O O11 0.025068 0.362492 0.654479
O O12 0.740238 0.322189 0.638015
O O13 0.784708 0.375926 0.820363
O O14 0.657167 0.253457 0.713069
O O15 0.250000 0.750000 0.500000
O O16 0.161770 0.883651 0.436657
O O17 0.055604 0.774635 0.432374
O O18 0.351102 0.000000 0.952109
O O19 0.500000 0.094859 0.000000
O O20 0.172528 0.000000 0.347024
#
# Coordination Sequence:
#
# PCOD8107045 Si02
#       8
#     8   8   8   8   8   8   8   8
#     4  12  21  40  65  88 125 166 216 262 311 387
#     4  12  22  40  64  95 124 168 212 265 316 381
#     4  10  21  37  57  89 129 161 200 261 320 369
#     4  12  22  40  65  95 124 168 218 261 320 387
#     4  12  22  38  63  92 124 167 212 264 318 390
#     4  11  24  43  67  99 135 171 216 275 332 381
#     4  11  24  40  61  94 130 166 209 268 325 379
#     4  12  22  37  65  93 122 163 219 260 311 383
#
# _framework density 19.314941000000001
#
# number of rings (size 3 to 8) (size 9 to 14) (size 15 to 20)
#    0.000    0.500    7.500    1.875    0.000    1.250 
#    0.000    5.000    0.000    4.500    0.000    0.000 
#    0.000    0.000    0.000    0.000    0.000    0.000 
#
# Total GULP energy -396655.566217 kJ/mol
# GULP energy per Si atom -12395.486444 kJ/mol
# Density = 1.927098 g / cm^3
# Si number density = 19.314941 Si / 1000 Ang^3
#
#
#
# Elastic Constant Matrix: (Units=GPa)
#
#
# Indices 1 2 3 4 5 6 
#
# 1 99.7334 33.5270 31.4136 0.0000 10.7201 0.0000
# 2 33.5270 98.9878 36.4774 0.0000 3.3197 0.0000
# 3 31.4136 36.4774 117.8875 0.0000 -15.3024 0.0000
# 4 0.0000 0.0000 0.0000 33.2754 0.0000 -1.0370
# 5 10.7201 3.3197 -15.3024 0.0000 42.9895 0.0000
# 6 0.0000 0.0000 0.0000 -1.0370 0.0000 27.8245
#
#
#
# Elastic Compliance Matrix: (Units=1/GPa)
#
#
# Indices 1 2 3 4 5 6 
#
# 1 0.012353 -0.002998 -0.002866 0.000000 -0.003869 0.000000
# 2 -0.002998 0.012339 -0.003193 0.000000 -0.001342 0.000000
# 3 -0.002866 -0.003193 0.010861 0.000000 0.004828 0.000000
# 4 0.000000 0.000000 0.000000 0.030087 0.000000 0.001121
# 5 -0.003869 -0.001342 0.004828 0.000000 0.026048 0.000000
# 6 0.000000 0.000000 0.000000 0.001121 0.000000 0.035981
#
#
# Mechanical properties :
#
#
# Convention : Reuss Voigt Hill
#
# Bulk Modulus (GPa) = 57.34502 57.71609 57.53056
# Shear Modulus (GPa) = 32.98165 35.16393 34.07279
#
# Velocity S-wave (km/s) = 4.13676 4.27143 4.20463
# Velocity P-wave (km/s) = 7.25058 7.36704 7.30904
#
# Compressibility (1/GPa) = 0.01743830
#
# Stress axis : x y z
#
# Youngs Moduli (GPa) = 80.95005 81.04064 92.07043
#
# Poissons Ratio (x) = 0.24296 0.26391
# Poissons Ratio (y) = 0.24269 0.29402
# Poissons Ratio (z) = 0.23203 0.25880
#
# Static dielectric constant tensor:
#      x y z
#    x 3.666410 0.000000 -0.055070 
#    y 0.000000 3.788210 0.000000 
#    z -0.055070 0.000000 3.780570 
# 
# 
# High freq. dielectric constant tensor:
#      x y z
#    x 1.760910 0.000000 0.000580 
#    y 0.000000 1.738990 0.000000 
#    z 0.000580 0.000000 1.763850 
# 
# From -- ./inp_files/216833.got.cif
#   From: 2010.06.25/outbox.cif.g09.slc.cpg/sg12_109_cif.got.tgz:216833.got - 2010.06.28 00:19:55.
