data_PCOD8107633
_publ_section_title
;
Structure prediction by ZEFSAII (Michael W. Deem and Ramdas Pophale) SiO2 
 PCOD8107633
Probable space group: C 2/M
;
_chemical_formula_sum "Si O2"
_cell_formula_units_Z 56
_cell_length_a 11.357939
_cell_length_b 17.887459
_cell_length_c 18.069324
_cell_angle_alpha 90.000000
_cell_angle_beta 131.617650
_cell_angle_gamma 90.000000
_cell_volume 2744.451902
_symmetry_space_group_name_H-M "C 2/M"
_symmetry_group_IT_number 12
_symmetry_cell_setting 'monoclinic'
loop_
_space_group_symop_operation_xyz
x,y,z
-x,y,-z
-x,-y,-z
x,-y,z
1/2+x,1/2+y,z
1/2-x,1/2+y,-z
1/2-x,1/2-y,-z
1/2+x,1/2-y,z
loop_
_atom_site_type_symbol
_atom_site_label
_atom_site_fract_x
_atom_site_fract_y
_atom_site_fract_z
Si Si1 0.102253 0.314067 0.693458
Si Si2 0.035058 0.913120 0.335726
Si Si3 0.393440 0.336823 0.023498
Si Si4 0.298512 0.089496 0.565148
Si Si5 0.776186 0.832921 0.314164
Si Si6 0.887369 0.915716 0.792623
Si Si7 0.932499 0.292917 0.156057
O O1 0.143825 0.250222 0.649897
O O2 0.249475 0.367051 0.770101
O O3 0.065376 0.272762 0.755720
O O4 0.958038 0.367413 0.608726
O O5 0.179226 0.893591 0.449434
O O6 0.071585 0.880221 0.270047
O O7 0.871826 0.881917 0.296659
O O8 0.008947 0.000000 0.317157
O O9 0.465569 0.412852 0.088361
O O10 0.408631 0.280094 0.097969
O O11 0.500000 0.307524 0.000000
O O12 0.212454 0.349002 0.923708
O O13 0.220977 0.126703 0.605214
O O14 0.326778 0.000000 0.588165
O O15 0.599330 0.831080 0.207445
O O16 0.828111 0.000000 0.759721
#
# Coordination Sequence:
#
# PCOD8107633 Si02
#       7
#     8   8   8   8   8   8   8
#     4  11  22  40  61  95 127 161 207 262 313 366
#     4  10  23  43  63  85 124 172 207 249 316 378
#     4  11  20  38  62  90 119 160 205 249 310 374
#     4  10  23  43  65  90 125 173 215 255 313 380
#     4  11  21  37  65  94 125 158 210 264 304 368
#     4  11  23  40  61  87 124 165 205 256 313 374
#     4  10  21  37  62  90 125 161 198 251 319 375
#
# _framework density 20.404803000000001
#
# number of rings (size 3 to 8) (size 9 to 14) (size 15 to 20)
#    0.000    1.429    2.857    2.143    2.000    3.714 
#    2.571    3.571    0.000    1.714    0.000    0.000 
#    0.000    0.000    0.000    0.000    0.000    0.000 
#
# Total GULP energy -347096.326607 kJ/mol
# GULP energy per Si atom -12396.297379 kJ/mol
# Density = 2.035836 g / cm^3
# Si number density = 20.404803 Si / 1000 Ang^3
#
#
#
# Elastic Constant Matrix: (Units=GPa)
#
#
# Indices 1 2 3 4 5 6 
#
# 1 117.9733 47.3143 51.2051 0.0000 18.5576 0.0000
# 2 47.3143 67.2712 36.3697 0.0000 3.7391 0.0000
# 3 51.2051 36.3697 90.6449 0.0000 11.1762 0.0000
# 4 0.0000 0.0000 0.0000 31.8488 0.0000 -0.1732
# 5 18.5576 3.7391 11.1762 0.0000 31.1746 0.0000
# 6 0.0000 0.0000 0.0000 -0.1732 0.0000 29.6119
#
#
#
# Elastic Compliance Matrix: (Units=1/GPa)
#
#
# Indices 1 2 3 4 5 6 
#
# 1 0.014266 -0.007335 -0.004370 0.000000 -0.006046 0.000000
# 2 -0.007335 0.022761 -0.005431 0.000000 0.003583 0.000000
# 3 -0.004370 -0.005431 0.015985 0.000000 -0.002478 0.000000
# 4 0.000000 0.000000 0.000000 0.031399 0.000000 0.000184
# 5 -0.006046 0.003583 -0.002478 0.000000 0.036135 0.000000
# 6 0.000000 0.000000 0.000000 0.000184 0.000000 0.033771
#
#
# Mechanical properties :
#
#
# Convention : Reuss Voigt Hill
#
# Bulk Modulus (GPa) = 53.36120 60.62973 56.99546
# Shear Modulus (GPa) = 25.66236 27.92708 26.79472
#
# Velocity S-wave (km/s) = 3.55020 3.70354 3.62768
# Velocity P-wave (km/s) = 6.55845 6.93298 6.74832
#
# Compressibility (1/GPa) = 0.01874021
#
# Stress axis : x y z
#
# Youngs Moduli (GPa) = 70.09525 43.93441 62.55694
#
# Poissons Ratio (x) = 0.32226 0.27340
# Poissons Ratio (y) = 0.51416 0.33973
# Poissons Ratio (z) = 0.30635 0.23860
#
# Static dielectric constant tensor:
#      x y z
#    x 3.960610 0.000000 0.046080 
#    y 0.000000 3.648520 0.000000 
#    z 0.046080 0.000000 3.910070 
# 
# 
# High freq. dielectric constant tensor:
#      x y z
#    x 1.813340 0.000000 0.001290 
#    y 0.000000 1.786320 0.000000 
#    z 0.001290 0.000000 1.800810 
# 
# From -- ./inp_files/264323.got.cif
#   From: 2010.06.25/outbox.cif.g09.slc.cpg/sg12_133_cif.got.tgz:264323.got - 2010.06.28 00:19:55.
