data_PCOD8107394
_publ_section_title
;
Structure prediction by ZEFSAII (Michael W. Deem and Ramdas Pophale) SiO2 
 PCOD8107394
Probable space group: C 2/M
;
_chemical_formula_sum "Si O2"
_cell_formula_units_Z 40
_cell_length_a 21.493487
_cell_length_b 18.224765
_cell_length_c 15.220301
_cell_angle_alpha 90.000000
_cell_angle_beta 19.357385
_cell_angle_gamma 90.000000
_cell_volume 1976.161913
_symmetry_space_group_name_H-M "C 2/M"
_symmetry_group_IT_number 12
_symmetry_cell_setting 'monoclinic'
loop_
_space_group_symop_operation_xyz
x,y,z
-x,y,-z
-x,-y,-z
x,-y,z
1/2+x,1/2+y,z
1/2-x,1/2+y,-z
1/2-x,1/2-y,-z
1/2+x,1/2-y,z
loop_
_atom_site_type_symbol
_atom_site_label
_atom_site_fract_x
_atom_site_fract_y
_atom_site_fract_z
Si Si1 0.538458 0.584598 0.824681
Si Si2 0.963841 0.915173 0.373517
Si Si3 0.232625 0.344893 0.329995
Si Si4 0.677513 0.828431 0.063445
Si Si5 0.302088 0.696421 0.716081
O O1 0.584616 0.500000 0.784859
O O2 0.582438 0.602889 0.665619
O O3 0.664877 0.639189 0.714286
O O4 0.318933 0.600317 0.141139
O O5 0.819908 0.872992 0.628142
O O6 0.941861 0.000000 0.424465
O O7 0.175551 0.891700 0.110870
O O8 0.272150 0.262578 0.244608
O O9 0.011017 0.354718 0.637781
O O10 0.750000 0.750000 0.000000
O O11 0.650384 0.822193 0.993998
O O12 0.500000 0.715817 0.500000
#
# Coordination Sequence:
#
# PCOD8107394 Si02
#       5
#     8   8   8   8   8
#     4  10  24  43  60  89 125 161 207 250 299 367
#     4  10  22  40  61  86 124 163 199 249 306 361
#     4  11  21  38  65  84 125 158 198 260 305 347
#     4  11  21  38  61  93 123 153 206 255 302 363
#     4  10  21  37  59  90 123 153 198 253 297 366
#
# _framework density 20.241256
#
# number of rings (size 3 to 8) (size 9 to 14) (size 15 to 20)
#    0.000    1.600    4.000    2.400    0.000    6.000 
#    3.600    2.000    0.000    2.400    0.000    0.000 
#    0.000    0.000    0.000    0.000    0.000    0.000 
#
# Total GULP energy -247945.956512 kJ/mol
# GULP energy per Si atom -12397.297826 kJ/mol
# Density = 2.019519 g / cm^3
# Si number density = 20.241256 Si / 1000 Ang^3
#
#
#
# Elastic Constant Matrix: (Units=GPa)
#
#
# Indices 1 2 3 4 5 6 
#
# 1 126.8520 85.7853 28.1230 -0.0179 25.9169 -0.0050
# 2 85.7853 118.2959 25.0868 0.0185 11.3865 -0.0247
# 3 28.1230 25.0868 62.2413 -0.0882 12.7212 0.0378
# 4 -0.0179 0.0185 -0.0882 31.6796 -0.0078 3.5271
# 5 25.9169 11.3865 12.7212 -0.0078 28.3715 0.0171
# 6 -0.0050 -0.0247 0.0378 3.5271 0.0171 40.9927
#
#
#
# Elastic Compliance Matrix: (Units=1/GPa)
#
#
# Indices 1 2 3 4 5 6 
#
# 1 0.018865 -0.012301 -0.001159 0.000012 -0.011776 0.000000
# 2 -0.012301 0.017396 -0.002558 -0.000024 0.005402 0.000011
# 3 -0.001159 -0.002558 0.018930 0.000054 -0.006403 -0.000021
# 4 0.000012 -0.000024 0.000054 0.031872 -0.000015 -0.002742
# 5 -0.011776 0.005402 -0.006403 -0.000015 0.046707 -0.000010
# 6 0.000000 0.000011 -0.000021 -0.002742 -0.000010 0.024631
#
#
# Mechanical properties :
#
#
# Convention : Reuss Voigt Hill
#
# Bulk Modulus (GPa) = 43.18636 65.04216 54.11426
# Shear Modulus (GPa) = 25.23293 31.43502 28.33398
#
# Velocity S-wave (km/s) = 3.53457 3.94511 3.74547
# Velocity P-wave (km/s) = 6.16763 7.27702 6.74517
#
# Compressibility (1/GPa) = 0.02315546
#
# Stress axis : x y z
#
# Youngs Moduli (GPa) = 53.00855 57.48357 52.82701
#
# Poissons Ratio (x) = 0.70711 0.06122
# Poissons Ratio (y) = 0.65206 0.13512
# Poissons Ratio (z) = 0.06143 0.14703
#
# Static dielectric constant tensor:
#      x y z
#    x 3.835190 -0.000060 0.431970 
#    y -0.000060 3.609920 -0.000030 
#    z 0.431970 -0.000030 4.115170 
# 
# 
# High freq. dielectric constant tensor:
#      x y z
#    x 1.796480 0.000000 0.029510 
#    y 0.000000 1.788780 0.000000 
#    z 0.029510 0.000000 1.780280 
# 
# From -- ./inp_files/87640.got.cif
#   From: 2010.06.25/outbox.cif.g09.slc.cpg/sg12_44_cif.got.tgz:87640.got - 2010.06.28 00:19:55.
