data_PCOD8107813
_publ_section_title
;
Structure prediction by ZEFSAII (Michael W. Deem and Ramdas Pophale) SiO2 
 PCOD8107813
Probable space group: C 2/M
;
_chemical_formula_sum "Si O2"
_cell_formula_units_Z 44
_cell_length_a 8.720399
_cell_length_b 18.369934
_cell_length_c 19.071067
_cell_angle_alpha 90.000000
_cell_angle_beta 130.386504
_cell_angle_gamma 90.000000
_cell_volume 2327.007271
_symmetry_space_group_name_H-M "C 2/M"
_symmetry_group_IT_number 12
_symmetry_cell_setting 'monoclinic'
loop_
_space_group_symop_operation_xyz
x,y,z
-x,y,-z
-x,-y,-z
x,-y,z
1/2+x,1/2+y,z
1/2-x,1/2+y,-z
1/2-x,1/2-y,-z
1/2+x,1/2-y,z
loop_
_atom_site_type_symbol
_atom_site_label
_atom_site_fract_x
_atom_site_fract_y
_atom_site_fract_z
Si Si1 0.920664 0.803669 0.126570
Si Si2 0.445907 0.585544 0.251933
Si Si3 0.743977 0.698852 0.713988
Si Si4 0.500000 0.727740 0.000000
Si Si5 0.867801 0.289014 0.598687
Si Si6 0.401637 0.921004 0.396839
O O1 0.930102 0.879478 0.170296
O O2 0.988025 0.821172 0.066658
O O3 0.057139 0.739080 0.199655
O O4 0.691622 0.779378 0.061446
O O5 0.402247 0.500000 0.234669
O O6 0.282289 0.619342 0.257999
O O7 0.673387 0.604458 0.343408
O O8 0.726482 0.695531 0.623950
O O9 0.546099 0.740075 0.681850
O O10 0.750000 0.250000 0.500000
O O11 0.967190 0.365157 0.608119
O O12 0.500000 0.929567 0.500000
O O13 0.402977 0.000000 0.358556
#
# Coordination Sequence:
#
# PCOD8107813 Si02
#       6
#     8   8   8   4   8   8
#     4  11  20  40  62  93 112 156 197 253 297 378
#     4  11  23  40  62  91 128 163 196 251 312 361
#     4  12  21  37  61  86 121 157 205 248 293 363
#     4  10  22  36  70  88 116 148 208 246 316 360
#     4  12  22  34  58  91 121 158 212 255 289 347
#     4  10  21  38  57  82 123 168 202 243 302 353
#
# _framework density 18.908407
#
# number of rings (size 3 to 8) (size 9 to 14) (size 15 to 20)
#    0.000    0.909    5.455    2.727    0.000    0.727 
#    0.000    0.909    0.000    5.455    0.000    0.000 
#    0.000    0.000    0.000    0.000    0.000    0.000 
#
# Total GULP energy -272699.899808 kJ/mol
# GULP energy per Si atom -12395.449991 kJ/mol
# Density = 1.886537 g / cm^3
# Si number density = 18.908407 Si / 1000 Ang^3
#
#
#
# Elastic Constant Matrix: (Units=GPa)
#
#
# Indices 1 2 3 4 5 6 
#
# 1 117.7517 60.7854 53.5446 0.0000 -20.7751 0.0000
# 2 60.7854 116.6041 44.8283 0.0000 -15.2993 0.0000
# 3 53.5446 44.8283 109.2946 0.0000 -9.9927 0.0000
# 4 0.0000 0.0000 0.0000 36.1250 0.0000 1.2542
# 5 -20.7751 -15.2993 -9.9927 0.0000 38.8798 0.0000
# 6 0.0000 0.0000 0.0000 1.2542 0.0000 36.8725
#
#
#
# Elastic Compliance Matrix: (Units=1/GPa)
#
#
# Indices 1 2 3 4 5 6 
#
# 1 0.013774 -0.004954 -0.004323 0.000000 0.004300 0.000000
# 2 -0.004954 0.012318 -0.002482 0.000000 0.001562 0.000000
# 3 -0.004323 -0.002482 0.012274 0.000000 -0.000132 0.000000
# 4 0.000000 0.000000 0.000000 0.027714 0.000000 -0.000943
# 5 0.004300 0.001562 -0.000132 0.000000 0.028598 0.000000
# 6 0.000000 0.000000 0.000000 -0.000943 0.000000 0.027153
#
#
# Mechanical properties :
#
#
# Convention : Reuss Voigt Hill
#
# Bulk Modulus (GPa) = 67.35648 73.55189 70.45419
# Shear Modulus (GPa) = 33.26691 34.67492 33.97092
#
# Velocity S-wave (km/s) = 4.19904 4.28698 4.24323
# Velocity P-wave (km/s) = 7.69474 7.96792 7.83252
#
# Compressibility (1/GPa) = 0.01484638
#
# Stress axis : x y z
#
# Youngs Moduli (GPa) = 72.59867 81.18196 81.47618
#
# Poissons Ratio (x) = 0.40221 0.35222
# Poissons Ratio (y) = 0.35968 0.20225
# Poissons Ratio (z) = 0.31384 0.20152
#
# Static dielectric constant tensor:
#      x y z
#    x 3.589450 0.000000 -0.016310 
#    y 0.000000 4.086600 0.000000 
#    z -0.016310 0.000000 3.647540 
# 
# 
# High freq. dielectric constant tensor:
#      x y z
#    x 1.744580 0.000000 0.001950 
#    y 0.000000 1.718540 0.000000 
#    z 0.001950 0.000000 1.742760 
# 
# From -- ./inp_files/195429.got.cif
#   From: 2010.06.25/outbox.cif.g09.slc.cpg/sg12_98_cif.got.tgz:195429.got - 2010.06.28 00:19:55.
