data_PCOD8107810
_publ_section_title
;
Structure prediction by ZEFSAII (Michael W. Deem and Ramdas Pophale) SiO2 
 PCOD8107810
Probable space group: C 2/M
;
_chemical_formula_sum "Si O2"
_cell_formula_units_Z 64
_cell_length_a 17.938247
_cell_length_b 27.735937
_cell_length_c 9.537993
_cell_angle_alpha 90.000000
_cell_angle_beta 40.040436
_cell_angle_gamma 90.000000
_cell_volume 3052.898379
_symmetry_space_group_name_H-M "C 2/M"
_symmetry_group_IT_number 12
_symmetry_cell_setting 'monoclinic'
loop_
_space_group_symop_operation_xyz
x,y,z
-x,y,-z
-x,-y,-z
x,-y,z
1/2+x,1/2+y,z
1/2-x,1/2+y,-z
1/2-x,1/2-y,-z
1/2+x,1/2-y,z
loop_
_atom_site_type_symbol
_atom_site_label
_atom_site_fract_x
_atom_site_fract_y
_atom_site_fract_z
Si Si1 0.185266 0.287076 0.758576
Si Si2 0.301159 0.381284 0.571234
Si Si3 0.374143 0.944996 0.687537
Si Si4 0.932001 0.866952 0.829023
Si Si5 0.889023 0.716924 0.430454
Si Si6 0.123909 0.239090 0.120270
Si Si7 0.254956 0.624796 0.317321
Si Si8 0.195085 0.055637 0.174314
O O1 0.222143 0.340338 0.760189
O O2 0.097234 0.294704 0.754922
O O3 0.309365 0.264226 0.541385
O O4 0.123894 0.252049 0.956628
O O5 0.431706 0.364991 0.360621
O O6 0.257834 0.389611 0.475571
O O7 0.292666 0.428577 0.681063
O O8 0.500000 0.920423 0.500000
O O9 0.297446 0.921255 0.680428
O O10 0.382902 0.000000 0.629282
O O11 0.319995 0.938924 0.920411
O O12 0.893115 0.816479 0.817212
O O13 0.895285 0.910729 0.779495
O O14 0.879931 0.869072 0.061854
O O15 0.823616 0.672307 0.600004
O O16 0.011594 0.729110 0.333059
O O17 0.250000 0.250000 0.000000
O O18 0.152076 0.000000 0.230692
#
# Coordination Sequence:
#
# PCOD8107810 Si02
#       8
#     8   8   8   8   8   8   8   8
#     4  10  21  38  57  82 117 160 203 239 301 364
#     4  11  22  38  62  89 124 161 204 256 306 365
#     4   9  20  42  68  88 117 159 199 249 312 374
#     4  11  22  39  60  87 122 167 210 247 304 371
#     4  10  21  38  58  81 118 163 196 246 303 358
#     4  12  24  36  57  89 122 160 209 257 299 358
#     4  10  22  38  62  93 118 157 213 258 296 361
#     4  10  23  42  63  90 124 161 201 249 317 379
#
# _framework density 20.963685000000002
#
# number of rings (size 3 to 8) (size 9 to 14) (size 15 to 20)
#    0.000    1.625    2.500    1.875    0.000    6.000 
#    0.000    1.875    0.000    6.000    0.000    0.000 
#    0.000    0.000    0.000    0.000    0.000    0.000 
#
# Total GULP energy -396487.554762 kJ/mol
# GULP energy per Si atom -12390.236086 kJ/mol
# Density = 2.091597 g / cm^3
# Si number density = 20.963685 Si / 1000 Ang^3
#
#
#
# Elastic Constant Matrix: (Units=GPa)
#
#
# Indices 1 2 3 4 5 6 
#
# 1 84.8565 41.2761 42.0039 0.0000 -5.6819 0.0000
# 2 41.2761 115.9143 40.1951 0.0000 7.3579 0.0000
# 3 42.0039 40.1951 62.6144 0.0000 4.9029 0.0000
# 4 0.0000 0.0000 0.0000 30.5095 0.0000 3.5988
# 5 -5.6819 7.3579 4.9029 0.0000 38.9510 0.0000
# 6 0.0000 0.0000 0.0000 3.5988 0.0000 27.5085
#
#
#
# Elastic Compliance Matrix: (Units=1/GPa)
#
#
# Indices 1 2 3 4 5 6 
#
# 1 0.019237 -0.003281 -0.011177 0.000000 0.004833 0.000000
# 2 -0.003281 0.011714 -0.005159 0.000000 -0.002042 0.000000
# 3 -0.011177 -0.005159 0.027099 0.000000 -0.004067 0.000000
# 4 0.000000 0.000000 0.000000 0.033290 0.000000 -0.004355
# 5 0.004833 -0.002042 -0.004067 0.000000 0.027276 0.000000
# 6 0.000000 0.000000 0.000000 -0.004355 0.000000 0.036922
#
#
# Mechanical properties :
#
#
# Convention : Reuss Voigt Hill
#
# Bulk Modulus (GPa) = 53.14620 56.70394 54.92507
# Shear Modulus (GPa) = 24.87031 28.72114 26.79572
#
# Velocity S-wave (km/s) = 3.44808 3.70542 3.57907
# Velocity P-wave (km/s) = 6.42331 6.73901 6.58305
#
# Compressibility (1/GPa) = 0.01881602
#
# Stress axis : x y z
#
# Youngs Moduli (GPa) = 51.98400 85.36854 36.90221
#
# Poissons Ratio (x) = 0.28010 0.41245
# Poissons Ratio (y) = 0.17056 0.19037
# Poissons Ratio (z) = 0.58102 0.44039
#
# Static dielectric constant tensor:
#      x y z
#    x 3.662920 0.000000 -0.040140 
#    y 0.000000 3.803350 0.000000 
#    z -0.040140 0.000000 4.111020 
# 
# 
# High freq. dielectric constant tensor:
#      x y z
#    x 1.808640 0.000000 -0.004260 
#    y 0.000000 1.815740 0.000000 
#    z -0.004260 0.000000 1.833280 
# 
# From -- ./inp_files/80697.got.cif
#   From: 2010.06.25/outbox.cif.g09.slc.cpg/sg12_41_cif.got.tgz:80697.got - 2010.06.28 00:19:55.
