data_PCOD8107333
_publ_section_title
;
Structure prediction by ZEFSAII (Michael W. Deem and Ramdas Pophale) SiO2 
 PCOD8107333
Probable space group: C 2/M
;
_chemical_formula_sum "Si O2"
_cell_formula_units_Z 56
_cell_length_a 15.875457
_cell_length_b 8.896247
_cell_length_c 22.743005
_cell_angle_alpha 90.000000
_cell_angle_beta 58.345886
_cell_angle_gamma 90.000000
_cell_volume 2734.189975
_symmetry_space_group_name_H-M "C 2/M"
_symmetry_group_IT_number 12
_symmetry_cell_setting 'monoclinic'
loop_
_space_group_symop_operation_xyz
x,y,z
-x,y,-z
-x,-y,-z
x,-y,z
1/2+x,1/2+y,z
1/2-x,1/2+y,-z
1/2-x,1/2-y,-z
1/2+x,1/2-y,z
loop_
_atom_site_type_symbol
_atom_site_label
_atom_site_fract_x
_atom_site_fract_y
_atom_site_fract_z
Si Si1 0.165442 0.823230 0.069450
Si Si2 0.179208 0.830909 0.801510
Si Si3 0.512586 0.825409 0.927380
Si Si4 0.273216 0.673627 0.344864
Si Si5 0.627282 0.170352 0.202050
Si Si6 0.468983 0.324091 0.334410
Si Si7 0.937836 0.821911 0.577745
O O1 0.174200 0.765593 0.132319
O O2 0.059348 0.778777 0.083522
O O3 0.180387 0.000000 0.062778
O O4 0.250000 0.750000 0.000000
O O5 0.121774 0.714477 0.864405
O O6 0.169952 0.785986 0.736607
O O7 0.295337 0.822049 0.773086
O O8 0.138931 0.000000 0.827545
O O9 0.489500 0.000000 0.924863
O O10 0.500000 0.784145 0.000000
O O11 0.241096 0.500000 0.356197
O O12 0.351332 0.707532 0.368995
O O13 0.174900 0.770411 0.388139
O O14 0.524820 0.239337 0.261549
O O15 0.608474 0.000000 0.187660
O O16 0.491543 0.500000 0.319365
O O17 0.507607 0.262795 0.383129
O O18 0.000000 0.758377 0.500000
O O19 0.937695 0.000000 0.577982
#
# Coordination Sequence:
#
# PCOD8107333 Si02
#       7
#     8   8   8   8   8   8   8
#     4  12  25  41  60  84 118 159 203 252 310 371
#     4  10  21  37  59  87 120 156 198 255 316 372
#     4  11  24  40  59  86 118 156 205 256 308 369
#     4  10  21  39  61  89 121 159 208 258 311 375
#     4  11  22  38  62  91 121 156 203 256 310 372
#     4  10  21  38  62  90 124 166 209 256 314 376
#     4  10  22  40  61  90 128 166 207 257 314 377
#
# _framework density 20.481386000000001
#
# number of rings (size 3 to 8) (size 9 to 14) (size 15 to 20)
#    0.000    1.429    1.429    3.857    0.000    7.714 
#    0.000    0.000    0.000    0.000    0.000    0.000 
#    0.000    0.000    0.000    0.000    0.000    0.000 
#
# Total GULP energy -347294.083901 kJ/mol
# GULP energy per Si atom -12403.360139 kJ/mol
# Density = 2.043477 g / cm^3
# Si number density = 20.481386 Si / 1000 Ang^3
#
#
#
# Elastic Constant Matrix: (Units=GPa)
#
#
# Indices 1 2 3 4 5 6 
#
# 1 114.9515 29.2639 43.0100 0.0000 -0.3451 0.0001
# 2 29.2639 83.9211 38.6399 0.0000 1.9395 0.0002
# 3 43.0100 38.6399 118.9836 0.0000 0.8065 0.0001
# 4 0.0000 0.0000 0.0000 27.2570 0.0000 -9.7007
# 5 -0.3451 1.9395 0.8065 0.0000 26.5207 0.0000
# 6 0.0001 0.0002 0.0001 -9.7007 0.0000 31.7618
#
#
#
# Elastic Compliance Matrix: (Units=1/GPa)
#
#
# Indices 1 2 3 4 5 6 
#
# 1 0.010407 -0.002240 -0.003037 0.000000 0.000392 0.000000
# 2 -0.002240 0.014514 -0.003897 0.000000 -0.000972 0.000000
# 3 -0.003037 -0.003897 0.010769 0.000000 -0.000082 0.000000
# 4 0.000000 0.000000 0.000000 0.041162 0.000000 0.012572
# 5 0.000392 -0.000972 -0.000082 0.000000 0.037785 0.000000
# 6 0.000000 0.000000 0.000000 0.012572 0.000000 0.035324
#
#
# Mechanical properties :
#
#
# Convention : Reuss Voigt Hill
#
# Bulk Modulus (GPa) = 57.66584 59.96488 58.81536
# Shear Modulus (GPa) = 28.72093 30.90408 29.81250
#
# Velocity S-wave (km/s) = 3.74878 3.88865 3.81936
# Velocity P-wave (km/s) = 6.85231 7.03587 6.94470
#
# Compressibility (1/GPa) = 0.01734129
#
# Stress axis : x y z
#
# Youngs Moduli (GPa) = 96.08854 68.90009 92.86262
#
# Poissons Ratio (x) = 0.15431 0.28205
# Poissons Ratio (y) = 0.21520 0.36190
# Poissons Ratio (z) = 0.29185 0.26852
#
# Static dielectric constant tensor:
#      x y z
#    x 4.112130 0.000000 -0.134650 
#    y 0.000000 3.646380 0.000000 
#    z -0.134650 0.000000 3.943740 
# 
# 
# High freq. dielectric constant tensor:
#      x y z
#    x 1.813540 0.000000 0.003330 
#    y 0.000000 1.795500 0.000000 
#    z 0.003330 0.000000 1.797910 
# 
# From -- ./inp_files/338468.got.cif
#   From: 2010.06.25/outbox.cif.g09.slc.cpg/sg12_170_cif.got.tgz:338468.got - 2010.06.28 00:19:55.
