data_PCOD8107340
_publ_section_title
;
Structure prediction by ZEFSAII (Michael W. Deem and Ramdas Pophale) SiO2 
 PCOD8107340
Probable space group: C 2/M
;
_chemical_formula_sum "Si O2"
_cell_formula_units_Z 56
_cell_length_a 9.443513
_cell_length_b 16.910308
_cell_length_c 18.797685
_cell_angle_alpha 90.000000
_cell_angle_beta 65.309066
_cell_angle_gamma 90.000000
_cell_volume 2727.406740
_symmetry_space_group_name_H-M "C 2/M"
_symmetry_group_IT_number 12
_symmetry_cell_setting 'monoclinic'
loop_
_space_group_symop_operation_xyz
x,y,z
-x,y,-z
-x,-y,-z
x,-y,z
1/2+x,1/2+y,z
1/2-x,1/2+y,-z
1/2-x,1/2-y,-z
1/2+x,1/2-y,z
loop_
_atom_site_type_symbol
_atom_site_label
_atom_site_fract_x
_atom_site_fract_y
_atom_site_fract_z
Si Si1 0.676909 0.329292 0.985181
Si Si2 0.662850 0.908928 0.929877
Si Si3 0.306531 0.674101 0.765764
Si Si4 0.372196 0.590883 0.281286
Si Si5 0.799016 0.645205 0.808193
Si Si6 0.452853 0.093813 0.586181
Si Si7 0.616504 0.909731 0.691359
O O1 0.772623 0.356115 0.897065
O O2 0.500000 0.316002 0.000000
O O3 0.750000 0.250000 0.000000
O O4 0.698240 0.395068 0.042132
O O5 0.697083 0.859701 0.851510
O O6 0.658212 0.000000 0.908604
O O7 0.500000 0.881304 0.000000
O O8 0.480683 0.642126 0.728396
O O9 0.316068 0.767466 0.771971
O O10 0.235833 0.650145 0.704046
O O11 0.408706 0.500000 0.291167
O O12 0.342392 0.602025 0.203185
O O13 0.219434 0.623373 0.355174
O O14 0.952511 0.593269 0.766193
O O15 0.500000 0.130529 0.500000
O O16 0.584614 0.118046 0.616497
O O17 0.445619 0.000000 0.584039
O O18 0.679794 0.000000 0.681423
#
# Coordination Sequence:
#
# PCOD8107340 Si02
#       7
#     8   8   8   8   8   8   8
#     4  12  25  39  57  79 110 151 200 248 296 353
#     4  11  24  40  59  82 114 155 197 248 309 355
#     4  12  22  36  58  85 120 149 190 247 294 346
#     4  10  21  37  59  88 115 148 192 242 292 341
#     4  11  23  37  61  79 113 154 198 238 286 357
#     4   8  16  35  61  87 117 152 189 230 281 348
#     4  10  21  37  61  89 114 150 195 235 285 349
#
# _framework density 20.532323999999999
#
# number of rings (size 3 to 8) (size 9 to 14) (size 15 to 20)
#    0.000    1.429    1.429    5.571    2.000    2.571 
#    0.000    0.714    0.000   17.143    0.000    0.000 
#    0.000    0.000    0.000    0.000    0.000    0.000 
#
# Total GULP energy -347184.597973 kJ/mol
# GULP energy per Si atom -12399.449928 kJ/mol
# Density = 2.048559 g / cm^3
# Si number density = 20.532324 Si / 1000 Ang^3
#
#
#
# Elastic Constant Matrix: (Units=GPa)
#
#
# Indices 1 2 3 4 5 6 
#
# 1 105.5913 -5.3842 18.7686 0.0000 7.1787 0.0000
# 2 -5.3842 41.0016 -0.6309 0.0000 -7.2519 0.0000
# 3 18.7686 -0.6309 112.8927 0.0000 15.0974 0.0000
# 4 0.0000 0.0000 0.0000 21.4054 0.0000 -0.9685
# 5 7.1787 -7.2519 15.0974 0.0000 26.5738 0.0000
# 6 0.0000 0.0000 0.0000 -0.9685 0.0000 -26.6243
#
#
#
# Elastic Compliance Matrix: (Units=1/GPa)
#
#
# Indices 1 2 3 4 5 6 
#
# 1 0.009882 0.000995 -0.001425 0.000000 -0.001589 0.000000
# 2 0.000995 0.025803 -0.001003 0.000000 0.007343 0.000000
# 3 -0.001425 -0.001003 0.009821 0.000000 -0.005468 0.000000
# 4 0.000000 0.000000 0.000000 0.046641 0.000000 -0.001697
# 5 -0.001589 0.007343 -0.005468 0.000000 0.043171 0.000000
# 6 0.000000 0.000000 0.000000 -0.001697 0.000000 -0.037498
#
#
# Mechanical properties :
#
#
# Convention : Reuss Voigt Hill
#
# Bulk Modulus (GPa) = 23.45237 31.66585 27.55911
# Shear Modulus (GPa) = 43.51639 20.71978 32.11808
#
# Velocity S-wave (km/s) = 4.60870 3.18013 3.95938
# Velocity P-wave (km/s) = 6.30612 5.37961 5.86120
#
# Compressibility (1/GPa) = 0.04263962
#
# Stress axis : x y z
#
# Youngs Moduli (GPa) = 101.18908 38.75491 101.82746
#
# Poissons Ratio (x) = -0.03855 0.14510
# Poissons Ratio (y) = -0.10067 0.10215
# Poissons Ratio (z) = 0.14419 0.03888
#
# Static dielectric constant tensor:
#      x y z
#    x 3.897500 0.000000 0.425930 
#    y 0.000000 3.699730 0.000000 
#    z 0.425930 0.000000 4.017030 
# 
# 
# High freq. dielectric constant tensor:
#      x y z
#    x 1.810550 0.000000 0.012600 
#    y 0.000000 1.795270 0.000000 
#    z 0.012600 0.000000 1.789360 
# 
# From -- ./inp_files/257008.got.cif
#   From: 2010.06.25/outbox.cif.g09.slc.cpg/sg12_129_cif.got.tgz:257008.got - 2010.06.28 00:19:55.
