data_PCOD8107358
_publ_section_title
;
Structure prediction by ZEFSAII (Michael W. Deem and Ramdas Pophale) SiO2 
 PCOD8107358
Probable space group: C 2/M
;
_chemical_formula_sum "Si O2"
_cell_formula_units_Z 44
_cell_length_a 15.756699
_cell_length_b 16.829923
_cell_length_c 27.314904
_cell_angle_alpha 90.000000
_cell_angle_beta 161.436657
_cell_angle_gamma 90.000000
_cell_volume 2305.981525
_symmetry_space_group_name_H-M "C 2/M"
_symmetry_group_IT_number 12
_symmetry_cell_setting 'monoclinic'
loop_
_space_group_symop_operation_xyz
x,y,z
-x,y,-z
-x,-y,-z
x,-y,z
1/2+x,1/2+y,z
1/2-x,1/2+y,-z
1/2-x,1/2-y,-z
1/2+x,1/2-y,z
loop_
_atom_site_type_symbol
_atom_site_label
_atom_site_fract_x
_atom_site_fract_y
_atom_site_fract_z
Si Si1 0.251340 0.780744 0.336131
Si Si2 0.933186 0.677599 0.583083
Si Si3 0.217001 0.216496 0.035226
Si Si4 0.631201 0.591133 0.124603
Si Si5 0.942343 0.093548 0.696789
Si Si6 0.500000 0.823783 0.000000
O O1 0.500000 0.742825 0.500000
O O2 0.325215 0.791711 0.319489
O O3 0.170731 0.865717 0.315740
O O4 0.019283 0.717039 0.220454
O O5 0.750000 0.750000 0.500000
O O6 0.746287 0.615632 0.452208
O O7 0.082351 0.635065 0.710722
O O8 0.250000 0.250000 0.000000
O O9 0.027373 0.269056 0.966700
O O10 0.094841 0.128428 0.963605
O O11 0.671645 0.500000 0.160032
O O12 0.500000 0.604798 0.000000
O O13 0.936348 0.000000 0.701856
O O14 0.243528 0.121216 0.851056
#
# Coordination Sequence:
#
# PCOD8107358 Si02
#       6
#     8   8   8   8   8   4
#     4   9  21  35  57  89 110 150 196 249 304 361
#     4  11  22  38  61  87 117 160 205 250 301 363
#     4  11  20  38  62  86 117 161 205 246 300 365
#     4  11  24  40  61  89 123 161 204 256 303 357
#     4  10  21  37  59  88 124 155 192 254 319 369
#     4  10  21  38  59  92 122 158 208 254 303 380
#
# _framework density 19.080812000000002
#
# number of rings (size 3 to 8) (size 9 to 14) (size 15 to 20)
#    0.000    1.636    2.727    1.909    5.091    4.000 
#    0.000    0.909    0.000    0.545    0.000    0.000 
#    0.000    0.000    0.000    0.000    0.000    0.000 
#
# Total GULP energy -272643.625314 kJ/mol
# GULP energy per Si atom -12392.892060 kJ/mol
# Density = 1.903738 g / cm^3
# Si number density = 19.080812 Si / 1000 Ang^3
#
#
#
# Elastic Constant Matrix: (Units=GPa)
#
#
# Indices 1 2 3 4 5 6 
#
# 1 110.3864 46.2437 42.0340 0.0397 4.0792 0.0020
# 2 46.2437 117.7529 70.2964 0.0663 4.6273 -0.0204
# 3 42.0340 70.2964 142.8766 0.1173 8.8796 -0.0953
# 4 0.0397 0.0663 0.1173 33.7641 -0.0196 -1.6242
# 5 4.0792 4.6273 8.8796 -0.0196 33.5551 0.0006
# 6 0.0020 -0.0204 -0.0953 -1.6242 0.0006 17.1691
#
#
#
# Elastic Compliance Matrix: (Units=1/GPa)
#
#
# Indices 1 2 3 4 5 6 
#
# 1 0.011098 -0.003410 -0.001558 -0.000002 -0.000467 -0.000014
# 2 -0.003410 0.013072 -0.005431 -0.000003 0.000049 -0.000015
# 3 -0.001558 -0.005431 0.010240 -0.000022 -0.001771 0.000049
# 4 -0.000002 -0.000003 -0.000022 0.029753 0.000024 0.002815
# 5 -0.000467 0.000049 -0.001771 0.000024 0.030320 -0.000008
# 6 -0.000014 -0.000015 0.000049 0.002815 -0.000008 0.058511
#
#
# Mechanical properties :
#
#
# Convention : Reuss Voigt Hill
#
# Bulk Modulus (GPa) = 73.47070 76.46269 74.96669
# Shear Modulus (GPa) = 28.03786 31.06045 29.54916
#
# Velocity S-wave (km/s) = 3.83747 4.03902 3.93954
# Velocity P-wave (km/s) = 7.63043 7.86840 7.75033
#
# Compressibility (1/GPa) = 0.01361087
#
# Stress axis : x y z
#
# Youngs Moduli (GPa) = 90.10464 76.49959 97.65647
#
# Poissons Ratio (x) = 0.26085 0.15219
# Poissons Ratio (y) = 0.30724 0.53041
# Poissons Ratio (z) = 0.14042 0.41550
#
# Static dielectric constant tensor:
#      x y z
#    x 3.552420 -0.000190 -0.000970 
#    y -0.000190 3.457610 -0.000450 
#    z -0.000970 -0.000450 4.475370 
# 
# 
# High freq. dielectric constant tensor:
#      x y z
#    x 1.738870 0.000000 -0.005480 
#    y 0.000000 1.716440 -0.000020 
#    z -0.005480 -0.000020 1.774940 
# 
# From -- ./inp_files/361826.got.cif
#   From: 2010.06.25/outbox.cif.g09.slc.cpg/sg12_181_cif.got.tgz:361826.got - 2010.06.28 00:19:55.
