data_PCOD8107147
_publ_section_title
;
Structure prediction by ZEFSAII (Michael W. Deem and Ramdas Pophale) SiO2 
 PCOD8107147
Probable space group: C 2/M
;
_chemical_formula_sum "Si O2"
_cell_formula_units_Z 48
_cell_length_a 19.829741
_cell_length_b 8.812143
_cell_length_c 30.784323
_cell_angle_alpha 90.000000
_cell_angle_beta 152.028446
_cell_angle_gamma 90.000000
_cell_volume 2523.084041
_symmetry_space_group_name_H-M "C 2/M"
_symmetry_group_IT_number 12
_symmetry_cell_setting 'monoclinic'
loop_
_space_group_symop_operation_xyz
x,y,z
-x,y,-z
-x,-y,-z
x,-y,z
1/2+x,1/2+y,z
1/2-x,1/2+y,-z
1/2-x,1/2-y,-z
1/2+x,1/2-y,z
loop_
_atom_site_type_symbol
_atom_site_label
_atom_site_fract_x
_atom_site_fract_y
_atom_site_fract_z
Si Si1 0.201565 0.677397 0.927901
Si Si2 0.516341 0.321579 0.961634
Si Si3 0.790237 0.675713 0.591024
Si Si4 0.599544 0.320949 0.260679
Si Si5 0.221426 0.180006 0.238943
Si Si6 0.039359 0.322896 0.396829
O O1 0.181948 0.500000 0.924116
O O2 0.055983 0.745787 0.826734
O O3 0.250000 0.750000 0.000000
O O4 0.323083 0.714934 0.961939
O O5 0.487599 0.500000 0.947390
O O6 0.399182 0.250267 0.861892
O O7 0.500000 0.248284 0.000000
O O8 0.783893 0.500000 0.600357
O O9 0.814793 0.773848 0.647832
O O10 0.917532 0.706202 0.628737
O O11 0.638692 0.724822 0.484853
O O12 0.579051 0.500000 0.247800
O O13 0.688027 0.263917 0.268828
O O14 0.377615 0.236204 0.312253
O O15 0.215156 0.000000 0.233828
O O16 0.057253 0.500000 0.418864
#
# Coordination Sequence:
#
# PCOD8107147 Si02
#       6
#     8   8   8   8   8   8
#     4  11  21  36  58  83 113 148 184 225 276 326
#     4   9  18  32  55  83 110 142 187 231 263 312
#     4  10  21  37  58  85 112 141 181 227 283 336
#     4  11  22  37  57  82 113 147 187 228 271 326
#     4   9  18  34  55  81 108 144 191 229 265 318
#     4   9  19  37  61  82 108 144 186 231 272 325
#
# _framework density 19.024336000000002
#
# number of rings (size 3 to 8) (size 9 to 14) (size 15 to 20)
#    0.000    2.167    1.667    1.500    2.333    1.333 
#    0.000    5.000    0.000    2.000    0.000    0.000 
#    0.000    0.000    0.000    0.000    0.000    0.000 
#
# Total GULP energy -297630.304109 kJ/mol
# GULP energy per Si atom -12401.262671 kJ/mol
# Density = 1.898104 g / cm^3
# Si number density = 19.024336 Si / 1000 Ang^3
#
#
#
# Elastic Constant Matrix: (Units=GPa)
#
#
# Indices 1 2 3 4 5 6 
#
# 1 147.3936 39.2013 70.5496 -0.0001 -4.3548 0.0001
# 2 39.2013 49.8512 26.2448 -0.0001 6.6919 0.0005
# 3 70.5496 26.2448 105.0438 -0.0002 10.2715 0.0001
# 4 -0.0001 -0.0001 -0.0002 33.3185 0.0000 -2.2684
# 5 -4.3548 6.6919 10.2715 0.0000 33.8975 0.0000
# 6 0.0001 0.0005 0.0001 -2.2684 0.0000 23.8447
#
#
#
# Elastic Compliance Matrix: (Units=1/GPa)
#
#
# Indices 1 2 3 4 5 6 
#
# 1 0.011932 -0.006412 -0.006890 0.000000 0.004886 0.000000
# 2 -0.006412 0.026823 -0.001852 0.000000 -0.005558 -0.000001
# 3 -0.006890 -0.001852 0.015108 0.000000 -0.005098 0.000000
# 4 0.000000 0.000000 0.000000 0.030209 0.000000 0.002874
# 5 0.004886 -0.005558 -0.005098 0.000000 0.032770 0.000000
# 6 0.000000 -0.000001 0.000000 0.002874 0.000000 0.042211
#
#
# Mechanical properties :
#
#
# Convention : Reuss Voigt Hill
#
# Bulk Modulus (GPa) = 42.45124 63.80888 53.13006
# Shear Modulus (GPa) = 25.35350 29.29835 27.32593
#
# Velocity S-wave (km/s) = 3.65456 3.92860 3.79405
# Velocity P-wave (km/s) = 6.33801 7.36152 6.86886
#
# Compressibility (1/GPa) = 0.02355644
#
# Stress axis : x y z
#
# Youngs Moduli (GPa) = 83.80939 37.28204 66.18952
#
# Poissons Ratio (x) = 0.23904 0.45602
# Poissons Ratio (y) = 0.53735 0.12258
# Poissons Ratio (z) = 0.57741 0.06904
#
# Static dielectric constant tensor:
#      x y z
#    x 3.624640 0.000000 -0.052540 
#    y 0.000000 3.224110 0.000000 
#    z -0.052540 0.000000 3.439160 
# 
# 
# High freq. dielectric constant tensor:
#      x y z
#    x 1.751280 0.000000 0.000230 
#    y 0.000000 1.711760 0.000000 
#    z 0.000230 0.000000 1.747240 
# 
# From -- ./inp_files/244755.got.cif
#   From: 2010.06.25/outbox.cif.g09.slc.cpg/sg12_123_cif.got.tgz:244755.got - 2010.06.28 00:19:55.
