data_PCOD8107320
_publ_section_title
;
Structure prediction by ZEFSAII (Michael W. Deem and Ramdas Pophale) SiO2 
 PCOD8107320
Probable space group: C 2/M
;
_chemical_formula_sum "Si O2"
_cell_formula_units_Z 36
_cell_length_a 9.315465
_cell_length_b 9.702102
_cell_length_c 20.263323
_cell_angle_alpha 90.000000
_cell_angle_beta 110.448265
_cell_angle_gamma 90.000000
_cell_volume 1715.991304
_symmetry_space_group_name_H-M "C 2/M"
_symmetry_group_IT_number 12
_symmetry_cell_setting 'monoclinic'
loop_
_space_group_symop_operation_xyz
x,y,z
-x,y,-z
-x,-y,-z
x,-y,z
1/2+x,1/2+y,z
1/2-x,1/2+y,-z
1/2-x,1/2-y,-z
1/2+x,1/2-y,z
loop_
_atom_site_type_symbol
_atom_site_label
_atom_site_fract_x
_atom_site_fract_y
_atom_site_fract_z
Si Si1 0.795937 0.843716 0.700469
Si Si2 0.322218 0.849401 0.093670
Si Si3 0.000000 0.249464 0.000000
Si Si4 0.322483 0.846392 0.458026
Si Si5 0.358742 0.657413 0.220152
O O1 0.713311 0.789904 0.620903
O O2 0.758761 0.741837 0.754066
O O3 0.977207 0.838513 0.718207
O O4 0.742788 0.000000 0.709098
O O5 0.366862 0.725833 0.149604
O O6 0.142960 0.843488 0.045863
O O7 0.348203 0.000000 0.130572
O O8 0.435736 0.842734 0.049240
O O9 0.500000 0.849160 0.500000
O O10 0.250000 0.750000 0.500000
O O11 0.252284 0.000000 0.453312
O O12 0.301211 0.500000 0.203028
#
# Coordination Sequence:
#
# PCOD8107320 Si02
#       5
#     8   8   4   8   8
#     4  10  22  40  59  84 119 155 193 239 289 341
#     4  11  23  41  63  87 117 152 190 236 288 341
#     4  10  24  40  62  90 116 148 192 236 284 344
#     4  10  21  37  59  87 117 152 195 240 288 343
#     4  11  24  39  59  87 117 152 195 238 285 343
#
# _framework density 20.979126999999998
#
# number of rings (size 3 to 8) (size 9 to 14) (size 15 to 20)
#    0.000    1.556    0.000    4.000    0.000   12.000 
#    0.000    0.000    0.000    0.000    0.000    0.000 
#    0.000    0.000    0.000    0.000    0.000    0.000 
#
# Total GULP energy -223225.585226 kJ/mol
# GULP energy per Si atom -12401.421401 kJ/mol
# Density = 2.093138 g / cm^3
# Si number density = 20.979127 Si / 1000 Ang^3
#
#
#
# Elastic Constant Matrix: (Units=GPa)
#
#
# Indices 1 2 3 4 5 6 
#
# 1 96.2831 40.4314 23.4804 0.0000 -11.7108 0.0000
# 2 40.4314 143.5776 45.8368 0.0000 -21.4810 0.0000
# 3 23.4804 45.8368 102.9869 0.0000 -10.2422 0.0000
# 4 0.0000 0.0000 0.0000 34.4614 0.0000 -8.5117
# 5 -11.7108 -21.4810 -10.2422 0.0000 33.6787 0.0000
# 6 0.0000 0.0000 0.0000 -8.5117 0.0000 24.1129
#
#
#
# Elastic Compliance Matrix: (Units=1/GPa)
#
#
# Indices 1 2 3 4 5 6 
#
# 1 0.012089 -0.002655 -0.001366 0.000000 0.002095 0.000000
# 2 -0.002655 0.009324 -0.003140 0.000000 0.004069 0.000000
# 3 -0.001366 -0.003140 0.011521 0.000000 0.001026 0.000000
# 4 0.000000 0.000000 0.000000 0.031790 0.000000 0.011221
# 5 0.002095 0.004069 0.001026 0.000000 0.033328 0.000000
# 6 0.000000 0.000000 0.000000 0.011221 0.000000 0.045433
#
#
# Mechanical properties :
#
#
# Convention : Reuss Voigt Hill
#
# Bulk Modulus (GPa) = 53.72920 62.48275 58.10598
# Shear Modulus (GPa) = 30.48615 33.99052 32.23834
#
# Velocity S-wave (km/s) = 3.81618 4.02955 3.92431
# Velocity P-wave (km/s) = 6.71446 7.17618 6.94916
#
# Compressibility (1/GPa) = 0.01861185
#
# Stress axis : x y z
#
# Youngs Moduli (GPa) = 82.72151 107.25568 86.79834
#
# Poissons Ratio (x) = 0.28472 0.11860
# Poissons Ratio (y) = 0.21959 0.27253
# Poissons Ratio (z) = 0.11303 0.33676
#
# Static dielectric constant tensor:
#      x y z
#    x 3.718200 0.000000 0.124730 
#    y 0.000000 3.911680 0.000000 
#    z 0.124730 0.000000 3.858790 
# 
# 
# High freq. dielectric constant tensor:
#      x y z
#    x 1.823150 0.000000 0.008480 
#    y 0.000000 1.824340 0.000000 
#    z 0.008480 0.000000 1.828980 
# 
# From -- ./inp_files/298744.got.cif
#   From: 2010.06.25/outbox.cif.g09.slc.cpg/sg12_150_cif.got.tgz:298744.got - 2010.06.28 00:19:55.
