data_PCOD8107994
_publ_section_title
;
Structure prediction by ZEFSAII (Michael W. Deem and Ramdas Pophale) SiO2 
 PCOD8107994
Probable space group: C 2/M
;
_chemical_formula_sum "Si O2"
_cell_formula_units_Z 56
_cell_length_a 17.623288
_cell_length_b 14.283682
_cell_length_c 19.846601
_cell_angle_alpha 90.000000
_cell_angle_beta 146.483599
_cell_angle_gamma 90.000000
_cell_volume 2758.611307
_symmetry_space_group_name_H-M "C 2/M"
_symmetry_group_IT_number 12
_symmetry_cell_setting 'monoclinic'
loop_
_space_group_symop_operation_xyz
x,y,z
-x,y,-z
-x,-y,-z
x,-y,z
1/2+x,1/2+y,z
1/2-x,1/2+y,-z
1/2-x,1/2-y,-z
1/2+x,1/2-y,z
loop_
_atom_site_type_symbol
_atom_site_label
_atom_site_fract_x
_atom_site_fract_y
_atom_site_fract_z
Si Si1 0.875694 0.607129 0.698633
Si Si2 0.876047 0.105412 0.740406
Si Si3 0.615257 0.239501 0.725868
Si Si4 0.595326 0.257968 0.861255
Si Si5 0.152407 0.105987 0.127878
Si Si6 0.363106 0.890512 0.534474
Si Si7 0.650925 0.606488 0.640882
O O1 0.911858 0.500000 0.738070
O O2 0.824175 0.623663 0.583983
O O3 0.756151 0.640571 0.660862
O O4 0.016809 0.660959 0.817700
O O5 0.810501 0.112388 0.765778
O O6 0.766175 0.144719 0.605185
O O7 0.018387 0.161106 0.845070
O O8 0.914195 0.000000 0.749707
O O9 0.582241 0.285577 0.773127
O O10 0.743148 0.171129 0.834823
O O11 0.489936 0.175327 0.606184
O O12 0.659835 0.322414 0.709358
O O13 0.750000 0.250000 0.000000
O O14 0.167835 0.000000 0.112347
O O15 0.000000 0.143001 0.000000
O O16 0.398446 0.000000 0.545352
O O17 0.500000 0.609867 0.500000
O O18 0.685263 0.500000 0.689963
#
# Coordination Sequence:
#
# PCOD8107994 Si02
#       7
#     8   8   8   8   8   8   8
#     4   9  20  40  62  82 117 159 195 240 294 352
#     4  10  22  38  58  82 114 151 187 238 293 349
#     4  11  23  35  61  88 117 153 193 246 292 352
#     4  11  24  39  59  87 116 153 200 242 289 347
#     4  10  21  38  59  84 117 156 193 235 292 353
#     4   9  20  37  59  89 117 147 188 240 304 360
#     4  10  23  39  58  87 120 158 197 240 297 356
#
# _framework density 20.300069000000001
#
# number of rings (size 3 to 8) (size 9 to 14) (size 15 to 20)
#    0.000    2.000    0.000    2.143    6.000    2.857 
#    0.000    2.143    0.000    2.143    0.000    0.000 
#    0.000    0.000    0.000    0.000    0.000    0.000 
#
# Total GULP energy -347269.756361 kJ/mol
# GULP energy per Si atom -12402.491299 kJ/mol
# Density = 2.025386 g / cm^3
# Si number density = 20.300069 Si / 1000 Ang^3
#
#
#
# Elastic Constant Matrix: (Units=GPa)
#
#
# Indices 1 2 3 4 5 6 
#
# 1 90.6017 36.1806 21.1861 0.0002 9.6666 0.0001
# 2 36.1806 66.6396 28.2044 0.0025 4.2182 0.0008
# 3 21.1861 28.2044 105.6037 0.0050 12.4863 0.0016
# 4 0.0002 0.0025 0.0050 28.4340 0.0018 5.2103
# 5 9.6666 4.2182 12.4863 0.0018 27.8805 0.0004
# 6 0.0001 0.0008 0.0016 5.2103 0.0004 33.0246
#
#
#
# Elastic Compliance Matrix: (Units=1/GPa)
#
#
# Indices 1 2 3 4 5 6 
#
# 1 0.014517 -0.007441 -0.000489 0.000001 -0.003688 0.000000
# 2 -0.007441 0.020741 -0.004203 -0.000001 0.001324 0.000000
# 3 -0.000489 -0.004203 0.011187 -0.000001 -0.004205 0.000000
# 4 0.000001 -0.000001 -0.000001 0.036216 -0.000002 -0.005714
# 5 -0.003688 0.001324 -0.004205 -0.000002 0.038829 0.000000
# 6 0.000000 0.000000 0.000000 -0.005714 0.000000 0.031182
#
#
# Mechanical properties :
#
#
# Convention : Reuss Voigt Hill
#
# Bulk Modulus (GPa) = 45.08855 48.22080 46.65468
# Shear Modulus (GPa) = 27.12502 29.68608 28.40555
#
# Velocity S-wave (km/s) = 3.65938 3.82823 3.74476
# Velocity P-wave (km/s) = 6.33356 6.58377 6.45988
#
# Compressibility (1/GPa) = 0.02217858
#
# Stress axis : x y z
#
# Youngs Moduli (GPa) = 68.88621 48.21307 89.38788
#
# Poissons Ratio (x) = 0.35876 0.04370
# Poissons Ratio (y) = 0.51259 0.37572
# Poissons Ratio (z) = 0.03368 0.20265
#
# Static dielectric constant tensor:
#      x y z
#    x 3.759860 0.000000 0.019420 
#    y 0.000000 3.805000 0.000000 
#    z 0.019420 0.000000 3.546800 
# 
# 
# High freq. dielectric constant tensor:
#      x y z
#    x 1.797390 0.000000 0.005150 
#    y 0.000000 1.799340 0.000000 
#    z 0.005150 0.000000 1.784160 
# 
# From -- ./inp_files/316695.got.cif
#   From: 2010.06.25/outbox.cif.g09.slc.cpg/sg12_159_cif.got.tgz:316695.got - 2010.06.28 00:19:55.
