data_PCOD8107626
_publ_section_title
;
Structure prediction by ZEFSAII (Michael W. Deem and Ramdas Pophale) SiO2 
 PCOD8107626
Probable space group: C 2/M
;
_chemical_formula_sum "Si O2"
_cell_formula_units_Z 48
_cell_length_a 21.884080
_cell_length_b 9.110305
_cell_length_c 12.175240
_cell_angle_alpha 90.000000
_cell_angle_beta 101.628041
_cell_angle_gamma 90.000000
_cell_volume 2377.567530
_symmetry_space_group_name_H-M "C 2/M"
_symmetry_group_IT_number 12
_symmetry_cell_setting 'monoclinic'
loop_
_space_group_symop_operation_xyz
x,y,z
-x,y,-z
-x,-y,-z
x,-y,z
1/2+x,1/2+y,z
1/2-x,1/2+y,-z
1/2-x,1/2-y,-z
1/2+x,1/2-y,z
loop_
_atom_site_type_symbol
_atom_site_label
_atom_site_fract_x
_atom_site_fract_y
_atom_site_fract_z
Si Si1 0.397677 0.836771 0.680261
Si Si2 0.816795 0.331150 0.028549
Si Si3 0.841418 0.331902 0.287208
Si Si4 0.256230 0.163762 0.614937
Si Si5 0.427188 0.333667 0.475811
Si Si6 0.065996 0.674160 0.069302
O O1 0.325548 0.844925 0.685481
O O2 0.404199 0.723607 0.584317
O O3 0.433042 0.780964 0.801997
O O4 0.421571 0.000000 0.654785
O O5 0.802871 0.500000 0.993607
O O6 0.847381 0.317038 0.159516
O O7 0.750000 0.250000 0.000000
O O8 0.871324 0.264238 0.969056
O O9 0.835933 0.500000 0.323408
O O10 0.780600 0.245828 0.303334
O O11 0.902007 0.262969 0.366465
O O12 0.250000 0.250000 0.500000
O O13 0.229236 0.000000 0.587161
O O14 0.500000 0.320537 0.500000
O O15 0.403928 0.500000 0.453471
O O16 0.067110 0.500000 0.054275
O O17 0.000000 0.738092 0.000000
#
# Coordination Sequence:
#
# PCOD8107626 Si02
#       6
#     8   8   8   8   8   8
#     4  10  21  37  62  89 115 153 197 245 299 357
#     4  10  22  40  63  92 123 161 206 252 305 362
#     4  11  23  38  61  92 121 156 202 248 301 361
#     4  11  21  35  57  88 122 156 196 241 295 358
#     4  11  25  41  58  84 119 160 199 245 308 365
#     4   9  19  37  62  90 118 153 201 252 302 355
#
# _framework density 20.188700000000001
#
# number of rings (size 3 to 8) (size 9 to 14) (size 15 to 20)
#    0.000    1.667    1.667    2.500    2.333    4.667 
#    0.000    0.833    0.000    1.000    0.000    0.000 
#    0.000    0.000    0.000    0.000    0.000    0.000 
#
# Total GULP energy -297553.393798 kJ/mol
# GULP energy per Si atom -12398.058075 kJ/mol
# Density = 2.014275 g / cm^3
# Si number density = 20.188700 Si / 1000 Ang^3
#
#
#
# Elastic Constant Matrix: (Units=GPa)
#
#
# Indices 1 2 3 4 5 6 
#
# 1 104.4545 34.9876 28.3903 0.0000 8.9700 0.0000
# 2 34.9876 111.1616 36.6084 0.0000 3.9653 0.0000
# 3 28.3903 36.6084 90.5265 0.0000 18.4235 0.0000
# 4 0.0000 0.0000 0.0000 30.7256 0.0000 -1.1007
# 5 8.9700 3.9653 18.4235 0.0000 34.6757 0.0000
# 6 0.0000 0.0000 0.0000 -1.1007 0.0000 28.6201
#
#
#
# Elastic Compliance Matrix: (Units=1/GPa)
#
#
# Indices 1 2 3 4 5 6 
#
# 1 0.011200 -0.002785 -0.002087 0.000000 -0.001470 0.000000
# 2 -0.002785 0.011113 -0.003934 0.000000 0.001540 0.000000
# 3 -0.002087 -0.003934 0.014677 0.000000 -0.006809 0.000000
# 4 0.000000 0.000000 0.000000 0.032591 0.000000 0.001253
# 5 -0.001470 0.001540 -0.006809 0.000000 0.032660 0.000000
# 6 0.000000 0.000000 0.000000 0.001253 0.000000 0.034989
#
#
# Mechanical properties :
#
#
# Convention : Reuss Voigt Hill
#
# Bulk Modulus (GPa) = 51.60458 56.23501 53.91980
# Shear Modulus (GPa) = 30.99761 32.54801 31.77281
#
# Velocity S-wave (km/s) = 3.92266 4.01956 3.97141
# Velocity P-wave (km/s) = 6.79213 7.03262 6.91342
#
# Compressibility (1/GPa) = 0.01937812
#
# Stress axis : x y z
#
# Youngs Moduli (GPa) = 89.28576 89.98268 68.13160
#
# Poissons Ratio (x) = 0.25064 0.14218
# Poissons Ratio (y) = 0.24870 0.26803
# Poissons Ratio (z) = 0.18633 0.35399
#
# Static dielectric constant tensor:
#      x y z
#    x 10.764870 0.000000 -2.807100 
#    y 0.000000 3.758120 0.000000 
#    z -2.807100 0.000000 4.873090 
# 
# 
# High freq. dielectric constant tensor:
#      x y z
#    x 1.797580 0.000000 0.006810 
#    y 0.000000 1.771490 0.000000 
#    z 0.006810 0.000000 1.797570 
# 
# From -- ./inp_files/172404.got.cif
#   From: 2010.06.25/outbox.cif.g09.slc.cpg/sg12_87_cif.got.tgz:172404.got - 2010.06.28 00:19:55.
