data_PCOD8107833
_publ_section_title
;
Structure prediction by ZEFSAII (Michael W. Deem and Ramdas Pophale) SiO2 
 PCOD8107833
Probable space group: C 2/M
;
_chemical_formula_sum "Si O2"
_cell_formula_units_Z 56
_cell_length_a 30.023013
_cell_length_b 8.699149
_cell_length_c 16.841394
_cell_angle_alpha 90.000000
_cell_angle_beta 134.166206
_cell_angle_gamma 90.000000
_cell_volume 3155.171995
_symmetry_space_group_name_H-M "C 2/M"
_symmetry_group_IT_number 12
_symmetry_cell_setting 'monoclinic'
loop_
_space_group_symop_operation_xyz
x,y,z
-x,y,-z
-x,-y,-z
x,-y,z
1/2+x,1/2+y,z
1/2-x,1/2+y,-z
1/2-x,1/2-y,-z
1/2+x,1/2-y,z
loop_
_atom_site_type_symbol
_atom_site_label
_atom_site_fract_x
_atom_site_fract_y
_atom_site_fract_z
Si Si1 0.700701 0.818460 0.603713
Si Si2 0.968266 0.681817 0.339820
Si Si3 0.486838 0.680473 0.200554
Si Si4 0.408641 0.818480 0.423309
Si Si5 0.553337 0.821828 0.008347
Si Si6 0.170117 0.321869 0.259639
Si Si7 0.628606 0.319191 0.369279
O O1 0.656586 0.762932 0.621517
O O2 0.763879 0.725609 0.694233
O O3 0.668904 0.776670 0.481275
O O4 0.713310 0.000000 0.621720
O O5 0.968793 0.500000 0.328921
O O6 0.952343 0.758506 0.236212
O O7 0.916652 0.732723 0.341295
O O8 0.034912 0.745597 0.452798
O O9 0.485990 0.500000 0.200231
O O10 0.557775 0.740557 0.285127
O O11 0.448234 0.736803 0.077278
O O12 0.414064 0.000000 0.434492
O O13 0.620120 0.790718 0.129199
O O14 0.540277 0.000000 0.976420
O O15 0.500000 0.754762 0.000000
O O16 0.170004 0.500000 0.285545
O O17 0.155672 0.215060 0.316452
O O18 0.634366 0.500000 0.394336
#
# Coordination Sequence:
#
# PCOD8107833 Si02
#       7
#     8   8   8   8   8   8   8
#     4  11  21  35  55  79 109 143 177 213 260 313
#     4   9  16  32  55  78 105 137 177 215 255 311
#     4  11  22  33  52  82 113 138 169 218 272 310
#     4   8  16  30  53  80 104 137 176 214 254 309
#     4  10  21  38  58  76  98 137 183 221 260 311
#     4  11  23  38  55  76 104 139 181 221 261 310
#     4  11  22  35  51  77 111 145 176 210 260 315
#
# _framework density 17.748636000000001
#
# number of rings (size 3 to 8) (size 9 to 14) (size 15 to 20)
#    0.000    1.857    2.857    3.000    0.000    2.571 
#    0.000    2.857    0.000    0.857    0.000    0.000 
#    0.000    0.000    0.000    0.000    0.000    0.000 
#
# Total GULP energy -347238.813381 kJ/mol
# GULP energy per Si atom -12401.386192 kJ/mol
# Density = 1.770824 g / cm^3
# Si number density = 17.748636 Si / 1000 Ang^3
#
#
#
# Elastic Constant Matrix: (Units=GPa)
#
#
# Indices 1 2 3 4 5 6 
#
# 1 118.4562 25.3643 61.6933 0.0000 -14.7673 0.0000
# 2 25.3643 39.0891 31.4110 0.0000 -0.0412 0.0000
# 3 61.6933 31.4110 103.6195 0.0000 -9.9504 0.0000
# 4 0.0000 0.0000 0.0000 16.2937 0.0000 5.4561
# 5 -14.7673 -0.0412 -9.9504 0.0000 32.9004 0.0000
# 6 0.0000 0.0000 0.0000 5.4561 0.0000 21.8406
#
#
#
# Elastic Compliance Matrix: (Units=1/GPa)
#
#
# Indices 1 2 3 4 5 6 
#
# 1 0.012926 -0.003304 -0.006321 0.000000 0.003886 0.000000
# 2 -0.003304 0.034986 -0.009039 0.000000 -0.004173 0.000000
# 3 -0.006321 -0.009039 0.016356 0.000000 0.002098 0.000000
# 4 0.000000 0.000000 0.000000 0.066976 0.000000 -0.016731
# 5 0.003886 -0.004173 0.002098 0.000000 0.032768 0.000000
# 6 0.000000 0.000000 0.000000 -0.016731 0.000000 0.049966
#
#
# Mechanical properties :
#
#
# Convention : Reuss Voigt Hill
#
# Bulk Modulus (GPa) = 37.12089 55.34466 46.23277
# Shear Modulus (GPa) = 19.20967 23.72003 21.46485
#
# Velocity S-wave (km/s) = 3.29343 3.65970 3.48139
# Velocity P-wave (km/s) = 5.95167 7.00772 6.50117
#
# Compressibility (1/GPa) = 0.02693901
#
# Stress axis : x y z
#
# Youngs Moduli (GPa) = 77.36370 28.58323 61.14026
#
# Poissons Ratio (x) = 0.09443 0.38648
# Poissons Ratio (y) = 0.25559 0.55266
# Poissons Ratio (z) = 0.48903 0.25837
#
# Static dielectric constant tensor:
#      x y z
#    x 3.626760 0.000000 -0.060800 
#    y 0.000000 3.124320 0.000000 
#    z -0.060800 0.000000 3.166550 
# 
# 
# High freq. dielectric constant tensor:
#      x y z
#    x 1.687650 0.000000 -0.010240 
#    y 0.000000 1.679040 0.000000 
#    z -0.010240 0.000000 1.670450 
# 
# From -- ./inp_files/249265.got.cif
#   From: 2010.06.25/outbox.cif.g09.slc.cpg/sg12_125_cif.got.tgz:249265.got - 2010.06.28 00:19:55.
