data_PCOD8107118
_publ_section_title
;
Structure prediction by ZEFSAII (Michael W. Deem and Ramdas Pophale) SiO2 
 PCOD8107118
Probable space group: C 2/M
;
_chemical_formula_sum "Si O2"
_cell_formula_units_Z 48
_cell_length_a 10.057650
_cell_length_b 8.955373
_cell_length_c 28.328618
_cell_angle_alpha 90.000000
_cell_angle_beta 68.909391
_cell_angle_gamma 90.000000
_cell_volume 2380.636351
_symmetry_space_group_name_H-M "C 2/M"
_symmetry_group_IT_number 12
_symmetry_cell_setting 'monoclinic'
loop_
_space_group_symop_operation_xyz
x,y,z
-x,y,-z
-x,-y,-z
x,-y,z
1/2+x,1/2+y,z
1/2-x,1/2+y,-z
1/2-x,1/2-y,-z
1/2+x,1/2-y,z
loop_
_atom_site_type_symbol
_atom_site_label
_atom_site_fract_x
_atom_site_fract_y
_atom_site_fract_z
Si Si1 0.021092 0.173554 0.135580
Si Si2 0.695594 0.826673 0.193459
Si Si3 0.839416 0.675506 0.528975
Si Si4 0.103377 0.671563 0.030766
Si Si5 0.283667 0.327174 0.356290
Si Si6 0.609000 0.672706 0.298732
O O1 0.864382 0.198611 0.177018
O O2 0.138638 0.244601 0.154458
O O3 0.026810 0.249917 0.084166
O O4 0.057167 0.000000 0.125134
O O5 0.618547 0.760880 0.248830
O O6 0.657104 0.000000 0.194074
O O7 0.818494 0.500000 0.527876
O O8 0.750000 0.750000 0.500000
O O9 0.788224 0.732521 0.586591
O O10 0.000000 0.726176 0.500000
O O11 0.133517 0.500000 0.039643
O O12 0.250000 0.750000 0.000000
O O13 0.000000 0.687801 0.000000
O O14 0.246143 0.500000 0.351685
O O15 0.452155 0.302608 0.339912
O O16 0.224808 0.231916 0.320589
O O17 0.640206 0.500000 0.284476
#
# Coordination Sequence:
#
# PCOD8107118 Si02
#       6
#     8   8   8   8   8   8
#     4  11  24  41  62  89 120 154 195 242 290 344
#     4  11  24  41  62  88 119 155 194 240 293 346
#     4  10  21  37  58  84 114 150 192 238 289 346
#     4  11  24  41  63  91 122 158 199 242 290 345
#     4  10  22  39  57  83 118 151 190 240 290 344
#     4  11  23  38  59  86 115 151 194 238 287 345
#
# _framework density 20.162678
#
# number of rings (size 3 to 8) (size 9 to 14) (size 15 to 20)
#    0.000    1.333    0.000    5.000    0.000   13.000 
#    0.000    0.000    0.000    0.000    0.000    0.000 
#    0.000    0.000    0.000    0.000    0.000    0.000 
#
# Total GULP energy -297781.034322 kJ/mol
# GULP energy per Si atom -12407.543097 kJ/mol
# Density = 2.011679 g / cm^3
# Si number density = 20.162678 Si / 1000 Ang^3
#
#
#
# Elastic Constant Matrix: (Units=GPa)
#
#
# Indices 1 2 3 4 5 6 
#
# 1 90.5441 53.4300 19.1255 0.0000 7.2431 0.0000
# 2 53.4300 116.9475 48.5671 0.0000 1.9681 0.0000
# 3 19.1255 48.5671 115.7887 0.0000 2.9634 0.0000
# 4 0.0000 0.0000 0.0000 37.8722 0.0000 6.2337
# 5 7.2431 1.9681 2.9634 0.0000 39.1937 0.0000
# 6 0.0000 0.0000 0.0000 6.2337 0.0000 34.3652
#
#
#
# Elastic Compliance Matrix: (Units=1/GPa)
#
#
# Indices 1 2 3 4 5 6 
#
# 1 0.015388 -0.007216 0.000550 0.000000 -0.002523 0.000000
# 2 -0.007216 0.013740 -0.004597 0.000000 0.000991 0.000000
# 3 0.000550 -0.004597 0.010491 0.000000 -0.000664 0.000000
# 4 0.000000 0.000000 0.000000 0.027217 0.000000 -0.004937
# 5 -0.002523 0.000991 -0.000664 0.000000 0.025981 0.000000
# 6 0.000000 0.000000 0.000000 -0.004937 0.000000 0.029995
#
#
# Mechanical properties :
#
#
# Convention : Reuss Voigt Hill
#
# Bulk Modulus (GPa) = 58.50517 62.83617 60.67067
# Shear Modulus (GPa) = 33.10463 35.76339 34.43401
#
# Velocity S-wave (km/s) = 4.05640 4.21615 4.13705
# Velocity P-wave (km/s) = 7.14274 7.41171 7.27847
#
# Compressibility (1/GPa) = 0.01709251
#
# Stress axis : x y z
#
# Youngs Moduli (GPa) = 64.98391 72.78003 95.32292
#
# Poissons Ratio (x) = 0.52521 -0.05239
# Poissons Ratio (y) = 0.46895 0.43816
# Poissons Ratio (z) = -0.03572 0.33454
#
# Static dielectric constant tensor:
#      x y z
#    x 3.621760 0.000000 -0.018110 
#    y 0.000000 3.800980 0.000000 
#    z -0.018110 0.000000 3.197230 
# 
# 
# High freq. dielectric constant tensor:
#      x y z
#    x 1.799310 0.000000 -0.001670 
#    y 0.000000 1.795460 0.000000 
#    z -0.001670 0.000000 1.803820 
# 
# From -- ./inp_files/357328.got.cif
#   From: 2010.06.25/outbox.cif.g09.slc.cpg/sg12_179_cif.got.tgz:357328.got - 2010.06.28 00:19:55.
