data_PCOD8107645
_publ_section_title
;
Structure prediction by ZEFSAII (Michael W. Deem and Ramdas Pophale) SiO2 
 PCOD8107645
Probable space group: C 2/M
;
_chemical_formula_sum "Si O2"
_cell_formula_units_Z 64
_cell_length_a 20.494327
_cell_length_b 17.256086
_cell_length_c 12.126250
_cell_angle_alpha 90.000000
_cell_angle_beta 48.659174
_cell_angle_gamma 90.000000
_cell_volume 3219.756822
_symmetry_space_group_name_H-M "C 2/M"
_symmetry_group_IT_number 12
_symmetry_cell_setting 'monoclinic'
loop_
_space_group_symop_operation_xyz
x,y,z
-x,y,-z
-x,-y,-z
x,-y,z
1/2+x,1/2+y,z
1/2-x,1/2+y,-z
1/2-x,1/2-y,-z
1/2+x,1/2-y,z
loop_
_atom_site_type_symbol
_atom_site_label
_atom_site_fract_x
_atom_site_fract_y
_atom_site_fract_z
Si Si1 0.335880 0.910613 0.228630
Si Si2 0.883535 0.085511 0.052174
Si Si3 0.635384 0.586703 0.473375
Si Si4 0.763676 0.324774 0.866797
Si Si5 0.641617 0.818973 0.024257
Si Si6 0.559333 0.364416 0.783402
Si Si7 0.091949 0.251570 0.447881
Si Si8 0.437912 0.196766 0.276659
O O1 0.237621 0.902718 0.379265
O O2 0.395417 0.874233 0.258222
O O3 0.363890 0.000000 0.182509
O O4 0.346874 0.867716 0.099847
O O5 0.783240 0.102710 0.137103
O O6 0.894182 0.090160 0.171234
O O7 0.904907 0.000000 0.987768
O O8 0.954618 0.138512 0.911127
O O9 0.617190 0.500000 0.442801
O O10 0.585625 0.592104 0.643613
O O11 0.601954 0.657660 0.435212
O O12 0.806596 0.357622 0.931158
O O13 0.834439 0.286701 0.710131
O O14 0.683569 0.265787 0.971635
O O15 0.540837 0.814599 0.167254
O O16 0.588785 0.274999 0.757295
O O17 0.099941 0.292431 0.557971
O O18 0.000000 0.273414 0.500000
#
# Coordination Sequence:
#
# PCOD8107645 Si02
#       8
#     8   8   8   8   8   8   8   8
#     4  11  25  42  63  94 127 166 212 260 316 371
#     4  11  22  37  61  93 125 162 203 255 317 372
#     4  10  22  39  61  93 131 163 203 259 313 370
#     4  11  23  40  64  91 123 163 211 256 302 377
#     4  11  22  41  64  88 122 166 208 258 306 361
#     4  10  21  37  62  92 129 161 207 255 312 371
#     4  11  23  42  66  94 123 164 212 252 312 378
#     4  11  23  39  67  93 121 165 208 259 309 369
#
# _framework density 19.877276999999999
#
# number of rings (size 3 to 8) (size 9 to 14) (size 15 to 20)
#    0.000    1.250    3.750    2.625    3.500    2.750 
#    0.000    0.000    0.000    0.750    0.000    0.000 
#    0.000    0.000    0.000    0.000    0.000    0.000 
#
# Total GULP energy -396686.814202 kJ/mol
# GULP energy per Si atom -12396.462944 kJ/mol
# Density = 1.983204 g / cm^3
# Si number density = 19.877277 Si / 1000 Ang^3
#
#
#
# Elastic Constant Matrix: (Units=GPa)
#
#
# Indices 1 2 3 4 5 6 
#
# 1 114.2420 37.6903 39.9549 0.0000 3.1460 0.0000
# 2 37.6903 62.1328 -0.5153 0.0000 19.2107 0.0000
# 3 39.9549 -0.5153 54.9923 0.0000 10.6673 0.0000
# 4 0.0000 0.0000 0.0000 16.4393 0.0000 -0.0361
# 5 3.1460 19.2107 10.6673 0.0000 25.6118 0.0000
# 6 0.0000 0.0000 0.0000 -0.0361 0.0000 9.2965
#
#
#
# Elastic Compliance Matrix: (Units=1/GPa)
#
#
# Indices 1 2 3 4 5 6 
#
# 1 0.021510 -0.019443 -0.019720 0.000000 0.020155 0.000000
# 2 -0.019443 0.039179 0.021465 0.000000 -0.035939 0.000000
# 3 -0.019720 0.021465 0.038475 0.000000 -0.029703 0.000000
# 4 0.000000 0.000000 0.000000 0.060830 0.000000 0.000236
# 5 0.020155 -0.035939 -0.029703 0.000000 0.075897 0.000000
# 6 0.000000 0.000000 0.000000 0.000236 0.000000 0.107568
#
#
# Mechanical properties :
#
#
# Convention : Reuss Voigt Hill
#
# Bulk Modulus (GPa) = 15.68207 42.84743 29.26475
# Shear Modulus (GPa) = 12.49657 20.55199 16.52428
#
# Velocity S-wave (km/s) = 2.51008 3.21899 2.88638
# Velocity P-wave (km/s) = 4.03822 5.95136 5.08556
#
# Compressibility (1/GPa) = 0.06376710
#
# Stress axis : x y z
#
# Youngs Moduli (GPa) = 46.49071 25.52402 25.99121
#
# Poissons Ratio (x) = 0.49627 0.51254
# Poissons Ratio (y) = 0.90392 -0.55790
# Poissons Ratio (z) = 0.91678 -0.54787
#
# Static dielectric constant tensor:
#      x y z
#    x 3.667410 0.000000 -0.052610 
#    y 0.000000 3.668580 0.000000 
#    z -0.052610 0.000000 3.688840 
# 
# 
# High freq. dielectric constant tensor:
#      x y z
#    x 1.775900 0.000000 -0.006500 
#    y 0.000000 1.767690 0.000000 
#    z -0.006500 0.000000 1.786050 
# 
# From -- ./inp_files/168769.got.cif
#   From: 2010.06.25/outbox.cif.g09.slc.cpg/sg12_85_cif.got.tgz:168769.got - 2010.06.28 00:19:55.
