data_PCOD8107396
_publ_section_title
;
Structure prediction by ZEFSAII (Michael W. Deem and Ramdas Pophale) SiO2 
 PCOD8107396
Probable space group: C 2/M
;
_chemical_formula_sum "Si O2"
_cell_formula_units_Z 64
_cell_length_a 20.220903
_cell_length_b 17.371273
_cell_length_c 23.956254
_cell_angle_alpha 90.000000
_cell_angle_beta 22.844823
_cell_angle_gamma 90.000000
_cell_volume 3266.988690
_symmetry_space_group_name_H-M "C 2/M"
_symmetry_group_IT_number 12
_symmetry_cell_setting 'monoclinic'
loop_
_space_group_symop_operation_xyz
x,y,z
-x,y,-z
-x,-y,-z
x,-y,z
1/2+x,1/2+y,z
1/2-x,1/2+y,-z
1/2-x,1/2-y,-z
1/2+x,1/2-y,z
loop_
_atom_site_type_symbol
_atom_site_label
_atom_site_fract_x
_atom_site_fract_y
_atom_site_fract_z
Si Si1 0.492210 0.692091 0.210265
Si Si2 0.960022 0.678191 0.733756
Si Si3 0.651599 0.086337 0.724902
Si Si4 0.711834 0.087228 0.050665
Si Si5 0.978134 0.913256 0.398830
Si Si6 0.720179 0.587537 0.556139
Si Si7 0.047691 0.277732 0.874359
Si Si8 0.231011 0.220274 0.196674
O O1 0.498726 0.761335 0.249002
O O2 0.333888 0.636273 0.347525
O O3 0.464647 0.721579 0.168897
O O4 0.664281 0.641511 0.081635
O O5 0.803743 0.623074 0.874920
O O6 0.910102 0.719740 0.715079
O O7 0.119741 0.624992 0.598112
O O8 0.479042 0.091705 0.823788
O O9 0.811778 0.112916 0.563035
O O10 0.634191 0.141455 0.791180
O O11 0.679413 0.000000 0.725376
O O12 0.782695 0.000000 0.996798
O O13 0.935698 0.909674 0.366206
O O14 0.137451 0.858383 0.287265
O O15 0.030921 0.000000 0.374574
O O16 0.763532 0.500000 0.539645
O O17 0.171668 0.243218 0.825755
O O18 0.861840 0.294973 0.044178
#
# Coordination Sequence:
#
# PCOD8107396 Si02
#       8
#     8   8   8   8   8   8   8   8
#     4  12  22  38  64  91 121 158 204 251 297 349
#     4  12  21  38  64  91 121 158 201 246 301 354
#     4  10  21  37  59  90 125 159 196 240 297 366
#     4  11  21  36  62  92 123 155 196 250 303 351
#     4  10  21  38  59  90 126 159 196 239 298 367
#     4  11  23  38  61  95 127 153 194 251 307 358
#     4  11  24  42  58  86 122 158 202 251 298 352
#     4  11  25  40  60  86 120 161 201 248 301 355
#
# _framework density 19.589905000000002
#
# number of rings (size 3 to 8) (size 9 to 14) (size 15 to 20)
#    0.000    1.000    5.000    2.250    1.750    1.500 
#    0.000    2.500    0.000    4.500    0.000    0.000 
#    0.000    0.000    0.000    0.000    0.000    0.000 
#
# Total GULP energy -396772.635863 kJ/mol
# GULP energy per Si atom -12399.144871 kJ/mol
# Density = 1.954532 g / cm^3
# Si number density = 19.589905 Si / 1000 Ang^3
#
#
#
# Elastic Constant Matrix: (Units=GPa)
#
#
# Indices 1 2 3 4 5 6 
#
# 1 84.2658 39.3926 24.8131 0.0441 3.7354 0.0050
# 2 39.3926 124.5554 58.3232 0.0552 7.7143 0.0087
# 3 24.8131 58.3232 103.9382 0.1644 17.6676 0.0009
# 4 0.0441 0.0552 0.1644 43.4271 0.0022 2.9722
# 5 3.7354 7.7143 17.6676 0.0022 22.8537 -0.0136
# 6 0.0050 0.0087 0.0009 2.9722 -0.0136 19.7356
#
#
#
# Elastic Compliance Matrix: (Units=1/GPa)
#
#
# Indices 1 2 3 4 5 6 
#
# 1 0.014030 -0.003893 -0.001149 -0.000005 -0.000091 -0.000001
# 2 -0.003893 0.011999 -0.006014 0.000012 0.001235 -0.000005
# 3 -0.001149 -0.006014 0.014844 -0.000047 -0.009257 0.000003
# 4 -0.000005 0.000012 -0.000047 0.023267 0.000029 -0.003504
# 5 -0.000091 0.001235 -0.009257 0.000029 0.050511 0.000030
# 6 -0.000001 -0.000005 0.000003 -0.003504 0.000030 0.051198
#
#
# Mechanical properties :
#
#
# Convention : Reuss Voigt Hill
#
# Bulk Modulus (GPa) = 53.30478 61.97970 57.64224
# Shear Modulus (GPa) = 25.74473 29.88532 27.81503
#
# Velocity S-wave (km/s) = 3.62910 3.91006 3.77220
# Velocity P-wave (km/s) = 6.69551 7.21748 6.96139
#
# Compressibility (1/GPa) = 0.01876004
#
# Stress axis : x y z
#
# Youngs Moduli (GPa) = 71.27732 83.33797 67.36912
#
# Poissons Ratio (x) = 0.32447 0.07742
# Poissons Ratio (y) = 0.27751 0.40514
# Poissons Ratio (z) = 0.08191 0.50117
#
# Static dielectric constant tensor:
#      x y z
#    x 3.361480 -0.000050 0.137620 
#    y -0.000050 3.842450 0.000250 
#    z 0.137620 0.000250 3.681750 
# 
# 
# High freq. dielectric constant tensor:
#      x y z
#    x 1.732830 0.000000 0.011330 
#    y 0.000000 1.765730 0.000020 
#    z 0.011330 0.000020 1.778220 
# 
# From -- ./inp_files/347849.got.cif
#   From: 2010.06.25/outbox.cif.g09.slc.cpg/sg12_174_cif.got.tgz:347849.got - 2010.06.28 00:19:55.
