data_PCOD8107444
_publ_section_title
;
Structure prediction by ZEFSAII (Michael W. Deem and Ramdas Pophale) SiO2 
 PCOD8107444
Probable space group: C 2/M
;
_chemical_formula_sum "Si O2"
_cell_formula_units_Z 64
_cell_length_a 28.067671
_cell_length_b 9.106262
_cell_length_c 22.906231
_cell_angle_alpha 90.000000
_cell_angle_beta 31.874040
_cell_angle_gamma 90.000000
_cell_volume 3091.563567
_symmetry_space_group_name_H-M "C 2/M"
_symmetry_group_IT_number 12
_symmetry_cell_setting 'monoclinic'
loop_
_space_group_symop_operation_xyz
x,y,z
-x,y,-z
-x,-y,-z
x,-y,z
1/2+x,1/2+y,z
1/2-x,1/2+y,-z
1/2-x,1/2-y,-z
1/2+x,1/2-y,z
loop_
_atom_site_type_symbol
_atom_site_label
_atom_site_fract_x
_atom_site_fract_y
_atom_site_fract_z
Si Si1 0.819239 0.329141 0.001047
Si Si2 0.653903 0.673859 0.604429
Si Si3 0.850540 0.668891 0.838878
Si Si4 0.782764 0.669348 0.239987
Si Si5 0.418687 0.330114 0.543108
Si Si6 0.447101 0.171966 0.395307
Si Si7 0.931269 0.671622 0.992671
Si Si8 0.390302 0.671744 0.217508
O O1 0.799514 0.500000 0.023817
O O2 0.725704 0.253810 0.118087
O O3 0.851315 0.272428 0.904643
O O4 0.898952 0.287091 0.961613
O O5 0.664215 0.500000 0.583791
O O6 0.750000 0.750000 0.500000
O O7 0.589624 0.742021 0.622372
O O8 0.611478 0.709040 0.711942
O O9 0.824026 0.500000 0.865736
O O10 0.946375 0.698436 0.710589
O O11 0.799428 0.500000 0.238144
O O12 0.679629 0.690681 0.324454
O O13 0.800788 0.762100 0.280237
O O14 0.852314 0.723998 0.118232
O O15 0.500000 0.271687 0.500000
O O16 0.437220 0.500000 0.507935
O O17 0.408738 0.236062 0.494840
O O18 0.422585 0.000000 0.414451
O O19 0.951592 0.500000 0.979525
O O20 0.024305 0.757425 0.905003
O O21 0.392454 0.500000 0.204323
#
# Coordination Sequence:
#
# PCOD8107444 Si02
#       8
#     8   8   8   8   8   8   8   8
#     4   9  18  33  55  81 111 149 194 241 289 346
#     4  11  24  41  63  91 122 158 201 250 306 366
#     4   9  19  34  52  80 116 151 189 238 296 352
#     4  10  22  40  61  87 119 158 205 252 300 359
#     4  10  23  42  65  91 121 160 207 256 305 359
#     4  11  23  39  61  89 121 156 198 245 301 364
#     4  10  21  37  60  87 117 158 203 246 298 358
#     4  11  24  40  60  90 124 158 199 249 304 360
#
# _framework density 20.701499999999999
#
# number of rings (size 3 to 8) (size 9 to 14) (size 15 to 20)
#    0.000    1.875    0.000    3.000    1.750    9.250 
#    0.000    2.500    0.000    0.000    0.000    0.000 
#    0.000    0.000    0.000    0.000    0.000    0.000 
#
# Total GULP energy -396820.815864 kJ/mol
# GULP energy per Si atom -12400.650496 kJ/mol
# Density = 2.065438 g / cm^3
# Si number density = 20.701500 Si / 1000 Ang^3
#
#
#
# Elastic Constant Matrix: (Units=GPa)
#
#
# Indices 1 2 3 4 5 6 
#
# 1 87.1043 39.4117 40.4932 -0.0060 -13.9047 0.0060
# 2 39.4117 70.6194 42.0943 0.0199 -2.0674 -0.0066
# 3 40.4932 42.0943 103.7678 0.0106 -5.5803 -0.0071
# 4 -0.0060 0.0199 0.0106 28.1091 -0.0035 -2.2454
# 5 -13.9047 -2.0674 -5.5803 -0.0035 30.9615 0.0011
# 6 0.0060 -0.0066 -0.0071 -2.2454 0.0011 33.5013
#
#
#
# Elastic Compliance Matrix: (Units=1/GPa)
#
#
# Indices 1 2 3 4 5 6 
#
# 1 0.017579 -0.007571 -0.003424 0.000011 0.006772 -0.000005
# 2 -0.007571 0.021938 -0.006108 -0.000015 -0.003036 0.000003
# 3 -0.003424 -0.006108 0.013477 -0.000001 0.000483 0.000002
# 4 0.000011 -0.000015 -0.000001 0.035767 0.000008 0.002397
# 5 0.006772 -0.003036 0.000483 0.000008 0.035224 -0.000002
# 6 -0.000005 0.000003 0.000002 0.002397 -0.000002 0.030010
#
#
# Mechanical properties :
#
#
# Convention : Reuss Voigt Hill
#
# Bulk Modulus (GPa) = 53.22939 56.16552 54.69745
# Shear Modulus (GPa) = 25.71160 27.81386 26.76273
#
# Velocity S-wave (km/s) = 3.52805 3.66945 3.59944
# Velocity P-wave (km/s) = 6.50883 6.71887 6.61468
#
# Compressibility (1/GPa) = 0.01878661
#
# Stress axis : x y z
#
# Youngs Moduli (GPa) = 56.88540 45.58348 74.20083
#
# Poissons Ratio (x) = 0.34513 0.25409
# Poissons Ratio (y) = 0.43070 0.45322
# Poissons Ratio (z) = 0.19480 0.27842
#
# Static dielectric constant tensor:
#      x y z
#    x 3.911180 -0.000030 -0.030940 
#    y -0.000030 3.666950 0.000040 
#    z -0.030940 0.000040 3.874880 
# 
# 
# High freq. dielectric constant tensor:
#      x y z
#    x 1.815890 0.000000 -0.007960 
#    y 0.000000 1.801840 0.000000 
#    z -0.007960 0.000000 1.816910 
# 
# From -- ./inp_files/353386.got.cif
#   From: 2010.06.25/outbox.cif.g09.slc.cpg/sg12_177_cif.got.tgz:353386.got - 2010.06.28 00:19:55.
