data_PCOD8107367
_publ_section_title
;
Structure prediction by ZEFSAII (Michael W. Deem and Ramdas Pophale) SiO2 
 PCOD8107367
Probable space group: C 2/M
;
_chemical_formula_sum "Si O2"
_cell_formula_units_Z 64
_cell_length_a 19.616599
_cell_length_b 8.612223
_cell_length_c 31.225286
_cell_angle_alpha 90.000000
_cell_angle_beta 37.849268
_cell_angle_gamma 90.000000
_cell_volume 3236.838571
_symmetry_space_group_name_H-M "C 2/M"
_symmetry_group_IT_number 12
_symmetry_cell_setting 'monoclinic'
loop_
_space_group_symop_operation_xyz
x,y,z
-x,y,-z
-x,-y,-z
x,-y,z
1/2+x,1/2+y,z
1/2-x,1/2+y,-z
1/2-x,1/2-y,-z
1/2+x,1/2-y,z
loop_
_atom_site_type_symbol
_atom_site_label
_atom_site_fract_x
_atom_site_fract_y
_atom_site_fract_z
Si Si1 0.138939 0.315891 0.036191
Si Si2 0.996639 0.319034 0.311766
Si Si3 0.114553 0.322018 0.467796
Si Si4 0.152961 0.818020 0.688927
Si Si5 0.905819 0.683758 0.189676
Si Si6 0.632040 0.318940 0.548576
Si Si7 0.763004 0.184012 0.800666
Si Si8 0.881781 0.315970 0.048390
O O1 0.137645 0.500000 0.039534
O O2 0.026683 0.251242 0.114772
O O3 0.250000 0.250000 0.000000
O O4 0.149605 0.254684 0.982602
O O5 0.978900 0.500000 0.312360
O O6 0.933217 0.230601 0.305171
O O7 0.953258 0.271513 0.379624
O O8 0.124640 0.278260 0.251650
O O9 0.130564 0.500000 0.474950
O O10 0.220933 0.271284 0.386581
O O11 0.103581 0.208772 0.513391
O O12 0.000000 0.300371 0.500000
O O13 0.122593 0.738678 0.748669
O O14 0.142441 0.000000 0.701007
O O15 0.910361 0.500000 0.186944
O O16 0.810325 0.738588 0.203782
O O17 0.627755 0.500000 0.561528
O O18 0.750000 0.250000 0.500000
O O19 0.703829 0.237969 0.873395
O O20 0.785740 0.000000 0.787506
O O21 0.890736 0.500000 0.044296
O O22 0.000000 0.240823 0.000000
#
# Coordination Sequence:
#
# PCOD8107367 Si02
#       8
#     8   8   8   8   8   8   8   8
#     4  10  21  37  59  89 121 160 205 253 308 366
#     4  12  26  43  64  91 127 165 205 257 311 364
#     4  10  23  43  66  94 127 163 206 258 310 361
#     4  11  24  42  64  89 124 166 209 253 307 372
#     4  10  22  40  61  88 128 165 204 257 311 368
#     4  12  24  42  68  96 125 161 207 256 308 367
#     4  10  21  39  64  93 123 161 209 257 307 371
#     4   9  16  34  63  88 115 155 205 255 305 361
#
# _framework density 19.772380999999999
#
# number of rings (size 3 to 8) (size 9 to 14) (size 15 to 20)
#    0.000    1.500    2.500    2.625    3.500    1.750 
#    0.000    0.000    0.000    0.750    0.000    0.000 
#    0.000    0.000    0.000    0.000    0.000    0.000 
#
# Total GULP energy -396743.880419 kJ/mol
# GULP energy per Si atom -12398.246263 kJ/mol
# Density = 1.972738 g / cm^3
# Si number density = 19.772381 Si / 1000 Ang^3
#
#
#
# Elastic Constant Matrix: (Units=GPa)
#
#
# Indices 1 2 3 4 5 6 
#
# 1 139.6799 14.8690 75.3795 -0.0012 -7.1845 0.0882
# 2 14.8690 21.8771 15.7933 0.0286 -8.5522 -0.0072
# 3 75.3795 15.7933 156.8733 -0.0223 -1.8461 0.0104
# 4 -0.0012 0.0286 -0.0223 28.6690 0.0005 -1.7389
# 5 -7.1845 -8.5522 -1.8461 0.0005 41.6048 0.0013
# 6 0.0882 -0.0072 0.0104 -1.7389 0.0013 26.8965
#
#
#
# Elastic Compliance Matrix: (Units=1/GPa)
#
#
# Indices 1 2 3 4 5 6 
#
# 1 0.009944 -0.003214 -0.004445 -0.000002 0.000859 -0.000032
# 2 -0.003214 0.054791 -0.003848 -0.000057 0.010537 0.000022
# 3 -0.004445 -0.003848 0.008884 0.000011 -0.001164 0.000011
# 4 -0.000002 -0.000057 0.000011 0.035018 -0.000012 0.002264
# 5 0.000859 0.010537 -0.001164 -0.000012 0.026298 -0.000002
# 6 -0.000032 0.000022 0.000011 0.002264 -0.000002 0.037326
#
#
# Mechanical properties :
#
#
# Convention : Reuss Voigt Hill
#
# Bulk Modulus (GPa) = 19.76026 58.94598 39.35312
# Shear Modulus (GPa) = 23.56890 33.59329 28.58110
#
# Velocity S-wave (km/s) = 3.45630 4.12637 3.80611
# Velocity P-wave (km/s) = 5.09348 7.25117 6.26590
#
# Compressibility (1/GPa) = 0.05060661
#
# Stress axis : x y z
#
# Youngs Moduli (GPa) = 100.56158 18.25102 112.56288
#
# Poissons Ratio (x) = 0.05866 0.50030
# Poissons Ratio (y) = 0.32322 0.43311
# Poissons Ratio (z) = 0.44696 0.07022
#
# Static dielectric constant tensor:
#      x y z
#    x 3.532700 -0.000210 0.546480 
#    y -0.000210 3.432560 0.000910 
#    z 0.546480 0.000910 2.102690 
# 
# 
# High freq. dielectric constant tensor:
#      x y z
#    x 1.785190 0.000000 0.000060 
#    y 0.000000 1.752860 0.000000 
#    z 0.000060 0.000000 1.789920 
# 
# From -- ./inp_files/378123.got.cif
#   From: 2010.06.25/outbox.cif.g09.slc.cpg/sg12_190_cif.got.tgz:378123.got - 2010.06.28 00:19:55.
