data_PCOD8107516
_publ_section_title
;
Structure prediction by ZEFSAII (Michael W. Deem and Ramdas Pophale) SiO2 
 PCOD8107516
Probable space group: C 2/M
;
_chemical_formula_sum "Si O2"
_cell_formula_units_Z 64
_cell_length_a 30.078455
_cell_length_b 8.634694
_cell_length_c 18.933555
_cell_angle_alpha 90.000000
_cell_angle_beta 141.181804
_cell_angle_gamma 90.000000
_cell_volume 3082.472140
_symmetry_space_group_name_H-M "C 2/M"
_symmetry_group_IT_number 12
_symmetry_cell_setting 'monoclinic'
loop_
_space_group_symop_operation_xyz
x,y,z
-x,y,-z
-x,-y,-z
x,-y,z
1/2+x,1/2+y,z
1/2-x,1/2+y,-z
1/2-x,1/2-y,-z
1/2+x,1/2-y,z
loop_
_atom_site_type_symbol
_atom_site_label
_atom_site_fract_x
_atom_site_fract_y
_atom_site_fract_z
Si Si1 0.849172 0.680482 0.393423
Si Si2 0.882013 0.181888 0.033566
Si Si3 0.360311 0.179178 0.663171
Si Si4 0.505313 0.676353 0.424022
Si Si5 0.287309 0.322702 0.444629
Si Si6 0.222512 0.683769 0.836960
Si Si7 0.111246 0.679529 0.810681
Si Si8 0.500753 0.816384 0.081597
O O1 0.867659 0.500000 0.411312
O O2 0.790218 0.713148 0.379692
O O3 0.821796 0.746061 0.284627
O O4 0.916078 0.778960 0.502474
O O5 0.907772 0.220378 0.144262
O O6 0.930292 0.261191 0.034304
O O7 0.884815 0.000000 0.023903
O O8 0.802071 0.250252 0.930214
O O9 0.347663 0.274507 0.575882
O O10 0.291946 0.203808 0.626758
O O11 0.429300 0.243890 0.790212
O O12 0.370925 0.000000 0.655979
O O13 0.500000 0.703457 0.500000
O O14 0.488088 0.500000 0.380828
O O15 0.451913 0.795619 0.322207
O O16 0.300559 0.500000 0.440326
O O17 0.225413 0.500000 0.837337
O O18 0.184049 0.736156 0.862179
O O19 0.115787 0.500000 0.837346
O O20 0.501355 0.000000 0.080837
O O21 0.500000 0.752310 0.000000
#
# Coordination Sequence:
#
# PCOD8107516 Si02
#       8
#     8   8   8   8   8   8   8   8
#     4  11  22  38  61  88 121 163 203 244 300 370
#     4  11  24  42  63  92 125 159 205 259 310 359
#     4   9  20  40  62  85 118 157 198 247 306 367
#     4  11  23  39  59  89 124 157 197 248 303 354
#     4  10  21  37  60  91 120 152 198 252 305 360
#     4   9  21  40  62  89 123 162 207 253 302 361
#     4  11  22  41  66  90 121 165 209 250 302 365
#     4  10  23  43  65  89 119 159 207 253 303 368
#
# _framework density 20.762557000000001
#
# number of rings (size 3 to 8) (size 9 to 14) (size 15 to 20)
#    0.000    1.750    1.250    2.250    3.500    1.750 
#    0.000    3.750    0.000    0.000    0.000    0.000 
#    0.000    0.000    0.000    0.000    0.000    0.000 
#
# Total GULP energy -396854.103345 kJ/mol
# GULP energy per Si atom -12401.690730 kJ/mol
# Density = 2.071530 g / cm^3
# Si number density = 20.762557 Si / 1000 Ang^3
#
#
#
# Elastic Constant Matrix: (Units=GPa)
#
#
# Indices 1 2 3 4 5 6 
#
# 1 121.8180 19.6974 42.8660 0.0000 -7.5026 0.0000
# 2 19.6974 26.2600 16.8409 0.0000 -2.3774 0.0000
# 3 42.8660 16.8409 95.9482 0.0000 7.7129 0.0000
# 4 0.0000 0.0000 0.0000 18.2803 0.0000 6.3549
# 5 -7.5026 -2.3774 7.7129 0.0000 33.0272 0.0000
# 6 0.0000 0.0000 0.0000 6.3549 0.0000 30.7743
#
#
#
# Elastic Compliance Matrix: (Units=1/GPa)
#
#
# Indices 1 2 3 4 5 6 
#
# 1 0.010665 -0.005088 -0.004114 0.000000 0.003017 0.000000
# 2 -0.005088 0.046144 -0.006115 0.000000 0.003594 0.000000
# 3 -0.004114 -0.006115 0.013701 0.000000 -0.004574 0.000000
# 4 0.000000 0.000000 0.000000 0.058934 0.000000 -0.012170
# 5 0.003017 0.003594 -0.004574 0.000000 0.032290 0.000000
# 6 0.000000 0.000000 0.000000 -0.012170 0.000000 0.035008
#
#
# Mechanical properties :
#
#
# Convention : Reuss Voigt Hill
#
# Bulk Modulus (GPa) = 25.07771 44.75940 34.91856
# Shear Modulus (GPa) = 20.77529 27.39116 24.08322
#
# Velocity S-wave (km/s) = 3.16668 3.63610 3.40948
# Velocity P-wave (km/s) = 5.04728 6.26361 5.68805
#
# Compressibility (1/GPa) = 0.03987604
#
# Stress axis : x y z
#
# Youngs Moduli (GPa) = 93.76193 21.67121 72.98508
#
# Poissons Ratio (x) = 0.11027 0.30028
# Poissons Ratio (y) = 0.47708 0.44630
# Poissons Ratio (z) = 0.38577 0.13252
#
# Static dielectric constant tensor:
#      x y z
#    x 3.852940 0.000000 0.052630 
#    y 0.000000 3.536390 0.000000 
#    z 0.052630 0.000000 3.869580 
# 
# 
# High freq. dielectric constant tensor:
#      x y z
#    x 1.823360 0.000000 0.000410 
#    y 0.000000 1.797550 0.000000 
#    z 0.000410 0.000000 1.816130 
# 
# From -- ./inp_files/295832.got.cif
#   From: 2010.06.25/outbox.cif.g09.slc.cpg/sg12_148_cif.got.tgz:295832.got - 2010.06.28 00:19:55.
