data_PCOD8107079
_publ_section_title
;
Structure prediction by ZEFSAII (Michael W. Deem and Ramdas Pophale) SiO2 
 PCOD8107079
Probable space group: C 2/M
;
_chemical_formula_sum "Si O2"
_cell_formula_units_Z 40
_cell_length_a 9.885618
_cell_length_b 23.903411
_cell_length_c 8.471571
_cell_angle_alpha 90.000000
_cell_angle_beta 90.386545
_cell_angle_gamma 90.000000
_cell_volume 2001.786586
_symmetry_space_group_name_H-M "C 2/M"
_symmetry_group_IT_number 12
_symmetry_cell_setting 'monoclinic'
loop_
_space_group_symop_operation_xyz
x,y,z
-x,y,-z
-x,-y,-z
x,-y,z
1/2+x,1/2+y,z
1/2-x,1/2+y,-z
1/2-x,1/2-y,-z
1/2+x,1/2-y,z
loop_
_atom_site_type_symbol
_atom_site_label
_atom_site_fract_x
_atom_site_fract_y
_atom_site_fract_z
Si Si1 0.907999 0.897477 0.355689
Si Si2 0.054804 0.210940 0.824797
Si Si3 0.610522 0.894413 0.366623
Si Si4 0.687142 0.767037 0.330856
Si Si5 0.915590 0.000000 0.155711
Si Si6 0.598223 0.000000 0.149598
O O1 0.900685 0.851305 0.218899
O O2 0.760163 0.911194 0.427565
O O3 0.000000 0.878218 0.500000
O O4 0.965974 0.949807 0.264625
O O5 0.193147 0.245748 0.795783
O O6 0.936809 0.226489 0.702512
O O7 0.000000 0.218394 0.000000
O O8 0.500000 0.898042 0.500000
O O9 0.625083 0.829756 0.311221
O O10 0.565836 0.941318 0.238525
O O11 0.750000 0.750000 0.500000
O O12 0.757316 0.000000 0.107542
O O13 0.000000 0.000000 0.000000
O O14 0.500000 0.000000 0.000000
#
# Coordination Sequence:
#
# PCOD8107079 Si02
#       6
#     8   8   8   8   4   4
#     4  10  21  37  58  83 113 150 192 238 292 353
#     4  11  22  37  57  85 118 152 191 243 297 350
#     4  10  21  38  59  84 113 148 193 241 283 342
#     4  11  22  39  61  86 117 156 199 242 294 357
#     4  10  21  38  58  84 116 148 191 242 294 354
#     4  10  23  40  58  84 118 152 189 238 294 346
#
# _framework density 19.982149
#
# number of rings (size 3 to 8) (size 9 to 14) (size 15 to 20)
#    0.000    1.600    0.000    6.000    0.000    2.400 
#    0.000    8.000    0.000    0.000    0.000    0.000 
#    0.000    0.000    0.000    0.000    0.000    0.000 
#
# Total GULP energy -247766.282866 kJ/mol
# GULP energy per Si atom -12388.314143 kJ/mol
# Density = 1.993667 g / cm^3
# Si number density = 19.982149 Si / 1000 Ang^3
#
#
#
# Elastic Constant Matrix: (Units=GPa)
#
#
# Indices 1 2 3 4 5 6 
#
# 1 114.5143 32.7032 59.3843 0.0000 -24.1354 0.0000
# 2 32.7032 96.2019 34.3979 0.0000 -2.9786 0.0000
# 3 59.3843 34.3979 104.5630 0.0000 -18.9156 0.0000
# 4 0.0000 0.0000 0.0000 24.7316 0.0000 -0.8457
# 5 -24.1354 -2.9786 -18.9156 0.0000 49.7713 0.0000
# 6 0.0000 0.0000 0.0000 -0.8457 0.0000 27.8174
#
#
#
# Elastic Compliance Matrix: (Units=1/GPa)
#
#
# Indices 1 2 3 4 5 6 
#
# 1 0.013410 -0.002234 -0.006152 0.000000 0.004031 0.000000
# 2 -0.002234 0.012184 -0.003010 0.000000 -0.001498 0.000000
# 3 -0.006152 -0.003010 0.014470 0.000000 0.002336 0.000000
# 4 0.000000 0.000000 0.000000 0.040476 0.000000 0.001231
# 5 0.004031 -0.001498 0.002336 0.000000 0.022845 0.000000
# 6 0.000000 0.000000 0.000000 0.001231 0.000000 0.035986
#
#
# Mechanical properties :
#
#
# Convention : Reuss Voigt Hill
#
# Bulk Modulus (GPa) = 57.89721 63.13891 60.51806
# Shear Modulus (GPa) = 29.77553 33.05031 31.41292
#
# Velocity S-wave (km/s) = 3.86438 4.07134 3.96921
# Velocity P-wave (km/s) = 6.99633 7.33262 7.16645
#
# Compressibility (1/GPa) = 0.01727199
#
# Stress axis : x y z
#
# Youngs Moduli (GPa) = 74.56844 82.07256 69.10670
#
# Poissons Ratio (x) = 0.18338 0.42514
# Poissons Ratio (y) = 0.16661 0.20804
# Poissons Ratio (z) = 0.45874 0.24707
#
# Static dielectric constant tensor:
#      x y z
#    x 3.931200 0.000000 -0.202710 
#    y 0.000000 3.690060 0.000000 
#    z -0.202710 0.000000 3.341890 
# 
# 
# High freq. dielectric constant tensor:
#      x y z
#    x 1.798850 0.000000 -0.013320 
#    y 0.000000 1.791210 0.000000 
#    z -0.013320 0.000000 1.762000 
# 
# From -- ./inp_files/39388.got.cif
#   From: 2010.06.25/outbox.cif.g09.slc.cpg/sg12_20_cif.got.tgz:39388.got - 2010.06.28 00:19:55.
