data_PCOD8107617
_publ_section_title
;
Structure prediction by ZEFSAII (Michael W. Deem and Ramdas Pophale) SiO2 
 PCOD8107617
Probable space group: C 2/M
;
_chemical_formula_sum "Si O2"
_cell_formula_units_Z 48
_cell_length_a 17.205425
_cell_length_b 16.707081
_cell_length_c 9.138009
_cell_angle_alpha 90.000000
_cell_angle_beta 105.087624
_cell_angle_gamma 90.000000
_cell_volume 2536.196109
_symmetry_space_group_name_H-M "C 2/M"
_symmetry_group_IT_number 12
_symmetry_cell_setting 'monoclinic'
loop_
_space_group_symop_operation_xyz
x,y,z
-x,y,-z
-x,-y,-z
x,-y,z
1/2+x,1/2+y,z
1/2-x,1/2+y,-z
1/2-x,1/2-y,-z
1/2+x,1/2-y,z
loop_
_atom_site_type_symbol
_atom_site_label
_atom_site_fract_x
_atom_site_fract_y
_atom_site_fract_z
Si Si1 0.005901 0.408988 0.830497
Si Si2 0.409548 0.313497 0.446174
Si Si3 0.701213 0.592779 0.409719
Si Si4 0.854433 0.332011 0.612743
Si Si5 0.867867 0.273807 0.147160
Si Si6 0.693116 0.284872 0.170145
O O1 0.029839 0.500000 0.801383
O O2 0.073593 0.349365 0.802738
O O3 0.919934 0.390184 0.716157
O O4 0.000000 0.398042 0.000000
O O5 0.500000 0.345081 0.500000
O O6 0.352056 0.383627 0.476170
O O7 0.399184 0.232354 0.533925
O O8 0.391167 0.297284 0.267605
O O9 0.694840 0.500000 0.376836
O O10 0.793860 0.617306 0.482847
O O11 0.666886 0.636526 0.247639
O O12 0.801302 0.288431 0.711921
O O13 0.777773 0.303329 0.134898
O O14 0.873002 0.237159 0.985532
#
# Coordination Sequence:
#
# PCOD8107617 Si02
#       6
#     8   8   8   8   8   8
#     4  11  23  36  56  92 127 152 182 234 304 351
#     4  11  21  37  63  85 114 152 202 238 283 344
#     4  11  23  40  59  85 121 153 192 247 291 337
#     4  11  19  39  60  86 117 159 189 231 290 360
#     4  11  20  38  60  86 115 155 195 239 274 345
#     4  10  21  37  62  82 113 158 204 229 281 348
#
# _framework density 18.925982000000001
#
# number of rings (size 3 to 8) (size 9 to 14) (size 15 to 20)
#    0.000    1.167    6.667    1.500    0.000    1.000 
#    0.000    1.667    0.000    1.000    0.000    0.000 
#    0.000    0.000    0.000    0.000    0.000    0.000 
#
# Total GULP energy -297663.166398 kJ/mol
# GULP energy per Si atom -12402.631933 kJ/mol
# Density = 1.888291 g / cm^3
# Si number density = 18.925982 Si / 1000 Ang^3
#
#
#
# Elastic Constant Matrix: (Units=GPa)
#
#
# Indices 1 2 3 4 5 6 
#
# 1 84.8689 33.4498 9.6909 0.0000 2.6729 0.0000
# 2 33.4498 115.7147 40.6685 0.0000 0.4993 0.0000
# 3 9.6909 40.6685 101.2233 0.0000 4.2439 0.0000
# 4 0.0000 0.0000 0.0000 20.7317 0.0000 -1.1169
# 5 2.6729 0.4993 4.2439 0.0000 24.1848 0.0000
# 6 0.0000 0.0000 0.0000 -1.1169 0.0000 20.6712
#
#
#
# Elastic Compliance Matrix: (Units=1/GPa)
#
#
# Indices 1 2 3 4 5 6 
#
# 1 0.013358 -0.003991 0.000386 0.000000 -0.001462 0.000000
# 2 -0.003991 0.011261 -0.004182 0.000000 0.000942 0.000000
# 3 0.000386 -0.004182 0.011606 0.000000 -0.001993 0.000000
# 4 0.000000 0.000000 0.000000 0.048376 0.000000 0.002614
# 5 -0.001462 0.000942 -0.001993 0.000000 0.041840 0.000000
# 6 0.000000 0.000000 0.000000 0.002614 0.000000 0.048518
#
#
# Mechanical properties :
#
#
# Convention : Reuss Voigt Hill
#
# Bulk Modulus (GPa) = 48.42294 52.15836 50.29065
# Shear Modulus (GPa) = 25.32726 27.65074 26.48900
#
# Velocity S-wave (km/s) = 3.66215 3.82644 3.74519
# Velocity P-wave (km/s) = 6.59718 6.86594 6.73290
#
# Compressibility (1/GPa) = 0.02065137
#
# Stress axis : x y z
#
# Youngs Moduli (GPa) = 74.86321 88.80067 86.16298
#
# Poissons Ratio (x) = 0.35437 -0.03324
# Poissons Ratio (y) = 0.29875 0.36032
# Poissons Ratio (z) = -0.02888 0.37135
#
# Static dielectric constant tensor:
#      x y z
#    x 3.455040 0.000000 0.030720 
#    y 0.000000 3.250740 0.000000 
#    z 0.030720 0.000000 3.711830 
# 
# 
# High freq. dielectric constant tensor:
#      x y z
#    x 1.736480 0.000000 0.000000 
#    y 0.000000 1.709340 0.000000 
#    z 0.000000 0.000000 1.747910 
# 
# From -- ./inp_files/61748.got.cif
#   From: 2010.06.25/outbox.cif.g09.slc.cpg/sg12_31_cif.got.tgz:61748.got - 2010.06.28 00:19:55.
