data_PCOD8107216
_publ_section_title
;
Structure prediction by ZEFSAII (Michael W. Deem and Ramdas Pophale) SiO2 
 PCOD8107216
Probable space group: C 2/M
;
_chemical_formula_sum "Si O2"
_cell_formula_units_Z 64
_cell_length_a 14.696895
_cell_length_b 8.821240
_cell_length_c 29.809358
_cell_angle_alpha 90.000000
_cell_angle_beta 60.459956
_cell_angle_gamma 90.000000
_cell_volume 3362.271351
_symmetry_space_group_name_H-M "C 2/M"
_symmetry_group_IT_number 12
_symmetry_cell_setting 'monoclinic'
loop_
_space_group_symop_operation_xyz
x,y,z
-x,y,-z
-x,-y,-z
x,-y,z
1/2+x,1/2+y,z
1/2-x,1/2+y,-z
1/2-x,1/2-y,-z
1/2+x,1/2-y,z
loop_
_atom_site_type_symbol
_atom_site_label
_atom_site_fract_x
_atom_site_fract_y
_atom_site_fract_z
Si Si1 0.734919 0.679836 0.606414
Si Si2 0.892747 0.828872 0.500000
Si Si3 0.560806 0.674697 0.939195
Si Si4 0.552252 0.179836 0.606413
Si Si5 0.788427 0.325537 0.211571
Si Si6 0.321432 0.821325 0.678567
Si Si7 0.521205 0.178704 0.128445
Si Si8 0.721904 0.678705 0.128445
O O1 0.734637 0.500000 0.603705
O O2 0.808296 0.741283 0.549502
O O3 0.621071 0.750000 0.628928
O O4 0.767071 0.741285 0.647170
O O5 0.907299 0.741283 0.450499
O O6 0.000000 0.830027 0.500000
O O7 0.853693 0.000000 0.500000
O O8 0.578347 0.500000 0.921652
O O9 0.488417 0.752812 0.919022
O O10 0.673539 0.752810 0.919023
O O11 0.500000 0.692349 0.000000
O O12 0.438588 0.241285 0.647169
O O13 0.557952 0.000000 0.603705
O O14 0.772959 0.500000 0.227036
O O15 0.737059 0.229462 0.262941
O O16 0.728851 0.285196 0.179796
O O17 0.911557 0.285204 0.179796
O O18 0.321820 0.000000 0.678179
O O19 0.617273 0.250002 0.132726
O O20 0.540042 0.000000 0.119583
O O21 0.720795 0.500000 0.119584
#
# Coordination Sequence:
#
# PCOD8107216 Si02
#       8
#     8   8   8   8   8   8   8   8
#     4  11  23  40  59  83 113 146 184 226 276 334
#     4  11  22  37  60  86 110 144 184 223 275 333
#     4  10  21  37  58  87 122 159 198 242 291 341
#     4  11  23  40  59  83 113 146 184 226 276 334
#     4   9  21  39  59  83 113 147 189 240 289 338
#     4  10  23  40  59  82 112 148 185 229 285 339
#     4  10  21  38  60  87 117 155 199 241 290 343
#     4  10  21  38  60  87 117 155 199 241 290 343
#
# _framework density 19.034749999999999
#
# number of rings (size 3 to 8) (size 9 to 14) (size 15 to 20)
#    0.000    1.750    1.250    3.375    0.000    8.000 
#    0.000    5.000    0.000    0.000    0.000    0.000 
#    0.000    0.000    0.000    0.000    0.000    0.000 
#
# Total GULP energy -396806.705809 kJ/mol
# GULP energy per Si atom -12400.209557 kJ/mol
# Density = 1.899143 g / cm^3
# Si number density = 19.034750 Si / 1000 Ang^3
#
#
#
# Elastic Constant Matrix: (Units=GPa)
#
#
# Indices 1 2 3 4 5 6 
#
# 1 179.1700 66.1093 66.8249 0.0000 0.0003 0.0000
# 2 66.1093 102.6656 48.1142 0.0000 -0.0001 0.0000
# 3 66.8249 48.1142 116.8023 0.0000 0.0007 0.0000
# 4 0.0000 0.0000 0.0000 35.4909 0.0000 0.0000
# 5 0.0003 -0.0001 0.0007 0.0000 27.1917 0.0000
# 6 0.0000 0.0000 0.0000 0.0000 0.0000 36.6426
#
#
#
# Elastic Compliance Matrix: (Units=1/GPa)
#
#
# Indices 1 2 3 4 5 6 
#
# 1 0.008132 -0.003787 -0.003092 0.000000 0.000000 0.000000
# 2 -0.003787 0.013834 -0.003532 0.000000 0.000000 0.000000
# 3 -0.003092 -0.003532 0.011786 0.000000 0.000000 0.000000
# 4 0.000000 0.000000 0.000000 0.028176 0.000000 0.000000
# 5 0.000000 0.000000 0.000000 0.000000 0.036776 0.000000
# 6 0.000000 0.000000 0.000000 0.000000 0.000000 0.027291
#
#
# Mechanical properties :
#
#
# Convention : Reuss Voigt Hill
#
# Bulk Modulus (GPa) = 77.34726 84.52608 80.93667
# Shear Modulus (GPa) = 33.08458 34.37100 33.72779
#
# Velocity S-wave (km/s) = 4.17359 4.25396 4.21397
# Velocity P-wave (km/s) = 7.99676 8.28437 8.14184
#
# Compressibility (1/GPa) = 0.01292871
#
# Stress axis : x y z
#
# Youngs Moduli (GPa) = 122.97007 72.28401 84.84871
#
# Poissons Ratio (x) = 0.27375 0.26239
# Poissons Ratio (y) = 0.46571 0.29969
# Poissons Ratio (z) = 0.38028 0.25531
#
# Static dielectric constant tensor:
#      x y z
#    x 3.959530 0.000000 0.000010 
#    y 0.000000 3.610760 0.000000 
#    z 0.000010 0.000000 3.384800 
# 
# 
# High freq. dielectric constant tensor:
#      x y z
#    x 1.755920 0.000000 0.000000 
#    y 0.000000 1.751620 0.000000 
#    z 0.000000 0.000000 1.737180 
# 
# From -- ./inp_files/375065.got.cif
#   From: 2010.06.25/outbox.cif.g09.slc.cpg/sg12_188_cif.got.tgz:375065.got - 2010.06.28 00:19:55.
