data_PCOD8107715
_publ_section_title
;
Structure prediction by ZEFSAII (Michael W. Deem and Ramdas Pophale) SiO2 
 PCOD8107715
Probable space group: C 2/M
;
_chemical_formula_sum "Si O2"
_cell_formula_units_Z 56
_cell_length_a 9.693771
_cell_length_b 17.881164
_cell_length_c 17.005316
_cell_angle_alpha 90.000000
_cell_angle_beta 72.869581
_cell_angle_gamma 90.000000
_cell_volume 2816.865437
_symmetry_space_group_name_H-M "C 2/M"
_symmetry_group_IT_number 12
_symmetry_cell_setting 'monoclinic'
loop_
_space_group_symop_operation_xyz
x,y,z
-x,y,-z
-x,-y,-z
x,-y,z
1/2+x,1/2+y,z
1/2-x,1/2+y,-z
1/2-x,1/2-y,-z
1/2+x,1/2-y,z
loop_
_atom_site_type_symbol
_atom_site_label
_atom_site_fract_x
_atom_site_fract_y
_atom_site_fract_z
Si Si1 0.397858 0.668730 0.848859
Si Si2 0.210433 0.812052 0.849992
Si Si3 0.333814 0.418063 0.006196
Si Si4 0.056043 0.836820 0.329012
Si Si5 0.100843 0.334140 0.322261
Si Si6 0.189423 0.413085 0.621609
Si Si7 0.240281 0.167999 0.541874
O O1 0.282749 0.732790 0.851471
O O2 0.539894 0.701347 0.867775
O O3 0.318226 0.610489 0.919434
O O4 0.441928 0.627847 0.759260
O O5 0.271905 0.851805 0.760886
O O6 0.246055 0.863734 0.919018
O O7 0.261471 0.500000 0.023387
O O8 0.500000 0.423930 0.000000
O O9 0.041478 0.748499 0.317303
O O10 0.200804 0.861382 0.348389
O O11 0.918912 0.858033 0.404813
O O12 0.153365 0.337432 0.402695
O O13 0.973350 0.392761 0.326605
O O14 0.219812 0.500000 0.633237
O O15 0.208362 0.395135 0.526811
O O16 0.250000 0.250000 0.500000
#
# Coordination Sequence:
#
# PCOD8107715 Si02
#       7
#     8   8   8   8   8   8   8
#     4  10  21  37  64  96 122 155 209 259 305 362
#     4  10  21  37  64  96 122 155 209 259 305 362
#     4   9  19  38  61  87 122 167 204 246 309 374
#     4  11  22  40  65  93 123 167 212 259 311 382
#     4  11  22  40  65  93 123 167 212 259 311 382
#     4  12  28  42  60  95 132 164 205 269 331 363
#     4  12  22  40  66  93 122 166 218 261 307 379
#
# _framework density 19.880253
#
# number of rings (size 3 to 8) (size 9 to 14) (size 15 to 20)
#    0.000    1.286    4.286    1.286    6.000    3.429 
#    0.000    0.000    0.000    0.857    0.000    0.000 
#    0.000    0.000    0.000    0.000    0.000    0.000 
#
# Total GULP energy -347193.248674 kJ/mol
# GULP energy per Si atom -12399.758881 kJ/mol
# Density = 1.983501 g / cm^3
# Si number density = 19.880253 Si / 1000 Ang^3
#
#
#
# Elastic Constant Matrix: (Units=GPa)
#
#
# Indices 1 2 3 4 5 6 
#
# 1 72.7847 6.8882 6.7566 0.0000 6.4483 0.0000
# 2 6.8882 65.6288 18.8995 0.0000 2.6033 0.0000
# 3 6.7566 18.8995 110.4738 0.0000 17.8763 0.0000
# 4 0.0000 0.0000 0.0000 19.4866 0.0000 -2.8583
# 5 6.4483 2.6033 17.8763 0.0000 27.5352 0.0000
# 6 0.0000 0.0000 0.0000 -2.8583 0.0000 16.0449
#
#
#
# Elastic Compliance Matrix: (Units=1/GPa)
#
#
# Indices 1 2 3 4 5 6 
#
# 1 0.014152 -0.001323 -0.000138 0.000000 -0.003100 0.000000
# 2 -0.001323 0.016153 -0.002777 0.000000 0.000586 0.000000
# 3 -0.000138 -0.002777 0.010601 0.000000 -0.006588 0.000000
# 4 0.000000 0.000000 0.000000 0.052694 0.000000 0.009387
# 5 -0.003100 0.000586 -0.006588 0.000000 0.041265 0.000000
# 6 0.000000 0.000000 0.000000 0.009387 0.000000 0.063997
#
#
# Mechanical properties :
#
#
# Convention : Reuss Voigt Hill
#
# Bulk Modulus (GPa) = 30.83506 34.88620 32.86063
# Shear Modulus (GPa) = 22.92031 27.03621 24.97826
#
# Velocity S-wave (km/s) = 3.39915 3.69175 3.54847
# Velocity P-wave (km/s) = 5.56324 5.97983 5.77529
#
# Compressibility (1/GPa) = 0.03243062
#
# Stress axis : x y z
#
# Youngs Moduli (GPa) = 70.66273 61.90962 94.32664
#
# Poissons Ratio (x) = 0.08189 0.01298
# Poissons Ratio (y) = 0.09347 0.26196
# Poissons Ratio (z) = 0.00973 0.17193
#
# Static dielectric constant tensor:
#      x y z
#    x 3.481810 0.000000 0.032940 
#    y 0.000000 3.456690 0.000000 
#    z 0.032940 0.000000 4.207560 
# 
# 
# High freq. dielectric constant tensor:
#      x y z
#    x 1.769340 0.000000 0.002890 
#    y 0.000000 1.746050 0.000000 
#    z 0.002890 0.000000 1.797540 
# 
# From -- ./inp_files/257058.got.cif
#   From: 2010.06.25/outbox.cif.g09.slc.cpg/sg12_129_cif.got.tgz:257058.got - 2010.06.28 00:19:55.
