data_PCOD8107541
_publ_section_title
;
Structure prediction by ZEFSAII (Michael W. Deem and Ramdas Pophale) SiO2 
 PCOD8107541
Probable space group: C 2/M
;
_chemical_formula_sum "Si O2"
_cell_formula_units_Z 56
_cell_length_a 23.429910
_cell_length_b 17.163554
_cell_length_c 14.343062
_cell_angle_alpha 90.000000
_cell_angle_beta 148.020548
_cell_angle_gamma 90.000000
_cell_volume 3054.780933
_symmetry_space_group_name_H-M "C 2/M"
_symmetry_group_IT_number 12
_symmetry_cell_setting 'monoclinic'
loop_
_space_group_symop_operation_xyz
x,y,z
-x,y,-z
-x,-y,-z
x,-y,z
1/2+x,1/2+y,z
1/2-x,1/2+y,-z
1/2-x,1/2-y,-z
1/2+x,1/2-y,z
loop_
_atom_site_type_symbol
_atom_site_label
_atom_site_fract_x
_atom_site_fract_y
_atom_site_fract_z
Si Si1 0.391373 0.408925 0.291331
Si Si2 0.572356 0.313272 0.839451
Si Si3 0.201121 0.588314 0.475340
Si Si4 0.744082 0.215014 0.180027
Si Si5 0.877785 0.283439 0.514592
Si Si6 0.323713 0.201154 0.716622
Si Si7 0.563106 0.646100 0.175843
O O1 0.500000 0.394444 0.500000
O O2 0.360805 0.500000 0.248048
O O3 0.404914 0.379332 0.204974
O O4 0.293084 0.361494 0.200638
O O5 0.498931 0.245175 0.694007
O O6 0.515058 0.359258 0.843676
O O7 0.681133 0.269439 0.020393
O O8 0.164978 0.500000 0.426157
O O9 0.138323 0.627410 0.475784
O O10 0.159723 0.623181 0.319575
O O11 0.329834 0.595391 0.662173
O O12 0.839370 0.269842 0.354775
O O13 0.666959 0.186147 0.158550
O O14 0.797755 0.234133 0.473221
O O15 0.412719 0.263360 0.810342
O O16 0.500000 0.610428 0.000000
#
# Coordination Sequence:
#
# PCOD8107541 Si02
#       7
#     8   8   8   8   8   8   8
#     4  11  24  41  60  91 123 146 190 256 308 343
#     4  12  19  36  66  84 114 162 197 238 294 346
#     4  11  20  31  51  84 124 157 186 239 301 343
#     4  10  21  37  61  85 112 157 202 240 283 353
#     4   9  18  36  54  81 115 153 205 236 277 357
#     4   9  17  33  55  78 114 151 197 233 272 348
#     4  11  18  34  58  84 115 148 200 242 275 347
#
# _framework density 18.33192
#
# number of rings (size 3 to 8) (size 9 to 14) (size 15 to 20)
#    0.857    0.714    5.714    1.286    0.000    1.429 
#    0.000    2.857    0.000    1.286    0.000    2.000 
#    0.000    0.000    0.000    0.000    0.000    0.000 
#
# Total GULP energy -347092.476880 kJ/mol
# GULP energy per Si atom -12396.159889 kJ/mol
# Density = 1.829020 g / cm^3
# Si number density = 18.331920 Si / 1000 Ang^3
#
#
#
# Elastic Constant Matrix: (Units=GPa)
#
#
# Indices 1 2 3 4 5 6 
#
# 1 89.6144 37.6492 16.6025 0.0000 -23.0002 0.0000
# 2 37.6492 102.8317 16.2944 0.0000 -16.4607 0.0000
# 3 16.6025 16.2944 79.8076 0.0000 -21.6347 0.0000
# 4 0.0000 0.0000 0.0000 21.6502 0.0000 -2.4292
# 5 -23.0002 -16.4607 -21.6347 0.0000 21.2307 0.0000
# 6 0.0000 0.0000 0.0000 -2.4292 0.0000 21.3928
#
#
#
# Elastic Compliance Matrix: (Units=1/GPa)
#
#
# Indices 1 2 3 4 5 6 
#
# 1 0.016792 -0.003684 0.001957 0.000000 0.017329 0.000000
# 2 -0.003684 0.011911 -0.000337 0.000000 0.004901 0.000000
# 3 0.001957 -0.000337 0.017541 0.000000 0.019734 0.000000
# 4 0.000000 0.000000 0.000000 0.046785 0.000000 0.005313
# 5 0.017329 0.004901 0.019734 0.000000 0.089783 0.000000
# 6 0.000000 0.000000 0.000000 0.005313 0.000000 0.047348
#
#
# Mechanical properties :
#
#
# Convention : Reuss Voigt Hill
#
# Bulk Modulus (GPa) = 23.74431 45.92733 34.83582
# Shear Modulus (GPa) = 20.13464 26.30190 23.21827
#
# Velocity S-wave (km/s) = 3.31771 3.79193 3.56272
# Velocity P-wave (km/s) = 5.25898 6.65427 5.99734
#
# Compressibility (1/GPa) = 0.04211536
#
# Stress axis : x y z
#
# Youngs Moduli (GPa) = 59.55314 83.95383 57.00794
#
# Poissons Ratio (x) = 0.30929 -0.11154
# Poissons Ratio (y) = 0.21939 0.01922
# Poissons Ratio (z) = -0.11652 0.02830
#
# Static dielectric constant tensor:
#      x y z
#    x 3.262350 0.000000 -0.157130 
#    y 0.000000 3.024950 0.000000 
#    z -0.157130 0.000000 3.392090 
# 
# 
# High freq. dielectric constant tensor:
#      x y z
#    x 1.701500 0.000000 -0.013450 
#    y 0.000000 1.678450 0.000000 
#    z -0.013450 0.000000 1.713000 
# 
# From -- ./inp_files/246576.got.cif
#   From: 2010.06.25/outbox.cif.g09.slc.cpg/sg12_124_cif.got.tgz:246576.got - 2010.06.28 00:19:55.
