data_PCOD8107890
_publ_section_title
;
Structure prediction by ZEFSAII (Michael W. Deem and Ramdas Pophale) SiO2 
 PCOD8107890
Probable space group: C 2/M
;
_chemical_formula_sum "Si O2"
_cell_formula_units_Z 56
_cell_length_a 17.993363
_cell_length_b 27.947271
_cell_length_c 9.268516
_cell_angle_alpha 90.000000
_cell_angle_beta 35.041721
_cell_angle_gamma 90.000000
_cell_volume 2676.113571
_symmetry_space_group_name_H-M "C 2/M"
_symmetry_group_IT_number 12
_symmetry_cell_setting 'monoclinic'
loop_
_space_group_symop_operation_xyz
x,y,z
-x,y,-z
-x,-y,-z
x,-y,z
1/2+x,1/2+y,z
1/2-x,1/2+y,-z
1/2-x,1/2-y,-z
1/2+x,1/2-y,z
loop_
_atom_site_type_symbol
_atom_site_label
_atom_site_fract_x
_atom_site_fract_y
_atom_site_fract_z
Si Si1 0.857972 0.379200 0.961837
Si Si2 0.852207 0.300137 0.193645
Si Si3 0.768072 0.053024 0.641641
Si Si4 0.956257 0.948492 0.732633
Si Si5 0.896134 0.443584 0.373839
Si Si6 0.757969 0.614089 0.819153
Si Si7 0.653545 0.689860 0.766812
O O1 0.856753 0.371908 0.791158
O O2 0.984701 0.407332 0.813959
O O3 0.835681 0.327412 0.068612
O O4 0.743872 0.413582 0.198616
O O5 0.738230 0.317045 0.485603
O O6 0.836491 0.243889 0.192863
O O7 0.000000 0.312059 0.000000
O O8 0.683930 0.071183 0.640708
O O9 0.918822 0.053601 0.359979
O O10 0.721272 0.000000 0.759243
O O11 0.000000 0.946078 0.500000
O O12 0.885973 0.000000 0.871048
O O13 0.873566 0.902379 0.899049
O O14 0.934235 0.500000 0.314128
O O15 0.811339 0.431709 0.648366
O O16 0.729364 0.659211 0.764869
O O17 0.500000 0.675364 0.000000
#
# Coordination Sequence:
#
# PCOD8107890 Si02
#       7
#     8   8   8   8   8   8   8
#     4  12  23  38  64  90 127 163 207 256 313 378
#     4  10  22  45  69  92 124 169 214 261 324 384
#     4  10  21  38  60  86 118 164 212 251 296 363
#     4  10  21  38  58  84 125 166 204 248 306 374
#     4  11  25  41  61  93 128 169 217 263 310 370
#     4  12  25  37  61  94 127 163 204 258 325 369
#     4  10  24  43  68  96 126 164 213 268 321 384
#
# _framework density 20.925868000000001
#
# number of rings (size 3 to 8) (size 9 to 14) (size 15 to 20)
#    0.000    1.286    1.429    4.286    4.000    4.000 
#    0.000    2.143    0.000    5.143    0.000    0.000 
#    0.000    0.000    0.000    0.000    0.000    0.000 
#
# Total GULP energy -346981.049978 kJ/mol
# GULP energy per Si atom -12392.180356 kJ/mol
# Density = 2.087824 g / cm^3
# Si number density = 20.925868 Si / 1000 Ang^3
#
#
#
# Elastic Constant Matrix: (Units=GPa)
#
#
# Indices 1 2 3 4 5 6 
#
# 1 108.9669 44.5048 34.8043 0.0000 10.9813 0.0000
# 2 44.5048 91.2950 31.9895 0.0000 8.3984 0.0000
# 3 34.8043 31.9895 95.4079 0.0000 -5.1729 0.0001
# 4 0.0000 0.0000 0.0000 36.3521 0.0000 0.0114
# 5 10.9813 8.3984 -5.1729 0.0000 29.1718 0.0000
# 6 0.0000 0.0000 0.0001 0.0114 0.0000 -9.1395
#
#
#
# Elastic Compliance Matrix: (Units=1/GPa)
#
#
# Indices 1 2 3 4 5 6 
#
# 1 0.012481 -0.004590 -0.003228 0.000000 -0.003949 0.000000
# 2 -0.004590 0.014672 -0.003413 0.000000 -0.003102 0.000000
# 3 -0.003228 -0.003413 0.013048 0.000000 0.004512 0.000000
# 4 0.000000 0.000000 0.000000 0.027509 0.000000 0.000034
# 5 -0.003949 -0.003102 0.004512 0.000000 0.037459 0.000000
# 6 0.000000 0.000000 0.000000 0.000034 0.000000 -0.109416
#
#
# Mechanical properties :
#
#
# Convention : Reuss Voigt Hill
#
# Bulk Modulus (GPa) = 56.37427 57.58521 56.97974
# Shear Modulus (GPa) = 207.22286 23.56830 115.39558
#
# Velocity S-wave (km/s) = 9.96203 3.35964 7.43402
# Velocity P-wave (km/s) = 12.62225 6.52901 10.04861
#
# Compressibility (1/GPa) = 0.01773859
#
# Stress axis : x y z
#
# Youngs Moduli (GPa) = 80.12353 68.15578 76.64012
#
# Poissons Ratio (x) = 0.31282 0.24740
# Poissons Ratio (y) = 0.36775 0.26160
# Poissons Ratio (z) = 0.25865 0.23264
#
# Static dielectric constant tensor:
#      x y z
#    x 3.809800 0.000000 -0.143900 
#    y 0.000000 3.864140 0.000000 
#    z -0.143900 0.000000 4.208960 
# 
# 
# High freq. dielectric constant tensor:
#      x y z
#    x 1.816690 0.000000 -0.008400 
#    y 0.000000 1.821080 0.000000 
#    z -0.008400 0.000000 1.825840 
# 
# From -- ./inp_files/80008.got.cif
#   From: 2010.06.25/outbox.cif.g09.slc.cpg/sg12_41_cif.got.tgz:80008.got - 2010.06.28 00:19:55.
