data_PCOD8107465
_publ_section_title
;
Structure prediction by ZEFSAII (Michael W. Deem and Ramdas Pophale) SiO2 
 PCOD8107465
Probable space group: C 2/M
;
_chemical_formula_sum "Si O2"
_cell_formula_units_Z 56
_cell_length_a 25.148775
_cell_length_b 8.891893
_cell_length_c 12.265042
_cell_angle_alpha 90.000000
_cell_angle_beta 93.576631
_cell_angle_gamma 90.000000
_cell_volume 2737.369245
_symmetry_space_group_name_H-M "C 2/M"
_symmetry_group_IT_number 12
_symmetry_cell_setting 'monoclinic'
loop_
_space_group_symop_operation_xyz
x,y,z
-x,y,-z
-x,-y,-z
x,-y,z
1/2+x,1/2+y,z
1/2-x,1/2+y,-z
1/2-x,1/2-y,-z
1/2+x,1/2-y,z
loop_
_atom_site_type_symbol
_atom_site_label
_atom_site_fract_x
_atom_site_fract_y
_atom_site_fract_z
Si Si1 0.554333 0.677463 0.749980
Si Si2 0.552808 0.178754 0.298755
Si Si3 0.200702 0.672878 0.549594
Si Si4 0.149511 0.677097 0.162124
Si Si5 0.259730 0.170034 0.207577
Si Si6 0.640504 0.177251 0.914880
Si Si7 0.090916 0.177601 0.514269
O O1 0.546247 0.500000 0.757972
O O2 0.499236 0.761391 0.770937
O O3 0.598104 0.728880 0.841590
O O4 0.572029 0.726411 0.631322
O O5 0.604461 0.237364 0.238812
O O6 0.552201 0.249684 0.419501
O O7 0.551176 0.000000 0.306079
O O8 0.196624 0.500000 0.511997
O O9 0.250000 0.750000 0.500000
O O10 0.205279 0.688841 0.679543
O O11 0.149465 0.759534 0.499753
O O12 0.150337 0.500000 0.164007
O O13 0.207665 0.728560 0.206974
O O14 0.135787 0.732252 0.038653
O O15 0.299336 0.217424 0.115166
O O16 0.239749 0.000000 0.190420
O O17 0.629341 0.000000 0.897878
O O18 0.090376 0.000000 0.499144
#
# Coordination Sequence:
#
# PCOD8107465 Si02
#       7
#     8   8   8   8   8   8   8
#     4  11  24  41  63  91 120 156 202 253 304 355
#     4  11  24  41  62  89 121 161 202 246 303 363
#     4  11  22  36  57  88 123 161 201 242 298 358
#     4  10  23  40  61  89 121 158 200 247 299 355
#     4  10  21  37  60  88 119 156 199 244 294 355
#     4  10  21  41  64  88 120 158 201 247 297 358
#     4  11  23  40  61  88 121 156 200 251 301 356
#
# _framework density 20.457598000000001
#
# number of rings (size 3 to 8) (size 9 to 14) (size 15 to 20)
#    0.000    1.429    1.429    3.429    0.000    9.714 
#    0.000    2.857    0.000    0.000    0.000    0.000 
#    0.000    0.000    0.000    0.000    0.000    0.000 
#
# Total GULP energy -347351.614756 kJ/mol
# GULP energy per Si atom -12405.414813 kJ/mol
# Density = 2.041104 g / cm^3
# Si number density = 20.457598 Si / 1000 Ang^3
#
#
#
# Elastic Constant Matrix: (Units=GPa)
#
#
# Indices 1 2 3 4 5 6 
#
# 1 99.7092 27.0412 20.7070 0.0000 10.9037 0.0000
# 2 27.0412 54.3891 22.7771 0.0000 0.7973 0.0000
# 3 20.7070 22.7771 68.6572 0.0000 2.1436 0.0000
# 4 0.0000 0.0000 0.0000 29.7141 0.0000 5.5147
# 5 10.9037 0.7973 2.1436 0.0000 27.9407 0.0000
# 6 0.0000 0.0000 0.0000 5.5147 0.0000 36.6354
#
#
#
# Elastic Compliance Matrix: (Units=1/GPa)
#
#
# Indices 1 2 3 4 5 6 
#
# 1 0.012341 -0.005307 -0.001820 0.000000 -0.004525 0.000000
# 2 -0.005307 0.023635 -0.006299 0.000000 0.001880 0.000000
# 3 -0.001820 -0.006299 0.017217 0.000000 -0.000431 0.000000
# 4 0.000000 0.000000 0.000000 0.034621 0.000000 -0.005212
# 5 -0.004525 0.001880 -0.000431 0.000000 0.037535 0.000000
# 6 0.000000 0.000000 0.000000 -0.005212 0.000000 0.028080
#
#
# Mechanical properties :
#
#
# Convention : Reuss Voigt Hill
#
# Bulk Modulus (GPa) = 37.96400 40.42291 39.19346
# Shear Modulus (GPa) = 26.44608 29.00672 27.72640
#
# Velocity S-wave (km/s) = 3.59935 3.76958 3.68545
# Velocity P-wave (km/s) = 5.98928 6.22483 6.10819
#
# Compressibility (1/GPa) = 0.02634074
#
# Stress axis : x y z
#
# Youngs Moduli (GPa) = 81.02846 42.31001 58.08134
#
# Poissons Ratio (x) = 0.22455 0.10572
# Poissons Ratio (y) = 0.43004 0.36585
# Poissons Ratio (z) = 0.14749 0.26651
#
# Static dielectric constant tensor:
#      x y z
#    x 3.782230 0.000000 -0.127300 
#    y 0.000000 3.664390 0.000000 
#    z -0.127300 0.000000 3.940960 
# 
# 
# High freq. dielectric constant tensor:
#      x y z
#    x 1.811150 0.000000 0.000570 
#    y 0.000000 1.797750 0.000000 
#    z 0.000570 0.000000 1.805510 
# 
# From -- ./inp_files/181090.got.cif
#   From: 2010.06.25/outbox.cif.g09.slc.cpg/sg12_91_cif.got.tgz:181090.got - 2010.06.28 00:19:55.
