data_PCOD8107982
_publ_section_title
;
Structure prediction by ZEFSAII (Michael W. Deem and Ramdas Pophale) SiO2 
 PCOD8107982
Probable space group: C 2/M
;
_chemical_formula_sum "Si O2"
_cell_formula_units_Z 56
_cell_length_a 8.575850
_cell_length_b 18.973929
_cell_length_c 18.205723
_cell_angle_alpha 90.000000
_cell_angle_beta 76.377352
_cell_angle_gamma 90.000000
_cell_volume 2879.052938
_symmetry_space_group_name_H-M "C 2/M"
_symmetry_group_IT_number 12
_symmetry_cell_setting 'monoclinic'
loop_
_space_group_symop_operation_xyz
x,y,z
-x,y,-z
-x,-y,-z
x,-y,z
1/2+x,1/2+y,z
1/2-x,1/2+y,-z
1/2-x,1/2-y,-z
1/2+x,1/2-y,z
loop_
_atom_site_type_symbol
_atom_site_label
_atom_site_fract_x
_atom_site_fract_y
_atom_site_fract_z
Si Si1 0.670268 0.824416 0.293060
Si Si2 0.749521 0.174355 0.869322
Si Si3 0.818141 0.082457 1.000000
Si Si4 0.536672 0.324416 0.293060
Si Si5 0.889314 0.083204 0.579061
Si Si6 0.118843 0.674355 0.130678
Si Si7 0.031625 0.583204 0.579060
O O1 0.589090 0.750000 0.321817
O O2 0.632691 0.846601 0.214132
O O3 0.601627 0.883536 0.354049
O O4 0.859538 0.817754 0.280923
O O5 0.779260 0.114456 0.925413
O O6 0.846823 0.153400 0.785868
O O7 0.802648 0.250000 0.894704
O O8 0.564414 0.178559 0.871172
O O9 0.782983 0.000000 1.000000
O O10 0.704673 0.114455 0.074586
O O11 0.000000 0.099550 0.000000
O O12 0.544323 0.383535 0.354050
O O13 0.707964 0.107908 0.584073
O O14 0.000000 0.109415 0.500000
O O15 0.901314 0.000000 0.587020
O O16 0.011666 0.500000 0.587018
O O17 0.000000 0.609416 0.500000
#
# Coordination Sequence:
#
# PCOD8107982 Si02
#       7
#     8   8   8   8   8   8   8
#     4  11  22  38  60  86 116 149 190 236 284 336
#     4  11  22  39  62  86 115 150 190 233 282 339
#     4  11  24  41  60  85 117 151 190 235 282 333
#     4  11  22  38  60  86 116 149 190 236 284 336
#     4  10  21  38  59  84 115 151 191 234 283 339
#     4  11  22  39  62  86 115 150 190 233 282 339
#     4  10  21  38  59  84 115 151 191 234 283 339
#
# _framework density 19.450838999999998
#
# number of rings (size 3 to 8) (size 9 to 14) (size 15 to 20)
#    0.000    1.286    0.000    8.571    0.000    4.571 
#    0.000    2.857    0.000    0.000    0.000    0.000 
#    0.000    0.000    0.000    0.000    0.000    0.000 
#
# Total GULP energy -347382.421030 kJ/mol
# GULP energy per Si atom -12406.515037 kJ/mol
# Density = 1.940657 g / cm^3
# Si number density = 19.450839 Si / 1000 Ang^3
#
#
#
# Elastic Constant Matrix: (Units=GPa)
#
#
# Indices 1 2 3 4 5 6 
#
# 1 176.5545 63.9682 60.1234 0.0000 -1.8826 0.0000
# 2 63.9682 69.4467 65.4578 0.0000 0.0699 0.0000
# 3 60.1234 65.4578 125.2841 0.0000 -0.5156 0.0000
# 4 0.0000 0.0000 0.0000 12.0865 0.0000 -0.9316
# 5 -1.8826 0.0699 -0.5156 0.0000 38.1578 0.0000
# 6 0.0000 0.0000 0.0000 -0.9316 0.0000 31.9851
#
#
#
# Elastic Compliance Matrix: (Units=1/GPa)
#
#
# Indices 1 2 3 4 5 6 
#
# 1 0.008508 -0.007863 0.000027 0.000000 0.000435 0.000000
# 2 -0.007863 0.035640 -0.014850 0.000000 -0.000654 0.000000
# 3 0.000027 -0.014850 0.015729 0.000000 0.000241 0.000000
# 4 0.000000 0.000000 0.000000 0.082923 0.000000 0.002415
# 5 0.000435 -0.000654 0.000241 0.000000 0.026233 0.000000
# 6 0.000000 0.000000 0.000000 0.002415 0.000000 0.031335
#
#
# Mechanical properties :
#
#
# Convention : Reuss Voigt Hill
#
# Bulk Modulus (GPa) = 68.94389 83.37600 76.15994
# Shear Modulus (GPa) = 19.95404 28.56163 24.25783
#
# Velocity S-wave (km/s) = 3.20640 3.83613 3.53531
# Velocity P-wave (km/s) = 7.01642 7.91070 7.47694
#
# Compressibility (1/GPa) = 0.01450455
#
# Stress axis : x y z
#
# Youngs Moduli (GPa) = 117.53267 28.05825 63.57694
#
# Poissons Ratio (x) = 0.22062 -0.00170
# Poissons Ratio (y) = 0.92413 0.94415
# Poissons Ratio (z) = -0.00315 0.41668
#
# Static dielectric constant tensor:
#      x y z
#    x 3.789020 0.000000 -0.008200 
#    y 0.000000 3.454030 0.000000 
#    z -0.008200 0.000000 3.613760 
# 
# 
# High freq. dielectric constant tensor:
#      x y z
#    x 1.782230 0.000000 -0.000600 
#    y 0.000000 1.751640 0.000000 
#    z -0.000600 0.000000 1.769470 
# 
# From -- ./inp_files/256989.got.cif
#   From: 2010.06.25/outbox.cif.g09.slc.cpg/sg12_129_cif.got.tgz:256989.got - 2010.06.28 00:19:55.
