data_PCOD8107446
_publ_section_title
;
Structure prediction by ZEFSAII (Michael W. Deem and Ramdas Pophale) SiO2 
 PCOD8107446
Probable space group: C 2/M
;
_chemical_formula_sum "Si O2"
_cell_formula_units_Z 32
_cell_length_a 4.925799
_cell_length_b 35.254188
_cell_length_c 9.481954
_cell_angle_alpha 90.000000
_cell_angle_beta 59.505799
_cell_angle_gamma 90.000000
_cell_volume 1418.833793
_symmetry_space_group_name_H-M "C 2/M"
_symmetry_group_IT_number 12
_symmetry_cell_setting 'monoclinic'
loop_
_space_group_symop_operation_xyz
x,y,z
-x,y,-z
-x,-y,-z
x,-y,z
1/2+x,1/2+y,z
1/2-x,1/2+y,-z
1/2-x,1/2-y,-z
1/2+x,1/2-y,z
loop_
_atom_site_type_symbol
_atom_site_label
_atom_site_fract_x
_atom_site_fract_y
_atom_site_fract_z
Si Si1 0.683586 0.458136 0.806007
Si Si2 0.193804 0.774368 0.810731
Si Si3 0.320750 0.089162 0.193116
Si Si4 0.354380 0.841957 0.395271
O O1 0.696754 0.500000 0.731818
O O2 0.528599 0.426506 0.745319
O O3 0.030930 0.444066 0.751284
O O4 0.500000 0.460978 0.000000
O O5 0.429808 0.738734 0.768960
O O6 0.392150 0.809806 0.706601
O O7 0.000000 0.786450 0.000000
O O8 0.323411 0.127802 0.278664
O O9 0.500000 0.097078 0.000000
O O10 0.500000 0.860359 0.500000
O O11 0.000000 0.824978 0.500000
#
# Coordination Sequence:
#
# PCOD8107446 Si02
#       4
#     8   8   8   8
#     4   9  17  32  58  90 117 148 202 265 310 349
#     4  10  23  43  67  93 121 157 204 255 305 363
#     4  10  21  37  60  87 119 161 206 252 303 364
#     4  12  26  41  62  92 130 168 203 252 307 367
#
# _framework density 22.553736000000001
#
# number of rings (size 3 to 8) (size 9 to 14) (size 15 to 20)
#    0.000    1.750    0.000    3.750    0.000   14.000 
#    0.000    0.000    0.000   15.000    0.000    0.000 
#    0.000    0.000    0.000    0.000    0.000    0.000 
#
# Total GULP energy -198293.663414 kJ/mol
# GULP energy per Si atom -12393.353963 kJ/mol
# Density = 2.250240 g / cm^3
# Si number density = 22.553736 Si / 1000 Ang^3
#
#
#
# Elastic Constant Matrix: (Units=GPa)
#
#
# Indices 1 2 3 4 5 6 
#
# 1 133.0453 28.4038 45.5374 0.0000 0.4260 0.0000
# 2 28.4038 114.1446 54.9783 0.0000 3.9483 0.0000
# 3 45.5374 54.9783 75.6452 0.0000 -6.0060 0.0000
# 4 0.0000 0.0000 0.0000 9.6889 0.0000 18.0088
# 5 0.4260 3.9483 -6.0060 0.0000 31.5207 0.0000
# 6 0.0000 0.0000 0.0000 18.0088 0.0000 29.6970
#
#
#
# Elastic Compliance Matrix: (Units=1/GPa)
#
#
# Indices 1 2 3 4 5 6 
#
# 1 0.009556 0.000767 -0.006425 0.000000 -0.001449 0.000000
# 2 0.000767 0.013958 -0.010911 0.000000 -0.003838 0.000000
# 3 -0.006425 -0.010911 0.025519 0.000000 0.006316 0.000000
# 4 0.000000 0.000000 0.000000 -0.811690 0.000000 0.492224
# 5 -0.001449 -0.003838 0.006316 0.000000 0.033429 0.000000
# 6 0.000000 0.000000 0.000000 0.492224 0.000000 -0.264821
#
#
# Mechanical properties :
#
#
# Convention : Reuss Voigt Hill
#
# Bulk Modulus (GPa) = 62.91389 64.51935 63.71662
# Shear Modulus (GPa) = -5.23225 27.10904 10.93840
#
# Velocity S-wave (km/s) = -1.52478 3.47071 2.20464
# Velocity P-wave (km/s) = 4.98555 6.68806 5.89856
#
# Compressibility (1/GPa) = 0.01589474
#
# Stress axis : x y z
#
# Youngs Moduli (GPa) = 104.64289 71.64328 39.18658
#
# Poissons Ratio (x) = -0.05494 0.25178
# Poissons Ratio (y) = -0.08025 0.42756
# Poissons Ratio (z) = 0.67235 0.78170
#
# Static dielectric constant tensor:
#      x y z
#    x 4.627720 0.000000 -0.109520 
#    y 0.000000 3.855850 0.000000 
#    z -0.109520 0.000000 4.017830 
# 
# 
# High freq. dielectric constant tensor:
#      x y z
#    x 1.915110 0.000000 -0.004680 
#    y 0.000000 1.884040 0.000000 
#    z -0.004680 0.000000 1.866750 
# 
# From -- ./inp_files/115786.got.cif
#   From: 2010.06.25/outbox.cif.g09.slc.cpg/sg12_58_cif.got.tgz:115786.got - 2010.06.28 00:19:55.
