data_PCOD8107585
_publ_section_title
;
Structure prediction by ZEFSAII (Michael W. Deem and Ramdas Pophale) SiO2 
 PCOD8107585
Probable space group: C 2/M
;
_chemical_formula_sum "Si O2"
_cell_formula_units_Z 40
_cell_length_a 15.332634
_cell_length_b 18.954206
_cell_length_c 8.919532
_cell_angle_alpha 90.000000
_cell_angle_beta 130.971975
_cell_angle_gamma 90.000000
_cell_volume 1957.171414
_symmetry_space_group_name_H-M "C 2/M"
_symmetry_group_IT_number 12
_symmetry_cell_setting 'monoclinic'
loop_
_space_group_symop_operation_xyz
x,y,z
-x,y,-z
-x,-y,-z
x,-y,z
1/2+x,1/2+y,z
1/2-x,1/2+y,-z
1/2-x,1/2-y,-z
1/2+x,1/2-y,z
loop_
_atom_site_type_symbol
_atom_site_label
_atom_site_fract_x
_atom_site_fract_y
_atom_site_fract_z
Si Si1 0.300837 0.916045 0.637480
Si Si2 0.710941 0.857875 0.045781
Si Si3 0.009773 0.579656 0.673583
Si Si4 0.896844 0.210058 0.076563
Si Si5 0.160537 0.806777 0.330322
O O1 0.286007 0.875385 0.776633
O O2 0.422579 0.890524 0.702544
O O3 0.200079 0.886127 0.417139
O O4 0.289064 0.000000 0.645636
O O5 0.839672 0.846628 0.126545
O O6 0.641262 0.919240 0.881117
O O7 0.635892 0.789343 0.918052
O O8 0.968467 0.500000 0.602952
O O9 0.000000 0.618507 0.500000
O O10 0.033175 0.204434 0.252001
O O11 0.845502 0.195944 0.854821
O O12 0.250000 0.750000 0.500000
#
# Coordination Sequence:
#
# PCOD8107585 Si02
#       5
#     8   8   8   8   8
#     4  11  23  39  64  93 125 168 211 261 319 372
#     4  11  21  39  57  93 125 156 209 268 309 376
#     4  10  21  37  61  91 124 164 208 257 318 376
#     4  10  24  38  61  91 120 166 214 252 318 376
#     4  11  21  42  64  88 124 167 209 262 313 377
#
# _framework density 20.437657000000002
#
# number of rings (size 3 to 8) (size 9 to 14) (size 15 to 20)
#    0.000    1.400    2.000    3.600    2.800    2.400 
#    0.000    6.000    0.000    0.000    0.000    0.000 
#    0.000    0.000    0.000    0.000    0.000    0.000 
#
# Total GULP energy -247934.730853 kJ/mol
# GULP energy per Si atom -12396.736543 kJ/mol
# Density = 2.039114 g / cm^3
# Si number density = 20.437657 Si / 1000 Ang^3
#
#
#
# Elastic Constant Matrix: (Units=GPa)
#
#
# Indices 1 2 3 4 5 6 
#
# 1 174.9057 42.6221 61.1534 0.0000 1.0320 0.0000
# 2 42.6221 59.2922 23.8294 0.0000 8.5447 0.0000
# 3 61.1534 23.8294 108.2696 0.0000 6.8293 0.0000
# 4 0.0000 0.0000 0.0000 33.5005 0.0000 0.1372
# 5 1.0320 8.5447 6.8293 0.0000 37.7240 0.0000
# 6 0.0000 0.0000 0.0000 0.1372 0.0000 29.0077
#
#
#
# Elastic Compliance Matrix: (Units=1/GPa)
#
#
# Indices 1 2 3 4 5 6 
#
# 1 0.008102 -0.004564 -0.003665 0.000000 0.001476 0.000000
# 2 -0.004564 0.021540 -0.001885 0.000000 -0.004413 0.000000
# 3 -0.003665 -0.001885 0.011823 0.000000 -0.001613 0.000000
# 4 0.000000 0.000000 0.000000 0.029851 0.000000 -0.000141
# 5 0.001476 -0.004413 -0.001613 0.000000 0.027760 0.000000
# 6 0.000000 0.000000 0.000000 -0.000141 0.000000 0.034474
#
#
# Mechanical properties :
#
#
# Convention : Reuss Voigt Hill
#
# Bulk Modulus (GPa) = 47.08570 66.40857 56.74714
# Shear Modulus (GPa) = 31.08375 34.37060 32.72717
#
# Velocity S-wave (km/s) = 3.90411 4.10534 4.00599
# Velocity P-wave (km/s) = 6.58874 7.41859 7.01595
#
# Compressibility (1/GPa) = 0.02123787
#
# Stress axis : x y z
#
# Youngs Moduli (GPa) = 123.42275 46.42570 84.58254
#
# Poissons Ratio (x) = 0.21189 0.30999
# Poissons Ratio (y) = 0.56330 0.15940
# Poissons Ratio (z) = 0.45233 0.08749
#
# Static dielectric constant tensor:
#      x y z
#    x 3.984380 0.000000 -0.069970 
#    y 0.000000 3.640280 0.000000 
#    z -0.069970 0.000000 3.621070 
# 
# 
# High freq. dielectric constant tensor:
#      x y z
#    x 1.809950 0.000000 -0.010170 
#    y 0.000000 1.786560 0.000000 
#    z -0.010170 0.000000 1.800400 
# 
# From -- ./inp_files/63777.got.cif
#   From: 2010.06.25/outbox.cif.g09.slc.cpg/sg12_32_cif.got.tgz:63777.got - 2010.06.28 00:19:55.
