data_PCOD8107099
_publ_section_title
;
Structure prediction by ZEFSAII (Michael W. Deem and Ramdas Pophale) SiO2 
 PCOD8107099
Probable space group: C 2/M
;
_chemical_formula_sum "Si O2"
_cell_formula_units_Z 40
_cell_length_a 10.053901
_cell_length_b 9.100686
_cell_length_c 22.174251
_cell_angle_alpha 90.000000
_cell_angle_beta 96.320882
_cell_angle_gamma 90.000000
_cell_volume 2016.552415
_symmetry_space_group_name_H-M "C 2/M"
_symmetry_group_IT_number 12
_symmetry_cell_setting 'monoclinic'
loop_
_space_group_symop_operation_xyz
x,y,z
-x,y,-z
-x,-y,-z
x,-y,z
1/2+x,1/2+y,z
1/2-x,1/2+y,-z
1/2-x,1/2-y,-z
1/2+x,1/2-y,z
loop_
_atom_site_type_symbol
_atom_site_label
_atom_site_fract_x
_atom_site_fract_y
_atom_site_fract_z
Si Si1 0.300258 0.671725 0.761330
Si Si2 0.375858 0.828032 0.033769
Si Si3 0.248914 0.170712 0.636370
Si Si4 0.046339 0.670903 0.829219
Si Si5 0.500856 0.829991 0.568818
O O1 0.324474 0.500000 0.752731
O O2 0.307839 0.751888 0.697967
O O3 0.157216 0.702734 0.784255
O O4 0.415746 0.733757 0.809782
O O5 0.397146 0.777931 0.103591
O O6 0.350868 0.000000 0.028608
O O7 0.500000 0.777457 0.000000
O O8 0.250000 0.750000 0.000000
O O9 0.353187 0.196671 0.587487
O O10 0.106305 0.236664 0.611842
O O11 0.229983 0.000000 0.649818
O O12 0.005586 0.500000 0.828275
O O13 0.500000 0.775269 0.500000
O O14 0.543400 0.000000 0.575595
#
# Coordination Sequence:
#
# PCOD8107099 Si02
#       5
#     8   8   8   8   8
#     4  11  23  38  58  83 112 149 189 229 277 331
#     4  10  21  37  58  84 113 146 185 230 279 331
#     4  11  23  38  59  86 114 147 187 230 277 330
#     4  10  22  39  57  82 115 147 185 232 278 329
#     4  10  22  40  60  84 115 148 184 229 278 329
#
# _framework density 19.835833000000001
#
# number of rings (size 3 to 8) (size 9 to 14) (size 15 to 20)
#    0.000    1.600    0.000    4.200    0.000    9.600 
#    0.000    0.000    0.000    0.000    0.000    0.000 
#    0.000    0.000    0.000    0.000    0.000    0.000 
#
# Total GULP energy -248140.129227 kJ/mol
# GULP energy per Si atom -12407.006461 kJ/mol
# Density = 1.979069 g / cm^3
# Si number density = 19.835833 Si / 1000 Ang^3
#
#
#
# Elastic Constant Matrix: (Units=GPa)
#
#
# Indices 1 2 3 4 5 6 
#
# 1 78.2036 44.3469 19.0293 0.0000 15.4118 0.0000
# 2 44.3469 80.5113 35.9514 0.0000 8.5931 0.0000
# 3 19.0293 35.9514 104.6955 0.0000 2.1113 0.0000
# 4 0.0000 0.0000 0.0000 32.4480 0.0000 7.9264
# 5 15.4118 8.5931 2.1113 0.0000 39.5595 0.0000
# 6 0.0000 0.0000 0.0000 7.9264 0.0000 31.5345
#
#
#
# Elastic Compliance Matrix: (Units=1/GPa)
#
#
# Indices 1 2 3 4 5 6 
#
# 1 0.019675 -0.010287 0.000066 0.000000 -0.005434 0.000000
# 2 -0.010287 0.020394 -0.005130 0.000000 -0.000148 0.000000
# 3 0.000066 -0.005130 0.011291 0.000000 0.000486 0.000000
# 4 0.000000 0.000000 0.000000 0.032835 0.000000 -0.008253
# 5 -0.005434 -0.000148 0.000486 0.000000 0.027402 0.000000
# 6 0.000000 0.000000 0.000000 -0.008253 0.000000 0.033786
#
#
# Mechanical properties :
#
#
# Convention : Reuss Voigt Hill
#
# Bulk Modulus (GPa) = 48.40798 51.34064 49.87431
# Shear Modulus (GPa) = 27.32671 31.64725 29.48698
#
# Velocity S-wave (km/s) = 3.71569 3.99865 3.85976
# Velocity P-wave (km/s) = 6.54719 6.87444 6.71281
#
# Compressibility (1/GPa) = 0.02065775
#
# Stress axis : x y z
#
# Youngs Moduli (GPa) = 50.82464 49.03516 88.56298
#
# Poissons Ratio (x) = 0.50442 -0.00583
# Poissons Ratio (y) = 0.52283 0.45435
# Poissons Ratio (z) = -0.00335 0.25156
#
# Static dielectric constant tensor:
#      x y z
#    x 3.573110 0.000000 -0.077120 
#    y 0.000000 3.606720 0.000000 
#    z -0.077120 0.000000 3.752630 
# 
# 
# High freq. dielectric constant tensor:
#      x y z
#    x 1.784210 0.000000 -0.002910 
#    y 0.000000 1.773450 0.000000 
#    z -0.002910 0.000000 1.790520 
# 
# From -- ./inp_files/303434.got.cif
#   From: 2010.06.25/outbox.cif.g09.slc.cpg/sg12_152_cif.got.tgz:303434.got - 2010.06.28 00:19:55.
