data_PCOD8107447
_publ_section_title
;
Structure prediction by ZEFSAII (Michael W. Deem and Ramdas Pophale) SiO2 
 PCOD8107447
Probable space group: C 2/M
;
_chemical_formula_sum "Si O2"
_cell_formula_units_Z 56
_cell_length_a 19.711224
_cell_length_b 12.371382
_cell_length_c 11.686289
_cell_angle_alpha 90.000000
_cell_angle_beta 94.888003
_cell_angle_gamma 90.000000
_cell_volume 2839.396834
_symmetry_space_group_name_H-M "C 2/M"
_symmetry_group_IT_number 12
_symmetry_cell_setting 'monoclinic'
loop_
_space_group_symop_operation_xyz
x,y,z
-x,y,-z
-x,-y,-z
x,-y,z
1/2+x,1/2+y,z
1/2-x,1/2+y,-z
1/2-x,1/2-y,-z
1/2+x,1/2-y,z
loop_
_atom_site_type_symbol
_atom_site_label
_atom_site_fract_x
_atom_site_fract_y
_atom_site_fract_z
Si Si1 0.314638 0.127802 0.430687
Si Si2 0.830039 0.218808 0.636550
Si Si3 0.065980 0.377248 0.953264
Si Si4 0.686032 0.375190 0.902712
Si Si5 0.408002 0.746719 0.264975
Si Si6 0.471298 0.618180 0.620742
Si Si7 0.672489 0.231481 0.106894
O O1 0.238156 0.146244 0.373818
O O2 0.319144 0.171554 0.561617
O O3 0.368697 0.195554 0.363472
O O4 0.331699 0.000000 0.430681
O O5 0.892964 0.152375 0.595327
O O6 0.851472 0.245450 0.768748
O O7 0.047796 0.500000 0.928766
O O8 0.085727 0.333159 0.833442
O O9 0.128719 0.366763 0.049667
O O10 0.000000 0.318501 0.000000
O O11 0.705476 0.500000 0.912438
O O12 0.632482 0.356389 0.792257
O O13 0.749324 0.301112 0.878293
O O14 0.659305 0.336294 0.023590
O O15 0.483427 0.707305 0.308088
O O16 0.500000 0.605716 0.500000
O O17 0.474836 0.500000 0.682184
#
# Coordination Sequence:
#
# PCOD8107447 Si02
#       7
#     8   8   8   8   8   8   8
#     4  11  24  41  64  92 126 168 205 256 318 366
#     4  11  23  44  61  93 126 159 211 261 304 375
#     4  10  21  37  60  87 120 163 201 247 310 368
#     4  10  21  37  60  89 121 157 198 251 312 365
#     4  11  21  42  61  91 125 160 204 258 303 376
#     4  11  23  40  64  89 121 165 204 252 309 365
#     4  10  21  38  59  89 119 156 203 255 302 363
#
# _framework density 19.722498000000002
#
# number of rings (size 3 to 8) (size 9 to 14) (size 15 to 20)
#    0.000    1.429    2.857    2.571    0.000    2.286 
#    0.000    2.143    0.000    4.714    0.000    0.000 
#    0.000    0.000    0.000    0.000    0.000    0.000 
#
# Total GULP energy -347182.106209 kJ/mol
# GULP energy per Si atom -12399.360936 kJ/mol
# Density = 1.967761 g / cm^3
# Si number density = 19.722498 Si / 1000 Ang^3
#
#
#
# Elastic Constant Matrix: (Units=GPa)
#
#
# Indices 1 2 3 4 5 6 
#
# 1 99.2588 20.6995 11.5765 0.0000 3.3633 0.0000
# 2 20.6995 103.3758 29.6438 0.0000 0.6742 0.0000
# 3 11.5765 29.6438 90.5984 0.0000 -4.3665 0.0000
# 4 0.0000 0.0000 0.0000 6.8615 0.0000 6.1066
# 5 3.3633 0.6742 -4.3665 0.0000 33.0811 0.0000
# 6 0.0000 0.0000 0.0000 6.1066 0.0000 19.1416
#
#
#
# Elastic Compliance Matrix: (Units=1/GPa)
#
#
# Indices 1 2 3 4 5 6 
#
# 1 0.010599 -0.001888 -0.000792 0.000000 -0.001144 0.000000
# 2 -0.001888 0.011027 -0.003390 0.000000 -0.000480 0.000000
# 3 -0.000792 -0.003390 0.012334 0.000000 0.001778 0.000000
# 4 0.000000 0.000000 0.000000 0.203527 0.000000 -0.064930
# 5 -0.001144 -0.000480 0.001778 0.000000 0.030589 0.000000
# 6 0.000000 0.000000 0.000000 -0.064930 0.000000 0.072956
#
#
# Mechanical properties :
#
#
# Convention : Reuss Voigt Hill
#
# Bulk Modulus (GPa) = 45.82772 46.34137 46.08455
# Shear Modulus (GPa) = 13.87172 27.23774 20.55473
#
# Velocity S-wave (km/s) = 2.65494 3.72028 3.23181
# Velocity P-wave (km/s) = 5.71708 6.48087 6.11092
#
# Compressibility (1/GPa) = 0.02182085
#
# Stress axis : x y z
#
# Youngs Moduli (GPa) = 94.34438 90.68932 81.07855
#
# Poissons Ratio (x) = 0.17121 0.06420
# Poissons Ratio (y) = 0.17811 0.27484
# Poissons Ratio (z) = 0.07470 0.30742
#
# Static dielectric constant tensor:
#      x y z
#    x 3.870370 0.000000 0.034200 
#    y 0.000000 3.443000 0.000000 
#    z 0.034200 0.000000 3.654630 
# 
# 
# High freq. dielectric constant tensor:
#      x y z
#    x 1.780540 0.000000 -0.001200 
#    y 0.000000 1.758070 0.000000 
#    z -0.001200 0.000000 1.774720 
# 
# From -- ./inp_files/165028.got.cif
#   From: 2010.06.25/outbox.cif.g09.slc.cpg/sg12_83_cif.got.tgz:165028.got - 2010.06.28 00:19:55.
