data_PCOD8107377
_publ_section_title
;
Structure prediction by ZEFSAII (Michael W. Deem and Ramdas Pophale) SiO2 
 PCOD8107377
Probable space group: C 2/M
;
_chemical_formula_sum "Si O2"
_cell_formula_units_Z 44
_cell_length_a 14.615563
_cell_length_b 14.217842
_cell_length_c 12.593781
_cell_angle_alpha 90.000000
_cell_angle_beta 123.753448
_cell_angle_gamma 90.000000
_cell_volume 2175.876728
_symmetry_space_group_name_H-M "C 2/M"
_symmetry_group_IT_number 12
_symmetry_cell_setting 'monoclinic'
loop_
_space_group_symop_operation_xyz
x,y,z
-x,y,-z
-x,-y,-z
x,-y,z
1/2+x,1/2+y,z
1/2-x,1/2+y,-z
1/2-x,1/2-y,-z
1/2+x,1/2-y,z
loop_
_atom_site_type_symbol
_atom_site_label
_atom_site_fract_x
_atom_site_fract_y
_atom_site_fract_z
Si Si1 0.500000 0.673247 0.500000
Si Si2 0.068831 0.239452 0.145720
Si Si3 0.091527 0.893035 0.350304
Si Si4 0.820374 0.303558 0.284607
Si Si5 0.171270 0.395008 0.504896
Si Si6 0.480739 0.886978 0.235481
O O1 0.479058 0.608515 0.588695
O O2 0.392153 0.730799 0.398781
O O3 0.039142 0.167993 0.221814
O O4 0.197471 0.238500 0.195385
O O5 0.025557 0.343508 0.153715
O O6 0.000000 0.206546 0.000000
O O7 0.212473 0.850754 0.457296
O O8 0.101115 0.000000 0.315074
O O9 0.827727 0.394748 0.366071
O O10 0.866065 0.337655 0.199111
O O11 0.163632 0.500000 0.456759
O O12 0.065895 0.347312 0.380929
O O13 0.468068 0.000000 0.216300
#
# Coordination Sequence:
#
# PCOD8107377 Si02
#       6
#     4   8   8   8   8   8
#     4  12  19  34  61  94 122 148 193 260 319 372
#     4  11  25  43  62  84 127 170 211 248 297 363
#     4  10  21  37  59  89 123 161 199 247 311 372
#     4  11  20  35  63  91 122 158 201 251 310 365
#     4   9  17  32  57  90 121 149 192 252 312 364
#     4  11  21  38  63  94 123 159 207 259 311 361
#
# _framework density 20.221734999999999
#
# number of rings (size 3 to 8) (size 9 to 14) (size 15 to 20)
#    0.000    1.455    3.636    1.909    0.000    6.545 
#    0.000    0.909    0.000    0.000    0.000    0.000 
#    0.000    0.000    0.000    0.000    0.000    0.000 
#
# Total GULP energy -272595.728811 kJ/mol
# GULP energy per Si atom -12390.714946 kJ/mol
# Density = 2.017571 g / cm^3
# Si number density = 20.221735 Si / 1000 Ang^3
#
#
#
# Elastic Constant Matrix: (Units=GPa)
#
#
# Indices 1 2 3 4 5 6 
#
# 1 135.5171 43.7243 54.6120 0.0000 -3.8543 0.0000
# 2 43.7243 76.1873 29.1201 0.0000 -4.8323 0.0000
# 3 54.6120 29.1201 92.4597 0.0000 2.6297 0.0000
# 4 0.0000 0.0000 0.0000 14.4198 0.0000 -4.8312
# 5 -3.8543 -4.8323 2.6297 0.0000 25.5672 0.0000
# 6 0.0000 0.0000 0.0000 -4.8312 0.0000 18.8964
#
#
#
# Elastic Compliance Matrix: (Units=1/GPa)
#
#
# Indices 1 2 3 4 5 6 
#
# 1 0.010827 -0.004169 -0.005121 0.000000 0.001371 0.000000
# 2 -0.004169 0.016813 -0.002913 0.000000 0.002849 0.000000
# 3 -0.005121 -0.002913 0.014839 0.000000 -0.002849 0.000000
# 4 0.000000 0.000000 0.000000 0.075846 0.000000 0.019391
# 5 0.001371 0.002849 -0.002849 0.000000 0.040151 0.000000
# 6 0.000000 0.000000 0.000000 0.019391 0.000000 0.057878
#
#
# Mechanical properties :
#
#
# Convention : Reuss Voigt Hill
#
# Bulk Modulus (GPa) = 55.33739 62.11965 58.72852
# Shear Modulus (GPa) = 20.26061 23.55719 21.90890
#
# Velocity S-wave (km/s) = 3.16875 3.41683 3.29513
# Velocity P-wave (km/s) = 6.38848 6.80825 6.60170
#
# Compressibility (1/GPa) = 0.01807097
#
# Stress axis : x y z
#
# Youngs Moduli (GPa) = 92.36100 59.47886 67.39073
#
# Poissons Ratio (x) = 0.24800 0.34510
# Poissons Ratio (y) = 0.38510 0.19634
# Poissons Ratio (z) = 0.47297 0.17329
#
# Static dielectric constant tensor:
#      x y z
#    x 3.972350 0.000000 -0.037790 
#    y 0.000000 3.520380 0.000000 
#    z -0.037790 0.000000 3.407680 
# 
# 
# High freq. dielectric constant tensor:
#      x y z
#    x 1.804190 0.000000 -0.001960 
#    y 0.000000 1.783480 0.000000 
#    z -0.001960 0.000000 1.753890 
# 
# From -- ./inp_files/142618.got.cif
#   From: 2010.06.25/outbox.cif.g09.slc.cpg/sg12_72_cif.got.tgz:142618.got - 2010.06.28 00:19:55.
