data_PCOD8107844
_publ_section_title
;
Structure prediction by ZEFSAII (Michael W. Deem and Ramdas Pophale) SiO2 
 PCOD8107844
Probable space group: C 2/M
;
_chemical_formula_sum "Si O2"
_cell_formula_units_Z 40
_cell_length_a 27.265707
_cell_length_b 9.183700
_cell_length_c 18.609903
_cell_angle_alpha 90.000000
_cell_angle_beta 27.176177
_cell_angle_gamma 90.000000
_cell_volume 2128.316794
_symmetry_space_group_name_H-M "C 2/M"
_symmetry_group_IT_number 12
_symmetry_cell_setting 'monoclinic'
loop_
_space_group_symop_operation_xyz
x,y,z
-x,y,-z
-x,-y,-z
x,-y,z
1/2+x,1/2+y,z
1/2-x,1/2+y,-z
1/2-x,1/2-y,-z
1/2+x,1/2-y,z
loop_
_atom_site_type_symbol
_atom_site_label
_atom_site_fract_x
_atom_site_fract_y
_atom_site_fract_z
Si Si1 0.264665 0.169020 0.270628
Si Si2 0.021138 0.832463 0.555672
Si Si3 0.138051 0.671967 0.134325
Si Si4 0.565724 0.830559 0.070410
Si Si5 0.587970 0.335642 0.823340
O O1 0.142655 0.211701 0.414681
O O2 0.304671 0.257066 0.288314
O O3 0.278615 0.000000 0.270151
O O4 0.332603 0.211534 0.111464
O O5 0.000000 0.806590 0.500000
O O6 0.944927 0.725219 0.698167
O O7 0.997359 0.000000 0.607685
O O8 0.155126 0.500000 0.118606
O O9 0.092927 0.716242 0.115482
O O10 0.250000 0.750000 0.000000
O O11 0.459098 0.744118 0.185425
O O12 0.538898 0.000000 0.098909
O O13 0.617332 0.500000 0.763952
O O14 0.500000 0.327651 0.000000
#
# Coordination Sequence:
#
# PCOD8107844 Si02
#       5
#     8   8   8   8   8
#     4   9  17  32  55  78 104 141 179 216 261 315
#     4  10  21  38  58  80 108 142 181 223 269 322
#     4  11  23  38  57  81 109 141 179 223 270 322
#     4   9  18  34  55  78 105 140 180 217 259 315
#     4   9  17  29  49  79 110 137 171 218 265 310
#
# _framework density 18.794194999999998
#
# number of rings (size 3 to 8) (size 9 to 14) (size 15 to 20)
#    0.000    2.400    0.000    2.400    0.000    8.400 
#    0.000    5.000    0.000    0.000    0.000    0.000 
#    0.000    0.000    0.000    0.000    0.000    0.000 
#
# Total GULP energy -248054.347134 kJ/mol
# GULP energy per Si atom -12402.717357 kJ/mol
# Density = 1.875142 g / cm^3
# Si number density = 18.794195 Si / 1000 Ang^3
#
#
#
# Elastic Constant Matrix: (Units=GPa)
#
#
# Indices 1 2 3 4 5 6 
#
# 1 168.8891 80.3888 62.0927 0.0002 -22.4160 -0.0002
# 2 80.3888 90.4217 45.1918 0.0015 -11.1974 -0.0008
# 3 62.0927 45.1918 83.3033 0.0006 -14.8149 -0.0007
# 4 0.0002 0.0015 0.0006 27.5379 -0.0005 -5.3801
# 5 -22.4160 -11.1974 -14.8149 -0.0005 31.3037 0.0003
# 6 -0.0002 -0.0008 -0.0007 -5.3801 0.0003 29.0935
#
#
#
# Elastic Compliance Matrix: (Units=1/GPa)
#
#
# Indices 1 2 3 4 5 6 
#
# 1 0.011549 -0.008007 -0.003607 0.000000 0.003699 0.000000
# 2 -0.008007 0.020805 -0.005475 -0.000001 -0.000883 0.000000
# 3 -0.003607 -0.005475 0.018405 0.000000 0.004169 0.000000
# 4 0.000000 -0.000001 0.000000 0.037675 0.000001 0.006967
# 5 0.003699 -0.000883 0.004169 0.000001 0.036251 0.000000
# 6 0.000000 0.000000 0.000000 0.006967 0.000000 0.035660
#
#
# Mechanical properties :
#
#
# Convention : Reuss Voigt Hill
#
# Bulk Modulus (GPa) = 60.31295 79.77342 70.04319
# Shear Modulus (GPa) = 24.99359 27.91640 26.45499
#
# Velocity S-wave (km/s) = 3.65068 3.85824 3.75589
# Velocity P-wave (km/s) = 7.06618 7.89847 7.49389
#
# Compressibility (1/GPa) = 0.01658019
#
# Stress axis : x y z
#
# Youngs Moduli (GPa) = 86.58449 48.06502 54.33378
#
# Poissons Ratio (x) = 0.38486 0.19598
# Poissons Ratio (y) = 0.69329 0.29750
# Poissons Ratio (z) = 0.31231 0.26318
#
# Static dielectric constant tensor:
#      x y z
#    x 3.634550 0.000000 -0.116850 
#    y 0.000000 3.468850 0.000000 
#    z -0.116850 0.000000 3.294120 
# 
# 
# High freq. dielectric constant tensor:
#      x y z
#    x 1.745130 0.000000 -0.012470 
#    y 0.000000 1.729930 0.000000 
#    z -0.012470 0.000000 1.709010 
# 
# From -- ./inp_files/162728.got.cif
#   From: 2010.06.25/outbox.cif.g09.slc.cpg/sg12_82_cif.got.tgz:162728.got - 2010.06.28 00:19:55.
