data_PCOD8107687
_publ_section_title
;
Structure prediction by ZEFSAII (Michael W. Deem and Ramdas Pophale) SiO2 
 PCOD8107687
Probable space group: C 2/M
;
_chemical_formula_sum "Si O2"
_cell_formula_units_Z 48
_cell_length_a 4.956631
_cell_length_b 25.041881
_cell_length_c 18.164499
_cell_angle_alpha 90.000000
_cell_angle_beta 74.012474
_cell_angle_gamma 90.000000
_cell_volume 2167.433084
_symmetry_space_group_name_H-M "C 2/M"
_symmetry_group_IT_number 12
_symmetry_cell_setting 'monoclinic'
loop_
_space_group_symop_operation_xyz
x,y,z
-x,y,-z
-x,-y,-z
x,-y,z
1/2+x,1/2+y,z
1/2-x,1/2+y,-z
1/2-x,1/2-y,-z
1/2+x,1/2-y,z
loop_
_atom_site_type_symbol
_atom_site_label
_atom_site_fract_x
_atom_site_fract_y
_atom_site_fract_z
Si Si1 0.245189 0.602987 0.666946
Si Si2 0.821588 0.900325 0.081625
Si Si3 0.363956 0.784126 0.887505
Si Si4 0.971040 0.283647 0.291662
Si Si5 0.331341 0.938804 0.583874
Si Si6 0.763241 0.061481 0.830280
O O1 0.150612 0.663774 0.661243
O O2 0.554078 0.596846 0.610353
O O3 0.247339 0.587711 0.751875
O O4 0.023541 0.565593 0.641797
O O5 0.002429 0.905742 0.142475
O O6 0.745471 0.838962 0.069756
O O7 0.538193 0.934595 0.108049
O O8 0.000000 0.923382 0.000000
O O9 0.631951 0.762429 0.911607
O O10 0.451688 0.797246 0.797822
O O11 0.747714 0.235444 0.313517
O O12 0.500000 0.918462 0.500000
O O13 0.236907 0.000000 0.581619
O O14 0.856575 0.000000 0.817774
#
# Coordination Sequence:
#
# PCOD8107687 Si02
#       6
#     8   8   8   8   8   8
#     4  12  23  42  70  96 129 167 212 264 311 369
#     4  12  26  43  62  90 129 170 212 267 327 379
#     4  10  21  38  63  89 123 159 207 265 323 378
#     4  10  21  37  63  94 125 161 208 262 313 370
#     4  11  24  42  67 101 136 169 205 252 318 381
#     4  12  26  43  65  93 123 167 222 267 311 373
#
# _framework density 22.146011000000001
#
# number of rings (size 3 to 8) (size 9 to 14) (size 15 to 20)
#    0.000    0.833    1.667    6.000    4.667    4.000 
#    0.000    0.000    0.000   10.000    0.000    0.000 
#    0.000    0.000    0.000    0.000    0.000    0.000 
#
# Total GULP energy -297789.200476 kJ/mol
# GULP energy per Si atom -12407.883353 kJ/mol
# Density = 2.209561 g / cm^3
# Si number density = 22.146011 Si / 1000 Ang^3
#
#
#
# Elastic Constant Matrix: (Units=GPa)
#
#
# Indices 1 2 3 4 5 6 
#
# 1 101.1282 12.4206 13.6735 0.0000 -19.9989 0.0000
# 2 12.4206 89.1806 34.9819 0.0000 -13.3512 0.0000
# 3 13.6735 34.9819 59.0007 0.0000 -17.9639 0.0000
# 4 0.0000 0.0000 0.0000 61.2402 0.0000 -37.9429
# 5 -19.9989 -13.3512 -17.9639 0.0000 38.3125 0.0000
# 6 0.0000 0.0000 0.0000 -37.9429 0.0000 50.4290
#
#
#
# Elastic Compliance Matrix: (Units=1/GPa)
#
#
# Indices 1 2 3 4 5 6 
#
# 1 0.011088 -0.000489 -0.000664 0.000000 0.005306 0.000000
# 2 -0.000489 0.014681 -0.008295 0.000000 0.000971 0.000000
# 3 -0.000664 -0.008295 0.024539 0.000000 0.008268 0.000000
# 4 0.000000 0.000000 0.000000 0.030589 0.000000 0.023015
# 5 0.005306 0.000971 0.008268 0.000000 0.033086 0.000000
# 6 0.000000 0.000000 0.000000 0.023015 0.000000 0.037146
#
#
# Mechanical properties :
#
#
# Convention : Reuss Voigt Hill
#
# Bulk Modulus (GPa) = 31.83735 41.27350 36.55543
# Shear Modulus (GPa) = 27.70172 42.54527 35.12349
#
# Velocity S-wave (km/s) = 3.54060 4.38782 3.98678
# Velocity P-wave (km/s) = 5.57869 6.65943 6.14287
#
# Compressibility (1/GPa) = 0.03140965
#
# Stress axis : x y z
#
# Youngs Moduli (GPa) = 90.19103 68.11721 40.75227
#
# Poissons Ratio (x) = 0.03334 0.02706
# Poissons Ratio (y) = 0.04415 0.33805
# Poissons Ratio (z) = 0.05988 0.56504
#
# Static dielectric constant tensor:
#      x y z
#    x 4.197840 0.000000 -0.155700 
#    y 0.000000 3.887870 0.000000 
#    z -0.155700 0.000000 3.912280 
# 
# 
# High freq. dielectric constant tensor:
#      x y z
#    x 1.890050 0.000000 -0.013930 
#    y 0.000000 1.871080 0.000000 
#    z -0.013930 0.000000 1.857160 
# 
# From -- ./inp_files/253412.got.cif
#   From: 2010.06.25/outbox.cif.g09.slc.cpg/sg12_127_cif.got.tgz:253412.got - 2010.06.28 00:19:55.
