data_PCOD8107231
_publ_section_title
;
Structure prediction by ZEFSAII (Michael W. Deem and Ramdas Pophale) SiO2 
 PCOD8107231
Probable space group: C 2/M
;
_chemical_formula_sum "Si O2"
_cell_formula_units_Z 52
_cell_length_a 5.099564
_cell_length_b 23.857549
_cell_length_c 22.557584
_cell_angle_alpha 90.000000
_cell_angle_beta 69.835270
_cell_angle_gamma 90.000000
_cell_volume 2576.207094
_symmetry_space_group_name_H-M "C 2/M"
_symmetry_group_IT_number 12
_symmetry_cell_setting 'monoclinic'
loop_
_space_group_symop_operation_xyz
x,y,z
-x,y,-z
-x,-y,-z
x,-y,z
1/2+x,1/2+y,z
1/2-x,1/2+y,-z
1/2-x,1/2-y,-z
1/2+x,1/2-y,z
loop_
_atom_site_type_symbol
_atom_site_label
_atom_site_fract_x
_atom_site_fract_y
_atom_site_fract_z
Si Si1 0.848234 0.562306 0.220354
Si Si2 0.316582 0.435697 0.957867
Si Si3 0.668788 0.712903 0.737449
Si Si4 0.000000 0.288539 0.500000
Si Si5 0.876615 0.633211 0.618217
Si Si6 0.843073 0.063146 0.633980
Si Si7 0.076978 0.118475 0.828012
O O1 0.895120 0.500000 0.191878
O O2 0.832414 0.562828 0.292026
O O3 0.559450 0.585204 0.216253
O O4 0.112690 0.598446 0.179777
O O5 0.370528 0.500000 0.932716
O O6 0.386738 0.391620 0.900437
O O7 0.500000 0.420457 0.000000
O O8 0.000000 0.426235 0.000000
O O9 0.387251 0.737116 0.730656
O O10 0.799837 0.667156 0.683360
O O11 0.595529 0.683435 0.806172
O O12 0.250000 0.250000 0.500000
O O13 0.106448 0.325148 0.437553
O O14 0.651163 0.586002 0.621019
O O15 0.175163 0.602590 0.601687
O O16 0.867677 0.000000 0.606765
#
# Coordination Sequence:
#
# PCOD8107231 Si02
#       7
#     8   8   8   4   8   8   8
#     4  11  20  34  58  92 124 156 197 243 302 374
#     4  10  21  37  58  88 124 160 197 243 304 376
#     4  12  24  40  61  88 120 157 206 267 313 354
#     4  12  26  46  69  96 121 170 226 270 310 368
#     4  12  23  44  65  93 128 167 204 264 318 370
#     4  11  22  39  63  95 131 164 198 247 314 392
#     4  12  22  38  60  90 122 163 206 250 313 365
#
# _framework density 20.184712999999999
#
# number of rings (size 3 to 8) (size 9 to 14) (size 15 to 20)
#    0.000    0.615    3.077    6.462    0.000    3.692 
#    0.000    2.308    0.000    2.769    0.000    0.000 
#    0.000    0.000    0.000    0.000    0.000    0.000 
#
# Total GULP energy -322529.594011 kJ/mol
# GULP energy per Si atom -12404.984385 kJ/mol
# Density = 2.013877 g / cm^3
# Si number density = 20.184713 Si / 1000 Ang^3
#
#
#
# Elastic Constant Matrix: (Units=GPa)
#
#
# Indices 1 2 3 4 5 6 
#
# 1 109.0309 30.6006 13.0804 0.0000 6.8589 0.0000
# 2 30.6006 103.8000 38.7593 0.0000 4.8224 0.0000
# 3 13.0804 38.7593 79.2921 0.0000 1.5160 0.0000
# 4 0.0000 0.0000 0.0000 23.7255 0.0000 5.4498
# 5 6.8589 4.8224 1.5160 0.0000 24.8166 0.0000
# 6 0.0000 0.0000 0.0000 5.4498 0.0000 45.1420
#
#
#
# Elastic Compliance Matrix: (Units=1/GPa)
#
#
# Indices 1 2 3 4 5 6 
#
# 1 0.010125 -0.002781 -0.000268 0.000000 -0.002242 0.000000
# 2 -0.002781 0.012643 -0.005696 0.000000 -0.001340 0.000000
# 3 -0.000268 -0.005696 0.015435 0.000000 0.000238 0.000000
# 4 0.000000 0.000000 0.000000 0.043351 0.000000 -0.005234
# 5 -0.002242 -0.001340 0.000238 0.000000 0.041161 0.000000
# 6 0.000000 0.000000 0.000000 -0.005234 0.000000 0.022784
#
#
# Mechanical properties :
#
#
# Convention : Reuss Voigt Hill
#
# Bulk Modulus (GPa) = 48.27560 50.77817 49.52689
# Shear Modulus (GPa) = 29.43020 32.71565 31.07292
#
# Velocity S-wave (km/s) = 3.82258 4.03030 3.92781
# Velocity P-wave (km/s) = 6.59178 6.84610 6.72015
#
# Compressibility (1/GPa) = 0.02071440
#
# Stress axis : x y z
#
# Youngs Moduli (GPa) = 98.76212 79.09701 64.78609
#
# Poissons Ratio (x) = 0.21994 0.01738
# Poissons Ratio (y) = 0.27463 0.36900
# Poissons Ratio (z) = 0.02649 0.45051
#
# Static dielectric constant tensor:
#      x y z
#    x 3.730850 0.000000 0.059600 
#    y 0.000000 3.724030 0.000000 
#    z 0.059600 0.000000 3.557150 
# 
# 
# High freq. dielectric constant tensor:
#      x y z
#    x 1.811480 0.000000 0.002150 
#    y 0.000000 1.782760 0.000000 
#    z 0.002150 0.000000 1.772820 
# 
# From -- ./inp_files/331170.got.cif
#   From: 2010.06.25/outbox.cif.g09.slc.cpg/sg12_166_cif.got.tgz:331170.got - 2010.06.28 00:19:55.
