data_PCOD8107214
_publ_section_title
;
Structure prediction by ZEFSAII (Michael W. Deem and Ramdas Pophale) SiO2 
 PCOD8107214
Probable space group: C 2/M
;
_chemical_formula_sum "Si O2"
_cell_formula_units_Z 64
_cell_length_a 14.661692
_cell_length_b 8.580847
_cell_length_c 29.438223
_cell_angle_alpha 90.000000
_cell_angle_beta 61.440593
_cell_angle_gamma 90.000000
_cell_volume 3252.966213
_symmetry_space_group_name_H-M "C 2/M"
_symmetry_group_IT_number 12
_symmetry_cell_setting 'monoclinic'
loop_
_space_group_symop_operation_xyz
x,y,z
-x,y,-z
-x,-y,-z
x,-y,z
1/2+x,1/2+y,z
1/2-x,1/2+y,-z
1/2-x,1/2-y,-z
1/2+x,1/2-y,z
loop_
_atom_site_type_symbol
_atom_site_label
_atom_site_fract_x
_atom_site_fract_y
_atom_site_fract_z
Si Si1 0.446985 0.681538 0.309995
Si Si2 0.368977 0.323306 0.231013
Si Si3 0.076137 0.819537 0.941522
Si Si4 0.892201 0.315623 0.504467
Si Si5 0.986053 0.321227 0.874860
Si Si6 0.321515 0.183530 0.422668
Si Si7 0.338567 0.179850 0.770628
Si Si8 0.706339 0.680343 0.122182
O O1 0.460929 0.500000 0.316783
O O2 0.377043 0.712518 0.282341
O O3 0.392811 0.763240 0.364779
O O4 0.558462 0.758451 0.277118
O O5 0.405062 0.500000 0.211860
O O6 0.445165 0.208341 0.186150
O O7 0.250615 0.296416 0.245349
O O8 0.021403 0.790949 0.906669
O O9 0.177394 0.713461 0.921608
O O10 0.108089 0.000000 0.937017
O O11 0.000000 0.769967 0.000000
O O12 0.893765 0.500000 0.507589
O O13 0.793294 0.255080 0.556385
O O14 0.877284 0.259352 0.455919
O O15 0.000000 0.248289 0.500000
O O16 0.997598 0.500000 0.887195
O O17 0.867271 0.284151 0.891814
O O18 0.309746 0.000000 0.425455
O O19 0.308437 0.279054 0.821680
O O20 0.350592 0.000000 0.782265
O O21 0.679741 0.500000 0.121447
#
# Coordination Sequence:
#
# PCOD8107214 Si02
#       8
#     8   8   8   8   8   8   8   8
#     4  11  23  39  59  86 124 165 203 248 302 363
#     4  10  22  39  60  85 120 160 201 247 300 362
#     4  11  25  45  67  92 124 160 202 256 312 367
#     4   9  19  38  63  86 114 157 204 246 301 367
#     4  12  24  39  65  93 122 160 202 250 304 365
#     4  10  21  37  58  87 121 155 197 254 305 354
#     4  11  22  38  61  88 119 157 202 250 301 359
#     4  12  24  40  64  92 124 160 202 249 304 369
#
# _framework density 19.674351000000001
#
# number of rings (size 3 to 8) (size 9 to 14) (size 15 to 20)
#    0.000    1.250    2.500    3.750    0.000    4.250 
#    0.000    5.000    0.000    0.000    0.000    0.000 
#    0.000    0.000    0.000    0.000    0.000    0.000 
#
# Total GULP energy -396978.460054 kJ/mol
# GULP energy per Si atom -12405.576877 kJ/mol
# Density = 1.962957 g / cm^3
# Si number density = 19.674351 Si / 1000 Ang^3
#
#
#
# Elastic Constant Matrix: (Units=GPa)
#
#
# Indices 1 2 3 4 5 6 
#
# 1 -4.3108 0.5193 -161.9948 0.0000 -43.3009 -0.0001
# 2 0.5193 61.7695 -8.9735 0.0000 -13.4421 0.0000
# 3 -161.9948 -8.9735 -184.0359 0.0000 -62.4320 -0.0001
# 4 0.0000 0.0000 0.0000 24.2132 0.0000 -8.4759
# 5 -43.3009 -13.4421 -62.4320 0.0000 23.1115 0.0000
# 6 -0.0001 0.0000 -0.0001 -8.4759 0.0000 25.7897
#
#
#
# Elastic Compliance Matrix: (Units=1/GPa)
#
#
# Indices 1 2 3 4 5 6 
#
# 1 0.007511 -0.001402 -0.005761 0.000000 -0.002305 0.000000
# 2 -0.001402 0.016994 -0.001073 0.000000 0.004358 0.000000
# 3 -0.005761 -0.001073 0.001859 0.000000 -0.006395 0.000000
# 4 0.000000 0.000000 0.000000 0.046669 0.000000 0.015338
# 5 -0.002305 0.004358 -0.006395 0.000000 0.024208 0.000000
# 6 0.000000 0.000000 0.000000 0.015338 0.000000 0.043816
#
#
# Mechanical properties :
#
#
# Convention : Reuss Voigt Hill
#
# Bulk Modulus (GPa) = 101.09417 -51.94171 24.57623
# Shear Modulus (GPa) = 31.08943 17.54767 24.31855
#
# Velocity S-wave (km/s) = 3.97949 2.98972 3.51957
# Velocity P-wave (km/s) = 8.52117 3.81315 5.38842
#
# Compressibility (1/GPa) = 0.00989177
#
# Stress axis : x y z
#
# Youngs Moduli (GPa) = 133.13468 58.84585 537.82390
#
# Poissons Ratio (x) = 0.08249 3.09849
# Poissons Ratio (y) = 0.18663 0.57719
# Poissons Ratio (z) = 0.76701 0.06315
#
# Static dielectric constant tensor:
#      x y z
#    x 3.818440 0.000000 0.038600 
#    y 0.000000 3.630700 0.000000 
#    z 0.038600 0.000000 3.402880 
# 
# 
# High freq. dielectric constant tensor:
#      x y z
#    x 1.780240 0.000000 -0.002780 
#    y 0.000000 1.773590 0.000000 
#    z -0.002780 0.000000 1.761660 
# 
# From -- ./inp_files/338799.got.cif
#   From: 2010.06.25/outbox.cif.g09.slc.cpg/sg12_170_cif.got.tgz:338799.got - 2010.06.28 00:19:55.
