data_PCOD8107018
_publ_section_title
;
Structure prediction by ZEFSAII (Michael W. Deem and Ramdas Pophale) SiO2 
 PCOD8107018
Probable space group: C 2/M
;
_chemical_formula_sum "Si O2"
_cell_formula_units_Z 56
_cell_length_a 5.055466
_cell_length_b 25.683514
_cell_length_c 21.971020
_cell_angle_alpha 90.000000
_cell_angle_beta 83.471325
_cell_angle_gamma 90.000000
_cell_volume 2834.264116
_symmetry_space_group_name_H-M "C 2/M"
_symmetry_group_IT_number 12
_symmetry_cell_setting 'monoclinic'
loop_
_space_group_symop_operation_xyz
x,y,z
-x,y,-z
-x,-y,-z
x,-y,z
1/2+x,1/2+y,z
1/2-x,1/2+y,-z
1/2-x,1/2-y,-z
1/2+x,1/2-y,z
loop_
_atom_site_type_symbol
_atom_site_label
_atom_site_fract_x
_atom_site_fract_y
_atom_site_fract_z
Si Si1 0.627886 0.283862 0.725328
Si Si2 0.099999 0.560441 0.871328
Si Si3 0.723007 0.440418 0.540693
Si Si4 0.570049 0.608974 0.928389
Si Si5 0.350612 0.393561 0.329181
Si Si6 0.599241 0.716313 0.865812
Si Si7 0.118528 0.560445 0.731301
O O1 0.347903 0.260629 0.711067
O O2 0.700970 0.332938 0.681959
O O3 0.612260 0.302755 0.795672
O O4 0.027725 0.500000 0.878810
O O5 0.385854 0.570823 0.893644
O O6 0.110414 0.578545 0.801243
O O7 0.876881 0.593907 0.911219
O O8 0.500000 0.420832 0.500000
O O9 0.668635 0.500000 0.562490
O O10 0.721669 0.403727 0.599193
O O11 0.000000 0.434790 0.500000
O O12 0.520550 0.668209 0.910074
O O13 0.500000 0.601876 0.000000
O O14 0.658302 0.406828 0.309514
O O15 0.167727 0.428835 0.290596
O O16 0.382119 0.761508 0.879799
O O17 0.189174 0.500000 0.723489
#
# Coordination Sequence:
#
# PCOD8107018 Si02
#       7
#     8   8   8   8   8   8   8
#     4  10  21  37  58  85 113 147 193 243 293 345
#     4  11  24  41  59  83 118 153 190 242 296 347
#     4  10  21  37  57  85 123 162 196 229 273 336
#     4  12  25  40  60  84 112 153 201 238 283 356
#     4  12  22  37  63  89 121 157 195 241 289 341
#     4  10  21  38  60  84 113 145 183 240 304 351
#     4  11  22  36  59  91 119 147 189 242 302 356
#
# _framework density 19.758215
#
# number of rings (size 3 to 8) (size 9 to 14) (size 15 to 20)
#    0.000    1.143    0.000    7.286    0.000    8.000 
#    0.000    0.000    0.000    2.571    0.000    0.000 
#    0.000    0.000    0.000    0.000    0.000    0.000 
#
# Total GULP energy -347459.768785 kJ/mol
# GULP energy per Si atom -12409.277457 kJ/mol
# Density = 1.971324 g / cm^3
# Si number density = 19.758215 Si / 1000 Ang^3
#
#
#
# Elastic Constant Matrix: (Units=GPa)
#
#
# Indices 1 2 3 4 5 6 
#
# 1 87.4145 6.9073 19.3912 0.0000 4.0066 0.0000
# 2 6.9073 63.0738 34.9496 0.0000 -0.0252 0.0000
# 3 19.3912 34.9496 110.4972 0.0000 6.2482 0.0000
# 4 0.0000 0.0000 0.0000 24.4236 0.0000 -6.3700
# 5 4.0066 -0.0252 6.2482 0.0000 28.9912 0.0000
# 6 0.0000 0.0000 0.0000 -6.3700 0.0000 22.5360
#
#
#
# Elastic Compliance Matrix: (Units=1/GPa)
#
#
# Indices 1 2 3 4 5 6 
#
# 1 0.011948 -0.000225 -0.001956 0.000000 -0.001230 0.000000
# 2 -0.000225 0.019280 -0.006136 0.000000 0.001370 0.000000
# 3 -0.001956 -0.006136 0.011459 0.000000 -0.002205 0.000000
# 4 0.000000 0.000000 0.000000 0.044203 0.000000 0.012494
# 5 -0.001230 0.001370 -0.002205 0.000000 0.035140 0.000000
# 6 0.000000 0.000000 0.000000 0.012494 0.000000 0.047905
#
#
# Mechanical properties :
#
#
# Convention : Reuss Voigt Hill
#
# Bulk Modulus (GPa) = 38.38479 42.60905 40.49692
# Shear Modulus (GPa) = 25.60797 28.50597 27.05697
#
# Velocity S-wave (km/s) = 3.60400 3.80246 3.70456
# Velocity P-wave (km/s) = 6.06530 6.39456 6.23210
#
# Compressibility (1/GPa) = 0.02605199
#
# Stress axis : x y z
#
# Youngs Moduli (GPa) = 83.69738 51.86815 87.26988
#
# Poissons Ratio (x) = 0.01167 0.17070
# Poissons Ratio (y) = 0.01884 0.53549
# Poissons Ratio (z) = 0.16371 0.31826
#
# Static dielectric constant tensor:
#      x y z
#    x 3.735970 0.000000 0.035070 
#    y 0.000000 3.427260 0.000000 
#    z 0.035070 0.000000 3.504970 
# 
# 
# High freq. dielectric constant tensor:
#      x y z
#    x 1.790760 0.000000 0.000190 
#    y 0.000000 1.765200 0.000000 
#    z 0.000190 0.000000 1.760870 
# 
# From -- ./inp_files/297992.got.cif
#   From: 2010.06.25/outbox.cif.g09.slc.cpg/sg12_149_cif.got.tgz:297992.got - 2010.06.28 00:19:55.
