data_PCOD8107581
_publ_section_title
;
Structure prediction by ZEFSAII (Michael W. Deem and Ramdas Pophale) SiO2 
 PCOD8107581
Probable space group: C 2/M
;
_chemical_formula_sum "Si O2"
_cell_formula_units_Z 36
_cell_length_a 14.952970
_cell_length_b 21.755061
_cell_length_c 7.928173
_cell_angle_alpha 90.000000
_cell_angle_beta 42.682428
_cell_angle_gamma 90.000000
_cell_volume 1748.430845
_symmetry_space_group_name_H-M "C 2/M"
_symmetry_group_IT_number 12
_symmetry_cell_setting 'monoclinic'
loop_
_space_group_symop_operation_xyz
x,y,z
-x,y,-z
-x,-y,-z
x,-y,z
1/2+x,1/2+y,z
1/2-x,1/2+y,-z
1/2-x,1/2-y,-z
1/2+x,1/2-y,z
loop_
_atom_site_type_symbol
_atom_site_label
_atom_site_fract_x
_atom_site_fract_y
_atom_site_fract_z
Si Si1 0.500000 0.391949 0.000000
Si Si2 0.194448 0.669695 0.900890
Si Si3 0.728922 0.432792 0.465012
Si Si4 0.211896 0.805860 0.864949
Si Si5 0.438427 0.118147 0.415170
O O1 0.587003 0.433122 0.753238
O O2 0.597108 0.350286 0.970770
O O3 0.267793 0.623002 0.672755
O O4 0.176676 0.737543 0.847028
O O5 0.282997 0.683385 0.941563
O O6 0.052767 0.640581 0.133301
O O7 0.744015 0.500000 0.356090
O O8 0.846152 0.428620 0.440864
O O9 0.352849 0.822758 0.588516
O O10 0.500000 0.087036 0.500000
#
# Coordination Sequence:
#
# PCOD8107581 Si02
#       5
#     4   8   8   8   8
#     4  10  23  40  62  84 119 162 202 248 302 350
#     4  10  21  37  61  91 120 152 203 252 299 354
#     4  11  24  40  60  87 123 165 205 241 291 360
#     4   9  21  38  60  90 120 153 195 254 310 350
#     4   9  20  38  58  88 121 156 198 249 304 347
#
# _framework density 20.58989
#
# number of rings (size 3 to 8) (size 9 to 14) (size 15 to 20)
#    0.000    2.222    0.000    1.000    6.222    4.889 
#    0.000   11.111    0.000    0.000    0.000    0.000 
#    0.000    0.000    0.000    0.000    0.000    0.000 
#
# Total GULP energy -223112.001949 kJ/mol
# GULP energy per Si atom -12395.111219 kJ/mol
# Density = 2.054303 g / cm^3
# Si number density = 20.589890 Si / 1000 Ang^3
#
#
#
# Elastic Constant Matrix: (Units=GPa)
#
#
# Indices 1 2 3 4 5 6 
#
# 1 61.9493 33.8205 27.7786 0.0000 0.4912 0.0000
# 2 33.8205 133.5833 31.7172 0.0000 11.9305 0.0000
# 3 27.7786 31.7172 111.8029 0.0000 -2.6476 0.0000
# 4 0.0000 0.0000 0.0000 16.2025 0.0000 10.6217
# 5 0.4912 11.9305 -2.6476 0.0000 28.7220 0.0000
# 6 0.0000 0.0000 0.0000 10.6217 0.0000 18.0965
#
#
#
# Elastic Compliance Matrix: (Units=1/GPa)
#
#
# Indices 1 2 3 4 5 6 
#
# 1 0.020175 -0.004313 -0.003763 0.000000 0.001099 0.000000
# 2 -0.004313 0.009327 -0.001668 0.000000 -0.003954 0.000000
# 3 -0.003763 -0.001668 0.010393 0.000000 0.001715 0.000000
# 4 0.000000 0.000000 0.000000 0.100321 0.000000 -0.058883
# 5 0.001099 -0.003954 0.001715 0.000000 0.036598 0.000000
# 6 0.000000 0.000000 0.000000 -0.058883 0.000000 0.089821
#
#
# Mechanical properties :
#
#
# Convention : Reuss Voigt Hill
#
# Bulk Modulus (GPa) = 49.00143 54.88533 51.94338
# Shear Modulus (GPa) = 17.06914 26.87214 21.97064
#
# Velocity S-wave (km/s) = 2.88237 3.61655 3.27013
# Velocity P-wave (km/s) = 5.90998 6.64482 6.28814
#
# Compressibility (1/GPa) = 0.02040757
#
# Stress axis : x y z
#
# Youngs Moduli (GPa) = 49.56522 107.21491 96.21693
#
# Poissons Ratio (x) = 0.46238 0.36209
# Poissons Ratio (y) = 0.21376 0.16050
# Poissons Ratio (z) = 0.18653 0.17884
#
# Static dielectric constant tensor:
#      x y z
#    x 3.875470 0.000000 -0.128260 
#    y 0.000000 3.599340 0.000000 
#    z -0.128260 0.000000 3.868900 
# 
# 
# High freq. dielectric constant tensor:
#      x y z
#    x 1.807460 0.000000 -0.006160 
#    y 0.000000 1.794720 0.000000 
#    z -0.006160 0.000000 1.809640 
# 
# From -- ./inp_files/48405.got.cif
#   From: 2010.06.25/outbox.cif.g09.slc.cpg/sg12_25_cif.got.tgz:48405.got - 2010.06.28 00:19:55.
