data_PCOD8107276
_publ_section_title
;
Structure prediction by ZEFSAII (Michael W. Deem and Ramdas Pophale) SiO2 
 PCOD8107276
Probable space group: C 2/M
;
_chemical_formula_sum "Si O2"
_cell_formula_units_Z 48
_cell_length_a 14.281045
_cell_length_b 18.033461
_cell_length_c 9.732126
_cell_angle_alpha 90.000000
_cell_angle_beta 82.539640
_cell_angle_gamma 90.000000
_cell_volume 2485.162623
_symmetry_space_group_name_H-M "C 2/M"
_symmetry_group_IT_number 12
_symmetry_cell_setting 'monoclinic'
loop_
_space_group_symop_operation_xyz
x,y,z
-x,y,-z
-x,-y,-z
x,-y,z
1/2+x,1/2+y,z
1/2-x,1/2+y,-z
1/2-x,1/2-y,-z
1/2+x,1/2-y,z
loop_
_atom_site_type_symbol
_atom_site_label
_atom_site_fract_x
_atom_site_fract_y
_atom_site_fract_z
Si Si1 0.977624 0.693554 0.151066
Si Si2 0.136515 0.197487 0.159065
Si Si3 0.097283 0.085654 0.408873
Si Si4 0.559630 0.917970 0.352766
Si Si5 0.807864 0.207084 0.153798
Si Si6 0.725125 0.415325 0.639514
O O1 0.869183 0.719468 0.176220
O O2 0.032851 0.770649 0.155806
O O3 0.005151 0.635998 0.261537
O O4 0.000000 0.655729 0.000000
O O5 0.125527 0.129534 0.265970
O O6 0.201477 0.264683 0.202871
O O7 0.179857 0.174303 0.002774
O O8 0.185463 0.096688 0.494247
O O9 0.000000 0.114160 0.500000
O O10 0.084093 0.000000 0.369105
O O11 0.500000 0.918622 0.500000
O O12 0.664989 0.893185 0.373271
O O13 0.561937 0.000000 0.285573
O O14 0.832191 0.138688 0.248445
O O15 0.707680 0.500000 0.689415
#
# Coordination Sequence:
#
# PCOD8107276 Si02
#       6
#     8   8   8   8   8   8
#     4  10  21  38  59  83 114 149 188 238 284 338
#     4  10  21  38  57  84 117 149 191 240 287 338
#     4  10  22  39  59  86 118 152 194 241 289 346
#     4  10  22  39  57  82 116 152 191 234 285 343
#     4  10  21  37  59  85 115 150 192 238 286 343
#     4  10  21  39  60  85 118 151 190 240 288 341
#
# _framework density 19.314632
#
# number of rings (size 3 to 8) (size 9 to 14) (size 15 to 20)
#    0.000    2.000    1.667    1.000    2.333    3.667 
#    0.000    0.000    0.000    6.000    0.000    0.000 
#    0.000    0.000    0.000    0.000    0.000    0.000 
#
# Total GULP energy -297506.671094 kJ/mol
# GULP energy per Si atom -12396.111296 kJ/mol
# Density = 1.927067 g / cm^3
# Si number density = 19.314632 Si / 1000 Ang^3
#
#
#
# Elastic Constant Matrix: (Units=GPa)
#
#
# Indices 1 2 3 4 5 6 
#
# 1 75.4878 23.8239 34.3628 0.0000 5.5544 0.0000
# 2 23.8239 75.8014 60.3612 0.0000 -0.3428 0.0000
# 3 34.3628 60.3612 100.0094 0.0000 5.5869 0.0000
# 4 0.0000 0.0000 0.0000 45.6424 0.0000 17.3369
# 5 5.5544 -0.3428 5.5869 0.0000 29.5816 0.0000
# 6 0.0000 0.0000 0.0000 17.3369 0.0000 23.5598
#
#
#
# Elastic Compliance Matrix: (Units=1/GPa)
#
#
# Indices 1 2 3 4 5 6 
#
# 1 0.015897 -0.001449 -0.004467 0.000000 -0.002158 0.000000
# 2 -0.001449 0.025840 -0.015291 0.000000 0.003459 0.000000
# 3 -0.004467 -0.015291 0.020947 0.000000 -0.003295 0.000000
# 4 0.000000 0.000000 0.000000 0.030409 0.000000 -0.022377
# 5 -0.002158 0.003459 -0.003295 0.000000 0.034872 0.000000
# 6 0.000000 0.000000 0.000000 -0.022377 0.000000 0.058912
#
#
# Mechanical properties :
#
#
# Convention : Reuss Voigt Hill
#
# Bulk Modulus (GPa) = 49.33549 54.26605 51.80077
# Shear Modulus (GPa) = 21.18216 28.60681 24.89448
#
# Velocity S-wave (km/s) = 3.31522 3.85268 3.59401
# Velocity P-wave (km/s) = 6.34451 6.92442 6.64080
#
# Compressibility (1/GPa) = 0.02026938
#
# Stress axis : x y z
#
# Youngs Moduli (GPa) = 62.90638 38.69979 47.73939
#
# Poissons Ratio (x) = 0.05607 0.21325
# Poissons Ratio (y) = 0.09115 0.73000
# Poissons Ratio (z) = 0.28100 0.59177
#
# Static dielectric constant tensor:
#      x y z
#    x 3.685800 0.000000 0.129110 
#    y 0.000000 3.416260 0.000000 
#    z 0.129110 0.000000 3.495900 
# 
# 
# High freq. dielectric constant tensor:
#      x y z
#    x 1.768260 0.000000 0.009350 
#    y 0.000000 1.739090 0.000000 
#    z 0.009350 0.000000 1.747650 
# 
# From -- ./inp_files/61691.got.cif
#   From: 2010.06.25/outbox.cif.g09.slc.cpg/sg12_31_cif.got.tgz:61691.got - 2010.06.28 00:19:55.
