data_PCOD8107197
_publ_section_title
;
Structure prediction by ZEFSAII (Michael W. Deem and Ramdas Pophale) SiO2 
 PCOD8107197
Probable space group: C 2/M
;
_chemical_formula_sum "Si O2"
_cell_formula_units_Z 64
_cell_length_a 32.217101
_cell_length_b 8.845330
_cell_length_c 14.950541
_cell_angle_alpha 90.000000
_cell_angle_beta 133.215863
_cell_angle_gamma 90.000000
_cell_volume 3104.940637
_symmetry_space_group_name_H-M "C 2/M"
_symmetry_group_IT_number 12
_symmetry_cell_setting 'monoclinic'
loop_
_space_group_symop_operation_xyz
x,y,z
-x,y,-z
-x,-y,-z
x,-y,z
1/2+x,1/2+y,z
1/2-x,1/2+y,-z
1/2-x,1/2-y,-z
1/2+x,1/2-y,z
loop_
_atom_site_type_symbol
_atom_site_label
_atom_site_fract_x
_atom_site_fract_y
_atom_site_fract_z
Si Si1 0.563715 0.178236 0.092829
Si Si2 0.727335 0.673586 0.554887
Si Si3 0.640965 0.321838 0.690057
Si Si4 0.131971 0.324077 0.021933
Si Si5 0.900544 0.829253 0.678629
Si Si6 0.039326 0.176603 0.410488
Si Si7 0.078773 0.325311 0.754757
Si Si8 0.252486 0.678659 0.775439
O O1 0.598485 0.240914 0.059087
O O2 0.595939 0.219787 0.231606
O O3 0.559843 0.000000 0.079286
O O4 0.500000 0.248315 0.000000
O O5 0.747154 0.500000 0.587039
O O6 0.750000 0.750000 0.500000
O O7 0.659522 0.688428 0.459703
O O8 0.754721 0.758880 0.678372
O O9 0.650911 0.500000 0.701044
O O10 0.592186 0.270554 0.548888
O O11 0.623558 0.270722 0.763412
O O12 0.699781 0.242558 0.752804
O O13 0.147481 0.500000 0.056839
O O14 0.189563 0.230605 0.091159
O O15 0.091536 0.297444 0.877536
O O16 0.947728 0.787561 0.674333
O O17 0.908621 0.000000 0.725282
O O18 0.984858 0.270759 0.360678
O O19 0.026798 0.000000 0.406932
O O20 0.084476 0.500000 0.736692
O O21 0.248484 0.500000 0.767374
#
# Coordination Sequence:
#
# PCOD8107197 Si02
#       8
#     8   8   8   8   8   8   8   8
#     4  10  21  38  60  88 122 163 208 253 306 364
#     4  11  22  39  60  88 124 162 205 252 308 370
#     4  11  23  43  67  91 125 168 206 253 318 382
#     4  10  23  43  63  86 126 171 208 255 317 379
#     4  10  21  37  58  86 120 158 201 246 299 364
#     4  10  21  40  63  90 125 166 204 248 315 384
#     4  11  24  41  64  95 124 159 209 264 315 371
#     4  12  25  41  64  93 124 162 212 265 313 370
#
# _framework density 20.612310999999998
#
# number of rings (size 3 to 8) (size 9 to 14) (size 15 to 20)
#    0.000    1.375    1.250    4.125    0.000    9.250 
#    0.000    0.000    0.000    0.000    0.000    0.000 
#    0.000    0.000    0.000    0.000    0.000    0.000 
#
# Total GULP energy -397007.063716 kJ/mol
# GULP energy per Si atom -12406.470741 kJ/mol
# Density = 2.056540 g / cm^3
# Si number density = 20.612311 Si / 1000 Ang^3
#
#
#
# Elastic Constant Matrix: (Units=GPa)
#
#
# Indices 1 2 3 4 5 6 
#
# 1 123.4315 44.0678 29.7631 0.0000 8.1984 0.0000
# 2 44.0678 89.6131 34.0088 0.0000 10.4125 0.0000
# 3 29.7631 34.0088 74.1072 0.0000 6.9002 0.0000
# 4 0.0000 0.0000 0.0000 32.2717 0.0000 -2.5515
# 5 8.1984 10.4125 6.9002 0.0000 36.8064 0.0000
# 6 0.0000 0.0000 0.0000 -2.5515 0.0000 34.0202
#
#
#
# Elastic Compliance Matrix: (Units=1/GPa)
#
#
# Indices 1 2 3 4 5 6 
#
# 1 0.010120 -0.004090 -0.002122 0.000000 -0.000699 0.000000
# 2 -0.004090 0.015436 -0.005210 0.000000 -0.002479 0.000000
# 3 -0.002122 -0.005210 0.016850 0.000000 -0.001212 0.000000
# 4 0.000000 0.000000 0.000000 0.031172 0.000000 0.002338
# 5 -0.000699 -0.002479 -0.001212 0.000000 0.028254 0.000000
# 6 0.000000 0.000000 0.000000 0.002338 0.000000 0.029570
#
#
# Mechanical properties :
#
#
# Convention : Reuss Voigt Hill
#
# Bulk Modulus (GPa) = 51.12229 55.87014 53.49622
# Shear Modulus (GPa) = 31.10103 32.57379 31.83741
#
# Velocity S-wave (km/s) = 3.88862 3.97962 3.93438
# Velocity P-wave (km/s) = 6.70950 6.94842 6.83001
#
# Compressibility (1/GPa) = 0.01956094
#
# Stress axis : x y z
#
# Youngs Moduli (GPa) = 98.81353 64.78500 59.34612
#
# Poissons Ratio (x) = 0.26496 0.12596
# Poissons Ratio (y) = 0.40414 0.30921
# Poissons Ratio (z) = 0.20973 0.33755
#
# Static dielectric constant tensor:
#      x y z
#    x 3.929200 0.000000 0.061650 
#    y 0.000000 3.691250 0.000000 
#    z 0.061650 0.000000 3.677480 
# 
# 
# High freq. dielectric constant tensor:
#      x y z
#    x 1.821820 0.000000 0.000780 
#    y 0.000000 1.800500 0.000000 
#    z 0.000780 0.000000 1.807660 
# 
# From -- ./inp_files/249972.got.cif
#   From: 2010.06.25/outbox.cif.g09.slc.cpg/sg12_125_cif.got.tgz:249972.got - 2010.06.28 00:19:55.
