data_PCOD8107684
_publ_section_title
;
Structure prediction by ZEFSAII (Michael W. Deem and Ramdas Pophale) SiO2 
 PCOD8107684
Probable space group: C 2/M
;
_chemical_formula_sum "Si O2"
_cell_formula_units_Z 52
_cell_length_a 8.131849
_cell_length_b 29.666160
_cell_length_c 18.737737
_cell_angle_alpha 90.000000
_cell_angle_beta 146.698334
_cell_angle_gamma 90.000000
_cell_volume 2481.860675
_symmetry_space_group_name_H-M "C 2/M"
_symmetry_group_IT_number 12
_symmetry_cell_setting 'monoclinic'
loop_
_space_group_symop_operation_xyz
x,y,z
-x,y,-z
-x,-y,-z
x,-y,z
1/2+x,1/2+y,z
1/2-x,1/2+y,-z
1/2-x,1/2-y,-z
1/2+x,1/2-y,z
loop_
_atom_site_type_symbol
_atom_site_label
_atom_site_fract_x
_atom_site_fract_y
_atom_site_fract_z
Si Si1 0.708474 0.363827 0.442995
Si Si2 0.523429 0.192222 0.663118
Si Si3 0.806011 0.951596 0.859262
Si Si4 0.987988 0.214022 0.716682
Si Si5 0.990331 0.140244 0.082113
Si Si6 0.612902 0.449259 0.620936
Si Si7 0.000000 0.314359 0.000000
O O1 0.473847 0.327474 0.324647
O O2 0.551575 0.412396 0.389867
O O3 0.000000 0.370940 0.500000
O O4 0.777333 0.344404 0.548088
O O5 0.401339 0.239282 0.648003
O O6 0.694758 0.202974 0.653379
O O7 0.737505 0.172645 0.800836
O O8 0.465287 0.939859 0.755144
O O9 0.942567 0.910216 0.863073
O O10 0.818959 0.000000 0.822234
O O11 0.000000 0.956661 0.000000
O O12 0.280894 0.217492 0.873939
O O13 0.685453 0.155624 0.010404
O O14 0.000000 0.139608 0.000000
O O15 0.500000 0.443756 0.500000
O O16 0.539134 0.500000 0.621886
#
# Coordination Sequence:
#
# PCOD8107684 Si02
#       7
#     8   8   8   8   8   8   4
#     4  10  22  40  59  89 128 163 206 263 320 375
#     4  10  22  38  56  88 118 161 210 257 316 377
#     4   9  19  36  59  89 122 158 205 256 310 375
#     4  10  23  37  60  82 125 162 207 266 312 378
#     4  10  22  37  62  87 123 165 207 262 320 371
#     4  10  21  37  63  94 123 162 213 258 308 381
#     4  10  24  40  57  94 124 160 221 264 302 390
#
# _framework density 20.952023000000001
#
# number of rings (size 3 to 8) (size 9 to 14) (size 15 to 20)
#    0.000    2.154    0.000    1.385    7.538    2.769 
#    0.000    0.385    0.000    5.538    0.000    0.000 
#    0.000    0.000    0.000    0.000    0.000    0.000 
#
# Total GULP energy -322158.133464 kJ/mol
# GULP energy per Si atom -12390.697441 kJ/mol
# Density = 2.090434 g / cm^3
# Si number density = 20.952023 Si / 1000 Ang^3
#
#
#
# Elastic Constant Matrix: (Units=GPa)
#
#
# Indices 1 2 3 4 5 6 
#
# 1 60.4033 36.5649 27.5011 0.0000 -8.9189 0.0001
# 2 36.5649 138.7687 22.1975 0.0001 -4.7303 0.0002
# 3 27.5011 22.1975 99.5537 -0.0002 3.8460 0.0003
# 4 0.0000 0.0001 -0.0002 33.8051 0.0000 5.6072
# 5 -8.9189 -4.7303 3.8460 0.0000 15.4254 0.0001
# 6 0.0001 0.0002 0.0003 5.6072 0.0001 32.1495
#
#
#
# Elastic Compliance Matrix: (Units=1/GPa)
#
#
# Indices 1 2 3 4 5 6 
#
# 1 0.024485 -0.004976 -0.006202 0.000000 0.014177 0.000000
# 2 -0.004976 0.008600 -0.000539 0.000000 -0.000106 0.000000
# 3 -0.006202 -0.000539 0.012140 0.000000 -0.006778 0.000000
# 4 0.000000 0.000000 0.000000 0.030463 0.000000 -0.005313
# 5 0.014177 -0.000106 -0.006778 0.000000 0.074683 0.000000
# 6 0.000000 0.000000 0.000000 -0.005313 0.000000 0.032031
#
#
# Mechanical properties :
#
#
# Convention : Reuss Voigt Hill
#
# Bulk Modulus (GPa) = 45.89068 52.36138 49.12603
# Shear Modulus (GPa) = 23.46319 30.44014 26.95167
#
# Velocity S-wave (km/s) = 3.35005 3.81576 3.59047
# Velocity P-wave (km/s) = 6.07570 6.66774 6.37859
#
# Compressibility (1/GPa) = 0.02179092
#
# Stress axis : x y z
#
# Youngs Moduli (GPa) = 40.84159 116.27844 82.37193
#
# Poissons Ratio (x) = 0.57864 0.51086
# Poissons Ratio (y) = 0.20324 0.04438
# Poissons Ratio (z) = 0.25330 0.06265
#
# Static dielectric constant tensor:
#      x y z
#    x 3.478680 0.000000 -0.072410 
#    y 0.000000 4.939840 0.000000 
#    z -0.072410 0.000000 3.926440 
# 
# 
# High freq. dielectric constant tensor:
#      x y z
#    x 1.786830 0.000000 -0.000260 
#    y 0.000000 1.839910 0.000000 
#    z -0.000260 0.000000 1.836380 
# 
# From -- ./inp_files/199994.got.cif
#   From: 2010.06.25/outbox.cif.g09.slc.cpg/sg12_100_cif.got.tgz:199994.got - 2010.06.28 00:19:55.
