data_PCOD8107303
_publ_section_title
;
Structure prediction by ZEFSAII (Michael W. Deem and Ramdas Pophale) SiO2 
 PCOD8107303
Probable space group: C 2/M
;
_chemical_formula_sum "Si O2"
_cell_formula_units_Z 64
_cell_length_a 30.430650
_cell_length_b 8.959442
_cell_length_c 16.115899
_cell_angle_alpha 90.000000
_cell_angle_beta 132.761194
_cell_angle_gamma 90.000000
_cell_volume 3225.931344
_symmetry_space_group_name_H-M "C 2/M"
_symmetry_group_IT_number 12
_symmetry_cell_setting 'monoclinic'
loop_
_space_group_symop_operation_xyz
x,y,z
-x,y,-z
-x,-y,-z
x,-y,z
1/2+x,1/2+y,z
1/2-x,1/2+y,-z
1/2-x,1/2-y,-z
1/2+x,1/2-y,z
loop_
_atom_site_type_symbol
_atom_site_label
_atom_site_fract_x
_atom_site_fract_y
_atom_site_fract_z
Si Si1 0.873436 0.327136 0.001552
Si Si2 0.952545 0.826315 0.589656
Si Si3 0.757080 0.324715 0.757113
Si Si4 0.585175 0.825093 0.301885
Si Si5 0.982922 0.172737 0.071721
Si Si6 0.708244 0.823833 0.378950
Si Si7 0.867293 0.825752 0.330990
Si Si8 0.918981 0.674046 0.241128
O O1 0.886771 0.500000 0.997850
O O2 0.883574 0.292271 0.111023
O O3 0.915140 0.224067 0.998172
O O4 0.805753 0.284300 0.889818
O O5 0.908005 0.754909 0.600472
O O6 0.923866 0.798325 0.463072
O O7 0.017594 0.754789 0.677053
O O8 0.958960 0.000000 0.617161
O O9 0.751475 0.500000 0.738065
O O10 0.776137 0.257863 0.691923
O O11 0.692919 0.261444 0.703502
O O12 0.523447 0.771996 0.183165
O O13 0.639839 0.780821 0.312203
O O14 0.581507 0.000000 0.313039
O O15 0.990943 0.000000 0.105260
O O16 0.000000 0.206158 0.000000
O O17 0.750000 0.750000 0.500000
O O18 0.717693 0.000000 0.395243
O O19 0.876919 0.735187 0.259483
O O20 0.860418 0.000000 0.300527
O O21 0.930747 0.500000 0.268892
#
# Coordination Sequence:
#
# PCOD8107303 Si02
#       8
#     8   8   8   8   8   8   8   8
#     4  10  21  39  62  85 115 156 198 243 294 353
#     4  11  22  38  61  88 120 156 197 247 301 358
#     4   9  19  39  62  84 114 156 203 243 287 352
#     4  11  22  36  58  88 118 154 196 240 296 353
#     4  11  23  37  56  85 118 153 194 241 290 344
#     4  10  21  37  59  86 118 156 199 244 291 348
#     4  10  22  39  61  86 114 156 203 245 298 358
#     4  11  23  38  59  89 120 152 196 250 303 354
#
# _framework density 19.839231000000002
#
# number of rings (size 3 to 8) (size 9 to 14) (size 15 to 20)
#    0.000    1.625    1.250    3.375    0.000    7.500 
#    0.000    1.875    0.000    0.000    0.000    0.000 
#    0.000    0.000    0.000    0.000    0.000    0.000 
#
# Total GULP energy -396930.127078 kJ/mol
# GULP energy per Si atom -12404.066471 kJ/mol
# Density = 1.979408 g / cm^3
# Si number density = 19.839231 Si / 1000 Ang^3
#
#
#
# Elastic Constant Matrix: (Units=GPa)
#
#
# Indices 1 2 3 4 5 6 
#
# 1 143.7301 45.8198 55.6146 0.0000 -11.6264 0.0000
# 2 45.8198 66.6407 38.7402 0.0000 -10.3836 0.0000
# 3 55.6146 38.7402 118.1715 0.0000 -3.9194 0.0000
# 4 0.0000 0.0000 0.0000 27.7950 0.0000 -3.2270
# 5 -11.6264 -10.3836 -3.9194 0.0000 34.2780 0.0000
# 6 0.0000 0.0000 0.0000 -3.2270 0.0000 34.0908
#
#
#
# Elastic Compliance Matrix: (Units=1/GPa)
#
#
# Indices 1 2 3 4 5 6 
#
# 1 0.009743 -0.004724 -0.002986 0.000000 0.001532 0.000000
# 2 -0.004724 0.021702 -0.004744 0.000000 0.004429 0.000000
# 3 -0.002986 -0.004744 0.011385 0.000000 -0.001148 0.000000
# 4 0.000000 0.000000 0.000000 0.036378 0.000000 0.003443
# 5 0.001532 0.004429 -0.001148 0.000000 0.030903 0.000000
# 6 0.000000 0.000000 0.000000 0.003443 0.000000 0.029659
#
#
# Mechanical properties :
#
#
# Convention : Reuss Voigt Hill
#
# Bulk Modulus (GPa) = 55.80036 67.65460 61.72748
# Shear Modulus (GPa) = 29.29934 31.79061 30.54498
#
# Velocity S-wave (km/s) = 3.84714 4.00736 3.92806
# Velocity P-wave (km/s) = 6.92252 7.45569 7.19405
#
# Compressibility (1/GPa) = 0.01792103
#
# Stress axis : x y z
#
# Youngs Moduli (GPa) = 102.64047 46.07794 87.83786
#
# Poissons Ratio (x) = 0.21769 0.26225
# Poissons Ratio (y) = 0.48492 0.41673
# Poissons Ratio (z) = 0.30644 0.21861
#
# Static dielectric constant tensor:
#      x y z
#    x 4.085160 0.000000 0.077640 
#    y 0.000000 3.513850 0.000000 
#    z 0.077640 0.000000 3.876720 
# 
# 
# High freq. dielectric constant tensor:
#      x y z
#    x 1.784740 0.000000 -0.003930 
#    y 0.000000 1.761420 0.000000 
#    z -0.003930 0.000000 1.781920 
# 
# From -- ./inp_files/250124.got.cif
#   From: 2010.06.25/outbox.cif.g09.slc.cpg/sg12_126_cif.got.tgz:250124.got - 2010.06.28 00:19:55.
