data_PCOD8107638
_publ_section_title
;
Structure prediction by ZEFSAII (Michael W. Deem and Ramdas Pophale) SiO2 
 PCOD8107638
Probable space group: C 2/M
;
_chemical_formula_sum "Si O2"
_cell_formula_units_Z 56
_cell_length_a 18.084901
_cell_length_b 25.268496
_cell_length_c 9.774706
_cell_angle_alpha 90.000000
_cell_angle_beta 39.232454
_cell_angle_gamma 90.000000
_cell_volume 2825.126470
_symmetry_space_group_name_H-M "C 2/M"
_symmetry_group_IT_number 12
_symmetry_cell_setting 'monoclinic'
loop_
_space_group_symop_operation_xyz
x,y,z
-x,y,-z
-x,-y,-z
x,-y,z
1/2+x,1/2+y,z
1/2-x,1/2+y,-z
1/2-x,1/2-y,-z
1/2+x,1/2-y,z
loop_
_atom_site_type_symbol
_atom_site_label
_atom_site_fract_x
_atom_site_fract_y
_atom_site_fract_z
Si Si1 0.367904 0.059757 0.945511
Si Si2 0.511804 0.439490 0.139115
Si Si3 0.134157 0.186680 0.336518
Si Si4 0.777165 0.875248 0.041487
Si Si5 0.220358 0.097879 0.399525
Si Si6 0.610349 0.805652 0.437115
Si Si7 0.440028 0.861574 0.226494
O O1 0.306796 0.078643 0.893749
O O2 0.480604 0.094529 0.815985
O O3 0.410658 0.000000 0.864675
O O4 0.274523 0.062555 0.201723
O O5 0.556225 0.500000 0.087014
O O6 0.384673 0.435771 0.388269
O O7 0.500000 0.421312 0.000000
O O8 0.600849 0.400524 0.087574
O O9 0.174742 0.153745 0.408864
O O10 0.158781 0.247303 0.338592
O O11 0.000000 0.175359 0.500000
O O12 0.206387 0.169265 0.099353
O O13 0.714218 0.846984 0.258683
O O14 0.316269 0.110609 0.376999
O O15 0.500000 0.818336 0.500000
O O16 0.574262 0.812403 0.648305
O O17 0.500000 0.840572 0.000000
#
# Coordination Sequence:
#
# PCOD8107638 Si02
#       7
#     8   8   8   8   8   8   8
#     4  10  21  37  62  91 118 159 206 249 302 358
#     4  11  23  38  58  86 122 165 203 246 307 365
#     4  10  21  39  64  90 117 156 204 246 300 366
#     4  11  21  40  62  90 125 155 200 259 297 360
#     4  10  21  39  60  86 122 156 199 254 301 358
#     4  11  22  40  65  89 120 164 200 249 309 357
#     4  10  22  41  61  89 127 159 201 254 300 360
#
# _framework density 19.822120999999999
#
# number of rings (size 3 to 8) (size 9 to 14) (size 15 to 20)
#    0.000    1.571    2.857    2.143    0.000    3.714 
#    0.000    5.000    0.000    0.000    0.000    0.000 
#    0.000    0.000    0.000    0.000    0.000    0.000 
#
# Total GULP energy -347304.066235 kJ/mol
# GULP energy per Si atom -12403.716651 kJ/mol
# Density = 1.977700 g / cm^3
# Si number density = 19.822121 Si / 1000 Ang^3
#
#
#
# Elastic Constant Matrix: (Units=GPa)
#
#
# Indices 1 2 3 4 5 6 
#
# 1 105.4330 42.7551 31.2407 0.0000 -2.5039 0.0000
# 2 42.7551 109.1105 40.4238 0.0000 8.5343 0.0000
# 3 31.2407 40.4238 74.4437 0.0000 6.1056 0.0000
# 4 0.0000 0.0000 0.0000 11.5757 0.0000 -2.8910
# 5 -2.5039 8.5343 6.1056 0.0000 36.0970 0.0000
# 6 0.0000 0.0000 0.0000 -2.8910 0.0000 18.2712
#
#
#
# Elastic Compliance Matrix: (Units=1/GPa)
#
#
# Indices 1 2 3 4 5 6 
#
# 1 0.011983 -0.003680 -0.003214 0.000000 0.002245 0.000000
# 2 -0.003680 0.012705 -0.005159 0.000000 -0.002387 0.000000
# 3 -0.003214 -0.005159 0.017748 0.000000 -0.002005 0.000000
# 4 0.000000 0.000000 0.000000 0.089943 0.000000 0.014232
# 5 0.002245 -0.002387 -0.002005 0.000000 0.028762 0.000000
# 6 0.000000 0.000000 0.000000 0.014232 0.000000 0.056983
#
#
# Mechanical properties :
#
#
# Convention : Reuss Voigt Hill
#
# Bulk Modulus (GPa) = 54.55927 57.53626 56.04777
# Shear Modulus (GPa) = 20.13370 24.82661 22.48016
#
# Velocity S-wave (km/s) = 3.19049 3.54286 3.37129
# Velocity P-wave (km/s) = 6.41533 6.76943 6.59476
#
# Compressibility (1/GPa) = 0.01832869
#
# Stress axis : x y z
#
# Youngs Moduli (GPa) = 83.45252 78.70875 56.34542
#
# Poissons Ratio (x) = 0.28967 0.18112
# Poissons Ratio (y) = 0.30712 0.29068
# Poissons Ratio (z) = 0.26825 0.40605
#
# Static dielectric constant tensor:
#      x y z
#    x 3.669910 0.000000 -0.019390 
#    y 0.000000 3.435740 0.000000 
#    z -0.019390 0.000000 3.667990 
# 
# 
# High freq. dielectric constant tensor:
#      x y z
#    x 1.780300 0.000000 -0.004800 
#    y 0.000000 1.764720 0.000000 
#    z -0.004800 0.000000 1.776520 
# 
# From -- ./inp_files/53188.got.cif
#   From: 2010.06.25/outbox.cif.g09.slc.cpg/sg12_27_cif.got.tgz:53188.got - 2010.06.28 00:19:55.
