data_PCOD8107613
_publ_section_title
;
Structure prediction by ZEFSAII (Michael W. Deem and Ramdas Pophale) SiO2 
 PCOD8107613
Probable space group: C 2/M
;
_chemical_formula_sum "Si O2"
_cell_formula_units_Z 48
_cell_length_a 25.452219
_cell_length_b 10.976098
_cell_length_c 18.725138
_cell_angle_alpha 90.000000
_cell_angle_beta 25.153476
_cell_angle_gamma 90.000000
_cell_volume 2223.478776
_symmetry_space_group_name_H-M "C 2/M"
_symmetry_group_IT_number 12
_symmetry_cell_setting 'monoclinic'
loop_
_space_group_symop_operation_xyz
x,y,z
-x,y,-z
-x,-y,-z
x,-y,z
1/2+x,1/2+y,z
1/2-x,1/2+y,-z
1/2-x,1/2-y,-z
1/2+x,1/2-y,z
loop_
_atom_site_type_symbol
_atom_site_label
_atom_site_fract_x
_atom_site_fract_y
_atom_site_fract_z
Si Si1 0.177081 0.361016 0.329126
Si Si2 0.577859 0.635846 0.541777
Si Si3 0.886776 0.631869 0.888143
Si Si4 0.390748 0.273909 0.346056
Si Si5 0.035022 0.137109 0.031695
Si Si6 0.654868 0.230639 0.207867
O O1 0.143156 0.500000 0.397151
O O2 0.148212 0.253381 0.421291
O O3 0.108937 0.331866 0.337722
O O4 0.320239 0.353979 0.133665
O O5 0.616608 0.500000 0.464858
O O6 0.602376 0.630493 0.596904
O O7 0.432627 0.653851 0.703570
O O8 0.857507 0.500000 0.955526
O O9 0.858521 0.632195 0.838374
O O10 0.032350 0.656919 0.721174
O O11 0.797023 0.726187 0.039170
O O12 0.250000 0.250000 0.500000
O O13 0.459397 0.311099 0.190198
O O14 0.987662 0.000000 0.083493
O O15 0.000000 0.204772 0.000000
#
# Coordination Sequence:
#
# PCOD8107613 Si02
#       6
#     8   8   8   8   8   8
#     4  11  23  41  66  95 130 174 221 270 321 382
#     4  11  25  41  64  97 135 175 213 266 330 390
#     4  10  21  37  61  95 129 166 212 266 325 385
#     4  11  23  42  66  92 128 168 218 267 325 388
#     4  10  21  40  65  90 120 165 218 267 318 382
#     4  10  21  39  62  93 129 173 214 266 319 393
#
# _framework density 21.587792
#
# number of rings (size 3 to 8) (size 9 to 14) (size 15 to 20)
#    0.000    1.500    1.667    3.000    0.000    7.333 
#    0.000    0.000    0.000    2.000    0.000    0.000 
#    0.000    0.000    0.000    0.000    0.000    0.000 
#
# Total GULP energy -297339.179393 kJ/mol
# GULP energy per Si atom -12389.132475 kJ/mol
# Density = 2.153866 g / cm^3
# Si number density = 21.587792 Si / 1000 Ang^3
#
#
#
# Elastic Constant Matrix: (Units=GPa)
#
#
# Indices 1 2 3 4 5 6 
#
# 1 104.9586 40.4473 29.7576 0.0000 6.8353 0.0000
# 2 40.4473 141.4385 47.9829 -0.0001 5.5426 0.0000
# 3 29.7576 47.9829 106.9891 -0.0001 -2.7036 0.0000
# 4 0.0000 -0.0001 -0.0001 23.5129 0.0000 6.3028
# 5 6.8353 5.5426 -2.7036 0.0000 51.0098 0.0000
# 6 0.0000 0.0000 0.0000 6.3028 0.0000 9.9654
#
#
#
# Elastic Compliance Matrix: (Units=1/GPa)
#
#
# Indices 1 2 3 4 5 6 
#
# 1 0.011132 -0.002441 -0.002035 0.000000 -0.001334 0.000000
# 2 -0.002441 0.008937 -0.003350 0.000000 -0.000822 0.000000
# 3 -0.002035 -0.003350 0.011447 0.000000 0.001243 0.000000
# 4 0.000000 0.000000 0.000000 0.051212 0.000000 -0.032390
# 5 -0.001334 -0.000822 0.001243 0.000000 0.019938 0.000000
# 6 0.000000 0.000000 0.000000 -0.032390 0.000000 0.120834
#
#
# Mechanical properties :
#
#
# Convention : Reuss Voigt Hill
#
# Bulk Modulus (GPa) = 63.03726 65.52909 64.28317
# Shear Modulus (GPa) = 20.45495 32.57751 26.51623
#
# Velocity S-wave (km/s) = 3.08153 3.88889 3.50851
# Velocity P-wave (km/s) = 6.47494 7.11233 6.80111
#
# Compressibility (1/GPa) = 0.01586363
#
# Stress axis : x y z
#
# Youngs Moduli (GPa) = 89.83052 111.89640 87.36163
#
# Poissons Ratio (x) = 0.27310 0.17781
# Poissons Ratio (y) = 0.21925 0.29266
# Poissons Ratio (z) = 0.18284 0.37485
#
# Static dielectric constant tensor:
#      x y z
#    x 4.413620 0.000000 -0.166730 
#    y 0.000000 3.661650 0.000000 
#    z -0.166730 0.000000 4.011260 
# 
# 
# High freq. dielectric constant tensor:
#      x y z
#    x 1.858140 0.000000 -0.001070 
#    y 0.000000 1.825720 0.000000 
#    z -0.001070 0.000000 1.853510 
# 
# From -- ./inp_files/289310.got.cif
#   From: 2010.06.25/outbox.cif.g09.slc.cpg/sg12_145_cif.got.tgz:289310.got - 2010.06.28 00:19:55.
