data_PCOD8107240
_publ_section_title
;
Structure prediction by ZEFSAII (Michael W. Deem and Ramdas Pophale) SiO2 
 PCOD8107240
Probable space group: C 2/M
;
_chemical_formula_sum "Si O2"
_cell_formula_units_Z 56
_cell_length_a 17.278805
_cell_length_b 13.757310
_cell_length_c 25.983346
_cell_angle_alpha 90.000000
_cell_angle_beta 24.511523
_cell_angle_gamma 90.000000
_cell_volume 2562.482260
_symmetry_space_group_name_H-M "C 2/M"
_symmetry_group_IT_number 12
_symmetry_cell_setting 'monoclinic'
loop_
_space_group_symop_operation_xyz
x,y,z
-x,y,-z
-x,-y,-z
x,-y,z
1/2+x,1/2+y,z
1/2-x,1/2+y,-z
1/2-x,1/2-y,-z
1/2+x,1/2-y,z
loop_
_atom_site_type_symbol
_atom_site_label
_atom_site_fract_x
_atom_site_fract_y
_atom_site_fract_z
Si Si1 0.833577 0.267008 0.065464
Si Si2 0.810295 0.615953 0.434138
Si Si3 0.491967 0.802005 0.226384
Si Si4 0.304084 0.386033 0.312855
Si Si5 0.504564 0.886539 0.416349
Si Si6 0.437404 0.889827 0.151670
Si Si7 0.101813 0.887725 0.286162
O O1 0.703971 0.182812 0.119055
O O2 0.693250 0.333792 0.182791
O O3 0.919093 0.325951 0.966865
O O4 0.000000 0.222956 0.000000
O O5 0.819569 0.500000 0.420776
O O6 0.846655 0.668838 0.358471
O O7 0.960674 0.655101 0.385863
O O8 0.606678 0.649660 0.576691
O O9 0.473514 0.688552 0.219463
O O10 0.454776 0.872500 0.201597
O O11 0.367054 0.500000 0.275329
O O12 0.159210 0.361351 0.445299
O O13 0.205935 0.355803 0.317740
O O14 0.508359 0.000000 0.407745
O O15 0.224328 0.869198 0.263257
O O16 0.490780 0.000000 0.107026
O O17 0.095494 0.000000 0.274252
#
# Coordination Sequence:
#
# PCOD8107240 Si02
#       7
#     8   8   8   8   8   8   8
#     4  10  22  40  61  83 108 147 203 254 287 323
#     4  10  21  37  58  89 126 156 185 226 286 359
#     4  12  24  36  59  88 119 155 186 230 296 359
#     4   9  19  34  53  80 112 149 193 237 279 327
#     4   8  16  33  53  75 113 158 194 229 270 328
#     4  10  22  41  61  83 116 155 197 241 283 336
#     4   9  19  37  62  89 116 151 193 239 290 340
#
# _framework density 21.853809999999999
#
# number of rings (size 3 to 8) (size 9 to 14) (size 15 to 20)
#    0.000    2.286    0.000    3.000    0.000   11.429 
#    0.000    2.143    0.000    1.714    0.000    0.000 
#    0.000    0.000    0.000    0.000    0.000    0.000 
#
# Total GULP energy -347054.529178 kJ/mol
# GULP energy per Si atom -12394.804613 kJ/mol
# Density = 2.180407 g / cm^3
# Si number density = 21.853810 Si / 1000 Ang^3
#
#
#
# Elastic Constant Matrix: (Units=GPa)
#
#
# Indices 1 2 3 4 5 6 
#
# 1 154.6844 16.3035 51.9364 0.0018 -1.6164 0.0005
# 2 16.3035 36.1710 3.6649 0.0068 -4.1172 0.0049
# 3 51.9364 3.6649 78.2994 0.0101 -5.8614 0.0092
# 4 0.0018 0.0068 0.0101 19.4990 0.0115 -3.6859
# 5 -1.6164 -4.1172 -5.8614 0.0115 35.7989 0.0017
# 6 0.0005 0.0049 0.0092 -3.6859 0.0017 22.9570
#
#
#
# Elastic Compliance Matrix: (Units=1/GPa)
#
#
# Indices 1 2 3 4 5 6 
#
# 1 0.008735 -0.003466 -0.005702 0.000005 -0.000938 0.000004
# 2 -0.003466 0.029480 0.001176 -0.000014 0.003426 -0.000009
# 3 -0.005702 0.001176 0.016694 -0.000012 0.002611 -0.000009
# 4 0.000005 -0.000014 -0.000012 0.052890 -0.000021 0.008492
# 5 -0.000938 0.003426 0.002611 -0.000021 0.028713 -0.000007
# 6 0.000004 -0.000009 -0.000009 0.008492 -0.000007 0.044923
#
#
# Mechanical properties :
#
#
# Convention : Reuss Voigt Hill
#
# Bulk Modulus (GPa) = 25.69102 45.88494 35.78798
# Shear Modulus (GPa) = 23.76503 28.80097 26.28300
#
# Velocity S-wave (km/s) = 3.30124 3.63422 3.47172
# Velocity P-wave (km/s) = 5.12955 6.21707 5.69931
#
# Compressibility (1/GPa) = 0.03892411
#
# Stress axis : x y z
#
# Youngs Moduli (GPa) = 114.48601 33.92169 59.90210
#
# Poissons Ratio (x) = 0.11757 0.34155
# Poissons Ratio (y) = 0.39682 -0.07043
# Poissons Ratio (z) = 0.65277 -0.03988
#
# Static dielectric constant tensor:
#      x y z
#    x 4.568560 -0.000040 -0.317710 
#    y -0.000040 3.721710 0.000060 
#    z -0.317710 0.000060 3.687970 
# 
# 
# High freq. dielectric constant tensor:
#      x y z
#    x 1.881980 0.000000 -0.008380 
#    y 0.000000 1.843470 0.000010 
#    z -0.008380 0.000010 1.836620 
# 
# From -- ./inp_files/340326.got.cif
#   From: 2010.06.25/outbox.cif.g09.slc.cpg/sg12_171_cif.got.tgz:340326.got - 2010.06.28 00:19:55.
