data_PCOD8107980
_publ_section_title
;
Structure prediction by ZEFSAII (Michael W. Deem and Ramdas Pophale) SiO2 
 PCOD8107980
Probable space group: C 2/M
;
_chemical_formula_sum "Si O2"
_cell_formula_units_Z 40
_cell_length_a 10.248732
_cell_length_b 9.043306
_cell_length_c 22.429504
_cell_angle_alpha 90.000000
_cell_angle_beta 96.364589
_cell_angle_gamma 90.000000
_cell_volume 2066.008142
_symmetry_space_group_name_H-M "C 2/M"
_symmetry_group_IT_number 12
_symmetry_cell_setting 'monoclinic'
loop_
_space_group_symop_operation_xyz
x,y,z
-x,y,-z
-x,-y,-z
x,-y,z
1/2+x,1/2+y,z
1/2-x,1/2+y,-z
1/2-x,1/2-y,-z
1/2+x,1/2-y,z
loop_
_atom_site_type_symbol
_atom_site_label
_atom_site_fract_x
_atom_site_fract_y
_atom_site_fract_z
Si Si1 0.404981 0.672227 0.170197
Si Si2 0.492826 0.670959 0.430231
Si Si3 0.877199 0.826515 0.031639
Si Si4 0.209765 0.673333 0.364403
Si Si5 0.187202 0.173570 0.236831
O O1 0.373701 0.500000 0.178538
O O2 0.399602 0.717488 0.101064
O O3 0.299536 0.768008 0.199508
O O4 0.547896 0.714046 0.201380
O O5 0.500000 0.707600 0.500000
O O6 0.525880 0.500000 0.418900
O O7 0.349225 0.713370 0.399922
O O8 0.597213 0.772479 0.402686
O O9 0.859715 0.000000 0.022483
O O10 0.750000 0.750000 0.000000
O O11 0.000000 0.767553 0.000000
O O12 0.193587 0.500000 0.353527
O O13 0.197502 0.752446 0.301110
O O14 0.205199 0.000000 0.245632
#
# Coordination Sequence:
#
# PCOD8107980 Si02
#       5
#     8   8   8   8   8
#     4  10  22  39  58  83 115 149 188 234 280 332
#     4  10  22  40  60  84 116 152 190 233 281 335
#     4  10  21  38  59  84 115 149 187 232 281 334
#     4  11  23  38  59  87 116 148 189 235 283 336
#     4  11  23  39  60  84 113 151 191 232 282 337
#
# _framework density 19.361008000000002
#
# number of rings (size 3 to 8) (size 9 to 14) (size 15 to 20)
#    0.000    1.600    0.000    4.200    0.000   11.200 
#    0.000    0.000    0.000    0.000    0.000    0.000 
#    0.000    0.000    0.000    0.000    0.000    0.000 
#
# Total GULP energy -248119.022881 kJ/mol
# GULP energy per Si atom -12405.951144 kJ/mol
# Density = 1.931694 g / cm^3
# Si number density = 19.361008 Si / 1000 Ang^3
#
#
#
# Elastic Constant Matrix: (Units=GPa)
#
#
# Indices 1 2 3 4 5 6 
#
# 1 193.1274 89.0053 109.3600 0.0000 0.3659 0.0000
# 2 89.0053 82.4242 76.0819 0.0000 1.3099 0.0000
# 3 109.3600 76.0819 187.0134 0.0000 9.8306 0.0000
# 4 0.0000 0.0000 0.0000 37.6693 0.0000 -5.2126
# 5 0.3659 1.3099 9.8306 0.0000 42.9098 0.0000
# 6 0.0000 0.0000 0.0000 -5.2126 0.0000 40.4076
#
#
#
# Elastic Compliance Matrix: (Units=1/GPa)
#
#
# Indices 1 2 3 4 5 6 
#
# 1 0.011055 -0.009519 -0.002634 0.000000 0.000800 0.000000
# 2 -0.009519 0.027689 -0.005727 0.000000 0.000548 0.000000
# 3 -0.002634 -0.005727 0.009319 0.000000 -0.001938 0.000000
# 4 0.000000 0.000000 0.000000 0.027029 0.000000 0.003487
# 5 0.000800 0.000548 -0.001938 0.000000 0.023725 0.000000
# 6 0.000000 0.000000 0.000000 0.003487 0.000000 0.025198
#
#
# Mechanical properties :
#
#
# Convention : Reuss Voigt Hill
#
# Bulk Modulus (GPa) = 81.28008 112.38439 96.83223
# Shear Modulus (GPa) = 30.51089 36.73854 33.62472
#
# Velocity S-wave (km/s) = 3.97406 4.36082 4.17192
# Velocity P-wave (km/s) = 7.94544 9.13939 8.56325
#
# Compressibility (1/GPa) = 0.01230314
#
# Stress axis : x y z
#
# Youngs Moduli (GPa) = 90.45791 36.11564 107.30403
#
# Poissons Ratio (x) = 0.34378 0.28265
# Poissons Ratio (y) = 0.86105 0.61453
# Poissons Ratio (z) = 0.23827 0.20683
#
# Static dielectric constant tensor:
#      x y z
#    x 3.725030 0.000000 0.007690 
#    y 0.000000 3.549940 0.000000 
#    z 0.007690 0.000000 3.778730 
# 
# 
# High freq. dielectric constant tensor:
#      x y z
#    x 1.771770 0.000000 0.001610 
#    y 0.000000 1.754820 0.000000 
#    z 0.001610 0.000000 1.776500 
# 
# From -- ./inp_files/261025.got.cif
#   From: 2010.06.25/outbox.cif.g09.slc.cpg/sg12_131_cif.got.tgz:261025.got - 2010.06.28 00:19:55.
