data_PCOD8107084
_publ_section_title
;
Structure prediction by ZEFSAII (Michael W. Deem and Ramdas Pophale) SiO2 
 PCOD8107084
Probable space group: C 2/M
;
_chemical_formula_sum "Si O2"
_cell_formula_units_Z 64
_cell_length_a 15.600898
_cell_length_b 8.569296
_cell_length_c 30.523737
_cell_angle_alpha 90.000000
_cell_angle_beta 129.392050
_cell_angle_gamma 90.000000
_cell_volume 3153.637111
_symmetry_space_group_name_H-M "C 2/M"
_symmetry_group_IT_number 12
_symmetry_cell_setting 'monoclinic'
loop_
_space_group_symop_operation_xyz
x,y,z
-x,y,-z
-x,-y,-z
x,-y,z
1/2+x,1/2+y,z
1/2-x,1/2+y,-z
1/2-x,1/2-y,-z
1/2+x,1/2-y,z
loop_
_atom_site_type_symbol
_atom_site_label
_atom_site_fract_x
_atom_site_fract_y
_atom_site_fract_z
Si Si1 0.257796 0.315234 0.435032
Si Si2 0.919615 0.184734 0.563834
Si Si3 0.450706 0.316868 0.937823
Si Si4 0.818833 0.181360 0.756661
Si Si5 0.666326 0.316198 0.633595
Si Si6 0.427064 0.319299 0.165606
Si Si7 0.640592 0.182839 0.942869
Si Si8 0.753983 0.321095 0.826247
O O1 0.251067 0.500000 0.432176
O O2 0.139105 0.249364 0.411592
O O3 0.353723 0.257724 0.499356
O O4 0.284846 0.246742 0.395785
O O5 0.043814 0.253830 0.602191
O O6 0.920963 0.000000 0.566967
O O7 0.424996 0.500000 0.929621
O O8 0.536044 0.276598 0.927291
O O9 0.338222 0.222897 0.892592
O O10 0.500000 0.260572 0.000000
O O11 0.745318 0.277462 0.699276
O O12 0.775339 0.212593 0.791472
O O13 0.945578 0.236555 0.791345
O O14 0.806363 0.000000 0.742170
O O15 0.655841 0.500000 0.625292
O O16 0.419575 0.500000 0.148847
O O17 0.359358 0.214249 0.108995
O O18 0.369790 0.294923 0.194580
O O19 0.631200 0.000000 0.949778
O O20 0.750000 0.250000 0.000000
O O21 0.771993 0.500000 0.817982
#
# Coordination Sequence:
#
# PCOD8107084 Si02
#       8
#     8   8   8   8   8   8   8   8
#     4   9  18  34  57  86 119 156 198 246 298 354
#     4   9  18  34  57  85 119 158 197 244 302 355
#     4  11  23  39  60  89 124 157 193 240 294 355
#     4  11  24  42  62  85 119 160 200 252 303 356
#     4  10  21  37  58  83 116 157 203 248 293 358
#     4  10  23  43  64  86 118 154 194 245 303 360
#     4  12  24  38  61  90 122 157 195 242 295 357
#     4  11  23  41  65  90 116 154 198 244 300 361
#
# _framework density 20.294027
#
# number of rings (size 3 to 8) (size 9 to 14) (size 15 to 20)
#    0.000    1.625    1.250    3.375    0.000    8.000 
#    0.000    3.750    0.000    3.750    0.000    0.000 
#    0.000    0.000    0.000    0.000    0.000    0.000 
#
# Total GULP energy -396924.195502 kJ/mol
# GULP energy per Si atom -12403.881109 kJ/mol
# Density = 2.024784 g / cm^3
# Si number density = 20.294027 Si / 1000 Ang^3
#
#
#
# Elastic Constant Matrix: (Units=GPa)
#
#
# Indices 1 2 3 4 5 6 
#
# 1 156.6091 19.6066 64.3576 0.0000 2.9778 0.0000
# 2 19.6066 30.7393 11.0975 0.0000 3.5103 0.0000
# 3 64.3576 11.0975 108.1377 0.0000 2.6091 0.0000
# 4 0.0000 0.0000 0.0000 29.8472 0.0000 -1.0144
# 5 2.9778 3.5103 2.6091 0.0000 26.1210 0.0000
# 6 0.0000 0.0000 0.0000 -1.0144 0.0000 29.6633
#
#
#
# Elastic Compliance Matrix: (Units=1/GPa)
#
#
# Indices 1 2 3 4 5 6 
#
# 1 0.008881 -0.003901 -0.004885 0.000000 0.000000 0.000000
# 2 -0.003901 0.035964 -0.001266 0.000000 -0.004262 0.000000
# 3 -0.004885 -0.001266 0.012297 0.000000 -0.000501 0.000000
# 4 0.000000 0.000000 0.000000 0.033543 0.000000 0.001147
# 5 0.000000 -0.004262 -0.000501 0.000000 0.038906 0.000000
# 6 0.000000 0.000000 0.000000 0.001147 0.000000 0.033751
#
#
# Mechanical properties :
#
#
# Convention : Reuss Voigt Hill
#
# Bulk Modulus (GPa) = 27.00017 53.95662 40.47840
# Shear Modulus (GPa) = 25.53720 30.48794 28.01257
#
# Velocity S-wave (km/s) = 3.55119 3.88017 3.71932
# Velocity P-wave (km/s) = 5.49071 6.83516 6.19949
#
# Compressibility (1/GPa) = 0.03703680
#
# Stress axis : x y z
#
# Youngs Moduli (GPa) = 112.59590 27.80579 81.32076
#
# Poissons Ratio (x) = 0.10847 0.39728
# Poissons Ratio (y) = 0.43925 0.10297
# Poissons Ratio (z) = 0.55007 0.03521
#
# Static dielectric constant tensor:
#      x y z
#    x 3.912460 0.000000 0.002120 
#    y 0.000000 3.513980 0.000000 
#    z 0.002120 0.000000 3.568430 
# 
# 
# High freq. dielectric constant tensor:
#      x y z
#    x 1.808820 0.000000 0.001280 
#    y 0.000000 1.783490 0.000000 
#    z 0.001280 0.000000 1.785760 
# 
# From -- ./inp_files/375681.got.cif
#   From: 2010.06.25/outbox.cif.g09.slc.cpg/sg12_188_cif.got.tgz:375681.got - 2010.06.28 00:19:55.
