data_PCOD8107607
_publ_section_title
;
Structure prediction by ZEFSAII (Michael W. Deem and Ramdas Pophale) SiO2 
 PCOD8107607
Probable space group: C 2/M
;
_chemical_formula_sum "Si O2"
_cell_formula_units_Z 56
_cell_length_a 19.599678
_cell_length_b 14.588796
_cell_length_c 15.095197
_cell_angle_alpha 90.000000
_cell_angle_beta 141.810610
_cell_angle_gamma 90.000000
_cell_volume 2668.580645
_symmetry_space_group_name_H-M "C 2/M"
_symmetry_group_IT_number 12
_symmetry_cell_setting 'monoclinic'
loop_
_space_group_symop_operation_xyz
x,y,z
-x,y,-z
-x,-y,-z
x,-y,z
1/2+x,1/2+y,z
1/2-x,1/2+y,-z
1/2-x,1/2-y,-z
1/2+x,1/2-y,z
loop_
_atom_site_type_symbol
_atom_site_label
_atom_site_fract_x
_atom_site_fract_y
_atom_site_fract_z
Si Si1 0.202822 0.276042 0.267562
Si Si2 0.263644 0.101562 0.425775
Si Si3 0.131991 0.892492 0.468794
Si Si4 0.478424 0.903298 0.874879
Si Si5 0.991014 0.395889 0.385613
Si Si6 0.821192 0.303464 0.957413
Si Si7 0.406817 0.715955 0.211205
O O1 0.210169 0.171700 0.303637
O O2 0.315524 0.335711 0.395436
O O3 0.108591 0.323037 0.232224
O O4 0.166172 0.268570 0.129396
O O5 0.218131 0.122704 0.477017
O O6 0.395160 0.112104 0.553016
O O7 0.227084 0.000000 0.358779
O O8 0.013997 0.847539 0.326762
O O9 0.116814 0.000000 0.476808
O O10 0.429001 0.000000 0.788664
O O11 0.500000 0.912861 0.000000
O O12 0.594090 0.887674 0.942460
O O13 0.943439 0.500000 0.325143
O O14 0.000000 0.375260 0.500000
O O15 0.915380 0.316966 0.265404
O O16 0.695279 0.334663 0.844394
O O17 0.865542 0.223985 0.067879
#
# Coordination Sequence:
#
# PCOD8107607 Si02
#       7
#     8   8   8   8   8   8   8
#     4  11  20  39  65  92 123 160 206 266 312 371
#     4  10  21  37  61  94 123 153 202 259 316 367
#     4  11  24  39  62  95 127 164 208 260 318 375
#     4   9  19  35  57  86 119 156 202 249 296 361
#     4  10  21  38  64  93 118 152 205 259 309 366
#     4  10  24  39  60  87 125 168 210 248 311 373
#     4  11  23  42  60  87 128 168 203 256 312 377
#
# _framework density 20.984938
#
# number of rings (size 3 to 8) (size 9 to 14) (size 15 to 20)
#    0.000    1.714    1.429    2.571    2.000    1.714 
#    0.000    3.571    0.000    6.429    0.000    0.000 
#    0.000    0.000    0.000    0.000    0.000    0.000 
#
# Total GULP energy -346974.658480 kJ/mol
# GULP energy per Si atom -12391.952089 kJ/mol
# Density = 2.093718 g / cm^3
# Si number density = 20.984938 Si / 1000 Ang^3
#
#
#
# Elastic Constant Matrix: (Units=GPa)
#
#
# Indices 1 2 3 4 5 6 
#
# 1 105.2288 31.4922 33.7047 0.0000 22.4518 0.0000
# 2 31.4922 124.4979 47.0515 0.0000 6.4883 0.0000
# 3 33.7047 47.0515 95.1043 0.0000 10.0879 0.0000
# 4 0.0000 0.0000 0.0000 20.0093 0.0000 13.2568
# 5 22.4518 6.4883 10.0879 0.0000 37.9958 0.0000
# 6 0.0000 0.0000 0.0000 13.2568 0.0000 16.0029
#
#
#
# Elastic Compliance Matrix: (Units=1/GPa)
#
#
# Indices 1 2 3 4 5 6 
#
# 1 0.012243 -0.001701 -0.002841 0.000000 -0.006190 0.000000
# 2 -0.001701 0.010122 -0.004454 0.000000 0.000459 0.000000
# 3 -0.002841 -0.004454 0.013856 0.000000 -0.001240 0.000000
# 4 0.000000 0.000000 0.000000 0.110773 0.000000 -0.091764
# 5 -0.006190 0.000459 -0.001240 0.000000 0.030227 0.000000
# 6 0.000000 0.000000 0.000000 -0.091764 0.000000 0.138505
#
#
# Mechanical properties :
#
#
# Convention : Reuss Voigt Hill
#
# Bulk Modulus (GPa) = 54.85270 61.03643 57.94456
# Shear Modulus (GPa) = 14.71486 28.97378 21.84432
#
# Velocity S-wave (km/s) = 2.65091 3.71980 3.22988
# Velocity P-wave (km/s) = 5.96369 6.89914 6.44840
#
# Compressibility (1/GPa) = 0.01823064
#
# Stress axis : x y z
#
# Youngs Moduli (GPa) = 81.68216 98.79824 72.16892
#
# Poissons Ratio (x) = 0.16801 0.20502
# Poissons Ratio (y) = 0.13891 0.32141
# Poissons Ratio (z) = 0.23205 0.44000
#
# Static dielectric constant tensor:
#      x y z
#    x 4.070300 0.000000 0.062540 
#    y 0.000000 3.991110 0.000000 
#    z 0.062540 0.000000 3.730080 
# 
# 
# High freq. dielectric constant tensor:
#      x y z
#    x 1.828010 0.000000 0.000680 
#    y 0.000000 1.817040 0.000000 
#    z 0.000680 0.000000 1.817900 
# 
# From -- ./inp_files/233726.got.cif
#   From: 2010.06.25/outbox.cif.g09.slc.cpg/sg12_117_cif.got.tgz:233726.got - 2010.06.28 00:19:55.
