data_PCOD8107861
_publ_section_title
;
Structure prediction by ZEFSAII (Michael W. Deem and Ramdas Pophale) SiO2 
 PCOD8107861
Probable space group: C 2/M
;
_chemical_formula_sum "Si O2"
_cell_formula_units_Z 64
_cell_length_a 10.219768
_cell_length_b 15.366767
_cell_length_c 33.453847
_cell_angle_alpha 90.000000
_cell_angle_beta 41.275572
_cell_angle_gamma 90.000000
_cell_volume 3465.802316
_symmetry_space_group_name_H-M "C 2/M"
_symmetry_group_IT_number 12
_symmetry_cell_setting 'monoclinic'
loop_
_space_group_symop_operation_xyz
x,y,z
-x,y,-z
-x,-y,-z
x,-y,z
1/2+x,1/2+y,z
1/2-x,1/2+y,-z
1/2-x,1/2-y,-z
1/2+x,1/2-y,z
loop_
_atom_site_type_symbol
_atom_site_label
_atom_site_fract_x
_atom_site_fract_y
_atom_site_fract_z
Si Si1 0.079998 0.254548 0.268512
Si Si2 0.875944 0.096362 0.189591
Si Si3 0.311298 0.327400 0.934455
Si Si4 0.538144 0.900984 0.426192
Si Si5 0.477028 0.175732 0.068383
Si Si6 0.869463 0.755884 0.649450
Si Si7 0.833031 0.097453 0.806447
Si Si8 0.323318 0.599107 0.433527
O O1 0.206168 0.333266 0.220843
O O2 0.107616 0.247925 0.308904
O O3 0.156859 0.164211 0.232340
O O4 0.854888 0.275224 0.310245
O O5 0.042367 0.099415 0.116506
O O6 0.977266 0.115102 0.209073
O O7 0.782208 0.000000 0.210291
O O8 0.447719 0.253380 0.921597
O O9 0.180503 0.287692 0.928030
O O10 0.164151 0.367623 0.001997
O O11 0.556741 0.836243 0.384815
O O12 0.326261 0.887248 0.495467
O O13 0.712756 0.880482 0.417389
O O14 0.557646 0.000000 0.405942
O O15 0.370289 0.106203 0.121520
O O16 0.996247 0.834832 0.601845
O O17 0.838908 0.000000 0.787446
O O18 0.403013 0.500000 0.415158
#
# Coordination Sequence:
#
# PCOD8107861 Si02
#       8
#     8   8   8   8   8   8   8   8
#     4  12  24  38  57  83 116 155 198 234 274 334
#     4  10  21  38  58  81 114 151 190 239 290 337
#     4   9  17  31  56  83 109 141 182 235 290 344
#     4   9  19  38  64  90 117 151 187 227 282 342
#     4   9  17  31  56  84 108 140 183 236 292 339
#     4  12  23  38  61  87 118 152 192 236 275 332
#     4  10  21  38  59  81 112 151 194 239 284 340
#     4   9  19  38  63  91 119 147 187 233 279 334
#
# _framework density 18.466142999999999
#
# number of rings (size 3 to 8) (size 9 to 14) (size 15 to 20)
#    0.000    2.000    3.750    1.125    0.000    2.500 
#    0.000    2.500    0.000    1.500    0.000    3.500 
#    0.000    0.000    0.000    0.000    0.000    0.000 
#
# Total GULP energy -396746.292371 kJ/mol
# GULP energy per Si atom -12398.321637 kJ/mol
# Density = 1.842411 g / cm^3
# Si number density = 18.466143 Si / 1000 Ang^3
#
#
#
# Elastic Constant Matrix: (Units=GPa)
#
#
# Indices 1 2 3 4 5 6 
#
# 1 89.9776 53.7829 55.7183 0.0009 -3.5677 -0.0010
# 2 53.7829 140.1155 75.2041 -0.0002 -4.5927 0.0001
# 3 55.7183 75.2041 110.8681 -0.0020 -2.6384 -0.0008
# 4 0.0009 -0.0002 -0.0020 17.8017 -0.0007 3.0922
# 5 -3.5677 -4.5927 -2.6384 -0.0007 32.9129 0.0007
# 6 -0.0010 0.0001 -0.0008 3.0922 0.0007 27.7942
#
#
#
# Elastic Compliance Matrix: (Units=1/GPa)
#
#
# Indices 1 2 3 4 5 6 
#
# 1 0.016945 -0.003012 -0.006451 -0.000002 0.000899 0.000001
# 2 -0.003012 0.011789 -0.006464 0.000000 0.000800 0.000000
# 3 -0.006451 -0.006464 0.016640 0.000002 -0.000267 0.000000
# 4 -0.000002 0.000000 0.000002 0.057281 0.000001 -0.006373
# 5 0.000899 0.000800 -0.000267 0.000001 0.030571 -0.000001
# 6 0.000001 0.000000 0.000000 -0.006373 -0.000001 0.036688
#
#
# Mechanical properties :
#
#
# Convention : Reuss Voigt Hill
#
# Bulk Modulus (GPa) = 73.96798 78.93020 76.44909
# Shear Modulus (GPa) = 24.23958 26.11883 25.17920
#
# Velocity S-wave (km/s) = 3.62698 3.76495 3.69661
# Velocity P-wave (km/s) = 7.59493 7.85721 7.72718
#
# Compressibility (1/GPa) = 0.01351936
#
# Stress axis : x y z
#
# Youngs Moduli (GPa) = 59.01451 84.82749 60.09634
#
# Poissons Ratio (x) = 0.25552 0.38770
# Poissons Ratio (y) = 0.17776 0.38844
# Poissons Ratio (z) = 0.38072 0.54829
#
# Static dielectric constant tensor:
#      x y z
#    x 3.231600 0.000000 -0.075960 
#    y 0.000000 3.296210 0.000000 
#    z -0.075960 0.000000 3.601160 
# 
# 
# High freq. dielectric constant tensor:
#      x y z
#    x 1.701580 0.000000 -0.003250 
#    y 0.000000 1.705270 0.000000 
#    z -0.003250 0.000000 1.734530 
# 
# From -- ./inp_files/372543.got.cif
#   From: 2010.06.25/outbox.cif.g09.slc.cpg/sg12_187_cif.got.tgz:372543.got - 2010.06.28 00:19:55.
