data_PCOD8107110
_publ_section_title
;
Structure prediction by ZEFSAII (Michael W. Deem and Ramdas Pophale) SiO2 
 PCOD8107110
Probable space group: C 2/M
;
_chemical_formula_sum "Si O2"
_cell_formula_units_Z 48
_cell_length_a 19.993576
_cell_length_b 8.932782
_cell_length_c 13.721932
_cell_angle_alpha 90.000000
_cell_angle_beta 90.152723
_cell_angle_gamma 90.000000
_cell_volume 2450.704415
_symmetry_space_group_name_H-M "C 2/M"
_symmetry_group_IT_number 12
_symmetry_cell_setting 'monoclinic'
loop_
_space_group_symop_operation_xyz
x,y,z
-x,y,-z
-x,-y,-z
x,-y,z
1/2+x,1/2+y,z
1/2-x,1/2+y,-z
1/2-x,1/2-y,-z
1/2+x,1/2-y,z
loop_
_atom_site_type_symbol
_atom_site_label
_atom_site_fract_x
_atom_site_fract_y
_atom_site_fract_z
Si Si1 0.302862 0.678064 0.072053
Si Si2 0.557821 0.175921 0.925462
Si Si3 0.870885 0.672938 0.628394
Si Si4 0.511527 0.828003 0.711996
Si Si5 0.386450 0.676956 0.422814
Si Si6 0.767701 0.177581 0.287010
O O1 0.299366 0.500000 0.064542
O O2 0.376498 0.733519 0.043589
O O3 0.285432 0.737960 0.180051
O O4 0.250000 0.750000 0.000000
O O5 0.534392 0.226576 0.818201
O O6 0.573273 0.000000 0.930551
O O7 0.500000 0.221199 0.000000
O O8 0.861269 0.500000 0.599544
O O9 0.931866 0.694338 0.703636
O O10 0.884814 0.763885 0.531466
O O11 0.804893 0.737457 0.680846
O O12 0.546167 0.730303 0.628993
O O13 0.531368 0.000000 0.694714
O O14 0.386480 0.500000 0.425530
O O15 0.322527 0.739350 0.363159
O O16 0.768249 0.000000 0.285173
#
# Coordination Sequence:
#
# PCOD8107110 Si02
#       6
#     8   8   8   8   8   8
#     4  11  23  41  64  90 121 157 195 243 298 356
#     4  10  22  40  64  91 118 154 200 248 296 352
#     4  10  21  37  58  84 113 153 198 238 283 344
#     4  10  21  37  59  85 115 152 195 239 286 346
#     4  11  21  37  58  84 117 153 191 239 294 343
#     4   9  20  38  60  83 115 153 191 239 293 342
#
# _framework density 19.586205
#
# number of rings (size 3 to 8) (size 9 to 14) (size 15 to 20)
#    0.000    1.833    1.667    2.000    2.333    3.000 
#    0.000    2.500    0.000    0.000    0.000    0.000 
#    0.000    0.000    0.000    0.000    0.000    0.000 
#
# Total GULP energy -297707.415122 kJ/mol
# GULP energy per Si atom -12404.475630 kJ/mol
# Density = 1.954163 g / cm^3
# Si number density = 19.586205 Si / 1000 Ang^3
#
#
#
# Elastic Constant Matrix: (Units=GPa)
#
#
# Indices 1 2 3 4 5 6 
#
# 1 142.0467 40.9029 52.1390 0.0000 -2.1630 0.0000
# 2 40.9029 57.6409 34.6153 0.0000 -0.0128 0.0000
# 3 52.1390 34.6153 107.3287 0.0000 -1.5425 0.0000
# 4 0.0000 0.0000 0.0000 19.5044 0.0000 7.1304
# 5 -2.1630 -0.0128 -1.5425 0.0000 42.6308 0.0000
# 6 0.0000 0.0000 0.0000 7.1304 0.0000 27.9595
#
#
#
# Elastic Compliance Matrix: (Units=1/GPa)
#
#
# Indices 1 2 3 4 5 6 
#
# 1 0.009600 -0.004979 -0.003052 0.000000 0.000375 0.000000
# 2 -0.004979 0.024101 -0.005361 0.000000 -0.000439 0.000000
# 3 -0.003052 -0.005361 0.012533 0.000000 0.000297 0.000000
# 4 0.000000 0.000000 0.000000 0.056542 0.000000 -0.014420
# 5 0.000375 -0.000439 0.000297 0.000000 0.023487 0.000000
# 6 0.000000 0.000000 0.000000 -0.014420 0.000000 0.039443
#
#
# Mechanical properties :
#
#
# Convention : Reuss Voigt Hill
#
# Bulk Modulus (GPa) = 51.41335 62.48119 56.94727
# Shear Modulus (GPa) = 25.12902 29.97622 27.55262
#
# Velocity S-wave (km/s) = 3.58578 3.91637 3.75472
# Velocity P-wave (km/s) = 6.59170 7.24020 6.92355
#
# Compressibility (1/GPa) = 0.01945020
#
# Stress axis : x y z
#
# Youngs Moduli (GPa) = 104.16964 41.49183 79.78917
#
# Poissons Ratio (x) = 0.20659 0.24353
# Poissons Ratio (y) = 0.51867 0.42771
# Poissons Ratio (z) = 0.31795 0.22242
#
# Static dielectric constant tensor:
#      x y z
#    x 3.815250 0.000000 -0.009540 
#    y 0.000000 3.349710 0.000000 
#    z -0.009540 0.000000 3.693130 
# 
# 
# High freq. dielectric constant tensor:
#      x y z
#    x 1.780140 0.000000 0.002700 
#    y 0.000000 1.742920 0.000000 
#    z 0.002700 0.000000 1.770740 
# 
# From -- ./inp_files/221510.got.cif
#   From: 2010.06.25/outbox.cif.g09.slc.cpg/sg12_111_cif.got.tgz:221510.got - 2010.06.28 00:19:55.
