data_PCOD8107769
_publ_section_title
;
Structure prediction by ZEFSAII (Michael W. Deem and Ramdas Pophale) SiO2 
 PCOD8107769
Probable space group: C 2/M
;
_chemical_formula_sum "Si O2"
_cell_formula_units_Z 64
_cell_length_a 13.311382
_cell_length_b 18.981927
_cell_length_c 13.837406
_cell_angle_alpha 90.000000
_cell_angle_beta 113.093958
_cell_angle_gamma 90.000000
_cell_volume 3216.186436
_symmetry_space_group_name_H-M "C 2/M"
_symmetry_group_IT_number 12
_symmetry_cell_setting 'monoclinic'
loop_
_space_group_symop_operation_xyz
x,y,z
-x,y,-z
-x,-y,-z
x,-y,z
1/2+x,1/2+y,z
1/2-x,1/2+y,-z
1/2-x,1/2-y,-z
1/2+x,1/2-y,z
loop_
_atom_site_type_symbol
_atom_site_label
_atom_site_fract_x
_atom_site_fract_y
_atom_site_fract_z
Si Si1 0.846709 0.193870 0.646998
Si Si2 0.758326 0.416034 0.530941
Si Si3 0.681485 0.794394 0.751789
Si Si4 0.718968 0.418815 0.729414
Si Si5 0.424657 0.340790 0.196734
Si Si6 0.957909 0.324380 0.589681
Si Si7 0.376715 0.916772 0.951824
Si Si8 0.771919 0.828890 0.977089
O O1 0.817623 0.125263 0.573265
O O2 0.743246 0.214160 0.673491
O O3 0.879707 0.260167 0.593711
O O4 0.947556 0.173807 0.754596
O O5 0.744946 0.500000 0.510228
O O6 0.720151 0.387624 0.621884
O O7 0.885902 0.395500 0.564183
O O8 0.650503 0.718389 0.781012
O O9 0.566169 0.835910 0.696023
O O10 0.763913 0.834165 0.857480
O O11 0.738510 0.500000 0.721473
O O12 0.605848 0.407042 0.745845
O O13 0.820257 0.389226 0.831685
O O14 0.387392 0.351809 0.070418
O O15 0.000000 0.304774 0.500000
O O16 0.365349 0.000000 0.959523
O O17 0.500000 0.890602 0.000000
O O18 0.321908 0.880818 0.022615
O O19 0.750000 0.750000 0.000000
#
# Coordination Sequence:
#
# PCOD8107769 Si02
#       8
#     8   8   8   8   8   8   8   8
#     4  11  23  38  61  85 114 158 201 234 284 355
#     4  11  24  39  58  88 120 152 192 242 295 345
#     4  10  21  38  56  87 116 153 195 235 293 346
#     4   9  19  35  56  82 115 150 187 240 296 343
#     4   9  20  37  59  83 115 149 192 248 285 338
#     4  11  23  39  62  85 115 156 194 243 290 345
#     4   9  18  34  58  86 114 150 192 236 290 348
#     4   9  19  38  54  85 122 148 190 237 292 340
#
# _framework density 19.899343999999999
#
# number of rings (size 3 to 8) (size 9 to 14) (size 15 to 20)
#    0.000    2.125    1.250    1.125    5.250    1.250 
#   11.250    1.875    0.000    0.000    0.000    4.375 
#    0.000    0.000    0.000    0.000    0.000    0.000 
#
# Total GULP energy -396570.523278 kJ/mol
# GULP energy per Si atom -12392.828852 kJ/mol
# Density = 1.985405 g / cm^3
# Si number density = 19.899344 Si / 1000 Ang^3
#
#
#
# Elastic Constant Matrix: (Units=GPa)
#
#
# Indices 1 2 3 4 5 6 
#
# 1 70.8651 22.6747 26.2297 0.0000 7.3394 0.0000
# 2 22.6747 51.1543 34.2006 0.0000 3.5448 0.0000
# 3 26.2297 34.2006 107.8782 0.0000 -2.9114 0.0000
# 4 0.0000 0.0000 0.0000 21.4323 0.0000 0.7868
# 5 7.3394 3.5448 -2.9114 0.0000 32.1827 0.0000
# 6 0.0000 0.0000 0.0000 0.7868 0.0000 29.9412
#
#
#
# Elastic Compliance Matrix: (Units=1/GPa)
#
#
# Indices 1 2 3 4 5 6 
#
# 1 0.017225 -0.005746 -0.002462 0.000000 -0.003518 0.000000
# 2 -0.005746 0.027112 -0.007261 0.000000 -0.002333 0.000000
# 3 -0.002462 -0.007261 0.012237 0.000000 0.002468 0.000000
# 4 0.000000 0.000000 0.000000 0.046704 0.000000 -0.001227
# 5 -0.003518 -0.002333 0.002468 0.000000 0.032355 0.000000
# 6 0.000000 0.000000 0.000000 -0.001227 0.000000 0.033431
#
#
# Mechanical properties :
#
#
# Convention : Reuss Voigt Hill
#
# Bulk Modulus (GPa) = 39.00616 44.01196 41.50906
# Shear Modulus (GPa) = 23.97545 26.49739 25.23642
#
# Velocity S-wave (km/s) = 3.47484 3.65303 3.56505
# Velocity P-wave (km/s) = 5.97860 6.32124 6.15231
#
# Compressibility (1/GPa) = 0.02563697
#
# Stress axis : x y z
#
# Youngs Moduli (GPa) = 58.05420 36.88417 81.72038
#
# Poissons Ratio (x) = 0.21193 0.20116
# Poissons Ratio (y) = 0.33357 0.59339
# Poissons Ratio (z) = 0.14290 0.26782
#
# Static dielectric constant tensor:
#      x y z
#    x 3.677060 0.000000 0.068560 
#    y 0.000000 3.458840 0.000000 
#    z 0.068560 0.000000 4.148460 
# 
# 
# High freq. dielectric constant tensor:
#      x y z
#    x 1.763070 0.000000 0.009460 
#    y 0.000000 1.756490 0.000000 
#    z 0.009460 0.000000 1.793720 
# 
# From -- ./inp_files/207714.got.cif
#   From: 2010.06.25/outbox.cif.g09.slc.cpg/sg12_104_cif.got.tgz:207714.got - 2010.06.28 00:19:55.
