data_PCOD8107181
_publ_section_title
;
Structure prediction by ZEFSAII (Michael W. Deem and Ramdas Pophale) SiO2 
 PCOD8107181
Probable space group: C 2/M
;
_chemical_formula_sum "Si O2"
_cell_formula_units_Z 64
_cell_length_a 16.289147
_cell_length_b 9.025527
_cell_length_c 21.255143
_cell_angle_alpha 90.000000
_cell_angle_beta 91.709337
_cell_angle_gamma 90.000000
_cell_volume 3123.500967
_symmetry_space_group_name_H-M "C 2/M"
_symmetry_group_IT_number 12
_symmetry_cell_setting 'monoclinic'
loop_
_space_group_symop_operation_xyz
x,y,z
-x,y,-z
-x,-y,-z
x,-y,z
1/2+x,1/2+y,z
1/2-x,1/2+y,-z
1/2-x,1/2-y,-z
1/2+x,1/2-y,z
loop_
_atom_site_type_symbol
_atom_site_label
_atom_site_fract_x
_atom_site_fract_y
_atom_site_fract_z
Si Si1 0.318896 0.666355 0.376027
Si Si2 0.832961 0.667618 0.010365
Si Si3 0.327305 0.666366 0.231978
Si Si4 0.162192 0.828106 0.221135
Si Si5 0.068737 0.173560 0.090900
Si Si6 0.978556 0.326073 0.428796
Si Si7 0.866492 0.676407 0.651859
Si Si8 0.581552 0.165069 0.863352
O O1 0.320536 0.500000 0.403703
O O2 0.349624 0.667041 0.305308
O O3 0.387844 0.760904 0.413557
O O4 0.223788 0.728005 0.378083
O O5 0.832361 0.500000 0.983195
O O6 0.843561 0.661767 0.085974
O O7 0.750000 0.750000 0.000000
O O8 0.895981 0.768012 0.973449
O O9 0.304227 0.500000 0.209662
O O10 0.255698 0.780588 0.215323
O O11 0.405334 0.726500 0.195550
O O12 0.121723 0.790555 0.153938
O O13 0.120101 0.739970 0.277832
O O14 0.157239 0.000000 0.238051
O O15 0.988291 0.269045 0.095271
O O16 0.050479 0.000000 0.084446
O O17 0.970055 0.500000 0.419177
O O18 0.000000 0.281472 0.500000
O O19 0.055697 0.268480 0.388055
O O20 0.863466 0.500000 0.657051
O O21 0.561234 0.000000 0.837865
#
# Coordination Sequence:
#
# PCOD8107181 Si02
#       8
#     8   8   8   8   8   8   8   8
#     4   9  20  38  59  85 120 157 199 247 296 356
#     4  11  24  41  60  82 110 148 193 241 291 350
#     4  10  21  38  60  86 117 152 191 238 294 352
#     4  10  21  37  58  86 116 147 192 243 288 346
#     4  11  24  39  57  84 116 150 190 241 295 348
#     4  10  22  39  60  89 123 158 201 248 295 355
#     4   9  20  39  60  85 120 162 200 244 303 361
#     4  11  24  39  57  84 116 149 191 240 289 348
#
# _framework density 20.489827999999999
#
# number of rings (size 3 to 8) (size 9 to 14) (size 15 to 20)
#    0.000    1.875    0.000    3.750    1.750   12.250 
#    0.000    0.000    0.000    0.000    0.000    0.000 
#    0.000    0.000    0.000    0.000    0.000    0.000 
#
# Total GULP energy -396617.072345 kJ/mol
# GULP energy per Si atom -12394.283511 kJ/mol
# Density = 2.044319 g / cm^3
# Si number density = 20.489828 Si / 1000 Ang^3
#
#
#
# Elastic Constant Matrix: (Units=GPa)
#
#
# Indices 1 2 3 4 5 6 
#
# 1 58.4479 12.4348 4.9768 0.0000 0.2863 0.0000
# 2 12.4348 66.1832 24.0447 0.0000 11.5337 0.0000
# 3 4.9768 24.0447 60.6029 0.0000 -3.1522 0.0000
# 4 0.0000 0.0000 0.0000 28.7430 0.0000 -0.3210
# 5 0.2863 11.5337 -3.1522 0.0000 34.8225 0.0000
# 6 0.0000 0.0000 0.0000 -0.3210 0.0000 32.8200
#
#
#
# Elastic Compliance Matrix: (Units=1/GPa)
#
#
# Indices 1 2 3 4 5 6 
#
# 1 0.017856 -0.003528 -0.000014 0.000000 0.001020 0.000000
# 2 -0.003528 0.019955 -0.008007 0.000000 -0.007305 0.000000
# 3 -0.000014 -0.008007 0.019911 0.000000 0.004455 0.000000
# 4 0.000000 0.000000 0.000000 0.034795 0.000000 0.000340
# 5 0.001020 -0.007305 0.004455 0.000000 0.031531 0.000000
# 6 0.000000 0.000000 0.000000 0.000340 0.000000 0.030473
#
#
# Mechanical properties :
#
#
# Convention : Reuss Voigt Hill
#
# Bulk Modulus (GPa) = 28.88198 29.79407 29.33802
# Shear Modulus (GPa) = 26.43281 28.86228 27.64755
#
# Velocity S-wave (km/s) = 3.59562 3.75722 3.67731
# Velocity P-wave (km/s) = 5.60039 5.77882 5.69030
#
# Compressibility (1/GPa) = 0.03462367
#
# Stress axis : x y z
#
# Youngs Moduli (GPa) = 56.00381 50.11384 50.22427
#
# Poissons Ratio (x) = 0.17679 0.00068
# Poissons Ratio (y) = 0.19757 0.40217
# Poissons Ratio (z) = 0.00076 0.40128
#
# Static dielectric constant tensor:
#      x y z
#    x 3.933560 0.000000 -0.212070 
#    y 0.000000 3.721490 0.000000 
#    z -0.212070 0.000000 3.841570 
# 
# 
# High freq. dielectric constant tensor:
#      x y z
#    x 1.805670 0.000000 -0.005180 
#    y 0.000000 1.803260 0.000000 
#    z -0.005180 0.000000 1.799340 
# 
# From -- ./inp_files/314159.got.cif
#   From: 2010.06.25/outbox.cif.g09.slc.cpg/sg12_158_cif.got.tgz:314159.got - 2010.06.28 00:19:55.
