data_PCOD8107706
_publ_section_title
;
Structure prediction by ZEFSAII (Michael W. Deem and Ramdas Pophale) SiO2 
 PCOD8107706
Probable space group: C 2/M
;
_chemical_formula_sum "Si O2"
_cell_formula_units_Z 36
_cell_length_a 9.079158
_cell_length_b 22.702039
_cell_length_c 8.752247
_cell_angle_alpha 90.000000
_cell_angle_beta 107.793780
_cell_angle_gamma 90.000000
_cell_volume 1717.675462
_symmetry_space_group_name_H-M "C 2/M"
_symmetry_group_IT_number 12
_symmetry_cell_setting 'monoclinic'
loop_
_space_group_symop_operation_xyz
x,y,z
-x,y,-z
-x,-y,-z
x,-y,z
1/2+x,1/2+y,z
1/2-x,1/2+y,-z
1/2-x,1/2-y,-z
1/2+x,1/2-y,z
loop_
_atom_site_type_symbol
_atom_site_label
_atom_site_fract_x
_atom_site_fract_y
_atom_site_fract_z
Si Si1 0.000000 0.253166 0.500000
Si Si2 0.190415 0.220162 0.286957
Si Si3 0.668919 0.615728 0.065693
Si Si4 0.640074 0.153364 0.149119
Si Si5 0.034745 0.567680 0.686233
O O1 0.070773 0.211590 0.388956
O O2 0.133817 0.296530 0.607622
O O3 0.141228 0.180564 0.129427
O O4 0.205157 0.289169 0.251863
O O5 0.785978 0.579835 0.211377
O O6 0.500000 0.584623 0.000000
O O7 0.730743 0.622265 0.913591
O O8 0.583451 0.105981 0.252949
O O9 0.500000 0.175597 0.000000
O O10 0.999339 0.500000 0.712640
O O11 0.000000 0.581892 0.500000
#
# Coordination Sequence:
#
# PCOD8107706 Si02
#       5
#     4   8   8   8   8
#     4  10  22  30  52  86 118 174 192 254 286 358
#     4  11  21  35  55  90 131 162 203 241 312 366
#     4  11  23  38  61  94 128 161 198 258 310 365
#     4  10  21  37  64  86 123 168 206 251 298 373
#     4  10  24  45  67  89 118 164 216 259 300 361
#
# _framework density 20.958556999999999
#
# number of rings (size 3 to 8) (size 9 to 14) (size 15 to 20)
#    0.000    1.556    0.000    5.333    9.333    4.444 
#    0.000    0.000    0.000    2.667    0.000    0.000 
#    0.000    0.000    0.000    0.000    0.000    0.000 
#
# Total GULP energy -223214.576349 kJ/mol
# GULP energy per Si atom -12400.809797 kJ/mol
# Density = 2.091085 g / cm^3
# Si number density = 20.958557 Si / 1000 Ang^3
#
#
#
# Elastic Constant Matrix: (Units=GPa)
#
#
# Indices 1 2 3 4 5 6 
#
# 1 138.9321 18.1698 60.3773 0.0000 -6.0791 0.0000
# 2 18.1698 80.8121 48.0571 0.0000 -6.9697 0.0000
# 3 60.3773 48.0571 124.5528 0.0000 -12.3915 0.0000
# 4 0.0000 0.0000 0.0000 24.8049 0.0000 -1.6066
# 5 -6.0791 -6.9697 -12.3915 0.0000 35.2030 0.0000
# 6 0.0000 0.0000 0.0000 -1.6066 0.0000 19.2629
#
#
#
# Elastic Compliance Matrix: (Units=1/GPa)
#
#
# Indices 1 2 3 4 5 6 
#
# 1 0.009154 0.000756 -0.004722 0.000000 0.000068 0.000000
# 2 0.000756 0.016158 -0.006497 0.000000 0.001043 0.000000
# 3 -0.004722 -0.006497 0.013073 0.000000 0.002500 0.000000
# 4 0.000000 0.000000 0.000000 0.040534 0.000000 0.003381
# 5 0.000068 0.001043 0.002500 0.000000 0.029505 0.000000
# 6 0.000000 0.000000 0.000000 0.003381 0.000000 0.052195
#
#
# Mechanical properties :
#
#
# Convention : Reuss Voigt Hill
#
# Bulk Modulus (GPa) = 57.27847 66.38949 61.83398
# Shear Modulus (GPa) = 26.68578 30.36702 28.52640
#
# Velocity S-wave (km/s) = 3.57215 3.81058 3.69329
# Velocity P-wave (km/s) = 6.66352 7.14885 6.91044
#
# Compressibility (1/GPa) = 0.01745857
#
# Stress axis : x y z
#
# Youngs Moduli (GPa) = 109.24018 61.88887 76.49089
#
# Poissons Ratio (x) = -0.04679 0.36122
# Poissons Ratio (y) = -0.08258 0.49697
# Poissons Ratio (z) = 0.51587 0.40210
#
# Static dielectric constant tensor:
#      x y z
#    x 4.006000 0.000000 -0.021920 
#    y 0.000000 3.435100 0.000000 
#    z -0.021920 0.000000 4.004800 
# 
# 
# High freq. dielectric constant tensor:
#      x y z
#    x 1.832630 0.000000 -0.001020 
#    y 0.000000 1.786140 0.000000 
#    z -0.001020 0.000000 1.839140 
# 
# From -- ./inp_files/38796.got.cif
#   From: 2010.06.25/outbox.cif.g09.slc.cpg/sg12_20_cif.got.tgz:38796.got - 2010.06.28 00:19:55.
