data_PCOD8107311
_publ_section_title
;
Structure prediction by ZEFSAII (Michael W. Deem and Ramdas Pophale) SiO2 
 PCOD8107311
Probable space group: C 2/M
;
_chemical_formula_sum "Si O2"
_cell_formula_units_Z 36
_cell_length_a 13.461484
_cell_length_b 30.125249
_cell_length_c 8.081675
_cell_angle_alpha 90.000000
_cell_angle_beta 31.845897
_cell_angle_gamma 90.000000
_cell_volume 1729.257804
_symmetry_space_group_name_H-M "C 2/M"
_symmetry_group_IT_number 12
_symmetry_cell_setting 'monoclinic'
loop_
_space_group_symop_operation_xyz
x,y,z
-x,y,-z
-x,-y,-z
x,-y,z
1/2+x,1/2+y,z
1/2-x,1/2+y,-z
1/2-x,1/2-y,-z
1/2+x,1/2-y,z
loop_
_atom_site_type_symbol
_atom_site_label
_atom_site_fract_x
_atom_site_fract_y
_atom_site_fract_z
Si Si1 0.548899 0.550331 0.752701
Si Si2 0.370535 0.293694 0.531840
Si Si3 0.000000 0.763246 0.000000
Si Si4 0.810159 0.615019 0.193991
Si Si5 0.847559 0.549233 0.856830
O O1 0.623449 0.500000 0.664783
O O2 0.717822 0.578795 0.442704
O O3 0.500000 0.570340 0.000000
O O4 0.366339 0.552643 0.898332
O O5 0.500000 0.274673 0.500000
O O6 0.179428 0.266086 0.792724
O O7 0.465589 0.292679 0.214313
O O8 0.330801 0.344534 0.638450
O O9 0.877371 0.589926 0.935706
O O10 0.000000 0.635623 0.000000
O O11 0.876681 0.500000 0.895089
O O12 0.000000 0.556341 0.500000
#
# Coordination Sequence:
#
# PCOD8107311 Si02
#       5
#     8   8   4   8   8
#     4  10  21  37  59  86 122 167 212 260 319 376
#     4  11  23  45  70 100 131 169 212 269 329 395
#     4  10  24  46  72  98 130 168 214 266 330 412
#     4  12  24  39  59  92 128 164 217 265 315 380
#     4  10  21  39  60  88 125 170 217 264 321 381
#
# _framework density 20.818179000000001
#
# number of rings (size 3 to 8) (size 9 to 14) (size 15 to 20)
#    0.000    1.333    1.111    4.667    1.556    5.333 
#    4.000    1.111    0.000    0.000    0.000    0.000 
#    0.000    0.000    0.000    0.000    0.000    0.000 
#
# Total GULP energy -223155.817398 kJ/mol
# GULP energy per Si atom -12397.545411 kJ/mol
# Density = 2.077080 g / cm^3
# Si number density = 20.818179 Si / 1000 Ang^3
#
#
#
# Elastic Constant Matrix: (Units=GPa)
#
#
# Indices 1 2 3 4 5 6 
#
# 1 116.7383 36.2283 39.9779 0.0000 2.6306 0.0000
# 2 36.2283 96.7504 42.9510 0.0000 12.6485 0.0000
# 3 39.9779 42.9510 114.0775 0.0000 5.1352 0.0000
# 4 0.0000 0.0000 0.0000 83.3750 0.0000 31.9003
# 5 2.6306 12.6485 5.1352 0.0000 36.2513 0.0000
# 6 0.0000 0.0000 0.0000 31.9003 0.0000 43.4616
#
#
#
# Elastic Compliance Matrix: (Units=1/GPa)
#
#
# Indices 1 2 3 4 5 6 
#
# 1 0.010304 -0.002787 -0.002588 0.000000 0.000591 0.000000
# 2 -0.002787 0.013675 -0.003992 0.000000 -0.004004 0.000000
# 3 -0.002588 -0.003992 0.011176 0.000000 -0.000003 0.000000
# 4 0.000000 0.000000 0.000000 0.016678 0.000000 -0.012241
# 5 0.000591 -0.004004 -0.000003 0.000000 0.028940 0.000000
# 6 0.000000 0.000000 0.000000 -0.012241 0.000000 0.031994
#
#
# Mechanical properties :
#
#
# Convention : Reuss Voigt Hill
#
# Bulk Modulus (GPa) = 60.89678 62.87563 61.88620
# Shear Modulus (GPa) = 36.50333 46.51150 41.50742
#
# Velocity S-wave (km/s) = 4.19195 4.73184 4.47005
# Velocity P-wave (km/s) = 7.26258 7.75381 7.51221
#
# Compressibility (1/GPa) = 0.01642123
#
# Stress axis : x y z
#
# Youngs Moduli (GPa) = 97.04919 73.12675 89.47597
#
# Poissons Ratio (x) = 0.20377 0.23160
# Poissons Ratio (y) = 0.27043 0.35718
# Poissons Ratio (z) = 0.25121 0.29192
#
# Static dielectric constant tensor:
#      x y z
#    x 3.932170 0.000000 0.040190 
#    y 0.000000 3.643960 0.000000 
#    z 0.040190 0.000000 3.913580 
# 
# 
# High freq. dielectric constant tensor:
#      x y z
#    x 1.821000 0.000000 -0.004990 
#    y 0.000000 1.803820 0.000000 
#    z -0.004990 0.000000 1.832840 
# 
# From -- ./inp_files/40640.got.cif
#   From: 2010.06.25/outbox.cif.g09.slc.cpg/sg12_21_cif.got.tgz:40640.got - 2010.06.28 00:19:55.
