data_PCOD8107946
_publ_section_title
;
Structure prediction by ZEFSAII (Michael W. Deem and Ramdas Pophale) SiO2 
 PCOD8107946
Probable space group: C 2/M
;
_chemical_formula_sum "Si O2"
_cell_formula_units_Z 48
_cell_length_a 18.663309
_cell_length_b 8.775248
_cell_length_c 31.965369
_cell_angle_alpha 90.000000
_cell_angle_beta 151.064802
_cell_angle_gamma 90.000000
_cell_volume 2532.862896
_symmetry_space_group_name_H-M "C 2/M"
_symmetry_group_IT_number 12
_symmetry_cell_setting 'monoclinic'
loop_
_space_group_symop_operation_xyz
x,y,z
-x,y,-z
-x,-y,-z
x,-y,z
1/2+x,1/2+y,z
1/2-x,1/2+y,-z
1/2-x,1/2-y,-z
1/2+x,1/2-y,z
loop_
_atom_site_type_symbol
_atom_site_label
_atom_site_fract_x
_atom_site_fract_y
_atom_site_fract_z
Si Si1 0.835145 0.822961 0.926781
Si Si2 0.089012 0.319096 0.422449
Si Si3 0.445702 0.823306 0.265584
Si Si4 0.569174 0.321210 0.579561
Si Si5 0.592321 0.180438 0.256473
Si Si6 0.822494 0.178747 0.077412
O O1 0.728496 0.793835 0.832281
O O2 0.782229 0.718431 0.937357
O O3 0.827599 0.000000 0.936579
O O4 0.000000 0.771958 0.000000
O O5 0.099860 0.500000 0.427584
O O6 0.250000 0.250000 0.500000
O O7 0.991709 0.253025 0.333800
O O8 0.015197 0.268274 0.427657
O O9 0.544207 0.756083 0.277692
O O10 0.482393 0.000000 0.286703
O O11 0.500000 0.273441 0.500000
O O12 0.549568 0.500000 0.577469
O O13 0.740284 0.271534 0.667390
O O14 0.487550 0.254960 0.167921
O O15 0.569496 0.000000 0.243014
O O16 0.834633 0.000000 0.077820
O O17 0.750000 0.250000 0.000000
#
# Coordination Sequence:
#
# PCOD8107946 Si02
#       6
#     8   8   8   8   8   8
#     4   9  18  35  58  81 107 141 179 220 272 331
#     4  11  22  36  55  80 111 145 184 227 271 323
#     4   8  16  33  55  77 103 138 177 218 269 325
#     4  10  21  38  59  82 111 147 183 223 275 330
#     4   9  18  36  59  79 104 142 186 227 273 329
#     4  11  22  36  55  80 112 147 185 228 274 323
#
# _framework density 18.950887999999999
#
# number of rings (size 3 to 8) (size 9 to 14) (size 15 to 20)
#    0.000    2.333    0.000    4.000    0.000    5.333 
#    0.000   11.667    0.000    0.000    0.000    0.000 
#    0.000    0.000    0.000    0.000    0.000    0.000 
#
# Total GULP energy -297581.544805 kJ/mol
# GULP energy per Si atom -12399.231034 kJ/mol
# Density = 1.890775 g / cm^3
# Si number density = 18.950888 Si / 1000 Ang^3
#
#
#
# Elastic Constant Matrix: (Units=GPa)
#
#
# Indices 1 2 3 4 5 6 
#
# 1 119.6848 44.1975 97.6650 -0.0001 4.2898 0.0001
# 2 44.1975 66.9365 57.3334 -0.0003 0.6907 0.0005
# 3 97.6650 57.3334 188.4774 -0.0001 -0.3542 0.0001
# 4 -0.0001 -0.0003 -0.0001 27.5110 0.0000 0.5965
# 5 4.2898 0.6907 -0.3542 0.0000 43.5738 -0.0001
# 6 0.0001 0.0005 0.0001 0.5965 -0.0001 29.9764
#
#
#
# Elastic Compliance Matrix: (Units=1/GPa)
#
#
# Indices 1 2 3 4 5 6 
#
# 1 0.015522 -0.004519 -0.006671 0.000000 -0.001511 0.000000
# 2 -0.004519 0.021525 -0.004206 0.000000 0.000070 0.000000
# 3 -0.006671 -0.004206 0.010044 0.000000 0.000805 0.000000
# 4 0.000000 0.000000 0.000000 0.036365 0.000000 -0.000724
# 5 -0.001511 0.000070 0.000805 0.000000 0.023104 0.000000
# 6 0.000000 0.000000 0.000000 -0.000724 0.000000 0.033374
#
#
# Mechanical properties :
#
#
# Convention : Reuss Voigt Hill
#
# Bulk Modulus (GPa) = 61.35738 85.94341 73.65039
# Shear Modulus (GPa) = 28.38330 31.93911 30.16120
#
# Velocity S-wave (km/s) = 3.87425 4.10977 3.99375
# Velocity P-wave (km/s) = 7.24296 8.24435 7.75982
#
# Compressibility (1/GPa) = 0.01629796
#
# Stress axis : x y z
#
# Youngs Moduli (GPa) = 64.42316 46.45673 99.56593
#
# Poissons Ratio (x) = 0.20995 0.66425
# Poissons Ratio (y) = 0.29115 0.41877
# Poissons Ratio (z) = 0.42980 0.19539
#
# Static dielectric constant tensor:
#      x y z
#    x 3.365170 0.000000 -0.025070 
#    y 0.000000 3.265560 0.000000 
#    z -0.025070 0.000000 3.871640 
# 
# 
# High freq. dielectric constant tensor:
#      x y z
#    x 1.733150 0.000000 -0.000530 
#    y 0.000000 1.715500 0.000000 
#    z -0.000530 0.000000 1.756330 
# 
# From -- ./inp_files/274080.got.cif
#   From: 2010.06.25/outbox.cif.g09.slc.cpg/sg12_138_cif.got.tgz:274080.got - 2010.06.28 00:19:55.
