data_PCOD8107341
_publ_section_title
;
Structure prediction by ZEFSAII (Michael W. Deem and Ramdas Pophale) SiO2 
 PCOD8107341
Probable space group: C 2/M
;
_chemical_formula_sum "Si O2"
_cell_formula_units_Z 56
_cell_length_a 20.290313
_cell_length_b 9.087573
_cell_length_c 29.580367
_cell_angle_alpha 90.000000
_cell_angle_beta 31.899080
_cell_angle_gamma 90.000000
_cell_volume 2882.194790
_symmetry_space_group_name_H-M "C 2/M"
_symmetry_group_IT_number 12
_symmetry_cell_setting 'monoclinic'
loop_
_space_group_symop_operation_xyz
x,y,z
-x,y,-z
-x,-y,-z
x,-y,z
1/2+x,1/2+y,z
1/2-x,1/2+y,-z
1/2-x,1/2-y,-z
1/2+x,1/2-y,z
loop_
_atom_site_type_symbol
_atom_site_label
_atom_site_fract_x
_atom_site_fract_y
_atom_site_fract_z
Si Si1 0.620436 0.330006 0.570871
Si Si2 0.124291 0.825763 0.238558
Si Si3 0.930608 0.171511 0.922848
Si Si4 0.809662 0.171624 0.900768
Si Si5 0.316154 0.173839 0.203227
Si Si6 0.593053 0.160969 0.502431
Si Si7 0.809290 0.660805 0.645391
O O1 0.638166 0.500000 0.570026
O O2 0.750000 0.250000 0.500000
O O3 0.510745 0.264957 0.666934
O O4 0.582484 0.298416 0.541886
O O5 0.143370 0.775119 0.175757
O O6 0.234372 0.767869 0.208043
O O7 0.123484 0.000000 0.243326
O O8 0.916132 0.199598 0.877020
O O9 0.048938 0.251798 0.875570
O O10 0.942140 0.000000 0.926639
O O11 0.810439 0.232643 0.018298
O O12 0.772121 0.000000 0.921925
O O13 0.249431 0.214773 0.289093
O O14 0.333945 0.000000 0.190806
O O15 0.455693 0.146029 0.563812
O O16 0.700881 0.198524 0.402237
O O17 0.628722 0.000000 0.503282
O O18 0.746983 0.500000 0.692488
#
# Coordination Sequence:
#
# PCOD8107341 Si02
#       7
#     8   8   8   8   8   8   8
#     4  11  22  37  55  80 112 148 193 239 284 338
#     4   9  20  38  59  82 110 149 192 233 281 337
#     4  10  21  37  59  88 116 145 183 233 287 339
#     4   9  19  40  64  81 107 150 192 229 276 340
#     4  11  21  35  57  86 117 149 190 236 281 337
#     4   9  18  34  54  76 104 143 185 227 278 333
#     4   9  18  33  54  78 107 142 182 227 279 332
#
# _framework density 19.429637
#
# number of rings (size 3 to 8) (size 9 to 14) (size 15 to 20)
#    0.000    2.286    1.429    2.143    0.000    2.857 
#    0.000   10.000    0.000    0.000    0.000    0.000 
#    0.000    0.000    0.000    0.000    0.000    0.000 
#
# Total GULP energy -346894.033154 kJ/mol
# GULP energy per Si atom -12389.072613 kJ/mol
# Density = 1.938541 g / cm^3
# Si number density = 19.429637 Si / 1000 Ang^3
#
#
#
# Elastic Constant Matrix: (Units=GPa)
#
#
# Indices 1 2 3 4 5 6 
#
# 1 89.7318 38.6483 76.8981 -0.0001 4.8985 -0.0025
# 2 38.6483 71.2953 45.9552 0.0013 -2.2513 -0.0081
# 3 76.8981 45.9552 111.6056 0.0001 5.3920 0.0013
# 4 -0.0001 0.0013 0.0001 33.1810 0.0001 -0.8584
# 5 4.8985 -2.2513 5.3920 0.0001 36.0706 0.0001
# 6 -0.0025 -0.0081 0.0013 -0.8584 0.0001 28.5389
#
#
#
# Elastic Compliance Matrix: (Units=1/GPa)
#
#
# Indices 1 2 3 4 5 6 
#
# 1 0.027990 -0.003853 -0.017631 0.000000 -0.001406 0.000002
# 2 -0.003853 0.019830 -0.005636 -0.000001 0.002603 0.000006
# 3 -0.017631 -0.005636 0.023500 0.000000 -0.001470 -0.000004
# 4 0.000000 -0.000001 0.000000 0.030161 0.000000 0.000907
# 5 -0.001406 0.002603 -0.001470 0.000000 0.028297 0.000001
# 6 0.000002 0.000006 -0.000004 0.000907 0.000001 0.035067
#
#
# Mechanical properties :
#
#
# Convention : Reuss Voigt Hill
#
# Bulk Modulus (GPa) = 58.55005 66.18178 62.36591
# Shear Modulus (GPa) = 22.24398 26.96682 24.60540
#
# Velocity S-wave (km/s) = 3.38723 3.72952 3.56249
# Velocity P-wave (km/s) = 6.74519 7.25824 7.00641
#
# Compressibility (1/GPa) = 0.01707941
#
# Stress axis : x y z
#
# Youngs Moduli (GPa) = 35.72686 50.42851 42.55258
#
# Poissons Ratio (x) = 0.19429 0.75026
# Poissons Ratio (y) = 0.13765 0.23985
# Poissons Ratio (z) = 0.62991 0.28424
#
# Static dielectric constant tensor:
#      x y z
#    x 3.340140 -0.000010 0.006240 
#    y -0.000010 3.106620 0.000000 
#    z 0.006240 0.000000 3.632750 
# 
# 
# High freq. dielectric constant tensor:
#      x y z
#    x 1.756090 0.000000 0.002780 
#    y 0.000000 1.740790 0.000000 
#    z 0.002780 0.000000 1.758440 
# 
# From -- ./inp_files/380628.got.cif
#   From: 2010.06.25/outbox.cif.g09.slc.cpg/sg12_191_cif.got.tgz:380628.got - 2010.06.28 00:19:55.
