data_PCOD8107188
_publ_section_title
;
Structure prediction by ZEFSAII (Michael W. Deem and Ramdas Pophale) SiO2 
 PCOD8107188
Probable space group: C 2/M
;
_chemical_formula_sum "Si O2"
_cell_formula_units_Z 48
_cell_length_a 30.273384
_cell_length_b 8.849398
_cell_length_c 17.446472
_cell_angle_alpha 90.000000
_cell_angle_beta 30.226441
_cell_angle_gamma 90.000000
_cell_volume 2352.944559
_symmetry_space_group_name_H-M "C 2/M"
_symmetry_group_IT_number 12
_symmetry_cell_setting 'monoclinic'
loop_
_space_group_symop_operation_xyz
x,y,z
-x,y,-z
-x,-y,-z
x,-y,z
1/2+x,1/2+y,z
1/2-x,1/2+y,-z
1/2-x,1/2-y,-z
1/2+x,1/2-y,z
loop_
_atom_site_type_symbol
_atom_site_label
_atom_site_fract_x
_atom_site_fract_y
_atom_site_fract_z
Si Si1 0.339047 0.324187 0.340008
Si Si2 0.009572 0.678267 0.335387
Si Si3 0.167976 0.173886 0.348049
Si Si4 0.509956 0.677922 0.171556
Si Si5 0.830676 0.174956 0.177502
Si Si6 0.326489 0.675013 0.836917
O O1 0.328942 0.500000 0.369384
O O2 0.250000 0.250000 0.500000
O O3 0.419603 0.261979 0.269828
O O4 0.359094 0.289138 0.221473
O O5 0.019474 0.500000 0.322851
O O6 0.914312 0.724010 0.507364
O O7 0.027891 0.734548 0.222546
O O8 0.080460 0.749232 0.286083
O O9 0.248310 0.221463 0.280828
O O10 0.195578 0.199041 0.218952
O O11 0.143865 0.000000 0.400799
O O12 0.505824 0.500000 0.194239
O O13 0.587961 0.719204 0.997289
O O14 0.804240 0.000000 0.206585
O O15 0.331997 0.500000 0.850923
O O16 0.250000 0.750000 0.000000
#
# Coordination Sequence:
#
# PCOD8107188 Si02
#       6
#     8   8   8   8   8   8
#     4  10  21  37  58  86 118 155 198 242 291 348
#     4  12  25  40  61  89 120 155 198 245 293 349
#     4  11  24  41  61  87 119 155 196 242 293 350
#     4  10  21  39  62  86 118 158 197 242 296 350
#     4  10  21  38  61  88 118 154 197 243 292 350
#     4  11  24  42  64  90 121 156 196 242 292 349
#
# _framework density 20.399971000000001
#
# number of rings (size 3 to 8) (size 9 to 14) (size 15 to 20)
#    0.000    1.333    0.000    5.500    0.000   14.000 
#    0.000    0.000    0.000    3.000    0.000    0.000 
#    0.000    0.000    0.000    0.000    0.000    0.000 
#
# Total GULP energy -297764.116362 kJ/mol
# GULP energy per Si atom -12406.838182 kJ/mol
# Density = 2.035354 g / cm^3
# Si number density = 20.399971 Si / 1000 Ang^3
#
#
#
# Elastic Constant Matrix: (Units=GPa)
#
#
# Indices 1 2 3 4 5 6 
#
# 1 62.0069 23.4323 -2.4290 -0.0003 -9.0512 0.0000
# 2 23.4323 85.5092 26.0870 -0.0034 3.0156 0.0017
# 3 -2.4290 26.0870 91.9453 -0.0041 -1.5157 0.0019
# 4 -0.0003 -0.0034 -0.0041 37.5578 0.0024 -2.5968
# 5 -9.0512 3.0156 -1.5157 0.0024 41.9666 -0.0008
# 6 0.0000 0.0017 0.0019 -2.5968 -0.0008 34.7952
#
#
#
# Elastic Compliance Matrix: (Units=1/GPa)
#
#
# Indices 1 2 3 4 5 6 
#
# 1 0.019221 -0.006142 0.002327 0.000000 0.004671 0.000000
# 2 -0.006142 0.014812 -0.004407 0.000001 -0.002548 0.000000
# 3 0.002327 -0.004407 0.012209 0.000001 0.001260 0.000000
# 4 0.000000 0.000001 0.000001 0.026764 -0.000002 0.001997
# 5 0.004671 -0.002548 0.001260 -0.000002 0.025065 0.000000
# 6 0.000000 0.000000 0.000000 0.001997 0.000000 0.028889
#
#
# Mechanical properties :
#
#
# Convention : Reuss Voigt Hill
#
# Bulk Modulus (GPa) = 33.55802 37.07134 35.31468
# Shear Modulus (GPa) = 32.60841 35.68866 34.14853
#
# Velocity S-wave (km/s) = 4.00240 4.18718 4.09583
# Velocity P-wave (km/s) = 6.15181 6.44890 6.30210
#
# Compressibility (1/GPa) = 0.02979913
#
# Stress axis : x y z
#
# Youngs Moduli (GPa) = 52.02559 67.51258 81.90959
#
# Poissons Ratio (x) = 0.41467 -0.19064
# Poissons Ratio (y) = 0.31954 0.36096
# Poissons Ratio (z) = -0.12109 0.29751
#
# Static dielectric constant tensor:
#      x y z
#    x 3.836490 0.000000 0.071110 
#    y 0.000000 3.680160 0.000000 
#    z 0.071110 0.000000 3.648640 
# 
# 
# High freq. dielectric constant tensor:
#      x y z
#    x 1.814530 0.000000 0.001370 
#    y 0.000000 1.794350 0.000000 
#    z 0.001370 0.000000 1.812830 
# 
# From -- ./inp_files/274099.got.cif
#   From: 2010.06.25/outbox.cif.g09.slc.cpg/sg12_138_cif.got.tgz:274099.got - 2010.06.28 00:19:55.
