data_PCOD8107250
_publ_section_title
;
Structure prediction by ZEFSAII (Michael W. Deem and Ramdas Pophale) SiO2 
 PCOD8107250
Probable space group: C 2/M
;
_chemical_formula_sum "Si O2"
_cell_formula_units_Z 56
_cell_length_a 19.927645
_cell_length_b 8.822843
_cell_length_c 25.948123
_cell_angle_alpha 90.000000
_cell_angle_beta 140.123219
_cell_angle_gamma 90.000000
_cell_volume 2924.977032
_symmetry_space_group_name_H-M "C 2/M"
_symmetry_group_IT_number 12
_symmetry_cell_setting 'monoclinic'
loop_
_space_group_symop_operation_xyz
x,y,z
-x,y,-z
-x,-y,-z
x,-y,z
1/2+x,1/2+y,z
1/2-x,1/2+y,-z
1/2-x,1/2-y,-z
1/2+x,1/2-y,z
loop_
_atom_site_type_symbol
_atom_site_label
_atom_site_fract_x
_atom_site_fract_y
_atom_site_fract_z
Si Si1 0.302131 0.174139 0.168758
Si Si2 0.852833 0.323260 0.083990
Si Si3 0.758955 0.822851 0.332895
Si Si4 0.412884 0.167629 0.492588
Si Si5 0.096519 0.676594 0.665976
Si Si6 0.604174 0.175748 0.092325
Si Si7 0.434242 0.678317 0.823908
O O1 0.359448 0.208607 0.148899
O O2 0.384687 0.210375 0.262869
O O3 0.201435 0.281700 0.113379
O O4 0.264339 0.000000 0.149023
O O5 0.851694 0.500000 0.070409
O O6 0.952501 0.250736 0.115688
O O7 0.750000 0.250000 0.000000
O O8 0.819451 0.780044 0.421494
O O9 0.823865 0.775160 0.320764
O O10 0.646342 0.740911 0.266384
O O11 0.739420 0.000000 0.320329
O O12 0.500000 0.165946 0.500000
O O13 0.475315 0.219864 0.581126
O O14 0.364553 0.000000 0.471265
O O15 0.116205 0.500000 0.663663
O O16 0.610839 0.278404 0.146871
O O17 0.609259 0.000000 0.111132
O O18 0.500000 0.214513 0.000000
O O19 0.443578 0.500000 0.823976
#
# Coordination Sequence:
#
# PCOD8107250 Si02
#       7
#     8   8   8   8   8   8   8
#     4  10  21  37  59  83 111 148 187 229 279 340
#     4  11  24  42  61  84 113 149 193 235 283 339
#     4  11  20  31  51  82 115 146 184 232 282 328
#     4   8  15  28  48  75 111 149 182 219 271 335
#     4   9  17  32  53  80 112 148 185 224 275 337
#     4  11  23  37  56  84 114 142 179 233 288 336
#     4  12  24  39  59  81 111 151 193 235 283 335
#
# _framework density 19.14545
#
# number of rings (size 3 to 8) (size 9 to 14) (size 15 to 20)
#    0.000    1.714    1.429    5.143    0.000    7.143 
#    0.000    0.000    0.000    0.857    0.000    0.000 
#    0.000    0.000    0.000    0.000    0.000    0.000 
#
# Total GULP energy -347236.076191 kJ/mol
# GULP energy per Si atom -12401.288435 kJ/mol
# Density = 1.910187 g / cm^3
# Si number density = 19.145450 Si / 1000 Ang^3
#
#
#
# Elastic Constant Matrix: (Units=GPa)
#
#
# Indices 1 2 3 4 5 6 
#
# 1 38.8738 22.9275 12.0166 0.0000 -0.1272 0.0000
# 2 22.9275 110.9929 48.2492 0.0000 3.1164 0.0002
# 3 12.0166 48.2492 121.8523 0.0000 -4.4284 0.0000
# 4 0.0000 0.0000 0.0000 31.2506 0.0000 2.9621
# 5 -0.1272 3.1164 -4.4284 0.0000 27.9996 0.0000
# 6 0.0000 0.0002 0.0000 2.9621 0.0000 24.5473
#
#
#
# Elastic Compliance Matrix: (Units=1/GPa)
#
#
# Indices 1 2 3 4 5 6 
#
# 1 0.029342 -0.005839 -0.000556 0.000000 0.000695 0.000000
# 2 -0.005839 0.012147 -0.004309 0.000000 -0.002060 0.000000
# 3 -0.000556 -0.004309 0.010043 0.000000 0.002065 0.000000
# 4 0.000000 0.000000 0.000000 0.032370 0.000000 -0.003906
# 5 0.000695 -0.002060 0.002065 0.000000 0.036274 0.000000
# 6 0.000000 0.000000 0.000000 -0.003906 0.000000 0.041209
#
#
# Mechanical properties :
#
#
# Convention : Reuss Voigt Hill
#
# Bulk Modulus (GPa) = 33.19647 48.67841 40.93744
# Shear Modulus (GPa) = 25.92920 29.32788 27.62854
#
# Velocity S-wave (km/s) = 3.68411 3.91813 3.80292
# Velocity P-wave (km/s) = 5.95597 6.77862 6.38057
#
# Compressibility (1/GPa) = 0.03012368
#
# Stress axis : x y z
#
# Youngs Moduli (GPa) = 34.08064 82.32813 99.57517
#
# Poissons Ratio (x) = 0.48070 0.05540
# Poissons Ratio (y) = 0.19899 0.42904
# Poissons Ratio (z) = 0.01896 0.35472
#
# Static dielectric constant tensor:
#      x y z
#    x 3.173490 0.000000 -0.167540 
#    y 0.000000 3.484940 0.000000 
#    z -0.167540 0.000000 3.991070 
# 
# 
# High freq. dielectric constant tensor:
#      x y z
#    x 1.700230 0.000000 -0.007040 
#    y 0.000000 1.746910 0.000000 
#    z -0.007040 0.000000 1.768610 
# 
# From -- ./inp_files/363143.got.cif
#   From: 2010.06.25/outbox.cif.g09.slc.cpg/sg12_182_cif.got.tgz:363143.got - 2010.06.28 00:19:55.
