data_PCOD8107074
_publ_section_title
;
Structure prediction by ZEFSAII (Michael W. Deem and Ramdas Pophale) SiO2 
 PCOD8107074
Probable space group: C 2/M
;
_chemical_formula_sum "Si O2"
_cell_formula_units_Z 56
_cell_length_a 27.177794
_cell_length_b 8.916456
_cell_length_c 13.617643
_cell_angle_alpha 90.000000
_cell_angle_beta 59.920403
_cell_angle_gamma 90.000000
_cell_volume 2855.552538
_symmetry_space_group_name_H-M "C 2/M"
_symmetry_group_IT_number 12
_symmetry_cell_setting 'monoclinic'
loop_
_space_group_symop_operation_xyz
x,y,z
-x,y,-z
-x,-y,-z
x,-y,z
1/2+x,1/2+y,z
1/2-x,1/2+y,-z
1/2-x,1/2-y,-z
1/2+x,1/2-y,z
loop_
_atom_site_type_symbol
_atom_site_label
_atom_site_fract_x
_atom_site_fract_y
_atom_site_fract_z
Si Si1 0.917462 0.822482 0.829715
Si Si2 0.295359 0.322599 0.026087
Si Si3 0.985613 0.177916 0.122425
Si Si4 0.838890 0.672809 0.554843
Si Si5 0.371313 0.826798 0.303654
Si Si6 0.440503 0.827023 0.602043
Si Si7 0.270741 0.826012 0.254918
O O1 0.923911 0.765828 0.713514
O O2 0.967713 0.757873 0.848140
O O3 0.919400 0.000000 0.826290
O O4 0.857672 0.765614 0.932725
O O5 0.289735 0.500000 0.024013
O O6 0.283947 0.273767 0.147904
O O7 0.250000 0.250000 0.000000
O O8 0.923580 0.228874 0.215569
O O9 0.987066 0.000000 0.120192
O O10 0.000000 0.241383 0.000000
O O11 0.818504 0.500000 0.578852
O O12 0.854830 0.722317 0.429427
O O13 0.893709 0.699205 0.566355
O O14 0.789723 0.781039 0.640979
O O15 0.317961 0.791810 0.288613
O O16 0.389330 0.000000 0.282092
O O17 0.500000 0.766977 0.500000
O O18 0.445758 0.000000 0.627552
O O19 0.269280 0.000000 0.226259
#
# Coordination Sequence:
#
# PCOD8107074 Si02
#       7
#     8   8   8   8   8   8   8
#     4  10  22  38  57  83 113 146 185 231 281 334
#     4  11  23  40  61  85 116 152 191 235 283 336
#     4  10  21  38  59  83 112 148 189 231 282 343
#     4  10  21  38  59  83 113 151 193 235 283 337
#     4  10  22  39  59  85 115 148 190 238 285 337
#     4  10  21  37  58  83 112 148 187 228 278 335
#     4  11  23  38  58  86 117 149 189 235 285 340
#
# _framework density 19.610917000000001
#
# number of rings (size 3 to 8) (size 9 to 14) (size 15 to 20)
#    0.000    1.714    0.000    3.857    0.000    9.143 
#    0.000    0.000    0.000    0.000    0.000    0.000 
#    0.000    0.000    0.000    0.000    0.000    0.000 
#
# Total GULP energy -347359.391444 kJ/mol
# GULP energy per Si atom -12405.692552 kJ/mol
# Density = 1.956628 g / cm^3
# Si number density = 19.610917 Si / 1000 Ang^3
#
#
#
# Elastic Constant Matrix: (Units=GPa)
#
#
# Indices 1 2 3 4 5 6 
#
# 1 124.1718 31.7189 55.2015 0.0000 -9.0214 0.0000
# 2 31.7189 31.6711 23.5151 0.0001 -4.8563 0.0000
# 3 55.2015 23.5151 145.3697 0.0000 -1.0140 0.0000
# 4 0.0000 0.0001 0.0000 -92.6674 0.0000 -55.5563
# 5 -9.0214 -4.8563 -1.0140 0.0000 40.4424 0.0000
# 6 0.0000 0.0000 0.0000 -55.5563 0.0000 7.3446
#
#
#
# Elastic Compliance Matrix: (Units=1/GPa)
#
#
# Indices 1 2 3 4 5 6 
#
# 1 0.011906 -0.009494 -0.002975 0.000000 0.001441 0.000000
# 2 -0.009494 0.044170 -0.003518 0.000000 0.003098 0.000000
# 3 -0.002975 -0.003518 0.008572 0.000000 -0.000871 0.000000
# 4 0.000000 0.000000 0.000000 -0.001950 0.000000 -0.014748
# 5 0.001441 0.003098 -0.000871 0.000000 0.025398 0.000000
# 6 0.000000 0.000000 0.000000 -0.014748 0.000000 0.024599
#
#
# Mechanical properties :
#
#
# Convention : Reuss Voigt Hill
#
# Bulk Modulus (GPa) = 30.60634 58.00927 44.30780
# Shear Modulus (GPa) = 32.14181 3.74239 17.94210
#
# Velocity S-wave (km/s) = 4.05282 1.38292 3.02802
# Velocity P-wave (km/s) = 6.12708 5.67400 5.90489
#
# Compressibility (1/GPa) = 0.03267297
#
# Stress axis : x y z
#
# Youngs Moduli (GPa) = 83.99232 22.63991 116.66086
#
# Poissons Ratio (x) = 0.21494 0.34710
# Poissons Ratio (y) = 0.79740 0.41044
# Poissons Ratio (z) = 0.24990 0.07965
#
# Static dielectric constant tensor:
#      x y z
#    x 3.824620 0.000000 0.049470 
#    y 0.000000 3.465530 0.000000 
#    z 0.049470 0.000000 3.756210 
# 
# 
# High freq. dielectric constant tensor:
#      x y z
#    x 1.784560 0.000000 0.002520 
#    y 0.000000 1.755370 0.000000 
#    z 0.002520 0.000000 1.781630 
# 
# From -- ./inp_files/180673.got.cif
#   From: 2010.06.25/outbox.cif.g09.slc.cpg/sg12_91_cif.got.tgz:180673.got - 2010.06.28 00:19:55.
