data_PCOD8107867
_publ_section_title
;
Structure prediction by ZEFSAII (Michael W. Deem and Ramdas Pophale) SiO2 
 PCOD8107867
Probable space group: C 2/M
;
_chemical_formula_sum "Si O2"
_cell_formula_units_Z 64
_cell_length_a 17.283840
_cell_length_b 12.739135
_cell_length_c 20.893968
_cell_angle_alpha 90.000000
_cell_angle_beta 39.299494
_cell_angle_gamma 90.000000
_cell_volume 2913.810880
_symmetry_space_group_name_H-M "C 2/M"
_symmetry_group_IT_number 12
_symmetry_cell_setting 'monoclinic'
loop_
_space_group_symop_operation_xyz
x,y,z
-x,y,-z
-x,-y,-z
x,-y,z
1/2+x,1/2+y,z
1/2-x,1/2+y,-z
1/2-x,1/2-y,-z
1/2+x,1/2-y,z
loop_
_atom_site_type_symbol
_atom_site_label
_atom_site_fract_x
_atom_site_fract_y
_atom_site_fract_z
Si Si1 0.219395 0.618661 0.050378
Si Si2 0.366216 0.758795 0.581658
Si Si3 0.381833 0.623470 0.833655
Si Si4 0.496174 0.875247 0.724249
Si Si5 0.865037 0.117989 0.083655
Si Si6 0.726613 0.623406 0.466198
Si Si7 0.160008 0.756686 0.260888
Si Si8 0.842887 0.123853 0.348267
O O1 0.184232 0.500000 0.052801
O O2 0.282021 0.675038 0.947576
O O3 0.094368 0.669503 0.160890
O O4 0.323136 0.618406 0.037348
O O5 0.500000 0.813862 0.500000
O O6 0.367348 0.672317 0.524463
O O7 0.349297 0.701338 0.660965
O O8 0.257649 0.841987 0.639525
O O9 0.384503 0.500000 0.844907
O O10 0.336966 0.645553 0.790199
O O11 0.520712 0.668866 0.753198
O O12 0.637259 0.846198 0.646163
O O13 0.451577 0.821849 0.686754
O O14 0.478320 0.000000 0.728228
O O15 0.784618 0.191756 0.179380
O O16 0.861372 0.000000 0.114329
O O17 0.000000 0.164849 0.000000
O O18 0.706668 0.500000 0.479134
O O19 0.702106 0.666662 0.553467
O O20 0.848906 0.000000 0.344914
#
# Coordination Sequence:
#
# PCOD8107867 Si02
#       8
#     8   8   8   8   8   8   8   8
#     4   8  16  32  56  82 106 147 188 228 281 326
#     4  12  25  38  56  85 121 151 184 235 293 347
#     4  10  21  38  58  82 115 152 198 240 276 332
#     4   9  18  36  60  84 110 141 188 239 286 338
#     4   9  19  35  55  82 119 151 183 232 286 341
#     4  10  21  40  63  83 108 150 198 240 281 337
#     4  11  22  35  55  85 114 153 188 228 289 341
#     4  10  22  39  62  86 110 148 194 241 289 340
#
# _framework density 21.964364
#
# number of rings (size 3 to 8) (size 9 to 14) (size 15 to 20)
#    0.000    2.125    0.000    3.750    1.750    4.000 
#    2.250    0.000    0.000    0.375    0.000    0.000 
#    0.000    0.000    0.000    0.000    0.000    0.000 
#
# Total GULP energy -396711.355361 kJ/mol
# GULP energy per Si atom -12397.229855 kJ/mol
# Density = 2.191437 g / cm^3
# Si number density = 21.964364 Si / 1000 Ang^3
#
#
#
# Elastic Constant Matrix: (Units=GPa)
#
#
# Indices 1 2 3 4 5 6 
#
# 1 120.3629 24.0417 76.3150 0.0000 -9.2818 0.0000
# 2 24.0417 19.2599 34.6564 0.0000 -9.9376 0.0000
# 3 76.3150 34.6564 132.7011 0.0000 1.6631 0.0000
# 4 0.0000 0.0000 0.0000 35.0809 0.0000 0.5494
# 5 -9.2818 -9.9376 1.6631 0.0000 47.8245 0.0000
# 6 0.0000 0.0000 0.0000 0.5494 0.0000 11.7348
#
#
#
# Elastic Compliance Matrix: (Units=1/GPa)
#
#
# Indices 1 2 3 4 5 6 
#
# 1 0.013544 -0.003216 -0.006977 0.000000 0.002203 0.000000
# 2 -0.003216 0.126415 -0.031500 0.000000 0.026739 0.000000
# 3 -0.006977 -0.031500 0.019882 0.000000 -0.008591 0.000000
# 4 0.000000 0.000000 0.000000 0.028526 0.000000 -0.001336
# 5 0.002203 0.026739 -0.008591 0.000000 0.027192 0.000000
# 6 0.000000 0.000000 0.000000 -0.001336 0.000000 0.085279
#
#
# Mechanical properties :
#
#
# Convention : Reuss Voigt Hill
#
# Bulk Modulus (GPa) = 13.07959 60.26111 36.67035
# Shear Modulus (GPa) = 12.20376 28.08210 20.14293
#
# Velocity S-wave (km/s) = 2.35971 3.57953 3.03161
# Velocity P-wave (km/s) = 3.65953 6.67679 5.38385
#
# Compressibility (1/GPa) = 0.07645497
#
# Stress axis : x y z
#
# Youngs Moduli (GPa) = 73.83350 7.91048 50.29609
#
# Poissons Ratio (x) = 0.02544 0.35090
# Poissons Ratio (y) = 0.23745 1.58434
# Poissons Ratio (z) = 0.51512 0.24918
#
# Static dielectric constant tensor:
#      x y z
#    x 3.735860 0.000000 -0.187550 
#    y 0.000000 4.000230 0.000000 
#    z -0.187550 0.000000 4.358560 
# 
# 
# High freq. dielectric constant tensor:
#      x y z
#    x 1.840170 0.000000 -0.013290 
#    y 0.000000 1.876090 0.000000 
#    z -0.013290 0.000000 1.880900 
# 
# From -- ./inp_files/270651.got.cif
#   From: 2010.06.25/outbox.cif.g09.slc.cpg/sg12_136_cif.got.tgz:270651.got - 2010.06.28 00:19:55.
