data_PCOD8107975
_publ_section_title
;
Structure prediction by ZEFSAII (Michael W. Deem and Ramdas Pophale) SiO2 
 PCOD8107975
Probable space group: C 2/M
;
_chemical_formula_sum "Si O2"
_cell_formula_units_Z 64
_cell_length_a 14.628838
_cell_length_b 8.766066
_cell_length_c 24.871578
_cell_angle_alpha 90.000000
_cell_angle_beta 86.690551
_cell_angle_gamma 90.000000
_cell_volume 3184.146447
_symmetry_space_group_name_H-M "C 2/M"
_symmetry_group_IT_number 12
_symmetry_cell_setting 'monoclinic'
loop_
_space_group_symop_operation_xyz
x,y,z
-x,y,-z
-x,-y,-z
x,-y,z
1/2+x,1/2+y,z
1/2-x,1/2+y,-z
1/2-x,1/2-y,-z
1/2+x,1/2-y,z
loop_
_atom_site_type_symbol
_atom_site_label
_atom_site_fract_x
_atom_site_fract_y
_atom_site_fract_z
Si Si1 0.474330 0.322538 0.440434
Si Si2 0.354051 0.822405 0.268701
Si Si3 0.649914 0.821570 0.000354
Si Si4 0.686688 0.823251 0.607681
Si Si5 0.328590 0.822659 0.752134
Si Si6 0.368421 0.822774 0.628892
Si Si7 0.010855 0.821476 0.198121
Si Si8 0.991571 0.679897 0.085216
O O1 0.500000 0.278977 0.500000
O O2 0.490025 0.500000 0.428283
O O3 0.369400 0.275727 0.433672
O O4 0.533548 0.222549 0.397348
O O5 0.351681 0.785791 0.331886
O O6 0.276668 0.727558 0.239952
O O7 0.451503 0.770935 0.243375
O O8 0.337709 0.000000 0.258349
O O9 0.596739 0.775933 0.947631
O O10 0.664200 0.000000 0.001698
O O11 0.750000 0.750000 0.000000
O O12 0.585815 0.771277 0.052427
O O13 0.792256 0.774337 0.599876
O O14 0.677920 0.000000 0.593240
O O15 0.367330 0.783166 0.691875
O O16 0.384519 0.726613 0.794336
O O17 0.337027 0.000000 0.765814
O O18 0.348538 0.000000 0.620176
O O19 0.981929 0.776413 0.139354
O O20 0.996899 0.000000 0.207051
O O21 0.992212 0.500000 0.097740
#
# Coordination Sequence:
#
# PCOD8107975 Si02
#       8
#     8   8   8   8   8   8   8   8
#     4  11  24  39  56  81 112 146 185 229 278 332
#     4  10  21  38  59  84 113 147 187 230 277 332
#     4   9  19  37  62  84 106 143 187 231 281 330
#     4  10  21  38  61  85 110 144 185 229 279 333
#     4  10  21  38  59  84 113 147 187 230 277 332
#     4  10  21  38  61  85 110 144 185 229 279 333
#     4  12  24  36  55  85 119 155 189 228 279 330
#     4   9  20  39  57  79 113 150 186 227 278 333
#
# _framework density 20.099578000000001
#
# number of rings (size 3 to 8) (size 9 to 14) (size 15 to 20)
#    0.000    1.875    0.000    4.500    0.000    9.500 
#    0.000    3.750    0.000    0.000    0.000    0.000 
#    0.000    0.000    0.000    0.000    0.000    0.000 
#
# Total GULP energy -396956.372280 kJ/mol
# GULP energy per Si atom -12404.886634 kJ/mol
# Density = 2.005383 g / cm^3
# Si number density = 20.099578 Si / 1000 Ang^3
#
#
#
# Elastic Constant Matrix: (Units=GPa)
#
#
# Indices 1 2 3 4 5 6 
#
# 1 98.7958 21.9565 20.6221 0.0000 17.5137 0.0000
# 2 21.9565 64.7889 36.2862 0.0000 8.3622 0.0000
# 3 20.6221 36.2862 46.5272 0.0000 20.4096 0.0000
# 4 0.0000 0.0000 0.0000 30.3370 0.0000 1.7856
# 5 17.5137 8.3622 20.4096 0.0000 26.3654 0.0000
# 6 0.0000 0.0000 0.0000 1.7856 0.0000 42.5242
#
#
#
# Elastic Compliance Matrix: (Units=1/GPa)
#
#
# Indices 1 2 3 4 5 6 
#
# 1 0.012078 -0.003472 0.000592 0.000000 -0.007380 0.000000
# 2 -0.003472 0.031108 -0.029384 0.000000 0.015186 0.000000
# 3 0.000592 -0.029384 0.060916 0.000000 -0.038229 0.000000
# 4 0.000000 0.000000 0.000000 0.033045 0.000000 -0.001388
# 5 -0.007380 0.015186 -0.038229 0.000000 0.067608 0.000000
# 6 0.000000 0.000000 0.000000 -0.001388 0.000000 0.023574
#
#
# Mechanical properties :
#
#
# Convention : Reuss Voigt Hill
#
# Bulk Modulus (GPa) = 25.26861 40.87129 33.06995
# Shear Modulus (GPa) = 16.33722 28.59511 22.46617
#
# Velocity S-wave (km/s) = 2.85408 3.77592 3.34689
# Velocity P-wave (km/s) = 4.84356 6.27604 5.60574
#
# Compressibility (1/GPa) = 0.03957480
#
# Stress axis : x y z
#
# Youngs Moduli (GPa) = 82.79322 32.14576 16.41596
#
# Poissons Ratio (x) = 0.11162 -0.00972
# Poissons Ratio (y) = 0.28747 0.48236
# Poissons Ratio (z) = -0.04900 0.94456
#
# Static dielectric constant tensor:
#      x y z
#    x 4.521520 0.000000 0.054740 
#    y 0.000000 3.559220 0.000000 
#    z 0.054740 0.000000 3.526490 
# 
# 
# High freq. dielectric constant tensor:
#      x y z
#    x 1.793960 0.000000 0.009650 
#    y 0.000000 1.787760 0.000000 
#    z 0.009650 0.000000 1.774450 
# 
# From -- ./inp_files/338886.got.cif
#   From: 2010.06.25/outbox.cif.g09.slc.cpg/sg12_170_cif.got.tgz:338886.got - 2010.06.28 00:19:55.
