data_PCOD8107387
_publ_section_title
;
Structure prediction by ZEFSAII (Michael W. Deem and Ramdas Pophale) SiO2 
 PCOD8107387
Probable space group: C 2/M
;
_chemical_formula_sum "Si O2"
_cell_formula_units_Z 48
_cell_length_a 9.363819
_cell_length_b 12.969605
_cell_length_c 29.479792
_cell_angle_alpha 90.000000
_cell_angle_beta 142.569144
_cell_angle_gamma 90.000000
_cell_volume 2176.042758
_symmetry_space_group_name_H-M "C 2/M"
_symmetry_group_IT_number 12
_symmetry_cell_setting 'monoclinic'
loop_
_space_group_symop_operation_xyz
x,y,z
-x,y,-z
-x,-y,-z
x,-y,z
1/2+x,1/2+y,z
1/2-x,1/2+y,-z
1/2-x,1/2-y,-z
1/2+x,1/2-y,z
loop_
_atom_site_type_symbol
_atom_site_label
_atom_site_fract_x
_atom_site_fract_y
_atom_site_fract_z
Si Si1 0.083356 0.377458 0.569494
Si Si2 0.220643 0.619878 0.088257
Si Si3 0.425161 0.883652 0.706676
Si Si4 0.891783 0.883652 0.293324
Si Si5 0.235888 0.622542 0.430506
Si Si6 0.843704 0.249999 0.837482
O O1 0.077663 0.500000 0.567512
O O2 0.346536 0.337506 0.646028
O O3 0.000000 0.334047 0.500000
O O4 0.914943 0.332582 0.565978
O O5 0.293684 0.500000 0.117473
O O6 0.142440 0.680543 0.113883
O O7 0.426977 0.680543 0.113882
O O8 0.000000 0.619637 0.000000
O O9 0.179082 0.878932 0.671633
O O10 0.383602 0.837501 0.646028
O O11 0.619599 0.823883 0.784463
O O12 0.516488 0.000000 0.725268
O O13 0.697291 0.823879 0.215539
O O14 0.890136 0.000000 0.274728
O O15 0.500000 0.665953 0.500000
O O16 0.240100 0.500000 0.432484
#
# Coordination Sequence:
#
# PCOD8107387 Si02
#       6
#     8   8   8   8   8   8
#     4   9  17  30  52  83 123 174 227 281 341 398
#     4  11  26  48  75 107 142 181 226 278 341 417
#     4  10  21  37  59  89 127 173 224 277 337 402
#     4  10  21  37  59  89 127 173 224 277 337 402
#     4   9  17  30  52  83 123 174 227 281 341 398
#     4  12  23  44  69 100 138 178 222 280 341 408
#
# _framework density 22.058392000000001
#
# number of rings (size 3 to 8) (size 9 to 14) (size 15 to 20)
#    0.000    1.833    1.667    2.500    2.333    4.000 
#    0.000    0.833    0.000    8.000    0.000    0.000 
#    0.000    0.000    0.000    0.000    0.000    0.000 
#
# Total GULP energy -297547.020066 kJ/mol
# GULP energy per Si atom -12397.792503 kJ/mol
# Density = 2.200819 g / cm^3
# Si number density = 22.058392 Si / 1000 Ang^3
#
#
#
# Elastic Constant Matrix: (Units=GPa)
#
#
# Indices 1 2 3 4 5 6 
#
# 1 168.9738 57.5891 61.9360 0.0000 -1.0245 0.0000
# 2 57.5891 122.3168 41.9621 0.0000 -0.8230 0.0000
# 3 61.9360 41.9621 124.4239 -0.0001 -1.3215 0.0000
# 4 0.0000 0.0000 -0.0001 74.7653 0.0000 2.4294
# 5 -1.0245 -0.8230 -1.3215 0.0000 43.7727 0.0000
# 6 0.0000 0.0000 0.0000 2.4294 0.0000 28.6551
#
#
#
# Elastic Compliance Matrix: (Units=1/GPa)
#
#
# Indices 1 2 3 4 5 6 
#
# 1 0.007956 -0.002699 -0.003050 0.000000 0.000043 0.000000
# 2 -0.002699 0.010161 -0.002082 0.000000 0.000065 0.000000
# 3 -0.003050 -0.002082 0.010260 0.000000 0.000199 0.000000
# 4 0.000000 0.000000 0.000000 0.013412 0.000000 -0.001137
# 5 0.000043 0.000065 0.000199 0.000000 0.022854 0.000000
# 6 0.000000 0.000000 0.000000 -0.001137 0.000000 0.034994
#
#
# Mechanical properties :
#
#
# Convention : Reuss Voigt Hill
#
# Bulk Modulus (GPa) = 78.65376 82.07654 80.36515
# Shear Modulus (GPa) = 41.82777 46.38710 44.10744
#
# Velocity S-wave (km/s) = 4.35930 4.59074 4.47651
# Velocity P-wave (km/s) = 7.81488 8.08637 7.95179
#
# Compressibility (1/GPa) = 0.01271395
#
# Stress axis : x y z
#
# Youngs Moduli (GPa) = 125.68891 98.41272 97.47056
#
# Poissons Ratio (x) = 0.26566 0.29725
# Poissons Ratio (y) = 0.33929 0.20298
# Poissons Ratio (z) = 0.38330 0.20494
#
# Static dielectric constant tensor:
#      x y z
#    x 4.037670 0.000000 -0.013650 
#    y 0.000000 4.152560 0.000000 
#    z -0.013650 0.000000 3.778840 
# 
# 
# High freq. dielectric constant tensor:
#      x y z
#    x 1.873390 0.000000 -0.001170 
#    y 0.000000 1.898400 0.000000 
#    z -0.001170 0.000000 1.851190 
# 
# From -- ./inp_files/356366.got.cif
#   From: 2010.06.25/outbox.cif.g09.slc.cpg/sg12_179_cif.got.tgz:356366.got - 2010.06.28 00:19:55.
