data_PCOD8107523
_publ_section_title
;
Structure prediction by ZEFSAII (Michael W. Deem and Ramdas Pophale) SiO2 
 PCOD8107523
Probable space group: C 2/M
;
_chemical_formula_sum "Si O2"
_cell_formula_units_Z 64
_cell_length_a 16.461602
_cell_length_b 15.190743
_cell_length_c 11.881162
_cell_angle_alpha 90.000000
_cell_angle_beta 88.186134
_cell_angle_gamma 90.000000
_cell_volume 2969.561777
_symmetry_space_group_name_H-M "C 2/M"
_symmetry_group_IT_number 12
_symmetry_cell_setting 'monoclinic'
loop_
_space_group_symop_operation_xyz
x,y,z
-x,y,-z
-x,-y,-z
x,-y,z
1/2+x,1/2+y,z
1/2-x,1/2+y,-z
1/2-x,1/2-y,-z
1/2+x,1/2-y,z
loop_
_atom_site_type_symbol
_atom_site_label
_atom_site_fract_x
_atom_site_fract_y
_atom_site_fract_z
Si Si1 0.668103 0.792119 0.050267
Si Si2 0.418724 0.399073 0.563856
Si Si3 0.746969 0.350678 0.534336
Si Si4 0.618122 0.245958 0.821694
Si Si5 0.260191 0.397977 0.212162
Si Si6 0.344729 0.905765 0.324982
Si Si7 0.064349 0.238229 0.250257
Si Si8 0.524636 0.096891 0.375347
O O1 0.689842 0.880110 0.120989
O O2 0.619009 0.728861 0.137011
O O3 0.750000 0.750000 0.000000
O O4 0.610254 0.803290 0.943515
O O5 0.500000 0.364285 0.500000
O O6 0.428557 0.500000 0.599879
O O7 0.343096 0.388235 0.483347
O O8 0.405864 0.342939 0.676384
O O9 0.750000 0.250000 0.500000
O O10 0.769765 0.368881 0.662536
O O11 0.814097 0.399168 0.454920
O O12 0.661563 0.340452 0.826476
O O13 0.677547 0.181364 0.745380
O O14 0.530881 0.265660 0.773065
O O15 0.284230 0.500000 0.208461
O O16 0.441536 0.910871 0.310005
O O17 0.310369 0.000000 0.278785
O O18 0.082290 0.330080 0.315644
O O19 0.500000 0.129454 0.500000
O O20 0.567722 0.000000 0.374411
#
# Coordination Sequence:
#
# PCOD8107523 Si02
#       8
#     8   8   8   8   8   8   8   8
#     4  10  24  43  62  90 123 165 225 276 319 373
#     4  11  25  41  62  99 139 175 216 264 324 404
#     4  12  23  39  63  95 135 174 214 267 327 396
#     4  10  22  43  65  90 126 168 221 274 322 391
#     4  11  23  40  64  95 131 173 218 270 328 390
#     4  10  21  37  60  91 125 166 208 264 331 390
#     4  11  22  39  67  91 122 175 213 266 331 383
#     4   9  20  35  56  91 128 158 201 256 317 394
#
# _framework density 21.552001000000001
#
# number of rings (size 3 to 8) (size 9 to 14) (size 15 to 20)
#    0.000    1.500    1.250    3.375    7.000    2.500 
#    0.000    2.500    0.000    7.500    0.000    0.000 
#    0.000    0.000    0.000    0.000    0.000    0.000 
#
# Total GULP energy -396599.386540 kJ/mol
# GULP energy per Si atom -12393.730829 kJ/mol
# Density = 2.150295 g / cm^3
# Si number density = 21.552001 Si / 1000 Ang^3
#
#
#
# Elastic Constant Matrix: (Units=GPa)
#
#
# Indices 1 2 3 4 5 6 
#
# 1 57.0589 20.1154 16.6681 0.0000 -8.6730 0.0000
# 2 20.1154 137.5071 45.0697 0.0000 -2.9414 0.0000
# 3 16.6681 45.0697 135.4873 0.0000 -5.4312 0.0000
# 4 0.0000 0.0000 0.0000 18.6836 0.0000 8.6937
# 5 -8.6730 -2.9414 -5.4312 0.0000 38.6981 0.0000
# 6 0.0000 0.0000 0.0000 8.6937 0.0000 18.6351
#
#
#
# Elastic Compliance Matrix: (Units=1/GPa)
#
#
# Indices 1 2 3 4 5 6 
#
# 1 0.019355 -0.002265 -0.001469 0.000000 0.003960 0.000000
# 2 -0.002265 0.008430 -0.002534 0.000000 -0.000223 0.000000
# 3 -0.001469 -0.002534 0.008431 0.000000 0.000661 0.000000
# 4 0.000000 0.000000 0.000000 0.068363 0.000000 -0.031893
# 5 0.003960 -0.000223 0.000661 0.000000 0.026804 0.000000
# 6 0.000000 0.000000 0.000000 -0.031893 0.000000 0.068541
#
#
# Mechanical properties :
#
#
# Convention : Reuss Voigt Hill
#
# Bulk Modulus (GPa) = 42.23164 54.86221 48.54693
# Shear Modulus (GPa) = 22.69076 31.75003 27.22039
#
# Velocity S-wave (km/s) = 3.24827 3.84237 3.55774
# Velocity P-wave (km/s) = 5.80569 6.72280 6.28101
#
# Compressibility (1/GPa) = 0.02367893
#
# Stress axis : x y z
#
# Youngs Moduli (GPa) = 51.66546 118.62916 118.60933
#
# Poissons Ratio (x) = 0.26873 0.17422
# Poissons Ratio (y) = 0.11704 0.30060
# Poissons Ratio (z) = 0.07589 0.30065
#
# Static dielectric constant tensor:
#      x y z
#    x 3.912120 0.000000 0.118700 
#    y 0.000000 4.053340 0.000000 
#    z 0.118700 0.000000 4.234760 
# 
# 
# High freq. dielectric constant tensor:
#      x y z
#    x 1.848200 0.000000 -0.000030 
#    y 0.000000 1.842850 0.000000 
#    z -0.000030 0.000000 1.842030 
# 
# From -- ./inp_files/156637.got.cif
#   From: 2010.06.25/outbox.cif.g09.slc.cpg/sg12_79_cif.got.tgz:156637.got - 2010.06.28 00:19:55.
