data_PCOD8107073
_publ_section_title
;
Structure prediction by ZEFSAII (Michael W. Deem and Ramdas Pophale) SiO2 
 PCOD8107073
Probable space group: C 2/M
;
_chemical_formula_sum "Si O2"
_cell_formula_units_Z 56
_cell_length_a 14.465540
_cell_length_b 8.744693
_cell_length_c 26.251292
_cell_angle_alpha 90.000000
_cell_angle_beta 65.329624
_cell_angle_gamma 90.000000
_cell_volume 3017.601943
_symmetry_space_group_name_H-M "C 2/M"
_symmetry_group_IT_number 12
_symmetry_cell_setting 'monoclinic'
loop_
_space_group_symop_operation_xyz
x,y,z
-x,y,-z
-x,-y,-z
x,-y,z
1/2+x,1/2+y,z
1/2-x,1/2+y,-z
1/2-x,1/2-y,-z
1/2+x,1/2-y,z
loop_
_atom_site_type_symbol
_atom_site_label
_atom_site_fract_x
_atom_site_fract_y
_atom_site_fract_z
Si Si1 0.295825 0.678245 0.439463
Si Si2 0.012058 0.818455 0.349539
Si Si3 0.575633 0.182234 0.730179
Si Si4 0.715910 0.181548 0.349520
Si Si5 0.777444 0.175498 0.940105
Si Si6 0.933588 0.675523 0.060049
Si Si7 0.978684 0.318873 0.857232
O O1 0.289186 0.500000 0.448247
O O2 0.250000 0.750000 0.500000
O O3 0.413410 0.728019 0.405638
O O4 0.229491 0.728087 0.405650
O O5 0.997003 0.748530 0.297068
O O6 0.111028 0.749887 0.353388
O O7 0.022879 0.000000 0.342085
O O8 0.689641 0.248140 0.702887
O O9 0.527489 0.242103 0.793956
O O10 0.579774 0.000000 0.724819
O O11 0.716577 0.000000 0.342128
O O12 0.684358 0.192684 0.923142
O O13 0.864551 0.261833 0.889769
O O14 0.806434 0.000000 0.943304
O O15 0.750000 0.250000 0.000000
O O16 0.969323 0.500000 0.054330
O O17 0.957558 0.748662 0.109548
O O18 0.000000 0.756266 0.000000
O O19 0.979128 0.500000 0.855731
#
# Coordination Sequence:
#
# PCOD8107073 Si02
#       7
#     8   8   8   8   8   8   8
#     4   9  20  36  55  83 118 154 191 236 281 332
#     4  10  21  38  59  83 114 153 195 236 283 338
#     4  10  21  37  58  83 112 147 187 237 291 341
#     4  10  21  38  59  84 115 151 193 238 285 335
#     4  11  21  34  55  79 105 140 178 219 270 326
#     4   9  17  33  55  74 101 140 172 206 262 327
#     4  10  21  38  57  80 108 139 180 225 274 336
#
# _framework density 18.557782
#
# number of rings (size 3 to 8) (size 9 to 14) (size 15 to 20)
#    0.000    2.143    1.429    2.571    0.000    6.286 
#    0.000    6.429    0.000    0.000    0.000    0.000 
#    0.000    0.000    0.000    0.000    0.000    0.000 
#
# Total GULP energy -347158.809928 kJ/mol
# GULP energy per Si atom -12398.528926 kJ/mol
# Density = 1.851554 g / cm^3
# Si number density = 18.557782 Si / 1000 Ang^3
#
#
#
# Elastic Constant Matrix: (Units=GPa)
#
#
# Indices 1 2 3 4 5 6 
#
# 1 146.0674 34.2544 84.0040 0.0000 2.5706 0.0000
# 2 34.2544 45.5207 45.8930 0.0000 2.7694 0.0000
# 3 84.0040 45.8930 192.1489 0.0000 4.3073 0.0000
# 4 0.0000 0.0000 0.0000 28.8685 0.0000 -4.6582
# 5 2.5706 2.7694 4.3073 0.0000 20.7409 0.0000
# 6 0.0000 0.0000 0.0000 -4.6582 0.0000 32.2683
#
#
#
# Elastic Compliance Matrix: (Units=1/GPa)
#
#
# Indices 1 2 3 4 5 6 
#
# 1 0.009660 -0.003967 -0.003276 0.000000 0.000013 0.000000
# 2 -0.003967 0.030688 -0.005540 0.000000 -0.002455 0.000000
# 3 -0.003276 -0.005540 0.007971 0.000000 -0.000510 0.000000
# 4 0.000000 0.000000 0.000000 0.035466 0.000000 0.005120
# 5 0.000013 -0.002455 -0.000510 0.000000 0.048646 0.000000
# 6 0.000000 0.000000 0.000000 0.005120 0.000000 0.031729
#
#
# Mechanical properties :
#
#
# Convention : Reuss Voigt Hill
#
# Bulk Modulus (GPa) = 43.95076 79.11554 61.53315
# Shear Modulus (GPa) = 25.34052 31.01458 28.17755
#
# Velocity S-wave (km/s) = 3.69927 4.09252 3.90085
# Velocity P-wave (km/s) = 6.47925 8.06574 7.31563
#
# Compressibility (1/GPa) = 0.02275274
#
# Stress axis : x y z
#
# Youngs Moduli (GPa) = 103.51533 32.58569 125.45224
#
# Poissons Ratio (x) = 0.12928 0.41099
# Poissons Ratio (y) = 0.41069 0.69502
# Poissons Ratio (z) = 0.33912 0.18053
#
# Static dielectric constant tensor:
#      x y z
#    x 3.641520 0.000000 0.045530 
#    y 0.000000 3.365150 0.000000 
#    z 0.045530 0.000000 3.097810 
# 
# 
# High freq. dielectric constant tensor:
#      x y z
#    x 1.729700 0.000000 0.001770 
#    y 0.000000 1.713850 0.000000 
#    z 0.001770 0.000000 1.724940 
# 
# From -- ./inp_files/359665.got.cif
#   From: 2010.06.25/outbox.cif.g09.slc.cpg/sg12_180_cif.got.tgz:359665.got - 2010.06.28 00:19:55.
