data_PCOD8107338
_publ_section_title
;
Structure prediction by ZEFSAII (Michael W. Deem and Ramdas Pophale) SiO2 
 PCOD8107338
Probable space group: C 2/M
;
_chemical_formula_sum "Si O2"
_cell_formula_units_Z 48
_cell_length_a 9.948856
_cell_length_b 9.841540
_cell_length_c 26.466349
_cell_angle_alpha 90.000000
_cell_angle_beta 111.092225
_cell_angle_gamma 90.000000
_cell_volume 2417.758910
_symmetry_space_group_name_H-M "C 2/M"
_symmetry_group_IT_number 12
_symmetry_cell_setting 'monoclinic'
loop_
_space_group_symop_operation_xyz
x,y,z
-x,y,-z
-x,-y,-z
x,-y,z
1/2+x,1/2+y,z
1/2-x,1/2+y,-z
1/2-x,1/2-y,-z
1/2+x,1/2-y,z
loop_
_atom_site_type_symbol
_atom_site_label
_atom_site_fract_x
_atom_site_fract_y
_atom_site_fract_z
Si Si1 0.850318 0.500000 0.451181
Si Si2 0.760549 0.230165 0.391325
Si Si3 0.329561 0.500000 0.475920
Si Si4 0.114947 0.655629 0.973619
Si Si5 0.958285 0.845528 0.327412
Si Si6 0.475105 0.844273 0.151700
Si Si7 0.694627 0.341564 0.796425
O O1 0.840970 0.369952 0.414164
O O2 0.718302 0.500000 0.472482
O O3 0.000000 0.500000 0.500000
O O4 0.838893 0.162214 0.354704
O O5 0.592838 0.248602 0.356138
O O6 0.768792 0.133821 0.441034
O O7 0.500000 0.500000 0.500000
O O8 0.164695 0.500000 0.986524
O O9 0.042618 0.681741 0.909936
O O10 0.250000 0.750000 0.000000
O O11 0.000000 0.696678 0.000000
O O12 0.886555 0.798935 0.265558
O O13 0.014330 0.000000 0.331677
O O14 0.366584 0.746420 0.166152
O O15 0.637972 0.807397 0.188768
O O16 0.439172 0.000000 0.161112
O O17 0.673274 0.500000 0.806736
#
# Coordination Sequence:
#
# PCOD8107338 Si02
#       7
#     4   8   4   8   8   8   8
#     4  12  24  40  60  96 122 154 204 240 292 364
#     4  12  23  43  66  89 126 158 197 251 298 357
#     4  12  24  42  66  92 122 160 198 244 300 356
#     4  10  21  37  59  87 123 163 205 251 300 357
#     4  11  23  43  63  93 122 156 203 248 301 360
#     4  10  21  39  59  91 123 157 206 253 300 356
#     4  10  22  40  64  86 120 161 200 251 303 359
#
# _framework density 19.853096000000001
#
# number of rings (size 3 to 8) (size 9 to 14) (size 15 to 20)
#    0.000    1.167    1.667    5.000    0.000    3.000 
#    3.000    0.000    0.000    0.000    0.000    0.000 
#    0.000    0.000    0.000    0.000    0.000    0.000 
#
# Total GULP energy -297784.636638 kJ/mol
# GULP energy per Si atom -12407.693193 kJ/mol
# Density = 1.980791 g / cm^3
# Si number density = 19.853096 Si / 1000 Ang^3
#
#
#
# Elastic Constant Matrix: (Units=GPa)
#
#
# Indices 1 2 3 4 5 6 
#
# 1 96.8742 25.6471 20.8287 0.0000 10.9777 0.0000
# 2 25.6471 84.5991 26.1994 0.0000 8.4536 0.0000
# 3 20.8287 26.1994 79.6881 0.0000 5.9782 0.0000
# 4 0.0000 0.0000 0.0000 36.4971 0.0000 -1.2748
# 5 10.9777 8.4536 5.9782 0.0000 42.3251 0.0000
# 6 0.0000 0.0000 0.0000 -1.2748 0.0000 33.6953
#
#
#
# Elastic Compliance Matrix: (Units=1/GPa)
#
#
# Indices 1 2 3 4 5 6 
#
# 1 0.011723 -0.002711 -0.002007 0.000000 -0.002216 0.000000
# 2 -0.002711 0.013964 -0.003766 0.000000 -0.001554 0.000000
# 3 -0.002007 -0.003766 0.014368 0.000000 -0.000757 0.000000
# 4 0.000000 0.000000 0.000000 0.027436 0.000000 0.001038
# 5 -0.002216 -0.001554 -0.000757 0.000000 0.024619 0.000000
# 6 0.000000 0.000000 0.000000 0.001038 0.000000 0.029717
#
#
# Mechanical properties :
#
#
# Convention : Reuss Voigt Hill
#
# Bulk Modulus (GPa) = 43.31221 45.16798 44.24010
# Shear Modulus (GPa) = 34.13222 35.06926 34.60074
#
# Velocity S-wave (km/s) = 4.15087 4.20746 4.17926
# Velocity P-wave (km/s) = 6.69602 6.81206 6.75429
#
# Compressibility (1/GPa) = 0.02308818
#
# Stress axis : x y z
#
# Youngs Moduli (GPa) = 85.30294 71.61351 69.59786
#
# Poissons Ratio (x) = 0.19415 0.13965
# Poissons Ratio (y) = 0.23127 0.26209
# Poissons Ratio (z) = 0.17117 0.26968
#
# Static dielectric constant tensor:
#      x y z
#    x 3.575090 0.000000 0.023650 
#    y 0.000000 3.602320 0.000000 
#    z 0.023650 0.000000 3.857390 
# 
# 
# High freq. dielectric constant tensor:
#      x y z
#    x 1.780560 0.000000 0.005120 
#    y 0.000000 1.778140 0.000000 
#    z 0.005120 0.000000 1.789450 
# 
# From -- ./inp_files/334801.got.cif
#   From: 2010.06.25/outbox.cif.g09.slc.cpg/sg12_168_cif.got.tgz:334801.got - 2010.06.28 00:19:55.
