data_PCOD8107527
_publ_section_title
;
Structure prediction by ZEFSAII (Michael W. Deem and Ramdas Pophale) SiO2 
 PCOD8107527
Probable space group: C 2/M
;
_chemical_formula_sum "Si O2"
_cell_formula_units_Z 64
_cell_length_a 15.167595
_cell_length_b 8.661687
_cell_length_c 33.312825
_cell_angle_alpha 90.000000
_cell_angle_beta 134.664638
_cell_angle_gamma 90.000000
_cell_volume 3112.740054
_symmetry_space_group_name_H-M "C 2/M"
_symmetry_group_IT_number 12
_symmetry_cell_setting 'monoclinic'
loop_
_space_group_symop_operation_xyz
x,y,z
-x,y,-z
-x,-y,-z
x,-y,z
1/2+x,1/2+y,z
1/2-x,1/2+y,-z
1/2-x,1/2-y,-z
1/2+x,1/2-y,z
loop_
_atom_site_type_symbol
_atom_site_label
_atom_site_fract_x
_atom_site_fract_y
_atom_site_fract_z
Si Si1 0.121404 0.319498 0.919537
Si Si2 0.403491 0.682637 0.003625
Si Si3 0.652736 0.681362 0.498854
Si Si4 0.545584 0.320518 0.200956
Si Si5 0.764378 0.321137 0.619621
Si Si6 0.503801 0.675734 0.277745
Si Si7 0.579685 0.179074 0.615455
Si Si8 0.693327 0.324364 0.723909
O O1 0.123684 0.500000 0.928808
O O2 0.260194 0.262897 0.951113
O O3 0.030836 0.282212 0.854253
O O4 0.064112 0.240922 0.941208
O O5 0.414342 0.500000 0.006649
O O6 0.500000 0.747664 0.000000
O O7 0.642801 0.500000 0.490179
O O8 0.750000 0.750000 0.500000
O O9 0.699389 0.727080 0.557618
O O10 0.520330 0.755055 0.447659
O O11 0.519180 0.500000 0.184495
O O12 0.502293 0.268916 0.231307
O O13 0.690853 0.288908 0.242075
O O14 0.738892 0.500000 0.620999
O O15 0.910326 0.285585 0.667005
O O16 0.712240 0.210320 0.637689
O O17 0.552317 0.500000 0.296428
O O18 0.364131 0.688177 0.249943
O O19 0.583248 0.270094 0.658597
O O20 0.554558 0.000000 0.615534
O O21 0.733146 0.500000 0.726744
#
# Coordination Sequence:
#
# PCOD8107527 Si02
#       8
#     8   8   8   8   8   8   8   8
#     4  10  21  37  60  91 126 165 207 253 303 356
#     4   9  19  38  63  92 127 166 207 252 302 357
#     4  11  24  40  58  85 116 149 194 247 306 371
#     4  11  23  41  62  88 124 165 207 254 303 360
#     4  11  23  39  61  86 114 151 197 248 303 367
#     4  10  23  41  62  88 120 157 200 251 309 370
#     4  12  24  39  60  86 116 154 197 245 308 372
#     4  11  23  41  64  90 120 158 203 256 312 368
#
# _framework density 20.560663000000002
#
# number of rings (size 3 to 8) (size 9 to 14) (size 15 to 20)
#    0.000    1.375    1.250    4.125    0.000    8.750 
#    0.000    2.500    0.000    0.000    0.000    0.000 
#    0.000    0.000    0.000    0.000    0.000    0.000 
#
# Total GULP energy -396810.031483 kJ/mol
# GULP energy per Si atom -12400.313484 kJ/mol
# Density = 2.051387 g / cm^3
# Si number density = 20.560663 Si / 1000 Ang^3
#
#
#
# Elastic Constant Matrix: (Units=GPa)
#
#
# Indices 1 2 3 4 5 6 
#
# 1 131.1438 24.1561 40.9358 0.0000 -19.7114 0.0000
# 2 24.1561 49.1104 19.9881 0.0000 -7.6483 0.0000
# 3 40.9358 19.9881 112.6153 0.0000 -11.1102 0.0000
# 4 0.0000 0.0000 0.0000 32.9859 0.0000 1.6303
# 5 -19.7114 -7.6483 -11.1102 0.0000 16.6847 0.0000
# 6 0.0000 0.0000 0.0000 1.6303 0.0000 30.5214
#
#
#
# Elastic Compliance Matrix: (Units=1/GPa)
#
#
# Indices 1 2 3 4 5 6 
#
# 1 0.010243 -0.002634 -0.002334 0.000000 0.009339 0.000000
# 2 -0.002634 0.023668 -0.002654 0.000000 0.005971 0.000000
# 3 -0.002334 -0.002654 0.010497 0.000000 0.003015 0.000000
# 4 0.000000 0.000000 0.000000 0.030396 0.000000 -0.001624
# 5 0.009339 0.005971 0.003015 0.000000 0.075713 0.000000
# 6 0.000000 0.000000 0.000000 -0.001624 0.000000 0.032851
#
#
# Mechanical properties :
#
#
# Convention : Reuss Voigt Hill
#
# Bulk Modulus (GPa) = 34.29052 51.44772 42.86912
# Shear Modulus (GPa) = 24.00000 29.89104 26.94552
#
# Velocity S-wave (km/s) = 3.42025 3.81701 3.62406
# Velocity P-wave (km/s) = 5.68431 6.67104 6.19735
#
# Compressibility (1/GPa) = 0.02916258
#
# Stress axis : x y z
#
# Youngs Moduli (GPa) = 97.63063 42.25141 95.26570
#
# Poissons Ratio (x) = 0.11127 0.22239
# Poissons Ratio (y) = 0.25711 0.25288
# Poissons Ratio (z) = 0.22791 0.11216
#
# Static dielectric constant tensor:
#      x y z
#    x 3.890880 0.000000 -0.060640 
#    y 0.000000 3.641230 0.000000 
#    z -0.060640 0.000000 3.512130 
# 
# 
# High freq. dielectric constant tensor:
#      x y z
#    x 1.813680 0.000000 -0.005180 
#    y 0.000000 1.804720 0.000000 
#    z -0.005180 0.000000 1.799490 
# 
# From -- ./inp_files/375581.got.cif
#   From: 2010.06.25/outbox.cif.g09.slc.cpg/sg12_188_cif.got.tgz:375581.got - 2010.06.28 00:19:55.
