data_PCOD8107909
_publ_section_title
;
Structure prediction by ZEFSAII (Michael W. Deem and Ramdas Pophale) SiO2 
 PCOD8107909
Probable space group: C 2/M
;
_chemical_formula_sum "Si O2"
_cell_formula_units_Z 64
_cell_length_a 15.021124
_cell_length_b 22.982201
_cell_length_c 18.460917
_cell_angle_alpha 90.000000
_cell_angle_beta 29.258095
_cell_angle_gamma 90.000000
_cell_volume 3114.793134
_symmetry_space_group_name_H-M "C 2/M"
_symmetry_group_IT_number 12
_symmetry_cell_setting 'monoclinic'
loop_
_space_group_symop_operation_xyz
x,y,z
-x,y,-z
-x,-y,-z
x,-y,z
1/2+x,1/2+y,z
1/2-x,1/2+y,-z
1/2-x,1/2-y,-z
1/2+x,1/2-y,z
loop_
_atom_site_type_symbol
_atom_site_label
_atom_site_fract_x
_atom_site_fract_y
_atom_site_fract_z
Si Si1 0.478374 0.848045 0.632979
Si Si2 0.286276 0.343980 0.299187
Si Si3 0.872055 0.754988 0.808550
Si Si4 0.502876 0.380362 0.265954
Si Si5 0.690137 0.931553 0.581283
Si Si6 0.987411 0.727313 0.137943
Si Si7 0.699863 0.067530 0.864067
Si Si8 0.205743 0.874522 0.343626
O O1 0.653025 0.830139 0.461437
O O2 0.321478 0.873918 0.690818
O O3 0.407158 0.788348 0.717808
O O4 0.524958 0.897099 0.659245
O O5 0.442152 0.385497 0.224311
O O6 0.378899 0.286593 0.202951
O O7 0.996922 0.812447 0.709700
O O8 0.930949 0.721408 0.839449
O O9 0.658836 0.773536 0.961147
O O10 0.375000 0.419240 0.407185
O O11 0.705726 0.405150 0.131654
O O12 0.712796 0.909548 0.646719
O O13 0.645784 0.000000 0.612168
O O14 0.842215 0.676998 0.225407
O O15 0.810174 0.081578 0.712660
O O16 0.689357 0.000000 0.885197
O O17 0.500000 0.095043 0.000000
O O18 0.000000 0.850260 0.500000
#
# Coordination Sequence:
#
# PCOD8107909 Si02
#       8
#     8   8   8   8   8   8   8   8
#     4  10  21  40  62  90 123 166 202 258 306 364
#     4   9  22  36  60  88 127 158 206 246 306 368
#     4  10  21  38  63  88 128 161 199 246 310 378
#     4  10  21  38  58  87 124 160 199 255 301 361
#     4  11  23  40  63  90 121 160 212 262 304 358
#     4  10  22  38  57  96 125 161 195 243 314 380
#     4  11  24  40  59  85 120 164 209 251 306 365
#     4  12  24  37  61  92 123 161 203 254 303 377
#
# _framework density 20.54711
#
# number of rings (size 3 to 8) (size 9 to 14) (size 15 to 20)
#    0.000    1.625    2.500    1.500    5.250    2.500 
#    0.000    5.625    0.000    0.000    0.000    1.750 
#    0.000    0.000    0.000    0.000    0.000    0.000 
#
# Total GULP energy -396712.617913 kJ/mol
# GULP energy per Si atom -12397.269310 kJ/mol
# Density = 2.050034 g / cm^3
# Si number density = 20.547110 Si / 1000 Ang^3
#
#
#
# Elastic Constant Matrix: (Units=GPa)
#
#
# Indices 1 2 3 4 5 6 
#
# 1 152.0486 43.7089 37.7929 0.0239 -32.9978 0.0143
# 2 43.7089 74.8198 30.4735 0.0468 -15.1186 -0.0119
# 3 37.7929 30.4735 69.7821 0.0778 -18.4013 -0.0398
# 4 0.0239 0.0468 0.0778 21.5439 -0.0030 -6.5763
# 5 -32.9978 -15.1186 -18.4013 -0.0030 30.4417 -0.0303
# 6 0.0143 -0.0119 -0.0398 -6.5763 -0.0303 22.2075
#
#
#
# Elastic Compliance Matrix: (Units=1/GPa)
#
#
# Indices 1 2 3 4 5 6 
#
# 1 0.009656 -0.003377 -0.001709 0.000004 0.007756 0.000001
# 2 -0.003377 0.017973 -0.005510 -0.000015 0.001935 0.000000
# 3 -0.001709 -0.005510 0.019572 -0.000047 0.007242 0.000029
# 4 0.000004 -0.000015 -0.000047 0.051030 -0.000011 0.015111
# 5 0.007756 0.001935 0.007242 -0.000011 0.046595 0.000069
# 6 0.000001 0.000000 0.000029 0.015111 0.000069 0.049505
#
#
# Mechanical properties :
#
#
# Convention : Reuss Voigt Hill
#
# Bulk Modulus (GPa) = 38.44892 57.84455 48.14673
# Shear Modulus (GPa) = 22.30219 27.15028 24.72623
#
# Velocity S-wave (km/s) = 3.29814 3.63901 3.47276
# Velocity P-wave (km/s) = 5.76687 6.77272 6.28994
#
# Compressibility (1/GPa) = 0.02600853
#
# Stress axis : x y z
#
# Youngs Moduli (GPa) = 103.56455 55.63753 51.09415
#
# Poissons Ratio (x) = 0.18791 0.08734
# Poissons Ratio (y) = 0.34978 0.28150
# Poissons Ratio (z) = 0.17703 0.30654
#
# Static dielectric constant tensor:
#      x y z
#    x 4.131840 -0.000230 -0.267170 
#    y -0.000230 3.430530 0.000330 
#    z -0.267170 0.000330 3.704170 
# 
# 
# High freq. dielectric constant tensor:
#      x y z
#    x 1.824850 -0.000020 -0.016740 
#    y -0.000020 1.778290 0.000040 
#    z -0.016740 0.000040 1.792980 
# 
# From -- ./inp_files/272825.got.cif
#   From: 2010.06.25/outbox.cif.g09.slc.cpg/sg12_137_cif.got.tgz:272825.got - 2010.06.28 00:19:55.
