data_PCOD8107037
_publ_section_title
;
Structure prediction by ZEFSAII (Michael W. Deem and Ramdas Pophale) SiO2 
 PCOD8107037
Probable space group: C 2/M
;
_chemical_formula_sum "Si O2"
_cell_formula_units_Z 64
_cell_length_a 28.362133
_cell_length_b 8.725115
_cell_length_c 22.039083
_cell_angle_alpha 90.000000
_cell_angle_beta 146.038119
_cell_angle_gamma 90.000000
_cell_volume 3046.748083
_symmetry_space_group_name_H-M "C 2/M"
_symmetry_group_IT_number 12
_symmetry_cell_setting 'monoclinic'
loop_
_space_group_symop_operation_xyz
x,y,z
-x,y,-z
-x,-y,-z
x,-y,z
1/2+x,1/2+y,z
1/2-x,1/2+y,-z
1/2-x,1/2-y,-z
1/2+x,1/2-y,z
loop_
_atom_site_type_symbol
_atom_site_label
_atom_site_fract_x
_atom_site_fract_y
_atom_site_fract_z
Si Si1 0.524483 0.678370 0.293710
Si Si2 0.746162 0.182185 0.689229
Si Si3 0.701937 0.180196 0.506315
Si Si4 0.089092 0.321399 0.071931
Si Si5 0.782667 0.332057 0.977237
Si Si6 0.928116 0.824592 0.072523
Si Si7 0.091777 0.677304 0.606011
Si Si8 0.895769 0.166217 0.260385
O O1 0.547398 0.500000 0.323835
O O2 0.603752 0.777706 0.399066
O O3 0.502623 0.716293 0.199944
O O4 0.445285 0.721527 0.252579
O O5 0.739277 0.237201 0.611411
O O6 0.833310 0.237962 0.812231
O O7 0.665941 0.248650 0.642316
O O8 0.746400 0.000000 0.692999
O O9 0.750000 0.250000 0.500000
O O10 0.712534 0.000000 0.513098
O O11 0.100958 0.500000 0.097470
O O12 0.079640 0.293040 0.990671
O O13 0.000000 0.257076 0.000000
O O14 0.826964 0.500000 0.035439
O O15 0.702393 0.363381 0.850946
O O16 0.750000 0.250000 0.000000
O O17 0.841072 0.199628 0.013383
O O18 0.936307 0.000000 0.058726
O O19 0.087328 0.500000 0.584574
O O20 0.105225 0.700300 0.691366
O O21 0.000000 0.756362 0.500000
O O22 0.934149 0.000000 0.322177
#
# Coordination Sequence:
#
# PCOD8107037 Si02
#       8
#     8   8   8   8   8   8   8   8
#     4  10  22  41  62  91 129 168 210 259 314 375
#     4  10  23  44  67  93 127 169 214 260 317 386
#     4  11  25  44  68  96 124 160 208 261 323 382
#     4  11  26  45  66  95 127 163 214 272 328 385
#     4  11  21  36  57  87 126 167 209 253 308 368
#     4  11  23  41  64  92 129 171 216 263 318 381
#     4  10  21  38  61  90 125 163 208 254 300 364
#     4  10  21  37  57  87 126 163 205 250 302 365
#
# _framework density 21.006003
#
# number of rings (size 3 to 8) (size 9 to 14) (size 15 to 20)
#    0.000    1.500    1.250    3.000    1.750    8.250 
#    0.000    0.000    0.000    0.000    0.000    0.000 
#    0.000    0.000    0.000    0.000    0.000    0.000 
#
# Total GULP energy -396443.595593 kJ/mol
# GULP energy per Si atom -12388.862362 kJ/mol
# Density = 2.095819 g / cm^3
# Si number density = 21.006003 Si / 1000 Ang^3
#
#
#
# Elastic Constant Matrix: (Units=GPa)
#
#
# Indices 1 2 3 4 5 6 
#
# 1 107.2115 13.8280 59.5116 0.0000 -9.9578 0.0000
# 2 13.8280 40.1674 31.1664 0.0000 -3.9933 0.0000
# 3 59.5116 31.1664 129.3703 0.0000 -3.0071 0.0000
# 4 0.0000 0.0000 0.0000 33.0097 0.0000 -1.5729
# 5 -9.9578 -3.9933 -3.0071 0.0000 39.9931 0.0000
# 6 0.0000 0.0000 0.0000 -1.5729 0.0000 15.5737
#
#
#
# Elastic Compliance Matrix: (Units=1/GPa)
#
#
# Indices 1 2 3 4 5 6 
#
# 1 0.012829 0.000480 -0.005952 0.000000 0.002795 0.000000
# 2 0.000480 0.030890 -0.007601 0.000000 0.002632 0.000000
# 3 -0.005952 -0.007601 0.012268 0.000000 -0.001319 0.000000
# 4 0.000000 0.000000 0.000000 0.030441 0.000000 0.003074
# 5 0.002795 0.002632 -0.001319 0.000000 0.025864 0.000000
# 6 0.000000 0.000000 0.000000 0.003074 0.000000 0.064522
#
#
# Mechanical properties :
#
#
# Convention : Reuss Voigt Hill
#
# Bulk Modulus (GPa) = 33.51176 53.97346 43.74261
# Shear Modulus (GPa) = 23.48440 29.19817 26.34128
#
# Velocity S-wave (km/s) = 3.34726 3.73230 3.54501
# Velocity P-wave (km/s) = 5.56119 6.65759 6.13394
#
# Compressibility (1/GPa) = 0.02984027
#
# Stress axis : x y z
#
# Youngs Moduli (GPa) = 77.94871 32.37272 81.51110
#
# Poissons Ratio (x) = -0.01553 0.48516
# Poissons Ratio (y) = -0.03738 0.61958
# Poissons Ratio (z) = 0.46395 0.24607
#
# Static dielectric constant tensor:
#      x y z
#    x 3.823570 0.000000 0.183830 
#    y 0.000000 3.735140 0.000000 
#    z 0.183830 0.000000 3.561450 
# 
# 
# High freq. dielectric constant tensor:
#      x y z
#    x 1.832150 0.000000 0.000320 
#    y 0.000000 1.815570 0.000000 
#    z 0.000320 0.000000 1.828250 
# 
# From -- ./inp_files/353541.got.cif
#   From: 2010.06.25/outbox.cif.g09.slc.cpg/sg12_177_cif.got.tgz:353541.got - 2010.06.28 00:19:55.
