data_PCOD8107779
_publ_section_title
;
Structure prediction by ZEFSAII (Michael W. Deem and Ramdas Pophale) SiO2 
 PCOD8107779
Probable space group: C 2/M
;
_chemical_formula_sum "Si O2"
_cell_formula_units_Z 48
_cell_length_a 17.978273
_cell_length_b 9.042299
_cell_length_c 15.330292
_cell_angle_alpha 90.000000
_cell_angle_beta 91.433022
_cell_angle_gamma 90.000000
_cell_volume 2491.388248
_symmetry_space_group_name_H-M "C 2/M"
_symmetry_group_IT_number 12
_symmetry_cell_setting 'monoclinic'
loop_
_space_group_symop_operation_xyz
x,y,z
-x,y,-z
-x,-y,-z
x,-y,z
1/2+x,1/2+y,z
1/2-x,1/2+y,-z
1/2-x,1/2-y,-z
1/2+x,1/2-y,z
loop_
_atom_site_type_symbol
_atom_site_label
_atom_site_fract_x
_atom_site_fract_y
_atom_site_fract_z
Si Si1 0.818395 0.171246 0.193877
Si Si2 0.826995 0.171614 0.520450
Si Si3 0.420360 0.671916 0.350064
Si Si4 0.424479 0.172667 0.663604
Si Si5 0.847458 0.328059 0.838838
Si Si6 0.171358 0.828373 0.997032
O O1 0.868112 0.241278 0.272327
O O2 0.734303 0.236556 0.190034
O O3 0.810115 0.000000 0.216788
O O4 0.860733 0.195325 0.102009
O O5 0.750000 0.250000 0.500000
O O6 0.881229 0.194629 0.440857
O O7 0.862418 0.244759 0.606201
O O8 0.812561 0.000000 0.538522
O O9 0.439400 0.500000 0.333436
O O10 0.495243 0.764494 0.355560
O O11 0.406320 0.201529 0.764469
O O12 0.421694 0.000000 0.640661
O O13 0.839932 0.500000 0.861596
O O14 0.877675 0.245460 0.927277
O O15 0.180808 0.000000 0.018156
O O16 0.250000 0.750000 0.000000
#
# Coordination Sequence:
#
# PCOD8107779 Si02
#       6
#     8   8   8   8   8   8
#     4   8  15  31  54  76 101 137 179 220 265 319
#     4  11  23  39  61  86 110 141 181 224 271 325
#     4  10  21  38  57  78 109 147 182 219 270 330
#     4  11  23  38  56  80 112 147 182 225 275 324
#     4   9  18  34  54  76 105 142 183 227 274 321
#     4   9  16  28  50  79 107 138 178 224 273 322
#
# _framework density 19.266368
#
# number of rings (size 3 to 8) (size 9 to 14) (size 15 to 20)
#    0.000    2.333    0.000    4.000    0.000    7.333 
#    0.000    5.000    0.000    5.000    0.000    0.000 
#    0.000    0.000    0.000    0.000    0.000    0.000 
#
# Total GULP energy -297521.866749 kJ/mol
# GULP energy per Si atom -12396.744448 kJ/mol
# Density = 1.922252 g / cm^3
# Si number density = 19.266368 Si / 1000 Ang^3
#
#
#
# Elastic Constant Matrix: (Units=GPa)
#
#
# Indices 1 2 3 4 5 6 
#
# 1 67.5733 31.8783 6.5309 0.0000 -14.3419 0.0000
# 2 31.8783 92.7792 44.1086 0.0000 -16.6819 0.0000
# 3 6.5309 44.1086 74.9497 0.0000 -15.1276 0.0000
# 4 0.0000 0.0000 0.0000 33.3188 0.0000 -2.1815
# 5 -14.3419 -16.6819 -15.1276 0.0000 22.0044 0.0000
# 6 0.0000 0.0000 0.0000 -2.1815 0.0000 29.0207
#
#
#
# Elastic Compliance Matrix: (Units=1/GPa)
#
#
# Indices 1 2 3 4 5 6 
#
# 1 0.020015 -0.007137 0.004641 0.000000 0.010825 0.000000
# 2 -0.007137 0.018261 -0.009602 0.000000 0.002591 0.000000
# 3 0.004641 -0.009602 0.020587 0.000000 0.009898 0.000000
# 4 0.000000 0.000000 0.000000 0.030162 0.000000 0.002267
# 5 0.010825 0.002591 0.009898 0.000000 0.061271 0.000000
# 6 0.000000 0.000000 0.000000 0.002267 0.000000 0.034629
#
#
# Mechanical properties :
#
#
# Convention : Reuss Voigt Hill
#
# Bulk Modulus (GPa) = 28.84609 44.48198 36.66403
# Shear Modulus (GPa) = 22.65775 27.05439 24.85607
#
# Velocity S-wave (km/s) = 3.43304 3.75137 3.59573
# Velocity P-wave (km/s) = 5.54249 6.47315 6.02581
#
# Compressibility (1/GPa) = 0.03466674
#
# Stress axis : x y z
#
# Youngs Moduli (GPa) = 49.96338 54.76038 48.57510
#
# Poissons Ratio (x) = 0.39082 -0.22544
# Poissons Ratio (y) = 0.35659 0.46642
# Poissons Ratio (z) = -0.23188 0.52581
#
# Static dielectric constant tensor:
#      x y z
#    x 3.290920 0.000000 0.286940 
#    y 0.000000 3.490300 0.000000 
#    z 0.286940 0.000000 4.683380 
# 
# 
# High freq. dielectric constant tensor:
#      x y z
#    x 1.725420 0.000000 -0.004900 
#    y 0.000000 1.738810 0.000000 
#    z -0.004900 0.000000 1.771050 
# 
# From -- ./inp_files/221604.got.cif
#   From: 2010.06.25/outbox.cif.g09.slc.cpg/sg12_111_cif.got.tgz:221604.got - 2010.06.28 00:19:55.
