data_PCOD8107990
_publ_section_title
;
Structure prediction by ZEFSAII (Michael W. Deem and Ramdas Pophale) SiO2 
 PCOD8107990
Probable space group: C 2/M
;
_chemical_formula_sum "Si O2"
_cell_formula_units_Z 56
_cell_length_a 17.858093
_cell_length_b 8.762677
_cell_length_c 18.638803
_cell_angle_alpha 90.000000
_cell_angle_beta 104.653146
_cell_angle_gamma 90.000000
_cell_volume 2821.822079
_symmetry_space_group_name_H-M "C 2/M"
_symmetry_group_IT_number 12
_symmetry_cell_setting 'monoclinic'
loop_
_space_group_symop_operation_xyz
x,y,z
-x,y,-z
-x,-y,-z
x,-y,z
1/2+x,1/2+y,z
1/2-x,1/2+y,-z
1/2-x,1/2-y,-z
1/2+x,1/2-y,z
loop_
_atom_site_type_symbol
_atom_site_label
_atom_site_fract_x
_atom_site_fract_y
_atom_site_fract_z
Si Si1 0.409472 0.667849 0.491963
Si Si2 0.809063 0.321435 0.069924
Si Si3 0.263063 0.679019 0.207788
Si Si4 0.533750 0.675190 0.930977
Si Si5 0.458606 0.679494 0.653491
Si Si6 0.620633 0.178222 0.656422
Si Si7 0.105456 0.176365 0.209304
O O1 0.500000 0.656164 0.500000
O O2 0.371761 0.500000 0.472260
O O3 0.401719 0.722888 0.572977
O O4 0.371551 0.784978 0.426706
O O5 0.794460 0.500000 0.068205
O O6 0.797123 0.256722 0.145861
O O7 0.895520 0.287045 0.065768
O O8 0.750000 0.250000 0.000000
O O9 0.272654 0.500000 0.201256
O O10 0.310155 0.735051 0.287961
O O11 0.173420 0.719507 0.195524
O O12 0.562285 0.500000 0.934741
O O13 0.469920 0.707821 0.855796
O O14 0.500000 0.715515 0.000000
O O15 0.479284 0.500000 0.656851
O O16 0.538793 0.770600 0.669151
O O17 0.413272 0.725332 0.714011
O O18 0.631188 0.000000 0.670844
O O19 0.131020 0.000000 0.210938
#
# Coordination Sequence:
#
# PCOD8107990 Si02
#       7
#     8   8   8   8   8   8   8
#     4   8  15  30  52  79 111 148 190 235 289 349
#     4  12  25  42  65  92 122 154 193 237 281 334
#     4  12  25  41  60  83 116 155 195 238 287 342
#     4  10  21  38  62  91 123 157 191 232 284 340
#     4   9  18  34  57  83 114 152 191 237 294 352
#     4  11  21  34  56  85 115 148 192 242 289 342
#     4  10  21  38  59  84 116 152 192 239 291 345
#
# _framework density 19.845334000000001
#
# number of rings (size 3 to 8) (size 9 to 14) (size 15 to 20)
#    0.000    1.714    0.000    6.429    0.000    6.286 
#    0.000    0.714    0.000    0.000    0.000    0.000 
#    0.000    0.000    0.000    0.000    0.000    0.000 
#
# Total GULP energy -347272.921295 kJ/mol
# GULP energy per Si atom -12402.604332 kJ/mol
# Density = 1.980016 g / cm^3
# Si number density = 19.845334 Si / 1000 Ang^3
#
#
#
# Elastic Constant Matrix: (Units=GPa)
#
#
# Indices 1 2 3 4 5 6 
#
# 1 85.1114 46.7440 47.7348 0.0000 -3.2473 0.0000
# 2 46.7440 128.3161 47.9940 0.0000 1.5265 0.0000
# 3 47.7348 47.9940 142.6597 0.0000 -11.5880 0.0000
# 4 0.0000 0.0000 0.0000 28.8132 0.0000 -0.2904
# 5 -3.2473 1.5265 -11.5880 0.0000 26.5494 0.0000
# 6 0.0000 0.0000 0.0000 -0.2904 0.0000 31.5818
#
#
#
# Elastic Compliance Matrix: (Units=1/GPa)
#
#
# Indices 1 2 3 4 5 6 
#
# 1 0.016470 -0.004532 -0.003941 0.000000 0.000555 0.000000
# 2 -0.004532 0.010255 -0.002101 0.000000 -0.002061 0.000000
# 3 -0.003941 -0.002101 0.009337 0.000000 0.003714 0.000000
# 4 0.000000 0.000000 0.000000 0.034710 0.000000 0.000319
# 5 0.000555 -0.002061 0.003714 0.000000 0.039473 0.000000
# 6 0.000000 0.000000 0.000000 0.000319 0.000000 0.031667
#
#
# Mechanical properties :
#
#
# Convention : Reuss Voigt Hill
#
# Bulk Modulus (GPa) = 67.05525 71.22587 69.14056
# Shear Modulus (GPa) = 29.75655 31.62983 30.69319
#
# Velocity S-wave (km/s) = 3.87644 3.99660 3.93698
# Velocity P-wave (km/s) = 7.34152 7.56739 7.45531
#
# Compressibility (1/GPa) = 0.01491308
#
# Stress axis : x y z
#
# Youngs Moduli (GPa) = 60.71613 97.51739 107.10281
#
# Poissons Ratio (x) = 0.44198 0.42211
# Poissons Ratio (y) = 0.27519 0.22499
# Poissons Ratio (z) = 0.23929 0.20486
#
# Static dielectric constant tensor:
#      x y z
#    x 3.407310 0.000000 -0.140690 
#    y 0.000000 3.578630 0.000000 
#    z -0.140690 0.000000 4.177030 
# 
# 
# High freq. dielectric constant tensor:
#      x y z
#    x 1.756350 0.000000 -0.004120 
#    y 0.000000 1.769040 0.000000 
#    z -0.004120 0.000000 1.798830 
# 
# From -- ./inp_files/275497.got.cif
#   From: 2010.06.25/outbox.cif.g09.slc.cpg/sg12_138_cif.got.tgz:275497.got - 2010.06.28 00:19:55.
