data_PCOD8107334
_publ_section_title
;
Structure prediction by ZEFSAII (Michael W. Deem and Ramdas Pophale) SiO2 
 PCOD8107334
Probable space group: C 2/M
;
_chemical_formula_sum "Si O2"
_cell_formula_units_Z 64
_cell_length_a 17.743214
_cell_length_b 21.731589
_cell_length_c 12.322869
_cell_angle_alpha 90.000000
_cell_angle_beta 135.853380
_cell_angle_gamma 90.000000
_cell_volume 3309.442075
_symmetry_space_group_name_H-M "C 2/M"
_symmetry_group_IT_number 12
_symmetry_cell_setting 'monoclinic'
loop_
_space_group_symop_operation_xyz
x,y,z
-x,y,-z
-x,-y,-z
x,-y,z
1/2+x,1/2+y,z
1/2-x,1/2+y,-z
1/2-x,1/2-y,-z
1/2+x,1/2-y,z
loop_
_atom_site_type_symbol
_atom_site_label
_atom_site_fract_x
_atom_site_fract_y
_atom_site_fract_z
Si Si1 0.708870 0.428032 0.265264
Si Si2 0.623818 0.429787 0.952977
Si Si3 0.873791 0.930876 0.377471
Si Si4 0.123692 0.333522 0.631972
Si Si5 0.217788 0.843176 0.894512
Si Si6 0.097243 0.724565 0.827409
Si Si7 0.637721 0.251905 0.448505
Si Si8 0.395171 0.389944 0.625275
O O1 0.726747 0.500000 0.306512
O O2 0.818103 0.397060 0.336566
O O3 0.678346 0.393736 0.344236
O O4 0.619024 0.416705 0.077928
O O5 0.652780 0.500000 0.964272
O O6 0.720155 0.392935 0.994223
O O7 0.512286 0.414676 0.778461
O O8 0.806830 0.879047 0.242981
O O9 0.843735 0.929848 0.474447
O O10 0.000000 0.914281 0.500000
O O11 0.849807 0.000000 0.308155
O O12 0.148448 0.310021 0.777053
O O13 0.157040 0.277601 0.586099
O O14 0.000000 0.350907 0.500000
O O15 0.123490 0.796114 0.834666
O O16 0.333551 0.807101 0.003187
O O17 0.967514 0.716639 0.713656
O O18 0.750000 0.250000 0.500000
O O19 0.600095 0.321770 0.418291
#
# Coordination Sequence:
#
# PCOD8107334 Si02
#       8
#     8   8   8   8   8   8   8   8
#     4  11  23  38  58  87 122 161 200 249 312 372
#     4  11  21  36  58  88 124 161 200 250 311 374
#     4  11  21  34  57  88 121 159 205 253 302 362
#     4  10  21  38  60  88 118 152 201 251 302 361
#     4  11  20  35  59  87 122 158 200 246 306 368
#     4  10  21  37  59  87 120 159 197 249 307 359
#     4  11  21  37  62  89 121 156 203 251 304 371
#     4  12  22  38  58  88 123 161 201 255 315 368
#
# _framework density 19.338607
#
# number of rings (size 3 to 8) (size 9 to 14) (size 15 to 20)
#    0.000    1.125    5.000    2.625    0.000    2.250 
#    0.000    0.000    0.000    0.000    0.000    0.875 
#    0.000    0.000    0.000    0.000    0.000    0.000 
#
# Total GULP energy -396529.143643 kJ/mol
# GULP energy per Si atom -12391.535739 kJ/mol
# Density = 1.929459 g / cm^3
# Si number density = 19.338607 Si / 1000 Ang^3
#
#
#
# Elastic Constant Matrix: (Units=GPa)
#
#
# Indices 1 2 3 4 5 6 
#
# 1 82.3410 19.9026 44.4111 0.0000 4.5642 0.0000
# 2 19.9026 87.3850 49.8056 0.0000 -1.1432 0.0000
# 3 44.4111 49.8056 105.7056 0.0000 -6.7790 0.0000
# 4 0.0000 0.0000 0.0000 36.4988 0.0000 -0.6536
# 5 4.5642 -1.1432 -6.7790 0.0000 31.9650 0.0000
# 6 0.0000 0.0000 0.0000 -0.6536 0.0000 25.8483
#
#
#
# Elastic Compliance Matrix: (Units=1/GPa)
#
#
# Indices 1 2 3 4 5 6 
#
# 1 0.016154 0.000381 -0.007212 0.000000 -0.003822 0.000000
# 2 0.000381 0.015687 -0.007622 0.000000 -0.001110 0.000000
# 3 -0.007212 -0.007622 0.016353 0.000000 0.004225 0.000000
# 4 0.000000 0.000000 0.000000 0.027411 0.000000 0.000693
# 5 -0.003822 -0.001110 0.004225 0.000000 0.032686 0.000000
# 6 0.000000 0.000000 0.000000 0.000693 0.000000 0.038705
#
#
# Mechanical properties :
#
#
# Convention : Reuss Voigt Hill
#
# Bulk Modulus (GPa) = 51.84741 55.96335 53.90538
# Shear Modulus (GPa) = 27.42277 29.61658 28.51968
#
# Velocity S-wave (km/s) = 3.76976 3.91765 3.84442
# Velocity P-wave (km/s) = 6.76880 7.03317 6.90225
#
# Compressibility (1/GPa) = 0.01928737
#
# Stress axis : x y z
#
# Youngs Moduli (GPa) = 61.90413 63.74796 61.15232
#
# Poissons Ratio (x) = -0.02430 0.44101
# Poissons Ratio (y) = -0.02359 0.46613
# Poissons Ratio (z) = 0.44643 0.48592
#
# Static dielectric constant tensor:
#      x y z
#    x 3.455160 0.000000 -0.243850 
#    y 0.000000 3.663010 0.000000 
#    z -0.243850 0.000000 3.830360 
# 
# 
# High freq. dielectric constant tensor:
#      x y z
#    x 1.726250 0.000000 -0.011700 
#    y 0.000000 1.763970 0.000000 
#    z -0.011700 0.000000 1.755510 
# 
# From -- ./inp_files/159568.got.cif
#   From: 2010.06.25/outbox.cif.g09.slc.cpg/sg12_80_cif.got.tgz:159568.got - 2010.06.28 00:19:55.
