data_PCOD8107518
_publ_section_title
;
Structure prediction by ZEFSAII (Michael W. Deem and Ramdas Pophale) SiO2 
 PCOD8107518
Probable space group: C 2/M
;
_chemical_formula_sum "Si O2"
_cell_formula_units_Z 56
_cell_length_a 19.462657
_cell_length_b 7.852941
_cell_length_c 28.059454
_cell_angle_alpha 90.000000
_cell_angle_beta 40.929621
_cell_angle_gamma 90.000000
_cell_volume 2809.584865
_symmetry_space_group_name_H-M "C 2/M"
_symmetry_group_IT_number 12
_symmetry_cell_setting 'monoclinic'
loop_
_space_group_symop_operation_xyz
x,y,z
-x,y,-z
-x,-y,-z
x,-y,z
1/2+x,1/2+y,z
1/2-x,1/2+y,-z
1/2-x,1/2-y,-z
1/2+x,1/2-y,z
loop_
_atom_site_type_symbol
_atom_site_label
_atom_site_fract_x
_atom_site_fract_y
_atom_site_fract_z
Si Si1 0.098519 0.700185 0.479958
Si Si2 0.031404 0.000000 0.907512
Si Si3 0.200928 0.802997 0.683231
Si Si4 0.715415 0.308922 0.166509
Si Si5 0.154220 0.309018 0.809389
Si Si6 0.631365 0.307570 0.564828
Si Si7 0.983880 0.693104 0.285578
Si Si8 0.665469 0.500000 0.932313
O O1 0.105321 0.500000 0.485730
O O2 0.205107 0.766380 0.399227
O O3 0.080662 0.792986 0.539393
O O4 0.000000 0.752037 0.500000
O O5 0.060842 0.170630 0.862764
O O6 0.091553 0.000000 0.925496
O O7 0.906440 0.000000 0.982575
O O8 0.205493 0.702274 0.730449
O O9 0.090872 0.775646 0.714738
O O10 0.218568 0.000000 0.685667
O O11 0.748828 0.500000 0.133158
O O12 0.755626 0.270284 0.198995
O O13 0.590456 0.299212 0.231452
O O14 0.764235 0.171125 0.104503
O O15 0.108561 0.500000 0.840756
O O16 0.625281 0.500000 0.586897
O O17 0.750000 0.250000 0.500000
O O18 0.569279 0.192306 0.634714
O O19 0.008931 0.500000 0.257968
#
# Coordination Sequence:
#
# PCOD8107518 Si02
#       8
#     8   4   8   8   8   8   8   4
#     4  10  23  41  59  84 114 153 197 248 309 356
#     4   9  18  36  62  92 126 159 195 240 298 351
#     4  11  22  38  60  85 119 158 202 251 298 360
#     4  10  21  38  60  93 125 156 200 248 298 353
#     4  10  21  37  60  91 124 159 201 246 296 358
#     4  12  24  40  59  83 115 152 202 252 300 356
#     4  12  24  39  61  86 117 160 202 250 305 356
#     4   9  18  36  62  94 125 158 195 241 297 359
#
# _framework density 19.931771000000001
#
# number of rings (size 3 to 8) (size 9 to 14) (size 15 to 20)
#    0.000    1.429    2.857    3.000    2.000    1.429 
#    0.000    2.857    0.000    0.857    0.000    0.000 
#    0.000    0.000    0.000    0.000    0.000    0.000 
#
# Total GULP energy -347296.595932 kJ/mol
# GULP energy per Si atom -12403.449855 kJ/mol
# Density = 1.988641 g / cm^3
# Si number density = 19.931771 Si / 1000 Ang^3
#
#
#
# Elastic Constant Matrix: (Units=GPa)
#
#
# Indices 1 2 3 4 5 6 
#
# 1 85.2708 19.0952 26.9521 -0.0001 -11.6693 0.0038
# 2 19.0952 113.5096 31.4638 -0.0009 -6.0984 0.0011
# 3 26.9521 31.4638 82.9220 0.0036 -16.3142 -0.0028
# 4 -0.0001 -0.0009 0.0036 22.9747 0.0004 0.2221
# 5 -11.6693 -6.0984 -16.3142 0.0004 24.1055 0.0038
# 6 0.0038 0.0011 -0.0028 0.2221 0.0038 26.6876
#
#
#
# Elastic Compliance Matrix: (Units=1/GPa)
#
#
# Indices 1 2 3 4 5 6 
#
# 1 0.013552 -0.001187 -0.003141 0.000000 0.004134 -0.000003
# 2 -0.001187 0.009949 -0.003469 0.000001 -0.000405 -0.000001
# 3 -0.003141 -0.003469 0.016064 -0.000003 0.008474 0.000001
# 4 0.000000 0.000001 -0.000003 0.043530 -0.000002 -0.000362
# 5 0.004134 -0.000405 0.008474 -0.000002 0.049118 -0.000007
# 6 -0.000003 -0.000001 0.000001 -0.000362 -0.000007 0.037474
#
#
# Mechanical properties :
#
#
# Convention : Reuss Voigt Hill
#
# Bulk Modulus (GPa) = 41.71741 48.52495 45.12118
# Shear Modulus (GPa) = 25.87050 28.36632 27.11841
#
# Velocity S-wave (km/s) = 3.60662 3.77659 3.69258
# Velocity P-wave (km/s) = 6.19025 6.58902 6.39274
#
# Compressibility (1/GPa) = 0.02397081
#
# Stress axis : x y z
#
# Youngs Moduli (GPa) = 73.79155 100.50926 62.25156
#
# Poissons Ratio (x) = 0.11930 0.19553
# Poissons Ratio (y) = 0.08759 0.21596
# Poissons Ratio (z) = 0.23177 0.34868
#
# Static dielectric constant tensor:
#      x y z
#    x 3.498310 -0.000040 0.058300 
#    y -0.000040 3.770380 -0.000010 
#    z 0.058300 -0.000010 3.655570 
# 
# 
# High freq. dielectric constant tensor:
#      x y z
#    x 1.764850 0.000000 -0.001810 
#    y 0.000000 1.790880 0.000000 
#    z -0.001810 0.000000 1.762160 
# 
# From -- ./inp_files/363060.got.cif
#   From: 2010.06.25/outbox.cif.g09.slc.cpg/sg12_182_cif.got.tgz:363060.got - 2010.06.28 00:19:55.
