data_PCOD8107148
_publ_section_title
;
Structure prediction by ZEFSAII (Michael W. Deem and Ramdas Pophale) SiO2 
 PCOD8107148
Probable space group: C 2/M
;
_chemical_formula_sum "Si O2"
_cell_formula_units_Z 64
_cell_length_a 28.214343
_cell_length_b 9.037813
_cell_length_c 14.584408
_cell_angle_alpha 90.000000
_cell_angle_beta 59.165035
_cell_angle_gamma 90.000000
_cell_volume 3193.279161
_symmetry_space_group_name_H-M "C 2/M"
_symmetry_group_IT_number 12
_symmetry_cell_setting 'monoclinic'
loop_
_space_group_symop_operation_xyz
x,y,z
-x,y,-z
-x,-y,-z
x,-y,z
1/2+x,1/2+y,z
1/2-x,1/2+y,-z
1/2-x,1/2-y,-z
1/2+x,1/2-y,z
loop_
_atom_site_type_symbol
_atom_site_label
_atom_site_fract_x
_atom_site_fract_y
_atom_site_fract_z
Si Si1 0.939296 0.326104 0.280850
Si Si2 0.563211 0.824898 0.194409
Si Si3 0.629371 0.169941 0.480674
Si Si4 0.758060 0.169977 0.850204
Si Si5 0.151526 0.829070 0.981903
Si Si6 0.248484 0.666949 0.326604
Si Si7 0.119635 0.172983 0.297363
Si Si8 0.867260 0.165441 0.214053
O O1 0.933338 0.500000 0.287516
O O2 0.906259 0.260850 0.401214
O O3 0.912724 0.271292 0.212514
O O4 0.002551 0.275867 0.221859
O O5 0.572930 0.752791 0.284032
O O6 0.568828 0.000000 0.197436
O O7 0.605950 0.764989 0.078461
O O8 0.694435 0.181309 0.444369
O O9 0.617605 0.260006 0.400448
O O10 0.612522 0.000000 0.479176
O O11 0.713320 0.271863 0.947864
O O12 0.755798 0.206976 0.745192
O O13 0.821945 0.200093 0.814411
O O14 0.741606 0.000000 0.881882
O O15 0.140415 0.802170 0.885813
O O16 0.147166 0.000000 0.015315
O O17 0.249673 0.500000 0.280562
O O18 0.306758 0.689116 0.321929
O O19 0.106978 0.000000 0.317737
O O20 0.888900 0.000000 0.208647
#
# Coordination Sequence:
#
# PCOD8107148 Si02
#       8
#     8   8   8   8   8   8   8   8
#     4  10  23  39  55  79 109 145 190 232 269 317
#     4  11  24  40  56  77 107 145 190 232 271 320
#     4   9  18  36  59  81 111 148 182 221 270 322
#     4   9  17  31  54  84 113 139 172 216 269 328
#     4  10  21  38  59  83 111 143 180 222 272 328
#     4   8  15  30  53  81 111 143 178 215 264 326
#     4  10  21  37  58  85 113 142 179 223 273 326
#     4   9  19  35  56  82 111 142 176 221 276 328
#
# _framework density 20.042093999999999
#
# number of rings (size 3 to 8) (size 9 to 14) (size 15 to 20)
#    0.000    2.500    0.000    2.250    0.000    7.500 
#    0.000    5.000    0.000    0.000    0.000    0.000 
#    0.000    0.000    0.000    0.000    0.000    0.000 
#
# Total GULP energy -396652.852044 kJ/mol
# GULP energy per Si atom -12395.401626 kJ/mol
# Density = 1.999648 g / cm^3
# Si number density = 20.042094 Si / 1000 Ang^3
#
#
#
# Elastic Constant Matrix: (Units=GPa)
#
#
# Indices 1 2 3 4 5 6 
#
# 1 96.6265 35.5189 4.5157 0.0000 -5.9331 0.0000
# 2 35.5189 65.3737 11.2595 0.0000 -2.7911 0.0000
# 3 4.5157 11.2595 44.6737 0.0000 -12.7513 0.0000
# 4 0.0000 0.0000 0.0000 26.3599 0.0000 1.0259
# 5 -5.9331 -2.7911 -12.7513 0.0000 23.5601 0.0000
# 6 0.0000 0.0000 0.0000 1.0259 0.0000 30.8330
#
#
#
# Elastic Compliance Matrix: (Units=1/GPa)
#
#
# Indices 1 2 3 4 5 6 
#
# 1 0.013145 -0.007249 0.001417 0.000000 0.003218 0.000000
# 2 -0.007249 0.019990 -0.004909 0.000000 -0.002114 0.000000
# 3 0.001417 -0.004909 0.027692 0.000000 0.014763 0.000000
# 4 0.000000 0.000000 0.000000 0.037986 0.000000 -0.001264
# 5 0.003218 -0.002114 0.014763 0.000000 0.050995 0.000000
# 6 0.000000 0.000000 0.000000 -0.001264 0.000000 0.032475
#
#
# Mechanical properties :
#
#
# Convention : Reuss Voigt Hill
#
# Bulk Modulus (GPa) = 25.41550 34.36248 29.88899
# Shear Modulus (GPa) = 23.05423 26.50924 24.78173
#
# Velocity S-wave (km/s) = 3.39527 3.64081 3.52018
# Velocity P-wave (km/s) = 5.29897 5.90393 5.60961
#
# Compressibility (1/GPa) = 0.03934607
#
# Stress axis : x y z
#
# Youngs Moduli (GPa) = 76.07430 50.02445 36.11094
#
# Poissons Ratio (x) = 0.36261 -0.05116
# Poissons Ratio (y) = 0.55143 0.17727
# Poissons Ratio (z) = -0.10778 0.24557
#
# Static dielectric constant tensor:
#      x y z
#    x 3.731670 0.000000 -0.288670 
#    y 0.000000 3.587150 0.000000 
#    z -0.288670 0.000000 3.546170 
# 
# 
# High freq. dielectric constant tensor:
#      x y z
#    x 1.780090 0.000000 -0.013890 
#    y 0.000000 1.782110 0.000000 
#    z -0.013890 0.000000 1.769960 
# 
# From -- ./inp_files/249031.got.cif
#   From: 2010.06.25/outbox.cif.g09.slc.cpg/sg12_125_cif.got.tgz:249031.got - 2010.06.28 00:19:55.
