data_PCOD8107145
_publ_section_title
;
Structure prediction by ZEFSAII (Michael W. Deem and Ramdas Pophale) SiO2 
 PCOD8107145
Probable space group: C 2/M
;
_chemical_formula_sum "Si O2"
_cell_formula_units_Z 48
_cell_length_a 14.056445
_cell_length_b 19.280162
_cell_length_c 12.176571
_cell_angle_alpha 90.000000
_cell_angle_beta 48.419486
_cell_angle_gamma 90.000000
_cell_volume 2468.463012
_symmetry_space_group_name_H-M "C 2/M"
_symmetry_group_IT_number 12
_symmetry_cell_setting 'monoclinic'
loop_
_space_group_symop_operation_xyz
x,y,z
-x,y,-z
-x,-y,-z
x,-y,z
1/2+x,1/2+y,z
1/2-x,1/2+y,-z
1/2-x,1/2-y,-z
1/2+x,1/2-y,z
loop_
_atom_site_type_symbol
_atom_site_label
_atom_site_fract_x
_atom_site_fract_y
_atom_site_fract_z
Si Si1 0.754417 0.716225 0.319945
Si Si2 0.260243 0.077716 0.566712
Si Si3 0.924444 0.704691 0.389800
Si Si4 0.141346 0.922708 0.432193
Si Si5 0.148875 0.920301 0.887007
Si Si6 0.277225 0.207806 0.869704
O O1 0.870893 0.729940 0.313453
O O2 0.625011 0.744600 0.476147
O O3 0.734536 0.634562 0.307941
O O4 0.790811 0.753319 0.179181
O O5 0.379050 0.126670 0.449737
O O6 0.150617 0.084512 0.557689
O O7 0.198573 0.099572 0.728427
O O8 0.315028 0.000000 0.529303
O O9 0.074637 0.704925 0.270059
O O10 0.000000 0.908116 0.500000
O O11 0.185319 0.000000 0.361746
O O12 0.218261 0.869793 0.921684
O O13 0.179620 0.000000 0.895233
O O14 0.000000 0.906601 0.000000
O O15 0.250000 0.250000 0.000000
#
# Coordination Sequence:
#
# PCOD8107145 Si02
#       6
#     8   8   8   8   8   8
#     4  10  21  37  58  84 121 151 201 254 306 361
#     4   9  18  35  61  89 116 152 196 254 308 361
#     4  10  21  38  61  87 114 157 197 255 310 361
#     4   9  17  30  53  84 116 151 197 244 298 360
#     4  10  23  41  61  88 126 165 205 254 315 375
#     4  12  26  38  60  89 121 162 208 252 311 370
#
# _framework density 19.445298000000001
#
# number of rings (size 3 to 8) (size 9 to 14) (size 15 to 20)
#    0.000    2.000    1.667    1.500    2.333    2.000 
#    0.000    4.167    0.000    0.000    0.000    5.833 
#    0.000    0.000    0.000    0.000    0.000    0.000 
#
# Total GULP energy -297582.873938 kJ/mol
# GULP energy per Si atom -12399.286414 kJ/mol
# Density = 1.940104 g / cm^3
# Si number density = 19.445298 Si / 1000 Ang^3
#
#
#
# Elastic Constant Matrix: (Units=GPa)
#
#
# Indices 1 2 3 4 5 6 
#
# 1 70.8327 44.4558 33.0396 -0.0001 8.6807 0.0001
# 2 44.4558 116.5798 38.3473 0.0000 12.9331 0.0000
# 3 33.0396 38.3473 75.5996 -0.0001 12.0686 0.0001
# 4 -0.0001 0.0000 -0.0001 24.8418 0.0001 2.2837
# 5 8.6807 12.9331 12.0686 0.0001 28.9398 -0.0001
# 6 0.0001 0.0000 0.0001 2.2837 -0.0001 34.2814
#
#
#
# Elastic Compliance Matrix: (Units=1/GPa)
#
#
# Indices 1 2 3 4 5 6 
#
# 1 0.020655 -0.005810 -0.005898 0.000000 -0.001140 0.000000
# 2 -0.005810 0.012115 -0.003235 0.000000 -0.002322 0.000000
# 3 -0.005898 -0.003235 0.018141 0.000000 -0.004350 0.000000
# 4 0.000000 0.000000 0.000000 0.040503 0.000000 -0.002698
# 5 -0.001140 -0.002322 -0.004350 0.000000 0.037748 0.000000
# 6 0.000000 0.000000 0.000000 -0.002698 0.000000 0.029350
#
#
# Mechanical properties :
#
#
# Convention : Reuss Voigt Hill
#
# Bulk Modulus (GPa) = 47.56423 54.96639 51.26531
# Shear Modulus (GPa) = 25.58764 27.42389 26.50576
#
# Velocity S-wave (km/s) = 3.63144 3.75948 3.69602
# Velocity P-wave (km/s) = 6.48820 6.86830 6.68095
#
# Compressibility (1/GPa) = 0.02102420
#
# Stress axis : x y z
#
# Youngs Moduli (GPa) = 48.41456 82.54063 55.12437
#
# Poissons Ratio (x) = 0.47956 0.32512
# Poissons Ratio (y) = 0.28129 0.17835
# Poissons Ratio (z) = 0.28555 0.26706
#
# Static dielectric constant tensor:
#      x y z
#    x 3.559020 0.000000 0.198170 
#    y 0.000000 3.930600 0.000000 
#    z 0.198170 0.000000 3.267240 
# 
# 
# High freq. dielectric constant tensor:
#      x y z
#    x 1.759060 0.000000 0.012460 
#    y 0.000000 1.780420 0.000000 
#    z 0.012460 0.000000 1.721040 
# 
# From -- ./inp_files/132989.got.cif
#   From: 2010.06.25/outbox.cif.g09.slc.cpg/sg12_67_cif.got.tgz:132989.got - 2010.06.28 00:19:55.
