data_PCOD8107307
_publ_section_title
;
Structure prediction by ZEFSAII (Michael W. Deem and Ramdas Pophale) SiO2 
 PCOD8107307
Probable space group: C 2/M
;
_chemical_formula_sum "Si O2"
_cell_formula_units_Z 56
_cell_length_a 29.717180
_cell_length_b 12.478127
_cell_length_c 9.171039
_cell_angle_alpha 90.000000
_cell_angle_beta 57.711969
_cell_angle_gamma 90.000000
_cell_volume 2874.909220
_symmetry_space_group_name_H-M "C 2/M"
_symmetry_group_IT_number 12
_symmetry_cell_setting 'monoclinic'
loop_
_space_group_symop_operation_xyz
x,y,z
-x,y,-z
-x,-y,-z
x,-y,z
1/2+x,1/2+y,z
1/2-x,1/2+y,-z
1/2-x,1/2-y,-z
1/2+x,1/2-y,z
loop_
_atom_site_type_symbol
_atom_site_label
_atom_site_fract_x
_atom_site_fract_y
_atom_site_fract_z
Si Si1 0.949482 0.379745 0.508066
Si Si2 0.859152 0.757621 0.790459
Si Si3 0.573952 0.620271 0.104742
Si Si4 0.698073 0.377194 0.366002
Si Si5 0.128866 0.208026 0.745776
Si Si6 0.177761 0.624074 0.869587
Si Si7 0.979034 0.277410 0.184447
O O1 0.940472 0.500000 0.578053
O O2 0.895927 0.316018 0.626736
O O3 0.965751 0.376703 0.310932
O O4 0.000000 0.326038 0.500000
O O5 0.895138 0.848892 0.801585
O O6 0.817355 0.811089 0.752370
O O7 0.831291 0.684149 0.960982
O O8 0.552375 0.500000 0.157354
O O9 0.523501 0.697151 0.170128
O O10 0.616505 0.625523 0.898362
O O11 0.680027 0.500000 0.375763
O O12 0.674367 0.332420 0.558240
O O13 0.760806 0.367572 0.277228
O O14 0.144814 0.321034 0.794739
O O15 0.075337 0.213118 0.744034
O O16 0.159428 0.500000 0.914874
O O17 0.000000 0.330081 0.000000
#
# Coordination Sequence:
#
# PCOD8107307 Si02
#       7
#     8   8   8   8   8   8   8
#     4  11  22  38  58  82 114 152 191 233 286 343
#     4  11  21  40  60  86 120 153 191 240 291 348
#     4  10  21  37  59  86 119 157 191 229 288 352
#     4  11  22  38  62  90 117 150 197 247 295 343
#     4  10  21  38  60  83 119 153 193 239 286 342
#     4  10  23  41  61  85 116 157 198 243 295 342
#     4  10  21  38  56  85 116 148 187 236 282 342
#
# _framework density 19.478876
#
# number of rings (size 3 to 8) (size 9 to 14) (size 15 to 20)
#    0.000    1.571    2.857    2.143    0.000    4.000 
#    0.000    0.714    0.000    6.000    0.000    0.000 
#    0.000    0.000    0.000    0.000    0.000    0.000 
#
# Total GULP energy -347091.550966 kJ/mol
# GULP energy per Si atom -12396.126820 kJ/mol
# Density = 1.943454 g / cm^3
# Si number density = 19.478876 Si / 1000 Ang^3
#
#
#
# Elastic Constant Matrix: (Units=GPa)
#
#
# Indices 1 2 3 4 5 6 
#
# 1 71.7325 23.8257 18.2924 0.0000 0.5169 0.0000
# 2 23.8257 90.2341 37.4203 0.0000 2.2899 0.0000
# 3 18.2924 37.4203 117.8752 0.0000 -0.5931 0.0000
# 4 0.0000 0.0000 0.0000 18.8042 0.0000 3.9127
# 5 0.5169 2.2899 -0.5931 0.0000 28.6022 0.0000
# 6 0.0000 0.0000 0.0000 3.9127 0.0000 17.3136
#
#
#
# Elastic Compliance Matrix: (Units=1/GPa)
#
#
# Indices 1 2 3 4 5 6 
#
# 1 0.015444 -0.003551 -0.001270 0.000000 -0.000021 0.000000
# 2 -0.003551 0.013614 -0.003776 0.000000 -0.001104 0.000000
# 3 -0.001270 -0.003776 0.009882 0.000000 0.000530 0.000000
# 4 0.000000 0.000000 0.000000 0.055804 0.000000 -0.012611
# 5 -0.000021 -0.001104 0.000530 0.000000 0.035062 0.000000
# 6 0.000000 0.000000 0.000000 -0.012611 0.000000 0.060608
#
#
# Mechanical properties :
#
#
# Convention : Reuss Voigt Hill
#
# Bulk Modulus (GPa) = 45.98441 48.76872 47.37657
# Shear Modulus (GPa) = 23.27138 26.29756 24.78447
#
# Velocity S-wave (km/s) = 3.46019 3.67830 3.57091
# Velocity P-wave (km/s) = 6.29464 6.56741 6.43247
#
# Compressibility (1/GPa) = 0.02174650
#
# Stress axis : x y z
#
# Youngs Moduli (GPa) = 64.75012 73.45408 101.19345
#
# Poissons Ratio (x) = 0.26083 0.12847
# Poissons Ratio (y) = 0.22992 0.38214
# Poissons Ratio (z) = 0.08220 0.27739
#
# Static dielectric constant tensor:
#      x y z
#    x 3.546180 0.000000 0.027500 
#    y 0.000000 3.413400 0.000000 
#    z 0.027500 0.000000 3.776170 
# 
# 
# High freq. dielectric constant tensor:
#      x y z
#    x 1.762820 0.000000 0.000660 
#    y 0.000000 1.747510 0.000000 
#    z 0.000660 0.000000 1.773800 
# 
# From -- ./inp_files/103282.got.cif
#   From: 2010.06.25/outbox.cif.g09.slc.cpg/sg12_52_cif.got.tgz:103282.got - 2010.06.28 00:19:55.
