data_PCOD8107441
_publ_section_title
;
Structure prediction by ZEFSAII (Michael W. Deem and Ramdas Pophale) SiO2 
 PCOD8107441
Probable space group: C 2/M
;
_chemical_formula_sum "Si O2"
_cell_formula_units_Z 56
_cell_length_a 19.428023
_cell_length_b 12.927261
_cell_length_c 12.928716
_cell_angle_alpha 90.000000
_cell_angle_beta 131.186671
_cell_angle_gamma 90.000000
_cell_volume 2443.635019
_symmetry_space_group_name_H-M "C 2/M"
_symmetry_group_IT_number 12
_symmetry_cell_setting 'monoclinic'
loop_
_space_group_symop_operation_xyz
x,y,z
-x,y,-z
-x,-y,-z
x,-y,z
1/2+x,1/2+y,z
1/2-x,1/2+y,-z
1/2-x,1/2-y,-z
1/2+x,1/2-y,z
loop_
_atom_site_type_symbol
_atom_site_label
_atom_site_fract_x
_atom_site_fract_y
_atom_site_fract_z
Si Si1 0.027683 0.883810 0.418754
Si Si2 0.201344 0.885015 0.485087
Si Si3 0.369986 0.886228 0.794661
Si Si4 0.991449 0.620227 0.720387
Si Si5 0.317968 0.122199 0.415965
Si Si6 0.718634 0.738655 0.140347
Si Si7 0.370766 0.697224 0.146827
O O1 0.943460 0.887297 0.256184
O O2 0.000000 0.828517 0.500000
O O3 0.112883 0.825069 0.445858
O O4 0.059956 0.000000 0.476914
O O5 0.271667 0.896181 0.646719
O O6 0.247107 0.828195 0.431121
O O7 0.170354 0.000000 0.418180
O O8 0.444034 0.850627 0.782887
O O9 0.358979 0.803631 0.875649
O O10 0.397378 0.000000 0.865979
O O11 0.020021 0.500000 0.747427
O O12 0.922336 0.642630 0.555471
O O13 0.081742 0.689244 0.796113
O O14 0.288458 0.171673 0.278553
O O15 0.302575 0.000000 0.395637
O O16 0.782743 0.812289 0.134177
O O17 0.659971 0.670114 0.000786
#
# Coordination Sequence:
#
# PCOD8107441 Si02
#       7
#     8   8   8   8   8   8   8
#     4  10  21  37  60  87 116 155 197 243 299 356
#     4   8  16  33  58  89 113 140 193 246 290 345
#     4   9  19  38  64  91 119 156 203 252 302 357
#     4   9  21  41  66  94 120 155 210 265 301 348
#     4   9  20  39  63  89 118 156 201 249 304 363
#     4  11  25  40  56  85 124 167 199 240 313 374
#     4  11  26  40  55  88 126 158 202 251 303 367
#
# _framework density 22.916679999999999
#
# number of rings (size 3 to 8) (size 9 to 14) (size 15 to 20)
#    0.000    2.429    0.000    2.571    6.000    5.143 
#    0.000    5.714    0.000    2.571    0.000    0.000 
#    0.000    0.000    0.000    0.000    0.000    0.000 
#
# Total GULP energy -346990.843344 kJ/mol
# GULP energy per Si atom -12392.530119 kJ/mol
# Density = 2.286452 g / cm^3
# Si number density = 22.916680 Si / 1000 Ang^3
#
#
#
# Elastic Constant Matrix: (Units=GPa)
#
#
# Indices 1 2 3 4 5 6 
#
# 1 85.2540 0.8716 33.7608 0.0000 -7.2833 0.0000
# 2 0.8716 39.0349 -3.3717 0.0000 -9.8394 0.0000
# 3 33.7608 -3.3717 103.7726 0.0000 -10.9070 0.0000
# 4 0.0000 0.0000 0.0000 -68.8274 0.0000 -10.1956
# 5 -7.2833 -9.8394 -10.9070 0.0000 33.2841 0.0000
# 6 0.0000 0.0000 0.0000 -10.1956 0.0000 19.4736
#
#
#
# Elastic Compliance Matrix: (Units=1/GPa)
#
#
# Indices 1 2 3 4 5 6 
#
# 1 0.013547 -0.000298 -0.004261 0.000000 0.001480 0.000000
# 2 -0.000298 0.028024 0.001938 0.000000 0.008854 0.000000
# 3 -0.004261 0.001938 0.011442 0.000000 0.003390 0.000000
# 4 0.000000 0.000000 0.000000 -0.013483 0.000000 -0.007059
# 5 0.001480 0.008854 0.003390 0.000000 0.034097 0.000000
# 6 0.000000 0.000000 0.000000 -0.007059 0.000000 0.047655
#
#
# Mechanical properties :
#
#
# Convention : Reuss Voigt Hill
#
# Bulk Modulus (GPa) = 20.93321 32.28699 26.61010
# Shear Modulus (GPa) = 35.10085 9.90613 22.50349
#
# Velocity S-wave (km/s) = 3.91790 2.08136 3.13704
# Velocity P-wave (km/s) = 5.44251 4.46044 4.97577
#
# Compressibility (1/GPa) = 0.04777097
#
# Stress axis : x y z
#
# Youngs Moduli (GPa) = 73.81922 35.68368 87.39676
#
# Poissons Ratio (x) = 0.01062 0.37242
# Poissons Ratio (y) = 0.02196 -0.16937
# Poissons Ratio (z) = 0.31457 -0.06915
#
# Static dielectric constant tensor:
#      x y z
#    x 4.316850 0.000000 -0.134640 
#    y 0.000000 4.094820 0.000000 
#    z -0.134640 0.000000 4.065960 
# 
# 
# High freq. dielectric constant tensor:
#      x y z
#    x 1.911150 0.000000 -0.003480 
#    y 0.000000 1.893490 0.000000 
#    z -0.003480 0.000000 1.891520 
# 
# From -- ./inp_files/156736.got.cif
#   From: 2010.06.25/outbox.cif.g09.slc.cpg/sg12_79_cif.got.tgz:156736.got - 2010.06.28 00:19:55.
