data_PCOD8107852
_publ_section_title
;
Structure prediction by ZEFSAII (Michael W. Deem and Ramdas Pophale) SiO2 
 PCOD8107852
Probable space group: C 2/M
;
_chemical_formula_sum "Si O2"
_cell_formula_units_Z 56
_cell_length_a 15.616445
_cell_length_b 22.307650
_cell_length_c 8.195651
_cell_angle_alpha 90.000000
_cell_angle_beta 68.861701
_cell_angle_gamma 90.000000
_cell_volume 2662.976533
_symmetry_space_group_name_H-M "C 2/M"
_symmetry_group_IT_number 12
_symmetry_cell_setting 'monoclinic'
loop_
_space_group_symop_operation_xyz
x,y,z
-x,y,-z
-x,-y,-z
x,-y,z
1/2+x,1/2+y,z
1/2-x,1/2+y,-z
1/2-x,1/2-y,-z
1/2+x,1/2-y,z
loop_
_atom_site_type_symbol
_atom_site_label
_atom_site_fract_x
_atom_site_fract_y
_atom_site_fract_z
Si Si1 0.306973 0.866617 0.626895
Si Si2 0.094403 0.249622 0.352750
Si Si3 0.360696 0.930650 0.893370
Si Si4 0.458129 0.654809 0.849671
Si Si5 0.045471 0.433062 0.644990
Si Si6 0.636328 0.639235 0.532170
Si Si7 0.186100 0.070158 0.191943
O O1 0.341004 0.807313 0.698709
O O2 0.306608 0.918165 0.762412
O O3 0.369304 0.886826 0.427810
O O4 0.203990 0.856923 0.638454
O O5 0.076691 0.220713 0.185402
O O6 0.146492 0.200373 0.425145
O O7 0.000000 0.270468 0.500000
O O8 0.465780 0.904184 0.819265
O O9 0.380370 0.000000 0.886837
O O10 0.293820 0.911285 0.088146
O O11 0.533590 0.631289 0.668806
O O12 0.375956 0.606816 0.895342
O O13 0.500000 0.659997 0.000000
O O14 0.078210 0.500000 0.680033
O O15 0.000000 0.438795 0.500000
O O16 0.660294 0.584057 0.396396
O O17 0.171687 0.000000 0.166519
#
# Coordination Sequence:
#
# PCOD8107852 Si02
#       7
#     8   8   8   8   8   8   8
#     4  11  18  32  58  83 108 147 190 220 265 335
#     4   9  19  36  56  79 110 146 181 225 277 326
#     4   9  18  33  53  79 109 141 182 231 274 314
#     4  10  21  40  59  81 111 141 180 235 285 321
#     4   8  15  28  49  78 109 140 177 224 269 310
#     4  10  22  36  53  80 115 144 177 228 279 324
#     4  10  21  38  58  80 111 150 186 223 275 333
#
# _framework density 21.029101000000001
#
# number of rings (size 3 to 8) (size 9 to 14) (size 15 to 20)
#    0.000    2.429    0.000    5.143    0.000    2.571 
#    0.000   10.000    0.000    2.571    0.000    0.000 
#    0.000    0.571    0.000    0.000    0.000    0.000 
#
# Total GULP energy -346992.008868 kJ/mol
# GULP energy per Si atom -12392.571745 kJ/mol
# Density = 2.098124 g / cm^3
# Si number density = 21.029101 Si / 1000 Ang^3
#
#
#
# Elastic Constant Matrix: (Units=GPa)
#
#
# Indices 1 2 3 4 5 6 
#
# 1 35.0831 20.7551 6.4876 0.0000 -5.2430 0.0000
# 2 20.7551 52.4752 22.1193 0.0000 -14.3984 0.0000
# 3 6.4876 22.1193 86.1914 0.0000 -11.6528 0.0000
# 4 0.0000 0.0000 0.0000 16.8491 0.0000 -7.6276
# 5 -5.2430 -14.3984 -11.6528 0.0000 37.8099 0.0000
# 6 0.0000 0.0000 0.0000 -7.6276 0.0000 18.7783
#
#
#
# Elastic Compliance Matrix: (Units=1/GPa)
#
#
# Indices 1 2 3 4 5 6 
#
# 1 0.037306 -0.015296 0.001074 0.000000 -0.000321 0.000000
# 2 -0.015296 0.029416 -0.005395 0.000000 0.007418 0.000000
# 3 0.001074 -0.005395 0.013198 0.000000 0.002162 0.000000
# 4 0.000000 0.000000 0.000000 0.072723 0.000000 0.029540
# 5 -0.000321 0.007418 0.002162 0.000000 0.029895 0.000000
# 6 0.000000 0.000000 0.000000 0.029540 0.000000 0.065252
#
#
# Mechanical properties :
#
#
# Convention : Reuss Voigt Hill
#
# Bulk Modulus (GPa) = 24.57813 30.27485 27.42649
# Shear Modulus (GPa) = 16.63417 22.97998 19.80707
#
# Velocity S-wave (km/s) = 2.81554 3.30929 3.07235
# Velocity P-wave (km/s) = 4.72046 5.38793 5.06520
#
# Compressibility (1/GPa) = 0.04068657
#
# Stress axis : x y z
#
# Youngs Moduli (GPa) = 26.80503 33.99502 75.76899
#
# Poissons Ratio (x) = 0.52000 -0.08138
# Poissons Ratio (y) = 0.41002 0.40876
# Poissons Ratio (z) = -0.02879 0.18340
#
# Static dielectric constant tensor:
#      x y z
#    x 3.787690 0.000000 -0.359170 
#    y 0.000000 3.665310 0.000000 
#    z -0.359170 0.000000 4.028810 
# 
# 
# High freq. dielectric constant tensor:
#      x y z
#    x 1.818590 0.000000 -0.018970 
#    y 0.000000 1.807940 0.000000 
#    z -0.018970 0.000000 1.816270 
# 
# From -- ./inp_files/65782.got.cif
#   From: 2010.06.25/outbox.cif.g09.slc.cpg/sg12_33_cif.got.tgz:65782.got - 2010.06.28 00:19:55.
