data_PCOD8107814
_publ_section_title
;
Structure prediction by ZEFSAII (Michael W. Deem and Ramdas Pophale) SiO2 
 PCOD8107814
Probable space group: C 2/M
;
_chemical_formula_sum "Si O2"
_cell_formula_units_Z 48
_cell_length_a 13.509117
_cell_length_b 15.422081
_cell_length_c 12.038516
_cell_angle_alpha 90.000000
_cell_angle_beta 86.471079
_cell_angle_gamma 90.000000
_cell_volume 2503.333035
_symmetry_space_group_name_H-M "C 2/M"
_symmetry_group_IT_number 12
_symmetry_cell_setting 'monoclinic'
loop_
_space_group_symop_operation_xyz
x,y,z
-x,y,-z
-x,-y,-z
x,-y,z
1/2+x,1/2+y,z
1/2-x,1/2+y,-z
1/2-x,1/2-y,-z
1/2+x,1/2-y,z
loop_
_atom_site_type_symbol
_atom_site_label
_atom_site_fract_x
_atom_site_fract_y
_atom_site_fract_z
Si Si1 0.894472 0.400487 0.965828
Si Si2 0.311127 0.096087 0.385266
Si Si3 0.443093 0.755255 0.326963
Si Si4 0.184237 0.099977 0.601459
Si Si5 0.700687 0.184019 0.831394
Si Si6 0.650946 0.818471 0.251948
O O1 0.880911 0.500000 0.996071
O O2 0.887471 0.388770 0.833912
O O3 0.811207 0.350390 0.042952
O O4 0.000000 0.366174 0.000000
O O5 0.392707 0.170140 0.408434
O O6 0.215689 0.107224 0.470831
O O7 0.276187 0.107289 0.259517
O O8 0.357703 0.000000 0.398112
O O9 0.413456 0.659383 0.373869
O O10 0.398675 0.765501 0.204991
O O11 0.560684 0.770508 0.321305
O O12 0.277057 0.135458 0.665905
O O13 0.160306 0.000000 0.635791
O O14 0.793584 0.247705 0.826203
#
# Coordination Sequence:
#
# PCOD8107814 Si02
#       6
#     8   8   8   8   8   8
#     4  11  20  34  56  81 109 139 180 236 287 329
#     4   9  18  36  58  81 113 145 183 235 284 325
#     4   9  20  35  55  82 112 146 185 230 280 330
#     4  10  21  38  57  83 117 152 188 232 280 336
#     4   9  20  35  54  78 111 146 182 226 279 330
#     4  11  21  35  56  83 109 151 190 228 275 341
#
# _framework density 19.174437000000001
#
# number of rings (size 3 to 8) (size 9 to 14) (size 15 to 20)
#    1.000    1.167    1.667    2.000    0.000    2.000 
#    0.000    3.333    0.000    2.000    0.000    5.833 
#    0.000    0.000    0.000    0.000    0.000    0.000 
#
# Total GULP energy -297385.795302 kJ/mol
# GULP energy per Si atom -12391.074804 kJ/mol
# Density = 1.913079 g / cm^3
# Si number density = 19.174437 Si / 1000 Ang^3
#
#
#
# Elastic Constant Matrix: (Units=GPa)
#
#
# Indices 1 2 3 4 5 6 
#
# 1 39.5487 31.4734 16.8335 0.0000 -9.2352 0.0000
# 2 31.4734 125.0488 34.4903 0.0000 -22.1791 0.0000
# 3 16.8335 34.4903 75.6801 0.0000 -10.4169 0.0000
# 4 0.0000 0.0000 0.0000 32.3236 0.0000 -6.3390
# 5 -9.2352 -22.1791 -10.4169 0.0000 21.9533 0.0000
# 6 0.0000 0.0000 0.0000 -6.3390 0.0000 14.9600
#
#
#
# Elastic Compliance Matrix: (Units=1/GPa)
#
#
# Indices 1 2 3 4 5 6 
#
# 1 0.033253 -0.006306 -0.003717 0.000000 0.005854 0.000000
# 2 -0.006306 0.011775 -0.002880 0.000000 0.007877 0.000000
# 3 -0.003717 -0.002880 0.015767 0.000000 0.003009 0.000000
# 4 0.000000 0.000000 0.000000 0.033741 0.000000 0.014297
# 5 0.005854 0.007877 0.003009 0.000000 0.057400 0.000000
# 6 0.000000 0.000000 0.000000 0.014297 0.000000 0.072903
#
#
# Mechanical properties :
#
#
# Convention : Reuss Voigt Hill
#
# Bulk Modulus (GPa) = 28.57935 45.09687 36.83811
# Shear Modulus (GPa) = 19.06168 24.34607 21.70387
#
# Velocity S-wave (km/s) = 3.15639 3.56717 3.36805
# Velocity P-wave (km/s) = 5.31234 6.36684 5.86334
#
# Compressibility (1/GPa) = 0.03499030
#
# Stress axis : x y z
#
# Youngs Moduli (GPa) = 30.07275 84.92289 63.42485
#
# Poissons Ratio (x) = 0.53551 0.23574
# Poissons Ratio (y) = 0.18963 0.18264
# Poissons Ratio (z) = 0.11177 0.24454
#
# Static dielectric constant tensor:
#      x y z
#    x 3.166700 0.000000 -0.081310 
#    y 0.000000 3.499820 0.000000 
#    z -0.081310 0.000000 3.377010 
# 
# 
# High freq. dielectric constant tensor:
#      x y z
#    x 1.714990 0.000000 -0.007260 
#    y 0.000000 1.745090 0.000000 
#    z -0.007260 0.000000 1.745530 
# 
# From -- ./inp_files/142694.got.cif
#   From: 2010.06.25/outbox.cif.g09.slc.cpg/sg12_72_cif.got.tgz:142694.got - 2010.06.28 00:19:55.
