data_PCOD8107662
_publ_section_title
;
Structure prediction by ZEFSAII (Michael W. Deem and Ramdas Pophale) SiO2 
 PCOD8107662
Probable space group: C 2/M
;
_chemical_formula_sum "Si O2"
_cell_formula_units_Z 64
_cell_length_a 23.400953
_cell_length_b 17.373243
_cell_length_c 21.341979
_cell_angle_alpha 90.000000
_cell_angle_beta 18.064381
_cell_angle_gamma 90.000000
_cell_volume 2690.484748
_symmetry_space_group_name_H-M "C 2/M"
_symmetry_group_IT_number 12
_symmetry_cell_setting 'monoclinic'
loop_
_space_group_symop_operation_xyz
x,y,z
-x,y,-z
-x,-y,-z
x,-y,z
1/2+x,1/2+y,z
1/2-x,1/2+y,-z
1/2-x,1/2-y,-z
1/2+x,1/2-y,z
loop_
_atom_site_type_symbol
_atom_site_label
_atom_site_fract_x
_atom_site_fract_y
_atom_site_fract_z
Si Si1 0.755810 0.084744 0.684641
Si Si2 0.499880 0.086405 0.567988
Si Si3 0.984852 0.764075 0.871894
Si Si4 0.850897 0.674793 0.833113
Si Si5 0.422739 0.413497 0.149264
Si Si6 0.644606 0.878719 0.933910
Si Si7 0.366385 0.694575 0.466203
Si Si8 0.678219 0.587495 0.117820
O O1 0.547524 0.077043 0.875681
O O2 0.861072 0.154045 0.540069
O O3 0.846077 0.000000 0.578289
O O4 0.771316 0.104390 0.741941
O O5 0.500000 0.128148 0.500000
O O6 0.352484 0.125372 0.767627
O O7 0.703837 0.088250 0.382271
O O8 0.425497 0.000000 0.636476
O O9 0.018832 0.849627 0.861398
O O10 0.159493 0.717650 0.659481
O O11 0.900081 0.712346 0.016051
O O12 0.830660 0.769741 0.977817
O O13 0.034341 0.724172 0.637492
O O14 0.842068 0.619915 0.902878
O O15 0.491664 0.500000 0.095676
O O16 0.500000 0.392165 0.000000
O O17 0.753609 0.906145 0.881819
O O18 0.486380 0.633166 0.301020
O O19 0.639215 0.500000 0.140649
#
# Coordination Sequence:
#
# PCOD8107662 Si02
#       8
#     8   8   8   8   8   8   8   8
#     4  10  21  42  70 104 144 181 234 296 364 427
#     4  10  21  40  67 100 137 180 233 293 354 417
#     4  11  24  42  70  98 142 185 234 295 348 427
#     4  12  25  46  71 100 139 187 235 290 357 422
#     4  10  21  37  62  98 142 184 230 289 352 418
#     4  10  22  41  72 105 139 189 234 294 361 424
#     4  11  25  44  69 103 135 180 233 289 356 424
#     4  12  26  48  73 101 142 188 243 297 360 433
#
# _framework density 23.787534999999998
#
# number of rings (size 3 to 8) (size 9 to 14) (size 15 to 20)
#    0.000    1.250    2.500    3.375    3.500    4.000 
#    2.250    1.250    0.000    0.000    0.000    0.000 
#    0.000    0.000    0.000    0.000    0.000    0.000 
#
# Total GULP energy -396586.853699 kJ/mol
# GULP energy per Si atom -12393.339178 kJ/mol
# Density = 2.373339 g / cm^3
# Si number density = 23.787535 Si / 1000 Ang^3
#
#
#
# Elastic Constant Matrix: (Units=GPa)
#
#
# Indices 1 2 3 4 5 6 
#
# 1 43.7753 2.1478 25.7513 0.0205 0.5879 -0.0009
# 2 2.1478 119.2681 36.8080 -0.0089 4.1337 0.0414
# 3 25.7513 36.8080 105.7283 0.0250 10.9094 0.0416
# 4 0.0205 -0.0089 0.0250 30.2013 -0.0115 2.9332
# 5 0.5879 4.1337 10.9094 -0.0115 37.1262 -0.0201
# 6 -0.0009 0.0414 0.0416 2.9332 -0.0201 23.6970
#
#
#
# Elastic Compliance Matrix: (Units=1/GPa)
#
#
# Indices 1 2 3 4 5 6 
#
# 1 0.027063 0.001728 -0.007352 -0.000013 0.001539 0.000014
# 2 0.001728 0.009504 -0.003731 0.000006 0.000011 -0.000011
# 3 -0.007352 -0.003731 0.012884 -0.000006 -0.003254 -0.000018
# 4 -0.000013 0.000006 -0.000006 0.033514 0.000010 -0.004148
# 5 0.001539 0.000011 -0.003254 0.000010 0.027866 0.000028
# 6 0.000014 -0.000011 -0.000018 -0.004148 0.000028 0.042713
#
#
# Mechanical properties :
#
#
# Convention : Reuss Voigt Hill
#
# Bulk Modulus (GPa) = 32.52891 44.24288 38.38589
# Shear Modulus (GPa) = 27.39711 31.80919 29.60315
#
# Velocity S-wave (km/s) = 3.39741 3.66077 3.53155
# Velocity P-wave (km/s) = 5.39392 6.04218 5.72723
#
# Compressibility (1/GPa) = 0.03074189
#
# Stress axis : x y z
#
# Youngs Moduli (GPa) = 36.95022 105.21449 77.61859
#
# Poissons Ratio (x) = -0.18184 0.57066
# Poissons Ratio (y) = -0.06386 0.28959
# Poissons Ratio (z) = 0.27166 0.39254
#
# Static dielectric constant tensor:
#      x y z
#    x 3.964330 -0.000250 0.049720 
#    y -0.000250 4.523080 0.000580 
#    z 0.049720 0.000580 4.496970 
# 
# 
# High freq. dielectric constant tensor:
#      x y z
#    x 1.919510 -0.000020 0.000960 
#    y -0.000020 1.954080 0.000040 
#    z 0.000960 0.000040 1.953730 
# 
# From -- ./inp_files/326078.got.cif
#   From: 2010.06.25/outbox.cif.g09.slc.cpg/sg12_164_cif.got.tgz:326078.got - 2010.06.28 00:19:55.
