data_PCOD8107317
_publ_section_title
;
Structure prediction by ZEFSAII (Michael W. Deem and Ramdas Pophale) SiO2 
 PCOD8107317
Probable space group: C 2/M
;
_chemical_formula_sum "Si O2"
_cell_formula_units_Z 48
_cell_length_a 25.824185
_cell_length_b 11.159418
_cell_length_c 9.319652
_cell_angle_alpha 90.000000
_cell_angle_beta 109.206655
_cell_angle_gamma 90.000000
_cell_volume 2536.269549
_symmetry_space_group_name_H-M "C 2/M"
_symmetry_group_IT_number 12
_symmetry_cell_setting 'monoclinic'
loop_
_space_group_symop_operation_xyz
x,y,z
-x,y,-z
-x,-y,-z
x,-y,z
1/2+x,1/2+y,z
1/2-x,1/2+y,-z
1/2-x,1/2-y,-z
1/2+x,1/2-y,z
loop_
_atom_site_type_symbol
_atom_site_label
_atom_site_fract_x
_atom_site_fract_y
_atom_site_fract_z
Si Si1 0.562265 0.861048 0.583596
Si Si2 0.380229 0.279531 0.603952
Si Si3 0.704790 0.361729 0.693179
Si Si4 0.074404 0.000000 0.930794
Si Si5 0.450454 0.500000 0.758203
Si Si6 0.669278 0.859844 0.183842
Si Si7 0.631282 0.734645 0.870656
O O1 0.500000 0.826936 0.500000
O O2 0.597304 0.823634 0.478165
O O3 0.579864 0.792668 0.743133
O O4 0.571648 0.000000 0.618759
O O5 0.325467 0.335002 0.484365
O O6 0.425807 0.382427 0.661085
O O7 0.367689 0.219463 0.744583
O O8 0.698285 0.500000 0.727538
O O9 0.767769 0.325944 0.730196
O O10 0.679982 0.286834 0.802052
O O11 0.110685 0.113665 0.924100
O O12 0.016106 0.000000 0.795102
O O13 0.065031 0.000000 0.090517
O O14 0.658085 0.000000 0.200426
O O15 0.653646 0.827440 0.007665
#
# Coordination Sequence:
#
# PCOD8107317 Si02
#       7
#     8   8   8   4   4   8   8
#     4  10  22  39  59  84 116 152 192 235 288 349
#     4  11  21  39  61  85 118 152 192 243 293 348
#     4  10  21  37  59  87 117 150 191 242 291 350
#     4  11  22  37  61  91 119 151 193 245 299 342
#     4  11  22  37  61  91 119 151 193 245 299 342
#     4  11  23  38  58  85 116 157 198 237 288 344
#     4  11  21  39  61  85 118 152 192 243 293 348
#
# _framework density 18.925433000000002
#
# number of rings (size 3 to 8) (size 9 to 14) (size 15 to 20)
#    0.000    1.333    3.333    3.000    0.000    0.000 
#    0.000    2.500    3.667    4.000    0.000    0.000 
#    0.000    0.000    0.000    0.000    0.000    0.000 
#
# Total GULP energy -297720.933842 kJ/mol
# GULP energy per Si atom -12405.038910 kJ/mol
# Density = 1.888236 g / cm^3
# Si number density = 18.925433 Si / 1000 Ang^3
#
#
#
# Elastic Constant Matrix: (Units=GPa)
#
#
# Indices 1 2 3 4 5 6 
#
# 1 52.4947 25.0593 9.3422 0.0000 9.0943 0.0000
# 2 25.0593 55.9427 19.2266 0.0000 13.6219 0.0000
# 3 9.3422 19.2266 83.7993 0.0000 2.5096 0.0000
# 4 0.0000 0.0000 0.0000 24.7137 0.0000 3.9616
# 5 9.0943 13.6219 2.5096 0.0000 26.0810 0.0000
# 6 0.0000 0.0000 0.0000 3.9616 0.0000 14.8800
#
#
#
# Elastic Compliance Matrix: (Units=1/GPa)
#
#
# Indices 1 2 3 4 5 6 
#
# 1 0.024472 -0.010060 -0.000323 0.000000 -0.003248 0.000000
# 2 -0.010060 0.026365 -0.004633 0.000000 -0.009816 0.000000
# 3 -0.000323 -0.004633 0.012994 0.000000 0.001282 0.000000
# 4 0.000000 0.000000 0.000000 0.042267 0.000000 -0.011253
# 5 -0.003248 -0.009816 0.001282 0.000000 0.044478 0.000000
# 6 0.000000 0.000000 0.000000 -0.011253 0.000000 0.070200
#
#
# Mechanical properties :
#
#
# Convention : Reuss Voigt Hill
#
# Bulk Modulus (GPa) = 29.58807 33.27700 31.43253
# Shear Modulus (GPa) = 19.07846 22.37550 20.72698
#
# Velocity S-wave (km/s) = 3.17848 3.44219 3.31296
# Velocity P-wave (km/s) = 5.39799 5.78097 5.59276
#
# Compressibility (1/GPa) = 0.03379740
#
# Stress axis : x y z
#
# Youngs Moduli (GPa) = 40.86271 37.92961 76.95894
#
# Poissons Ratio (x) = 0.38159 0.02484
# Poissons Ratio (y) = 0.41110 0.35659
# Poissons Ratio (z) = 0.01319 0.17575
#
# Static dielectric constant tensor:
#      x y z
#    x 3.459060 0.000000 0.139810 
#    y 0.000000 3.445100 0.000000 
#    z 0.139810 0.000000 3.524470 
# 
# 
# High freq. dielectric constant tensor:
#      x y z
#    x 1.737030 0.000000 0.004240 
#    y 0.000000 1.744120 0.000000 
#    z 0.004240 0.000000 1.746590 
# 
# From -- ./inp_files/94538.got.cif
#   From: 2010.06.25/outbox.cif.g09.slc.cpg/sg12_48_cif.got.tgz:94538.got - 2010.06.28 00:19:55.
