data_PCOD8107233
_publ_section_title
;
Structure prediction by ZEFSAII (Michael W. Deem and Ramdas Pophale) SiO2 
 PCOD8107233
Probable space group: C 2/M
;
_chemical_formula_sum "Si O2"
_cell_formula_units_Z 64
_cell_length_a 28.362254
_cell_length_b 8.843765
_cell_length_c 24.237689
_cell_angle_alpha 90.000000
_cell_angle_beta 149.451066
_cell_angle_gamma 90.000000
_cell_volume 3090.061269
_symmetry_space_group_name_H-M "C 2/M"
_symmetry_group_IT_number 12
_symmetry_cell_setting 'monoclinic'
loop_
_space_group_symop_operation_xyz
x,y,z
-x,y,-z
-x,-y,-z
x,-y,z
1/2+x,1/2+y,z
1/2-x,1/2+y,-z
1/2-x,1/2-y,-z
1/2+x,1/2-y,z
loop_
_atom_site_type_symbol
_atom_site_label
_atom_site_fract_x
_atom_site_fract_y
_atom_site_fract_z
Si Si1 0.499581 0.678912 0.668359
Si Si2 0.397807 0.171684 0.885921
Si Si3 0.931268 0.327232 0.798800
Si Si4 0.849788 0.179030 0.608753
Si Si5 0.040854 0.321230 0.600309
Si Si6 0.349410 0.821919 0.109730
Si Si7 0.894017 0.825367 0.046761
Si Si8 0.750749 0.673598 0.188019
O O1 0.510522 0.500000 0.679476
O O2 0.417364 0.730722 0.626787
O O3 0.480307 0.739121 0.586953
O O4 0.597479 0.754319 0.784266
O O5 0.371118 0.179544 0.794065
O O6 0.314719 0.254002 0.832598
O O7 0.400092 0.000000 0.909966
O O8 0.500000 0.243599 0.000000
O O9 0.946688 0.500000 0.795486
O O10 0.885513 0.233739 0.703709
O O11 0.027811 0.245506 0.913971
O O12 0.750000 0.250000 0.500000
O O13 0.841019 0.000000 0.600584
O O14 0.036402 0.500000 0.606233
O O15 0.146300 0.257273 0.708439
O O16 0.000000 0.276138 0.500000
O O17 0.407949 0.775254 0.115260
O O18 0.339170 0.000000 0.106936
O O19 0.250000 0.750000 0.000000
O O20 0.914191 0.000000 0.081444
O O21 0.793321 0.806362 0.917446
O O22 0.757477 0.500000 0.211428
#
# Coordination Sequence:
#
# PCOD8107233 Si02
#       8
#     8   8   8   8   8   8   8   8
#     4  11  24  43  67  96 128 164 212 265 320 383
#     4  10  21  37  58  88 125 165 211 259 312 381
#     4  11  22  38  61  89 124 167 211 256 317 378
#     4  11  25  44  67  95 130 167 214 265 316 380
#     4  10  23  44  67  92 125 168 218 268 319 380
#     4  12  24  38  61  92 128 169 210 257 318 384
#     4  11  21  35  57  88 126 163 207 260 316 380
#     4  10  22  38  60  91 125 165 213 264 318 378
#
# _framework density 20.711563000000002
#
# number of rings (size 3 to 8) (size 9 to 14) (size 15 to 20)
#    0.000    1.250    2.500    3.375    0.000    6.000 
#    0.000    2.500    0.000    0.000    0.000    0.000 
#    0.000    0.000    0.000    0.000    0.000    0.000 
#
# Total GULP energy -396804.876653 kJ/mol
# GULP energy per Si atom -12400.152395 kJ/mol
# Density = 2.066442 g / cm^3
# Si number density = 20.711563 Si / 1000 Ang^3
#
#
#
# Elastic Constant Matrix: (Units=GPa)
#
#
# Indices 1 2 3 4 5 6 
#
# 1 103.3915 39.1578 43.8423 0.0000 -10.7396 0.0000
# 2 39.1578 88.2548 39.3922 0.0000 -4.1292 0.0000
# 3 43.8423 39.3922 104.8049 0.0000 0.2703 0.0000
# 4 0.0000 0.0000 0.0000 31.2187 0.0000 -0.7148
# 5 -10.7396 -4.1292 0.2703 0.0000 33.5632 0.0000
# 6 0.0000 0.0000 0.0000 -0.7148 0.0000 38.2403
#
#
#
# Elastic Compliance Matrix: (Units=1/GPa)
#
#
# Indices 1 2 3 4 5 6 
#
# 1 0.013278 -0.003881 -0.004106 0.000000 0.003804 0.000000
# 2 -0.003881 0.014849 -0.003959 0.000000 0.000617 0.000000
# 3 -0.004106 -0.003959 0.012752 0.000000 -0.001904 0.000000
# 4 0.000000 0.000000 0.000000 0.032046 0.000000 0.000599
# 5 0.003804 0.000617 -0.001904 0.000000 0.031103 0.000000
# 6 0.000000 0.000000 0.000000 0.000599 0.000000 0.026162
#
#
# Mechanical properties :
#
#
# Convention : Reuss Voigt Hill
#
# Bulk Modulus (GPa) = 58.86715 60.13732 59.50224
# Shear Modulus (GPa) = 31.30029 32.20835 31.75432
#
# Velocity S-wave (km/s) = 3.89169 3.94774 3.91982
# Velocity P-wave (km/s) = 6.97695 7.06245 7.01983
#
# Compressibility (1/GPa) = 0.01698740
#
# Stress axis : x y z
#
# Youngs Moduli (GPa) = 75.31332 67.34581 78.41865
#
# Poissons Ratio (x) = 0.26135 0.32196
# Poissons Ratio (y) = 0.29227 0.31048
# Poissons Ratio (z) = 0.30921 0.26664
#
# Static dielectric constant tensor:
#      x y z
#    x 4.006560 0.000000 -0.043110 
#    y 0.000000 3.706680 0.000000 
#    z -0.043110 0.000000 3.802080 
# 
# 
# High freq. dielectric constant tensor:
#      x y z
#    x 1.823500 0.000000 -0.005760 
#    y 0.000000 1.808660 0.000000 
#    z -0.005760 0.000000 1.806050 
# 
# From -- ./inp_files/353462.got.cif
#   From: 2010.06.25/outbox.cif.g09.slc.cpg/sg12_177_cif.got.tgz:353462.got - 2010.06.28 00:19:55.
