data_PCOD8107557
_publ_section_title
;
Structure prediction by ZEFSAII (Michael W. Deem and Ramdas Pophale) SiO2 
 PCOD8107557
Probable space group: C 2/M
;
_chemical_formula_sum "Si O2"
_cell_formula_units_Z 48
_cell_length_a 24.558500
_cell_length_b 11.198422
_cell_length_c 9.437506
_cell_angle_alpha 90.000000
_cell_angle_beta 108.922158
_cell_angle_gamma 90.000000
_cell_volume 2455.210252
_symmetry_space_group_name_H-M "C 2/M"
_symmetry_group_IT_number 12
_symmetry_cell_setting 'monoclinic'
loop_
_space_group_symop_operation_xyz
x,y,z
-x,y,-z
-x,-y,-z
x,-y,z
1/2+x,1/2+y,z
1/2-x,1/2+y,-z
1/2-x,1/2-y,-z
1/2+x,1/2-y,z
loop_
_atom_site_type_symbol
_atom_site_label
_atom_site_fract_x
_atom_site_fract_y
_atom_site_fract_z
Si Si1 0.733376 0.861966 0.769117
Si Si2 0.067690 0.251048 0.569729
Si Si3 0.642113 0.274837 0.154032
Si Si4 0.654168 0.137440 0.453053
Si Si5 0.060943 0.000000 0.132703
Si Si6 0.372448 0.138422 0.129676
Si Si7 0.940793 0.000000 0.533393
O O1 0.795388 0.808489 0.852476
O O2 0.704650 0.812798 0.599106
O O3 0.692278 0.837025 0.868824
O O4 0.741816 0.000000 0.750385
O O5 0.094761 0.351558 0.490608
O O6 0.083858 0.278973 0.745053
O O7 0.092497 0.120383 0.543022
O O8 0.000000 0.255736 0.500000
O O9 0.650472 0.219982 0.314412
O O10 0.597879 0.384398 0.120592
O O11 0.619113 0.175229 0.026195
O O12 0.663321 0.000000 0.416471
O O13 0.048573 0.000000 0.289448
O O14 0.000000 0.000000 0.000000
O O15 0.389002 0.000000 0.161003
O O16 0.000000 0.000000 0.500000
#
# Coordination Sequence:
#
# PCOD8107557 Si02
#       7
#     8   8   8   8   4   8   4
#     4   9  19  39  60  88 119 159 206 254 302 367
#     4  10  21  39  63  86 116 158 205 256 302 363
#     4  12  22  39  63  86 125 165 200 251 319 365
#     4  10  21  37  61  88 121 158 202 257 304 364
#     4  12  28  42  62  96 130 162 207 263 315 364
#     4  10  23  39  61  90 125 158 206 255 301 366
#     4  10  22  42  66  86 122 158 216 255 302 364
#
# _framework density 19.550262
#
# number of rings (size 3 to 8) (size 9 to 14) (size 15 to 20)
#    0.000    1.667    2.500    3.000    4.667    1.333 
#    0.000    0.000    7.333    3.000    0.000    0.000 
#    0.000    0.000    0.000    0.000    0.000    0.000 
#
# Total GULP energy -297531.837858 kJ/mol
# GULP energy per Si atom -12397.159911 kJ/mol
# Density = 1.950576 g / cm^3
# Si number density = 19.550262 Si / 1000 Ang^3
#
#
#
# Elastic Constant Matrix: (Units=GPa)
#
#
# Indices 1 2 3 4 5 6 
#
# 1 71.8015 31.8855 23.0668 0.0000 12.8587 0.0000
# 2 31.8855 87.7348 48.2230 0.0000 7.2471 0.0000
# 3 23.0668 48.2230 113.0033 0.0000 -8.0407 0.0000
# 4 0.0000 0.0000 0.0000 35.9855 0.0000 1.7410
# 5 12.8587 7.2471 -8.0407 0.0000 27.1225 0.0000
# 6 0.0000 0.0000 0.0000 1.7410 0.0000 17.6854
#
#
#
# Elastic Compliance Matrix: (Units=1/GPa)
#
#
# Indices 1 2 3 4 5 6 
#
# 1 0.018184 -0.004689 -0.002283 0.000000 -0.008045 0.000000
# 2 -0.004689 0.017117 -0.006655 0.000000 -0.004324 0.000000
# 3 -0.002283 -0.006655 0.012625 0.000000 0.006604 0.000000
# 4 0.000000 0.000000 0.000000 0.027922 0.000000 -0.002749
# 5 -0.008045 -0.004324 0.006604 0.000000 0.043797 0.000000
# 6 0.000000 0.000000 0.000000 -0.002749 0.000000 0.056814
#
#
# Mechanical properties :
#
#
# Convention : Reuss Voigt Hill
#
# Bulk Modulus (GPa) = 48.37564 53.21001 50.79283
# Shear Modulus (GPa) = 23.74118 27.44963 25.59540
#
# Velocity S-wave (km/s) = 3.48856 3.75114 3.62223
# Velocity P-wave (km/s) = 6.40505 6.78509 6.59781
#
# Compressibility (1/GPa) = 0.02067156
#
# Stress axis : x y z
#
# Youngs Moduli (GPa) = 54.99392 58.42072 79.20662
#
# Poissons Ratio (x) = 0.27394 0.18084
# Poissons Ratio (y) = 0.25787 0.52713
# Poissons Ratio (z) = 0.12556 0.38879
#
# Static dielectric constant tensor:
#      x y z
#    x 3.695760 0.000000 0.179270 
#    y 0.000000 4.007060 0.000000 
#    z 0.179270 0.000000 3.714260 
# 
# 
# High freq. dielectric constant tensor:
#      x y z
#    x 1.753920 0.000000 -0.006210 
#    y 0.000000 1.766660 0.000000 
#    z -0.006210 0.000000 1.766760 
# 
# From -- ./inp_files/94927.got.cif
#   From: 2010.06.25/outbox.cif.g09.slc.cpg/sg12_48_cif.got.tgz:94927.got - 2010.06.28 00:19:55.
