data_PCOD8107660
_publ_section_title
;
Structure prediction by ZEFSAII (Michael W. Deem and Ramdas Pophale) SiO2 
 PCOD8107660
Probable space group: C 2/M
;
_chemical_formula_sum "Si O2"
_cell_formula_units_Z 56
_cell_length_a 17.497919
_cell_length_b 22.409482
_cell_length_c 13.544520
_cell_angle_alpha 90.000000
_cell_angle_beta 31.357376
_cell_angle_gamma 90.000000
_cell_volume 2763.744240
_symmetry_space_group_name_H-M "C 2/M"
_symmetry_group_IT_number 12
_symmetry_cell_setting 'monoclinic'
loop_
_space_group_symop_operation_xyz
x,y,z
-x,y,-z
-x,-y,-z
x,-y,z
1/2+x,1/2+y,z
1/2-x,1/2+y,-z
1/2-x,1/2-y,-z
1/2+x,1/2-y,z
loop_
_atom_site_type_symbol
_atom_site_label
_atom_site_fract_x
_atom_site_fract_y
_atom_site_fract_z
Si Si1 0.126059 0.642481 0.106530
Si Si2 0.331649 0.431061 0.199021
Si Si3 0.320956 0.606703 0.600754
Si Si4 0.133189 0.066841 0.239465
Si Si5 0.836550 0.567403 0.418846
Si Si6 0.663508 0.828706 0.281690
Si Si7 0.840664 0.286287 0.130538
O O1 0.161097 0.678511 0.166628
O O2 0.964392 0.615188 0.291460
O O3 0.240833 0.588187 0.972977
O O4 0.145827 0.686950 0.993531
O O5 0.310846 0.500000 0.191293
O O6 0.286802 0.420200 0.362394
O O7 0.226830 0.392908 0.243479
O O8 0.500000 0.410970 0.000000
O O9 0.493239 0.610723 0.382670
O O10 0.304128 0.567185 0.718085
O O11 0.232240 0.574454 0.612875
O O12 0.258501 0.672554 0.689101
O O13 0.085412 0.000000 0.263530
O O14 0.898016 0.500000 0.360891
O O15 0.500000 0.820493 0.500000
O O16 0.766493 0.777946 0.212804
O O17 0.000000 0.279166 0.000000
#
# Coordination Sequence:
#
# PCOD8107660 Si02
#       7
#     8   8   8   8   8   8   8
#     4  11  24  42  63  98 129 169 214 269 324 382
#     4  10  24  45  68  96 131 171 214 262 317 381
#     4  10  21  39  64  94 134 169 214 267 318 384
#     4  10  21  37  62  97 133 172 213 258 325 391
#     4  11  21  39  66  99 136 169 212 264 323 388
#     4  12  26  45  68  93 127 171 219 268 323 374
#     4  11  24  46  67  92 129 168 217 269 325 383
#
# _framework density 20.262367000000001
#
# number of rings (size 3 to 8) (size 9 to 14) (size 15 to 20)
#    0.000    1.286    2.857    3.000    6.000    1.429 
#    0.000    3.571    0.000    0.000    0.000    0.000 
#    0.000    0.000    0.000    0.000    0.000    0.000 
#
# Total GULP energy -347303.930466 kJ/mol
# GULP energy per Si atom -12403.711802 kJ/mol
# Density = 2.021625 g / cm^3
# Si number density = 20.262367 Si / 1000 Ang^3
#
#
#
# Elastic Constant Matrix: (Units=GPa)
#
#
# Indices 1 2 3 4 5 6 
#
# 1 97.6150 42.5477 43.3044 0.0160 -7.8420 -0.0017
# 2 42.5477 103.1776 52.5682 0.0234 -12.2167 0.0007
# 3 43.3044 52.5682 136.4642 0.0365 -9.2978 -0.0088
# 4 0.0160 0.0234 0.0365 25.0161 -0.0186 -9.8795
# 5 -7.8420 -12.2167 -9.2978 -0.0186 33.2429 -0.0024
# 6 -0.0017 0.0007 -0.0088 -9.8795 -0.0024 30.6714
#
#
#
# Elastic Compliance Matrix: (Units=1/GPa)
#
#
# Indices 1 2 3 4 5 6 
#
# 1 0.013218 -0.004028 -0.002581 0.000000 0.000916 0.000000
# 2 -0.004028 0.013628 -0.003767 -0.000003 0.003005 -0.000002
# 3 -0.002581 -0.003767 0.009646 -0.000008 0.000705 0.000000
# 4 0.000000 -0.000003 -0.000008 0.045800 0.000023 0.014753
# 5 0.000916 0.003005 0.000705 0.000023 0.031599 0.000010
# 6 0.000000 -0.000002 0.000000 0.014753 0.000010 0.037356
#
#
# Mechanical properties :
#
#
# Convention : Reuss Voigt Hill
#
# Bulk Modulus (GPa) = 63.52489 68.23305 65.87897
# Shear Modulus (GPa) = 28.20957 31.04184 29.62571
#
# Velocity S-wave (km/s) = 3.73529 3.91832 3.82790
# Velocity P-wave (km/s) = 7.07265 7.36334 7.21946
#
# Compressibility (1/GPa) = 0.01574186
#
# Stress axis : x y z
#
# Youngs Moduli (GPa) = 75.65273 73.37925 103.67050
#
# Poissons Ratio (x) = 0.29554 0.26754
# Poissons Ratio (y) = 0.30470 0.39051
# Poissons Ratio (z) = 0.19524 0.27641
#
# Static dielectric constant tensor:
#      x y z
#    x 3.673190 -0.000030 0.030420 
#    y -0.000030 3.582970 0.000060 
#    z 0.030420 0.000060 3.830750 
# 
# 
# High freq. dielectric constant tensor:
#      x y z
#    x 1.792880 0.000000 -0.001250 
#    y 0.000000 1.786220 0.000010 
#    z -0.001250 0.000010 1.804870 
# 
# From -- ./inp_files/227557.got.cif
#   From: 2010.06.25/outbox.cif.g09.slc.cpg/sg12_114_cif.got.tgz:227557.got - 2010.06.28 00:19:55.
