data_PCOD8107757
_publ_section_title
;
Structure prediction by ZEFSAII (Michael W. Deem and Ramdas Pophale) SiO2 
 PCOD8107757
Probable space group: C 2/M
;
_chemical_formula_sum "Si O2"
_cell_formula_units_Z 56
_cell_length_a 15.493770
_cell_length_b 8.958768
_cell_length_c 22.547626
_cell_angle_alpha 90.000000
_cell_angle_beta 109.363416
_cell_angle_gamma 90.000000
_cell_volume 2952.690971
_symmetry_space_group_name_H-M "C 2/M"
_symmetry_group_IT_number 12
_symmetry_cell_setting 'monoclinic'
loop_
_space_group_symop_operation_xyz
x,y,z
-x,y,-z
-x,-y,-z
x,-y,z
1/2+x,1/2+y,z
1/2-x,1/2+y,-z
1/2-x,1/2-y,-z
1/2+x,1/2-y,z
loop_
_atom_site_type_symbol
_atom_site_label
_atom_site_fract_x
_atom_site_fract_y
_atom_site_fract_z
Si Si1 0.343881 0.326915 0.003809
Si Si2 0.854873 0.677338 0.208341
Si Si3 0.847603 0.172606 0.865976
Si Si4 0.303529 0.175795 0.428322
Si Si5 0.927791 0.322054 0.349908
Si Si6 0.973157 0.322850 0.124171
Si Si7 0.127831 0.324182 0.427773
O O1 0.338035 0.500000 0.019870
O O2 0.362360 0.305768 0.938929
O O3 0.250000 0.250000 0.000000
O O4 0.427865 0.250693 0.056346
O O5 0.854652 0.500000 0.208424
O O6 0.751901 0.735583 0.174854
O O7 0.892923 0.740742 0.279054
O O8 0.919794 0.734397 0.170281
O O9 0.922249 0.268801 0.847367
O O10 0.858048 0.000000 0.850170
O O11 0.361230 0.238344 0.386188
O O12 0.203902 0.249928 0.403395
O O13 0.356798 0.221286 0.500323
O O14 0.290249 0.000000 0.421140
O O15 0.928305 0.500000 0.350928
O O16 0.029686 0.261653 0.385155
O O17 0.968657 0.500000 0.116968
O O18 0.134311 0.500000 0.420686
#
# Coordination Sequence:
#
# PCOD8107757 Si02
#       7
#     8   8   8   8   8   8   8
#     4  11  21  36  59  83 109 138 171 216 267 315
#     4   9  19  36  53  73 105 140 175 214 261 309
#     4  10  21  38  56  77 105 138 172 214 264 315
#     4   9  17  30  50  77 104 132 171 215 258 308
#     4   9  17  31  53  74  98 140 180 210 251 310
#     4  11  22  37  56  81 107 137 176 219 262 314
#     4   9  17  30  50  77 105 132 169 216 262 306
#
# _framework density 18.965751000000001
#
# number of rings (size 3 to 8) (size 9 to 14) (size 15 to 20)
#    0.000    2.286    1.429    1.714    0.000    5.714 
#    0.000    0.714    0.000    6.857    0.000    0.000 
#    0.000    0.000    0.000    0.000    0.000    0.000 
#
# Total GULP energy -347258.671511 kJ/mol
# GULP energy per Si atom -12402.095411 kJ/mol
# Density = 1.892258 g / cm^3
# Si number density = 18.965751 Si / 1000 Ang^3
#
#
#
# Elastic Constant Matrix: (Units=GPa)
#
#
# Indices 1 2 3 4 5 6 
#
# 1 187.3822 43.1089 86.9694 0.0000 11.0866 0.0000
# 2 43.1089 45.0760 30.3223 0.0000 1.5600 0.0000
# 3 86.9694 30.3223 129.7365 0.0000 8.3137 0.0000
# 4 0.0000 0.0000 0.0000 16.4619 0.0000 2.0702
# 5 11.0866 1.5600 8.3137 0.0000 17.1274 0.0000
# 6 0.0000 0.0000 0.0000 2.0702 0.0000 35.8094
#
#
#
# Elastic Compliance Matrix: (Units=1/GPa)
#
#
# Indices 1 2 3 4 5 6 
#
# 1 0.008816 -0.005318 -0.004471 0.000000 -0.003052 0.000000
# 2 -0.005318 0.029537 -0.003496 0.000000 0.002449 0.000000
# 3 -0.004471 -0.003496 0.011680 0.000000 -0.002457 0.000000
# 4 0.000000 0.000000 0.000000 0.061191 0.000000 -0.003538
# 5 -0.003052 0.002449 -0.002457 0.000000 0.061331 0.000000
# 6 0.000000 0.000000 0.000000 -0.003538 0.000000 0.028130
#
#
# Mechanical properties :
#
#
# Convention : Reuss Voigt Hill
#
# Bulk Modulus (GPa) = 42.61955 75.88841 59.25398
# Shear Modulus (GPa) = 21.26975 27.33268 24.30121
#
# Velocity S-wave (km/s) = 3.35249 3.80038 3.58344
# Velocity P-wave (km/s) = 6.12423 7.70438 6.95930
#
# Compressibility (1/GPa) = 0.02346341
#
# Stress axis : x y z
#
# Youngs Moduli (GPa) = 113.43115 33.85562 85.61817
#
# Poissons Ratio (x) = 0.18004 0.38283
# Poissons Ratio (y) = 0.60320 0.29929
# Poissons Ratio (z) = 0.50719 0.11835
#
# Static dielectric constant tensor:
#      x y z
#    x 3.791340 0.000000 0.090850 
#    y 0.000000 3.189940 0.000000 
#    z 0.090850 0.000000 3.663760 
# 
# 
# High freq. dielectric constant tensor:
#      x y z
#    x 1.753840 0.000000 0.002750 
#    y 0.000000 1.704230 0.000000 
#    z 0.002750 0.000000 1.734800 
# 
# From -- ./inp_files/338184.got.cif
#   From: 2010.06.25/outbox.cif.g09.slc.cpg/sg12_170_cif.got.tgz:338184.got - 2010.06.28 00:19:55.
