data_PCOD8107900
_publ_section_title
;
Structure prediction by ZEFSAII (Michael W. Deem and Ramdas Pophale) SiO2 
 PCOD8107900
Probable space group: C 2/M
;
_chemical_formula_sum "Si O2"
_cell_formula_units_Z 64
_cell_length_a 20.379836
_cell_length_b 24.596006
_cell_length_c 9.776279
_cell_angle_alpha 90.000000
_cell_angle_beta 137.870252
_cell_angle_gamma 90.000000
_cell_volume 3287.301454
_symmetry_space_group_name_H-M "C 2/M"
_symmetry_group_IT_number 12
_symmetry_cell_setting 'monoclinic'
loop_
_space_group_symop_operation_xyz
x,y,z
-x,y,-z
-x,-y,-z
x,-y,z
1/2+x,1/2+y,z
1/2-x,1/2+y,-z
1/2-x,1/2-y,-z
1/2+x,1/2-y,z
loop_
_atom_site_type_symbol
_atom_site_label
_atom_site_fract_x
_atom_site_fract_y
_atom_site_fract_z
Si Si1 0.815340 0.751198 0.465277
Si Si2 0.957023 0.558947 0.580094
Si Si3 0.901539 0.136298 0.527652
Si Si4 0.621173 0.365010 0.813892
Si Si5 0.994061 0.322747 0.656036
Si Si6 0.234244 0.938105 0.186008
Si Si7 0.399841 0.563593 0.775582
Si Si8 0.328887 0.252172 0.005205
O O1 0.750000 0.750000 0.500000
O O2 0.884002 0.804496 0.565426
O O3 0.892384 0.701802 0.559485
O O4 0.728483 0.750313 0.223317
O O5 0.969826 0.500000 0.680358
O O6 0.002537 0.613559 0.717453
O O7 0.845477 0.573998 0.385093
O O8 0.000000 0.548598 0.500000
O O9 0.846249 0.136946 0.295351
O O10 0.866061 0.092285 0.583080
O O11 0.010674 0.116109 0.663082
O O12 0.616095 0.308295 0.885601
O O13 0.699400 0.404386 0.002342
O O14 0.000000 0.316721 0.500000
O O15 0.089802 0.294996 0.867225
O O16 0.182578 0.920344 0.244870
O O17 0.210591 0.000000 0.112902
O O18 0.407605 0.500000 0.755770
O O19 0.500000 0.585207 0.000000
O O20 0.250000 0.250000 0.000000
#
# Coordination Sequence:
#
# PCOD8107900 Si02
#       8
#     8   8   8   8   8   8   8   8
#     4  12  27  41  61  94 126 165 211 259 316 386
#     4   9  20  36  59  93 121 151 207 266 301 349
#     4  11  23  38  57  87 127 155 201 258 308 369
#     4  11  22  38  61  88 120 159 204 258 307 372
#     4  11  21  40  66  92 127 169 206 255 318 376
#     4  10  21  38  62  90 120 163 213 252 306 376
#     4  10  21  38  58  86 123 166 204 243 310 382
#     4  12  23  41  66  87 124 170 207 247 319 385
#
# _framework density 19.468855999999999
#
# number of rings (size 3 to 8) (size 9 to 14) (size 15 to 20)
#    0.000    1.250    5.000    0.750    5.250    1.000 
#    0.000    1.250    0.000    0.750    0.000    0.875 
#    0.000    0.500    0.000    0.000    0.000    0.000 
#
# Total GULP energy -396459.489895 kJ/mol
# GULP energy per Si atom -12389.359059 kJ/mol
# Density = 1.942454 g / cm^3
# Si number density = 19.468856 Si / 1000 Ang^3
#
#
#
# Elastic Constant Matrix: (Units=GPa)
#
#
# Indices 1 2 3 4 5 6 
#
# 1 114.6197 40.7147 38.7759 0.0000 1.7150 0.0000
# 2 40.7147 118.7659 46.9095 0.0000 -5.0295 0.0000
# 3 38.7759 46.9095 90.5558 0.0000 -4.2741 0.0000
# 4 0.0000 0.0000 0.0000 22.9513 0.0000 -7.6127
# 5 1.7150 -5.0295 -4.2741 0.0000 32.0289 0.0000
# 6 0.0000 0.0000 0.0000 -7.6127 0.0000 20.1130
#
#
#
# Elastic Compliance Matrix: (Units=1/GPa)
#
#
# Indices 1 2 3 4 5 6 
#
# 1 0.010757 -0.002391 -0.003434 0.000000 -0.001410 0.000000
# 2 -0.002391 0.011145 -0.004691 0.000000 0.001252 0.000000
# 3 -0.003434 -0.004691 0.015012 0.000000 0.001451 0.000000
# 4 0.000000 0.000000 0.000000 0.049826 0.000000 0.018859
# 5 -0.001410 0.001252 0.001451 0.000000 0.031687 0.000000
# 6 0.000000 0.000000 0.000000 0.018859 0.000000 0.056857
#
#
# Mechanical properties :
#
#
# Convention : Reuss Voigt Hill
#
# Bulk Modulus (GPa) = 62.96199 64.08240 63.52219
# Shear Modulus (GPa) = 24.80048 28.18805 26.49427
#
# Velocity S-wave (km/s) = 3.57298 3.80919 3.69298
# Velocity P-wave (km/s) = 7.03076 7.23418 7.13320
#
# Compressibility (1/GPa) = 0.01588260
#
# Stress axis : x y z
#
# Youngs Moduli (GPa) = 92.96624 89.72443 66.61516
#
# Poissons Ratio (x) = 0.21452 0.22875
# Poissons Ratio (y) = 0.22227 0.31246
# Poissons Ratio (z) = 0.31924 0.42086
#
# Static dielectric constant tensor:
#      x y z
#    x 3.686140 0.000000 0.061370 
#    y 0.000000 3.690520 0.000000 
#    z 0.061370 0.000000 3.344410 
# 
# 
# High freq. dielectric constant tensor:
#      x y z
#    x 1.769120 0.000000 0.011420 
#    y 0.000000 1.768190 0.000000 
#    z 0.011420 0.000000 1.734830 
# 
# From -- ./inp_files/90671.got.cif
#   From: 2010.06.25/outbox.cif.g09.slc.cpg/sg12_46_cif.got.tgz:90671.got - 2010.06.28 00:19:55.
