data_PCOD8107173
_publ_section_title
;
Structure prediction by ZEFSAII (Michael W. Deem and Ramdas Pophale) SiO2 
 PCOD8107173
Probable space group: C 2/M
;
_chemical_formula_sum "Si O2"
_cell_formula_units_Z 48
_cell_length_a 23.924166
_cell_length_b 15.901097
_cell_length_c 9.749541
_cell_angle_alpha 90.000000
_cell_angle_beta 34.123147
_cell_angle_gamma 90.000000
_cell_volume 2080.608618
_symmetry_space_group_name_H-M "C 2/M"
_symmetry_group_IT_number 12
_symmetry_cell_setting 'monoclinic'
loop_
_space_group_symop_operation_xyz
x,y,z
-x,y,-z
-x,-y,-z
x,-y,z
1/2+x,1/2+y,z
1/2-x,1/2+y,-z
1/2-x,1/2-y,-z
1/2+x,1/2-y,z
loop_
_atom_site_type_symbol
_atom_site_label
_atom_site_fract_x
_atom_site_fract_y
_atom_site_fract_z
Si Si1 0.144828 0.181982 0.456735
Si Si2 0.667496 0.870748 0.410809
Si Si3 0.445731 0.269572 0.751424
Si Si4 0.238104 0.407278 0.557807
Si Si5 0.810312 0.907835 0.907767
Si Si6 0.561901 0.094616 0.109747
O O1 0.184201 0.273800 0.343597
O O2 0.183342 0.154657 0.528093
O O3 0.191651 0.120182 0.246685
O O4 0.024123 0.189228 0.700247
O O5 0.738224 0.892820 0.395211
O O6 0.555657 0.897099 0.677187
O O7 0.701677 0.916967 0.200568
O O8 0.500000 0.252495 0.500000
O O9 0.363402 0.340451 0.898223
O O10 0.402023 0.176957 0.877620
O O11 0.278516 0.500000 0.507331
O O12 0.124478 0.396991 0.842510
O O13 0.861966 0.000000 0.806150
O O14 0.582837 0.000000 0.131477
#
# Coordination Sequence:
#
# PCOD8107173 Si02
#       6
#     8   8   8   8   8   8
#     4  10  22  39  60  85 116 154 196 243 291 346
#     4  11  22  39  60  86 119 156 195 239 293 349
#     4   9  21  39  59  85 116 154 198 242 293 348
#     4  11  22  37  59  87 118 153 194 239 291 350
#     4  11  22  39  63  87 117 156 197 243 292 346
#     4  10  21  37  58  85 119 156 194 238 290 350
#
# _framework density 23.070174000000002
#
# number of rings (size 3 to 8) (size 9 to 14) (size 15 to 20)
#    0.000    1.667    0.000    4.500    0.000    8.000 
#    0.000    4.167    0.000    2.000    0.000    0.000 
#    0.000    0.000    0.000    0.000    0.000    0.000 
#
# Total GULP energy -297345.076084 kJ/mol
# GULP energy per Si atom -12389.378170 kJ/mol
# Density = 2.301766 g / cm^3
# Si number density = 23.070174 Si / 1000 Ang^3
#
#
#
# Elastic Constant Matrix: (Units=GPa)
#
#
# Indices 1 2 3 4 5 6 
#
# 1 48.0554 21.0692 -6.5183 0.0000 -5.5512 0.0000
# 2 21.0692 170.1622 22.5661 0.0000 -5.1459 0.0000
# 3 -6.5183 22.5661 35.0268 0.0000 10.5413 0.0000
# 4 0.0000 0.0000 0.0000 349.2149 0.0000 90.9680
# 5 -5.5512 -5.1459 10.5413 0.0000 20.9590 0.0000
# 6 0.0000 0.0000 0.0000 90.9680 0.0000 54.3115
#
#
#
# Elastic Compliance Matrix: (Units=1/GPa)
#
#
# Indices 1 2 3 4 5 6 
#
# 1 0.023486 -0.003637 0.006022 0.000000 0.002299 0.000000
# 2 -0.003637 0.007338 -0.006665 0.000000 0.004191 0.000000
# 3 0.006022 -0.006665 0.040037 0.000000 -0.020178 0.000000
# 4 0.000000 0.000000 0.000000 0.005080 0.000000 -0.008509
# 5 0.002299 0.004191 -0.020178 0.000000 0.059499 0.000000
# 6 0.000000 0.000000 0.000000 -0.008509 0.000000 0.032664
#
#
# Mechanical properties :
#
#
# Convention : Reuss Voigt Hill
#
# Bulk Modulus (GPa) = 16.05122 36.38646 26.21884
# Shear Modulus (GPa) = 25.32525 99.30557 62.31541
#
# Velocity S-wave (km/s) = 3.31682 6.56799 5.20287
# Velocity P-wave (km/s) = 4.65200 8.56296 6.89077
#
# Compressibility (1/GPa) = 0.06230056
#
# Stress axis : x y z
#
# Youngs Moduli (GPa) = 42.57785 136.28136 24.97677
#
# Poissons Ratio (x) = 0.49568 -0.15041
# Poissons Ratio (y) = 0.15486 0.16648
# Poissons Ratio (z) = -0.25641 0.90837
#
# Static dielectric constant tensor:
#      x y z
#    x 4.050000 0.000000 -0.250870 
#    y 0.000000 4.475410 0.000000 
#    z -0.250870 0.000000 4.156480 
# 
# 
# High freq. dielectric constant tensor:
#      x y z
#    x 1.891280 0.000000 -0.000600 
#    y 0.000000 1.934900 0.000000 
#    z -0.000600 0.000000 1.901710 
# 
# From -- ./inp_files/183677.got.cif
#   From: 2010.06.25/outbox.cif.g09.slc.cpg/sg12_92_cif.got.tgz:183677.got - 2010.06.28 00:19:55.
