data_PCOD8107451
_publ_section_title
;
Structure prediction by ZEFSAII (Michael W. Deem and Ramdas Pophale) SiO2 
 PCOD8107451
Probable space group: C 2/M
;
_chemical_formula_sum "Si O2"
_cell_formula_units_Z 64
_cell_length_a 24.096308
_cell_length_b 8.926956
_cell_length_c 15.066681
_cell_angle_alpha 90.000000
_cell_angle_beta 91.075594
_cell_angle_gamma 90.000000
_cell_volume 3240.372690
_symmetry_space_group_name_H-M "C 2/M"
_symmetry_group_IT_number 12
_symmetry_cell_setting 'monoclinic'
loop_
_space_group_symop_operation_xyz
x,y,z
-x,y,-z
-x,-y,-z
x,-y,z
1/2+x,1/2+y,z
1/2-x,1/2+y,-z
1/2-x,1/2-y,-z
1/2+x,1/2-y,z
loop_
_atom_site_type_symbol
_atom_site_label
_atom_site_fract_x
_atom_site_fract_y
_atom_site_fract_z
Si Si1 0.958476 0.177294 0.920491
Si Si2 0.594129 0.177632 0.423040
Si Si3 0.014678 0.321618 0.266613
Si Si4 0.219390 0.676860 0.417431
Si Si5 0.168670 0.170621 0.057266
Si Si6 0.914708 0.677672 0.381870
Si Si7 0.772680 0.170054 0.127751
Si Si8 0.800299 0.675923 0.296599
O O1 0.977818 0.248493 0.828776
O O2 0.895100 0.227699 0.939845
O O3 0.962372 0.000000 0.911593
O O4 0.000000 0.233013 0.000000
O O5 0.560513 0.239223 0.337635
O O6 0.656589 0.233497 0.413877
O O7 0.571142 0.236904 0.518070
O O8 0.589798 0.000000 0.422996
O O9 0.017028 0.500000 0.255195
O O10 0.957123 0.264616 0.308358
O O11 0.223085 0.500000 0.426754
O O12 0.250000 0.750000 0.500000
O O13 0.246708 0.734174 0.328084
O O14 0.208963 0.274148 0.117216
O O15 0.172648 0.000000 0.092122
O O16 0.190824 0.182243 0.958698
O O17 0.917268 0.500000 0.382869
O O18 0.853421 0.731519 0.353473
O O19 0.806690 0.277222 0.194831
O O20 0.770153 0.000000 0.162283
O O21 0.791258 0.500000 0.306612
#
# Coordination Sequence:
#
# PCOD8107451 Si02
#       8
#     8   8   8   8   8   8   8   8
#     4  10  23  42  61  82 116 157 190 231 293 355
#     4   9  18  35  59  85 115 147 187 237 286 337
#     4  10  21  37  62  90 111 145 197 246 287 334
#     4  11  21  36  56  83 117 154 193 235 286 343
#     4   9  20  40  61  83 113 152 192 233 293 355
#     4   9  18  35  58  85 116 152 193 236 287 340
#     4  10  21  37  60  88 114 146 192 242 288 343
#     4  11  22  36  56  84 119 155 191 234 288 350
#
# _framework density 19.750814999999999
#
# number of rings (size 3 to 8) (size 9 to 14) (size 15 to 20)
#    0.000    2.125    1.250    1.500    3.500    2.750 
#    0.000    1.250    0.000    0.750    0.000    0.000 
#    0.000    0.000    0.000    0.000    0.000    0.000 
#
# Total GULP energy -396707.445605 kJ/mol
# GULP energy per Si atom -12397.107675 kJ/mol
# Density = 1.970586 g / cm^3
# Si number density = 19.750815 Si / 1000 Ang^3
#
#
#
# Elastic Constant Matrix: (Units=GPa)
#
#
# Indices 1 2 3 4 5 6 
#
# 1 134.6737 33.3956 71.5865 0.0000 -9.3470 0.0000
# 2 33.3956 40.5354 30.9459 0.0000 -1.4027 0.0000
# 3 71.5865 30.9459 137.9289 0.0000 7.1385 0.0000
# 4 0.0000 0.0000 0.0000 34.2481 0.0000 -0.8273
# 5 -9.3470 -1.4027 7.1385 0.0000 31.1746 0.0000
# 6 0.0000 0.0000 0.0000 -0.8273 0.0000 23.4673
#
#
#
# Elastic Compliance Matrix: (Units=1/GPa)
#
#
# Indices 1 2 3 4 5 6 
#
# 1 0.011870 -0.005726 -0.005108 0.000000 0.004471 0.000000
# 2 -0.005726 0.032792 -0.004426 0.000000 0.000772 0.000000
# 3 -0.005108 -0.004426 0.011115 0.000000 -0.004276 0.000000
# 4 0.000000 0.000000 0.000000 0.029224 0.000000 0.001030
# 5 0.004471 0.000772 -0.004276 0.000000 0.034432 0.000000
# 6 0.000000 0.000000 0.000000 0.001030 0.000000 0.042649
#
#
# Mechanical properties :
#
#
# Convention : Reuss Voigt Hill
#
# Bulk Modulus (GPa) = 39.58797 64.99934 52.29365
# Shear Modulus (GPa) = 24.87314 29.59201 27.23257
#
# Velocity S-wave (km/s) = 3.55258 3.87495 3.71726
# Velocity P-wave (km/s) = 6.07577 7.28021 6.70509
#
# Compressibility (1/GPa) = 0.02526020
#
# Stress axis : x y z
#
# Youngs Moduli (GPa) = 84.24262 30.49500 89.96609
#
# Poissons Ratio (x) = 0.17460 0.45952
# Poissons Ratio (y) = 0.48234 0.39816
# Poissons Ratio (z) = 0.43029 0.13496
#
# Static dielectric constant tensor:
#      x y z
#    x 3.922930 0.000000 -0.026690 
#    y 0.000000 3.344180 0.000000 
#    z -0.026690 0.000000 3.654310 
# 
# 
# High freq. dielectric constant tensor:
#      x y z
#    x 1.779640 0.000000 -0.000980 
#    y 0.000000 1.739450 0.000000 
#    z -0.000980 0.000000 1.782370 
# 
# From -- ./inp_files/238771.got.cif
#   From: 2010.06.25/outbox.cif.g09.slc.cpg/sg12_120_cif.got.tgz:238771.got - 2010.06.28 00:19:55.
