data_PCOD8107199
_publ_section_title
;
Structure prediction by ZEFSAII (Michael W. Deem and Ramdas Pophale) SiO2 
 PCOD8107199
Probable space group: C 2/M
;
_chemical_formula_sum "Si O2"
_cell_formula_units_Z 56
_cell_length_a 15.800320
_cell_length_b 8.821588
_cell_length_c 24.640798
_cell_angle_alpha 90.000000
_cell_angle_beta 51.149531
_cell_angle_gamma 90.000000
_cell_volume 2674.763578
_symmetry_space_group_name_H-M "C 2/M"
_symmetry_group_IT_number 12
_symmetry_cell_setting 'monoclinic'
loop_
_space_group_symop_operation_xyz
x,y,z
-x,y,-z
-x,-y,-z
x,-y,z
1/2+x,1/2+y,z
1/2-x,1/2+y,-z
1/2-x,1/2-y,-z
1/2+x,1/2-y,z
loop_
_atom_site_type_symbol
_atom_site_label
_atom_site_fract_x
_atom_site_fract_y
_atom_site_fract_z
Si Si1 0.304374 0.322200 0.784426
Si Si2 0.366975 0.325841 0.215242
Si Si3 0.912945 0.826680 0.582242
Si Si4 0.001703 0.679548 0.655556
Si Si5 0.717117 0.821895 0.933469
Si Si6 0.187551 0.825544 0.643141
Si Si7 0.585017 0.678626 0.071962
O O1 0.329003 0.500000 0.776865
O O2 0.235184 0.278265 0.759361
O O3 0.418922 0.235877 0.735598
O O4 0.235387 0.268202 0.864486
O O5 0.342970 0.500000 0.208561
O O6 0.382731 0.312089 0.273310
O O7 0.471911 0.260986 0.141640
O O8 0.961360 0.739023 0.614032
O O9 0.803976 0.750699 0.603742
O O10 0.000000 0.817807 0.500000
O O11 0.889018 0.000000 0.608912
O O12 0.006356 0.500000 0.652311
O O13 0.121149 0.743380 0.621824
O O14 0.821586 0.765323 0.924878
O O15 0.701625 0.000000 0.943367
O O16 0.608781 0.746061 0.002483
O O17 0.205214 0.000000 0.619647
O O18 0.582045 0.500000 0.069139
#
# Coordination Sequence:
#
# PCOD8107199 Si02
#       7
#     8   8   8   8   8   8   8
#     4  11  22  37  59  85 120 161 207 265 320 375
#     4  10  21  37  58  86 120 159 206 260 319 377
#     4  11  25  46  71 101 136 170 210 260 313 376
#     4  12  25  42  67  98 132 172 217 263 317 382
#     4   9  19  35  53  77 109 151 202 257 318 376
#     4  11  23  42  69  98 132 173 216 265 318 376
#     4   9  18  34  54  76 109 152 200 255 314 378
#
# _framework density 20.936430000000001
#
# number of rings (size 3 to 8) (size 9 to 14) (size 15 to 20)
#    0.000    1.571    1.429    3.429    0.000    6.857 
#    0.000    5.714    0.000    0.000    0.000    0.000 
#    0.000    0.000    0.000    0.000    0.000    0.000 
#
# Total GULP energy -347271.520782 kJ/mol
# GULP energy per Si atom -12402.554314 kJ/mol
# Density = 2.088878 g / cm^3
# Si number density = 20.936430 Si / 1000 Ang^3
#
#
#
# Elastic Constant Matrix: (Units=GPa)
#
#
# Indices 1 2 3 4 5 6 
#
# 1 124.8457 54.0096 28.7592 0.0001 -14.6551 0.0003
# 2 54.0096 117.3768 37.9742 0.0001 -11.6847 0.0006
# 3 28.7592 37.9742 80.4483 0.0000 -14.6720 0.0000
# 4 0.0001 0.0001 0.0000 32.9126 0.0000 -0.5335
# 5 -14.6551 -11.6847 -14.6720 0.0000 20.4990 0.0000
# 6 0.0003 0.0006 0.0000 -0.5335 0.0000 35.5216
#
#
#
# Elastic Compliance Matrix: (Units=1/GPa)
#
#
# Indices 1 2 3 4 5 6 
#
# 1 0.010532 -0.004068 -0.001029 0.000000 0.004474 0.000000
# 2 -0.004068 0.011756 -0.003914 0.000000 0.000991 0.000000
# 3 -0.001029 -0.003914 0.016222 0.000000 0.008644 0.000000
# 4 0.000000 0.000000 0.000000 0.030391 0.000000 0.000456
# 5 0.004474 0.000991 0.008644 0.000000 0.058734 0.000000
# 6 0.000000 0.000000 0.000000 0.000456 0.000000 0.028159
#
#
# Mechanical properties :
#
#
# Convention : Reuss Voigt Hill
#
# Bulk Modulus (GPa) = 48.80776 62.68410 55.74593
# Shear Modulus (GPa) = 27.67843 31.24848 29.46345
#
# Velocity S-wave (km/s) = 3.63991 3.86753 3.75545
# Velocity P-wave (km/s) = 6.40533 7.06746 6.74452
#
# Compressibility (1/GPa) = 0.02048854
#
# Stress axis : x y z
#
# Youngs Moduli (GPa) = 94.94946 85.05963 61.64316
#
# Poissons Ratio (x) = 0.34601 0.06342
# Poissons Ratio (y) = 0.38624 0.24130
# Poissons Ratio (z) = 0.09769 0.33296
#
# Static dielectric constant tensor:
#      x y z
#    x 3.751710 0.000000 -0.059290 
#    y 0.000000 3.721710 0.000000 
#    z -0.059290 0.000000 3.981610 
# 
# 
# High freq. dielectric constant tensor:
#      x y z
#    x 1.818250 0.000000 -0.003400 
#    y 0.000000 1.817150 0.000000 
#    z -0.003400 0.000000 1.828140 
# 
# From -- ./inp_files/338545.got.cif
#   From: 2010.06.25/outbox.cif.g09.slc.cpg/sg12_170_cif.got.tgz:338545.got - 2010.06.28 00:19:55.
