data_PCOD8107796
_publ_section_title
;
Structure prediction by ZEFSAII (Michael W. Deem and Ramdas Pophale) SiO2 
 PCOD8107796
Probable space group: C 2/M
;
_chemical_formula_sum "Si O2"
_cell_formula_units_Z 56
_cell_length_a 20.054476
_cell_length_b 8.924363
_cell_length_c 25.656134
_cell_angle_alpha 90.000000
_cell_angle_beta 140.186962
_cell_angle_gamma 90.000000
_cell_volume 2940.036734
_symmetry_space_group_name_H-M "C 2/M"
_symmetry_group_IT_number 12
_symmetry_cell_setting 'monoclinic'
loop_
_space_group_symop_operation_xyz
x,y,z
-x,y,-z
-x,-y,-z
x,-y,z
1/2+x,1/2+y,z
1/2-x,1/2+y,-z
1/2-x,1/2-y,-z
1/2+x,1/2-y,z
loop_
_atom_site_type_symbol
_atom_site_label
_atom_site_fract_x
_atom_site_fract_y
_atom_site_fract_z
Si Si1 0.226040 0.175317 0.344571
Si Si2 0.234832 0.677891 0.240449
Si Si3 0.986458 0.675654 0.751914
Si Si4 0.073134 0.323189 0.691635
Si Si5 0.362123 0.176980 0.064758
Si Si6 0.013537 0.322027 0.066002
Si Si7 0.943291 0.675369 0.516513
O O1 0.259271 0.253177 0.311037
O O2 0.319837 0.209054 0.441360
O O3 0.121297 0.239676 0.305398
O O4 0.213293 0.000000 0.326350
O O5 0.239714 0.500000 0.246668
O O6 0.317817 0.737936 0.248701
O O7 0.121840 0.735431 0.154629
O O8 0.963994 0.500000 0.744239
O O9 0.028830 0.720470 0.721101
O O10 0.069625 0.728933 0.844832
O O11 0.092441 0.500000 0.698682
O O12 0.992582 0.261447 0.599585
O O13 0.419717 0.232882 0.046787
O O14 0.347916 0.000000 0.056367
O O15 0.250000 0.250000 0.000000
O O16 0.014061 0.500000 0.063909
O O17 0.000000 0.253916 0.000000
O O18 0.965359 0.500000 0.528720
O O19 0.000000 0.748113 0.500000
#
# Coordination Sequence:
#
# PCOD8107796 Si02
#       7
#     8   8   8   8   8   8   8
#     4  11  21  36  61  84 110 150 194 229 272 336
#     4  11  21  36  59  85 115 146 187 234 280 329
#     4  10  22  40  58  81 117 152 183 230 287 333
#     4  10  21  38  59  82 113 152 188 226 282 336
#     4  10  21  38  57  80 113 147 182 224 277 335
#     4   9  19  36  57  80 109 145 181 224 279 331
#     4   9  17  33  56  82 111 145 186 231 278 329
#
# _framework density 19.047381999999999
#
# number of rings (size 3 to 8) (size 9 to 14) (size 15 to 20)
#    0.000    2.000    2.857    0.857    2.000    1.714 
#    0.000    2.143    0.000    2.143    0.000    0.000 
#    0.000    0.000    0.000    0.000    0.000    0.000 
#
# Total GULP energy -347229.207388 kJ/mol
# GULP energy per Si atom -12401.043121 kJ/mol
# Density = 1.900403 g / cm^3
# Si number density = 19.047382 Si / 1000 Ang^3
#
#
#
# Elastic Constant Matrix: (Units=GPa)
#
#
# Indices 1 2 3 4 5 6 
#
# 1 162.0653 40.8200 84.3770 0.0000 3.5654 0.0000
# 2 40.8200 41.4815 27.0937 0.0000 9.7829 0.0003
# 3 84.3770 27.0937 129.0227 0.0000 8.7219 0.0000
# 4 0.0000 0.0000 0.0000 24.0253 0.0000 10.0959
# 5 3.5654 9.7829 8.7219 0.0000 40.9331 0.0000
# 6 0.0000 0.0003 0.0000 10.0959 0.0000 27.3617
#
#
#
# Elastic Compliance Matrix: (Units=1/GPa)
#
#
# Indices 1 2 3 4 5 6 
#
# 1 0.011037 -0.007586 -0.005766 0.000000 0.002080 0.000000
# 2 -0.007586 0.034432 -0.001784 0.000000 -0.007188 0.000000
# 3 -0.005766 -0.001784 0.012006 0.000000 -0.001630 0.000000
# 4 0.000000 0.000000 0.000000 0.049261 0.000000 -0.018176
# 5 0.002080 -0.007188 -0.001630 0.000000 0.026314 0.000000
# 6 0.000000 0.000000 0.000000 -0.018176 0.000000 0.043254
#
#
# Mechanical properties :
#
#
# Convention : Reuss Voigt Hill
#
# Bulk Modulus (GPa) = 36.75793 70.79456 53.77624
# Shear Modulus (GPa) = 23.18657 30.48262 26.83460
#
# Velocity S-wave (km/s) = 3.49278 4.00479 3.75752
# Velocity P-wave (km/s) = 5.96708 7.65720 6.86436
#
# Compressibility (1/GPa) = 0.02720502
#
# Stress axis : x y z
#
# Youngs Moduli (GPa) = 90.60441 29.04254 83.29332
#
# Poissons Ratio (x) = 0.22031 0.48023
# Poissons Ratio (y) = 0.68731 0.14857
# Poissons Ratio (z) = 0.52238 0.05180
#
# Static dielectric constant tensor:
#      x y z
#    x 3.682250 0.000000 -0.107300 
#    y 0.000000 3.172980 0.000000 
#    z -0.107300 0.000000 3.707050 
# 
# 
# High freq. dielectric constant tensor:
#      x y z
#    x 1.749150 0.000000 0.002570 
#    y 0.000000 1.709230 0.000000 
#    z 0.002570 0.000000 1.754670 
# 
# From -- ./inp_files/363231.got.cif
#   From: 2010.06.25/outbox.cif.g09.slc.cpg/sg12_182_cif.got.tgz:363231.got - 2010.06.28 00:19:55.
