data_PCOD8107666
_publ_section_title
;
Structure prediction by ZEFSAII (Michael W. Deem and Ramdas Pophale) SiO2 
 PCOD8107666
Probable space group: C 2/M
;
_chemical_formula_sum "Si O2"
_cell_formula_units_Z 56
_cell_length_a 9.548624
_cell_length_b 24.945974
_cell_length_c 14.232288
_cell_angle_alpha 90.000000
_cell_angle_beta 60.994495
_cell_angle_gamma 90.000000
_cell_volume 2964.914045
_symmetry_space_group_name_H-M "C 2/M"
_symmetry_group_IT_number 12
_symmetry_cell_setting 'monoclinic'
loop_
_space_group_symop_operation_xyz
x,y,z
-x,y,-z
-x,-y,-z
x,-y,z
1/2+x,1/2+y,z
1/2-x,1/2+y,-z
1/2-x,1/2-y,-z
1/2+x,1/2-y,z
loop_
_atom_site_type_symbol
_atom_site_label
_atom_site_fract_x
_atom_site_fract_y
_atom_site_fract_z
Si Si1 0.959858 0.561416 0.748751
Si Si2 0.133999 0.800594 0.533273
Si Si3 0.832482 0.060318 0.285418
Si Si4 0.067298 0.757215 0.076606
Si Si5 0.939066 0.155426 0.768603
Si Si6 0.145465 0.397483 0.516098
Si Si7 0.935984 0.643638 0.126406
O O1 0.967527 0.500000 0.781068
O O2 0.786790 0.575450 0.761121
O O3 0.088614 0.568358 0.623686
O O4 0.992136 0.599374 0.827129
O O5 0.250000 0.750000 0.500000
O O6 0.247886 0.850647 0.473774
O O7 0.000000 0.790539 0.500000
O O8 0.036079 0.812412 0.658805
O O9 0.746950 0.064392 0.414578
O O10 0.985405 0.098271 0.231632
O O11 0.895009 0.000000 0.253037
O O12 0.035844 0.807103 0.151657
O O13 0.991531 0.702442 0.142030
O O14 0.250000 0.750000 0.000000
O O15 0.000000 0.774634 0.000000
O O16 0.755478 0.143701 0.803911
O O17 0.000000 0.373354 0.500000
O O18 0.000000 0.632151 0.000000
#
# Coordination Sequence:
#
# PCOD8107666 Si02
#       7
#     8   8   8   8   8   8   8
#     4  10  21  37  63  89 117 159 198 242 295 347
#     4  11  24  37  53  86 125 157 192 234 292 356
#     4   9  20  38  61  91 120 151 197 241 289 352
#     4  11  23  42  64  88 114 152 203 251 296 350
#     4  11  24  39  63  88 117 160 195 244 299 349
#     4   9  18  37  59  85 117 155 195 238 284 349
#     4  11  24  42  60  87 117 153 201 250 297 348
#
# _framework density 18.887563
#
# number of rings (size 3 to 8) (size 9 to 14) (size 15 to 20)
#    0.000    1.714    2.857    1.714    6.000    2.571 
#    0.000    0.000    0.000    6.857    0.000    0.000 
#    0.000    0.000    0.000    0.000    0.000    0.000 
#
# Total GULP energy -347116.673737 kJ/mol
# GULP energy per Si atom -12397.024062 kJ/mol
# Density = 1.884457 g / cm^3
# Si number density = 18.887563 Si / 1000 Ang^3
#
#
#
# Elastic Constant Matrix: (Units=GPa)
#
#
# Indices 1 2 3 4 5 6 
#
# 1 143.1850 78.0635 43.6839 0.0000 -6.6351 0.0000
# 2 78.0635 131.8295 54.9990 0.0000 3.5390 0.0000
# 3 43.6839 54.9990 78.3336 0.0000 -1.0358 0.0000
# 4 0.0000 0.0000 0.0000 32.6712 0.0000 5.6356
# 5 -6.6351 3.5390 -1.0358 0.0000 36.3207 0.0000
# 6 0.0000 0.0000 0.0000 5.6356 0.0000 32.7782
#
#
#
# Elastic Compliance Matrix: (Units=1/GPa)
#
#
# Indices 1 2 3 4 5 6 
#
# 1 0.010770 -0.005588 -0.002050 0.000000 0.002453 0.000000
# 2 -0.005588 0.013685 -0.006526 0.000000 -0.002540 0.000000
# 3 -0.002050 -0.006526 0.018502 0.000000 0.000789 0.000000
# 4 0.000000 0.000000 0.000000 0.031543 0.000000 -0.005423
# 5 0.002453 -0.002540 0.000789 0.000000 0.028251 0.000000
# 6 0.000000 0.000000 0.000000 -0.005423 0.000000 0.031441
#
#
# Mechanical properties :
#
#
# Convention : Reuss Voigt Hill
#
# Bulk Modulus (GPa) = 68.35952 78.53785 73.44869
# Shear Modulus (GPa) = 29.86941 32.12746 30.99844
#
# Velocity S-wave (km/s) = 3.98104 4.12877 4.05558
# Velocity P-wave (km/s) = 7.57648 8.02503 7.80398
#
# Compressibility (1/GPa) = 0.01462854
#
# Stress axis : x y z
#
# Youngs Moduli (GPa) = 92.85431 73.07127 54.04927
#
# Poissons Ratio (x) = 0.40831 0.11081
# Poissons Ratio (y) = 0.51885 0.35273
# Poissons Ratio (z) = 0.19036 0.47687
#
# Static dielectric constant tensor:
#      x y z
#    x 3.632130 0.000000 -0.041050 
#    y 0.000000 3.500850 0.000000 
#    z -0.041050 0.000000 3.425030 
# 
# 
# High freq. dielectric constant tensor:
#      x y z
#    x 1.745710 0.000000 -0.001100 
#    y 0.000000 1.737070 0.000000 
#    z -0.001100 0.000000 1.733320 
# 
# From -- ./inp_files/124275.got.cif
#   From: 2010.06.25/outbox.cif.g09.slc.cpg/sg12_63_cif.got.tgz:124275.got - 2010.06.28 00:19:55.
