data_PCOD8107229
_publ_section_title
;
Structure prediction by ZEFSAII (Michael W. Deem and Ramdas Pophale) SiO2 
 PCOD8107229
Probable space group: C 2/M
;
_chemical_formula_sum "Si O2"
_cell_formula_units_Z 64
_cell_length_a 27.863280
_cell_length_b 13.324404
_cell_length_c 9.455570
_cell_angle_alpha 90.000000
_cell_angle_beta 106.473742
_cell_angle_gamma 90.000000
_cell_volume 3366.383707
_symmetry_space_group_name_H-M "C 2/M"
_symmetry_group_IT_number 12
_symmetry_cell_setting 'monoclinic'
loop_
_space_group_symop_operation_xyz
x,y,z
-x,y,-z
-x,-y,-z
x,-y,z
1/2+x,1/2+y,z
1/2-x,1/2+y,-z
1/2-x,1/2-y,-z
1/2+x,1/2-y,z
loop_
_atom_site_type_symbol
_atom_site_label
_atom_site_fract_x
_atom_site_fract_y
_atom_site_fract_z
Si Si1 0.453159 0.718495 0.558531
Si Si2 0.628632 0.886998 0.563558
Si Si3 0.697664 0.739841 0.117960
Si Si4 0.794540 0.618423 0.132482
Si Si5 0.307460 0.768491 0.567502
Si Si6 0.638201 0.612158 0.584956
Si Si7 0.990545 0.117050 0.156350
Si Si8 0.622175 0.382721 0.883010
O O1 0.500000 0.738477 0.500000
O O2 0.417676 0.816011 0.515890
O O3 0.421906 0.621659 0.480242
O O4 0.471126 0.691647 0.731641
O O5 0.653488 0.864071 0.738139
O O6 0.673143 0.872009 0.485777
O O7 0.608641 0.000000 0.539929
O O8 0.749894 0.679337 0.171557
O O9 0.680061 0.774051 0.257353
O O10 0.700673 0.838693 0.022230
O O11 0.654077 0.667274 0.031261
O O12 0.781555 0.500000 0.114583
O O13 0.250000 0.750000 0.500000
O O14 0.335238 0.679199 0.508880
O O15 0.656182 0.500000 0.571767
O O16 0.649166 0.644631 0.756248
O O17 0.935132 0.153364 0.154785
O O18 0.999315 0.000000 0.204141
O O19 0.000000 0.134526 0.000000
O O20 0.623470 0.500000 0.911508
#
# Coordination Sequence:
#
# PCOD8107229 Si02
#       8
#     8   8   8   8   8   8   8   8
#     4  11  21  37  64  85 114 156 203 248 304 357
#     4  10  23  43  62  86 120 156 205 255 297 353
#     4  11  22  37  62  86 120 152 199 243 298 367
#     4  10  22  40  62  86 116 156 198 247 301 359
#     4  11  23  39  59  87 120 162 204 250 305 350
#     4  10  22  37  58  88 122 157 200 248 302 364
#     4  10  22  37  57  89 126 160 194 241 304 367
#     4  10  21  37  58  88 123 159 197 243 298 363
#
# _framework density 19.011500000000002
#
# number of rings (size 3 to 8) (size 9 to 14) (size 15 to 20)
#    0.000    1.625    2.500    2.250    5.250    2.750 
#    0.000    0.000    0.000    0.375    0.000    0.000 
#    0.000    0.000    0.000    0.000    0.000    0.000 
#
# Total GULP energy -396650.463982 kJ/mol
# GULP energy per Si atom -12395.326999 kJ/mol
# Density = 1.896823 g / cm^3
# Si number density = 19.011500 Si / 1000 Ang^3
#
#
#
# Elastic Constant Matrix: (Units=GPa)
#
#
# Indices 1 2 3 4 5 6 
#
# 1 91.3362 34.4039 39.0988 0.0000 1.6669 0.0000
# 2 34.4039 78.3115 49.1410 0.0000 -1.4312 0.0000
# 3 39.0988 49.1410 126.6241 0.0000 -2.3813 0.0000
# 4 0.0000 0.0000 0.0000 28.8532 0.0000 5.6950
# 5 1.6669 -1.4312 -2.3813 0.0000 37.7380 0.0000
# 6 0.0000 0.0000 0.0000 5.6950 0.0000 25.6117
#
#
#
# Elastic Compliance Matrix: (Units=1/GPa)
#
#
# Indices 1 2 3 4 5 6 
#
# 1 0.013728 -0.004464 -0.002524 0.000000 -0.000935 0.000000
# 2 -0.004464 0.018334 -0.005727 0.000000 0.000531 0.000000
# 3 -0.002524 -0.005727 0.010910 0.000000 0.000583 0.000000
# 4 0.000000 0.000000 0.000000 0.036249 0.000000 -0.008060
# 5 -0.000935 0.000531 0.000583 0.000000 0.026597 0.000000
# 6 0.000000 0.000000 0.000000 -0.008060 0.000000 0.040837
#
#
# Mechanical properties :
#
#
# Convention : Reuss Voigt Hill
#
# Bulk Modulus (GPa) = 57.00555 60.17323 58.58939
# Shear Modulus (GPa) = 28.10071 30.01578 29.05825
#
# Velocity S-wave (km/s) = 3.84876 3.97775 3.91379
# Velocity P-wave (km/s) = 7.05695 7.26749 7.16299
#
# Compressibility (1/GPa) = 0.01754215
#
# Stress axis : x y z
#
# Youngs Moduli (GPa) = 72.84613 54.54351 91.65786
#
# Poissons Ratio (x) = 0.24349 0.23133
# Poissons Ratio (y) = 0.32520 0.52490
# Poissons Ratio (z) = 0.18386 0.31236
#
# Static dielectric constant tensor:
#      x y z
#    x 3.315670 0.000000 0.106840 
#    y 0.000000 3.338860 0.000000 
#    z 0.106840 0.000000 3.593850 
# 
# 
# High freq. dielectric constant tensor:
#      x y z
#    x 1.739540 0.000000 0.003610 
#    y 0.000000 1.728200 0.000000 
#    z 0.003610 0.000000 1.749200 
# 
# From -- ./inp_files/104664.got.cif
#   From: 2010.06.25/outbox.cif.g09.slc.cpg/sg12_53_cif.got.tgz:104664.got - 2010.06.28 00:19:55.
