data_PCOD8107667
_publ_section_title
;
Structure prediction by ZEFSAII (Michael W. Deem and Ramdas Pophale) SiO2 
 PCOD8107667
Probable space group: C 2/M
;
_chemical_formula_sum "Si O2"
_cell_formula_units_Z 64
_cell_length_a 19.387254
_cell_length_b 8.840713
_cell_length_c 24.178430
_cell_angle_alpha 90.000000
_cell_angle_beta 51.363362
_cell_angle_gamma 90.000000
_cell_volume 3237.055973
_symmetry_space_group_name_H-M "C 2/M"
_symmetry_group_IT_number 12
_symmetry_cell_setting 'monoclinic'
loop_
_space_group_symop_operation_xyz
x,y,z
-x,y,-z
-x,-y,-z
x,-y,z
1/2+x,1/2+y,z
1/2-x,1/2+y,-z
1/2-x,1/2-y,-z
1/2+x,1/2-y,z
loop_
_atom_site_type_symbol
_atom_site_label
_atom_site_fract_x
_atom_site_fract_y
_atom_site_fract_z
Si Si1 0.398874 0.324035 0.060754
Si Si2 0.581070 0.320031 0.213851
Si Si3 0.397993 0.675672 0.562691
Si Si4 0.243214 0.323575 0.443873
Si Si5 0.250190 0.679899 0.939302
Si Si6 0.662856 0.168285 0.802943
Si Si7 0.386246 0.323597 0.282684
Si Si8 0.864997 0.831546 0.698734
O O1 0.379565 0.500000 0.060640
O O2 0.336323 0.229986 0.051148
O O3 0.384476 0.282270 0.131813
O O4 0.500000 0.282052 0.000000
O O5 0.588185 0.500000 0.215020
O O6 0.660883 0.260300 0.135561
O O7 0.487448 0.269316 0.236369
O O8 0.586367 0.251283 0.273707
O O9 0.500000 0.699984 0.500000
O O10 0.369954 0.500000 0.574997
O O11 0.342187 0.761688 0.544778
O O12 0.378248 0.750523 0.633043
O O13 0.230112 0.500000 0.458593
O O14 0.250000 0.250000 0.500000
O O15 0.332933 0.287554 0.365352
O O16 0.249809 0.500000 0.944307
O O17 0.250000 0.750000 0.000000
O O18 0.657079 0.227076 0.743744
O O19 0.764463 0.161468 0.768385
O O20 0.621435 0.000000 0.828261
O O21 0.380428 0.500000 0.270715
O O22 0.904323 0.000000 0.670854
#
# Coordination Sequence:
#
# PCOD8107667 Si02
#       8
#     8   8   8   8   8   8   8   8
#     4  11  25  43  63  88 121 162 207 252 300 358
#     4   9  19  37  61  86 115 154 197 239 291 353
#     4  10  21  37  63  91 118 157 204 247 298 363
#     4  11  24  40  60  86 123 163 204 252 301 357
#     4  11  23  41  63  89 123 159 199 249 304 361
#     4  11  21  38  64  90 120 154 196 254 307 357
#     4  10  22  39  62  89 119 159 202 244 296 363
#     4   9  17  34  60  87 114 149 194 245 294 346
#
# _framework density 19.771052000000001
#
# number of rings (size 3 to 8) (size 9 to 14) (size 15 to 20)
#    0.000    1.750    2.500    1.500    3.500    1.750 
#    0.000    0.625    0.000    0.000    0.000    0.000 
#    0.000    0.000    0.000    0.000    0.000    0.000 
#
# Total GULP energy -396786.773381 kJ/mol
# GULP energy per Si atom -12399.586668 kJ/mol
# Density = 1.972605 g / cm^3
# Si number density = 19.771052 Si / 1000 Ang^3
#
#
#
# Elastic Constant Matrix: (Units=GPa)
#
#
# Indices 1 2 3 4 5 6 
#
# 1 101.1867 39.0132 44.3498 -0.0001 5.6947 -0.0003
# 2 39.0132 60.2465 37.8074 -0.0001 0.1109 -0.0008
# 3 44.3498 37.8074 119.3661 0.0000 9.8644 -0.0001
# 4 -0.0001 -0.0001 0.0000 28.4147 0.0000 5.0001
# 5 5.6947 0.1109 9.8644 0.0000 40.6366 0.0000
# 6 -0.0003 -0.0008 -0.0001 5.0001 0.0000 25.9968
#
#
#
# Elastic Compliance Matrix: (Units=1/GPa)
#
#
# Indices 1 2 3 4 5 6 
#
# 1 0.013992 -0.007316 -0.002777 0.000000 -0.001267 0.000000
# 2 -0.007316 0.024639 -0.005271 0.000000 0.002237 0.000001
# 3 -0.002777 -0.005271 0.011272 0.000000 -0.002333 0.000000
# 4 0.000000 0.000000 0.000000 0.036426 0.000000 -0.007006
# 5 -0.001267 0.002237 -0.002333 0.000000 0.025346 0.000000
# 6 0.000000 0.000001 0.000000 -0.007006 0.000000 0.039814
#
#
# Mechanical properties :
#
#
# Convention : Reuss Voigt Hill
#
# Bulk Modulus (GPa) = 52.14858 58.12668 55.13763
# Shear Modulus (GPa) = 26.51017 29.65153 28.08085
#
# Velocity S-wave (km/s) = 3.66575 3.87686 3.77278
# Velocity P-wave (km/s) = 6.65961 7.03589 6.85033
#
# Compressibility (1/GPa) = 0.01917598
#
# Stress axis : x y z
#
# Youngs Moduli (GPa) = 71.47144 40.58543 88.71897
#
# Poissons Ratio (x) = 0.29690 0.24635
# Poissons Ratio (y) = 0.52285 0.46764
# Poissons Ratio (z) = 0.19846 0.21393
#
# Static dielectric constant tensor:
#      x y z
#    x 3.654370 0.000000 0.041560 
#    y 0.000000 3.410810 0.000000 
#    z 0.041560 0.000000 3.755320 
# 
# 
# High freq. dielectric constant tensor:
#      x y z
#    x 1.781180 0.000000 0.006360 
#    y 0.000000 1.745640 0.000000 
#    z 0.006360 0.000000 1.785200 
# 
# From -- ./inp_files/346055.got.cif
#   From: 2010.06.25/outbox.cif.g09.slc.cpg/sg12_174_cif.got.tgz:346055.got - 2010.06.28 00:19:55.
