data_PCOD8107056
_publ_section_title
;
Structure prediction by ZEFSAII (Michael W. Deem and Ramdas Pophale) SiO2 
 PCOD8107056
Probable space group: C 2/M
;
_chemical_formula_sum "Si O2"
_cell_formula_units_Z 64
_cell_length_a 14.371312
_cell_length_b 9.211755
_cell_length_c 30.796770
_cell_angle_alpha 90.000000
_cell_angle_beta 130.106518
_cell_angle_gamma 90.000000
_cell_volume 3118.309156
_symmetry_space_group_name_H-M "C 2/M"
_symmetry_group_IT_number 12
_symmetry_cell_setting 'monoclinic'
loop_
_space_group_symop_operation_xyz
x,y,z
-x,y,-z
-x,-y,-z
x,-y,z
1/2+x,1/2+y,z
1/2-x,1/2+y,-z
1/2-x,1/2-y,-z
1/2+x,1/2-y,z
loop_
_atom_site_type_symbol
_atom_site_label
_atom_site_fract_x
_atom_site_fract_y
_atom_site_fract_z
Si Si1 0.233431 0.665601 0.291549
Si Si2 0.009062 0.162905 0.790367
Si Si3 0.648476 0.179992 0.501117
Si Si4 0.410424 0.152510 0.032789
Si Si5 0.800711 0.256893 0.086275
Si Si6 0.110504 0.822599 0.579893
Si Si7 0.203594 0.166433 0.782823
Si Si8 0.867769 0.840984 0.890295
O O1 0.199912 0.500000 0.289175
O O2 0.302329 0.723786 0.354490
O O3 0.319339 0.687571 0.275302
O O4 0.109355 0.741816 0.242338
O O5 0.090708 0.167441 0.858365
O O6 0.084517 0.223621 0.771770
O O7 0.965780 0.000000 0.768997
O O8 0.750000 0.250000 0.500000
O O9 0.670854 0.246188 0.555959
O O10 0.518007 0.245693 0.447858
O O11 0.650417 0.000000 0.501230
O O12 0.358727 0.146598 0.066114
O O13 0.505756 0.280008 0.052786
O O14 0.479268 0.000000 0.046174
O O15 0.299323 0.153596 0.965592
O O16 0.733289 0.352091 0.102483
O O17 0.096838 0.000000 0.570644
O O18 0.323358 0.249369 0.835560
O O19 0.226590 0.000000 0.802322
O O20 0.895635 0.000000 0.880835
#
# Coordination Sequence:
#
# PCOD8107056 Si02
#       8
#     8   8   8   8   8   8   8   8
#     4  10  22  39  60  86 119 156 193 236 287 339
#     4  10  21  37  58  82 110 147 193 240 284 338
#     4  11  22  39  64  94 127 166 206 246 294 345
#     4  11  23  38  58  81 106 140 181 227 285 351
#     4  10  23  39  57  79 109 143 182 230 286 346
#     4  10  21  39  61  91 128 164 204 249 293 344
#     4   9  20  39  58  79 110 150 191 232 284 344
#     4  11  23  38  57  82 110 141 181 231 287 345
#
# _framework density 20.523944
#
# number of rings (size 3 to 8) (size 9 to 14) (size 15 to 20)
#    0.000    1.750    0.000    4.500    0.000   12.500 
#    0.000    1.250    0.000    0.000    0.000    0.000 
#    0.000    0.000    0.000    0.000    0.000    0.000 
#
# Total GULP energy -396553.242406 kJ/mol
# GULP energy per Si atom -12392.288825 kJ/mol
# Density = 2.047723 g / cm^3
# Si number density = 20.523944 Si / 1000 Ang^3
#
#
#
# Elastic Constant Matrix: (Units=GPa)
#
#
# Indices 1 2 3 4 5 6 
#
# 1 94.2351 36.7145 48.7453 0.0000 -6.6546 0.0000
# 2 36.7145 110.4805 30.1848 0.0000 -4.2491 0.0000
# 3 48.7453 30.1848 125.6556 0.0000 -14.6975 0.0000
# 4 0.0000 0.0000 0.0000 -30.4743 0.0000 24.0524
# 5 -6.6546 -4.2491 -14.6975 0.0000 22.0607 0.0000
# 6 0.0000 0.0000 0.0000 24.0524 0.0000 18.7694
#
#
#
# Elastic Compliance Matrix: (Units=1/GPa)
#
#
# Indices 1 2 3 4 5 6 
#
# 1 0.014443 -0.003495 -0.004699 0.000000 0.000553 0.000000
# 2 -0.003495 0.010535 -0.001151 0.000000 0.000208 0.000000
# 3 -0.004699 -0.001151 0.010699 0.000000 0.005489 0.000000
# 4 0.000000 0.000000 0.000000 -0.016314 0.000000 0.020906
# 5 0.000553 0.000208 0.005489 0.000000 0.049194 0.000000
# 6 0.000000 0.000000 0.000000 0.020906 0.000000 0.026488
#
#
# Mechanical properties :
#
#
# Convention : Reuss Voigt Hill
#
# Bulk Modulus (GPa) = 58.85959 62.40673 60.63316
# Shear Modulus (GPa) = 41.87757 16.38627 29.13192
#
# Velocity S-wave (km/s) = 4.52201 2.82866 3.77159
# Velocity P-wave (km/s) = 7.48368 6.41414 6.96946
#
# Compressibility (1/GPa) = 0.01698959
#
# Stress axis : x y z
#
# Youngs Moduli (GPa) = 69.23874 94.92100 93.46261
#
# Poissons Ratio (x) = 0.33171 0.43914
# Poissons Ratio (y) = 0.24196 0.10755
# Poissons Ratio (z) = 0.32532 0.10923
#
# Static dielectric constant tensor:
#      x y z
#    x 3.886640 0.000000 -0.181870 
#    y 0.000000 3.737620 0.000000 
#    z -0.181870 0.000000 3.745670 
# 
# 
# High freq. dielectric constant tensor:
#      x y z
#    x 1.811300 0.000000 -0.010340 
#    y 0.000000 1.802300 0.000000 
#    z -0.010340 0.000000 1.795690 
# 
# From -- ./inp_files/375675.got.cif
#   From: 2010.06.25/outbox.cif.g09.slc.cpg/sg12_188_cif.got.tgz:375675.got - 2010.06.28 00:19:55.
