data_PCOD8107268
_publ_section_title
;
Structure prediction by ZEFSAII (Michael W. Deem and Ramdas Pophale) SiO2 
 PCOD8107268
Probable space group: C 2/M
;
_chemical_formula_sum "Si O2"
_cell_formula_units_Z 40
_cell_length_a 16.903062
_cell_length_b 15.209477
_cell_length_c 16.352652
_cell_angle_alpha 90.000000
_cell_angle_beta 26.092288
_cell_angle_gamma 90.000000
_cell_volume 1849.018033
_symmetry_space_group_name_H-M "C 2/M"
_symmetry_group_IT_number 12
_symmetry_cell_setting 'monoclinic'
loop_
_space_group_symop_operation_xyz
x,y,z
-x,y,-z
-x,-y,-z
x,-y,z
1/2+x,1/2+y,z
1/2-x,1/2+y,-z
1/2-x,1/2-y,-z
1/2+x,1/2-y,z
loop_
_atom_site_type_symbol
_atom_site_label
_atom_site_fract_x
_atom_site_fract_y
_atom_site_fract_z
Si Si1 0.231590 0.831663 0.456881
Si Si2 0.827465 0.104424 0.815190
Si Si3 0.914275 0.401692 0.815810
Si Si4 0.212405 0.775359 0.297517
Si Si5 0.829636 0.597139 0.715285
O O1 0.250000 0.750000 0.500000
O O2 0.377000 0.901672 0.352596
O O3 0.292158 0.806794 0.309086
O O4 0.034777 0.873595 0.640548
O O5 0.747024 0.152426 0.809697
O O6 0.804616 0.000000 0.822590
O O7 0.713861 0.143050 0.997158
O O8 0.845146 0.500000 0.874159
O O9 0.890319 0.362852 0.747273
O O10 0.294903 0.677205 0.202971
O O11 0.000000 0.761892 0.500000
O O12 0.733118 0.500000 0.810138
O O13 0.000000 0.582954 0.500000
#
# Coordination Sequence:
#
# PCOD8107268 Si02
#       5
#     8   8   8   8   8
#     4  11  22  36  57  85 115 149 190 236 284 337
#     4  10  22  39  58  83 117 152 188 234 285 339
#     4  10  21  37  59  85 111 147 192 236 285 338
#     4   9  19  34  54  81 112 149 188 227 282 340
#     4   9  17  33  57  81 109 147 188 231 280 336
#
# _framework density 21.633105
#
# number of rings (size 3 to 8) (size 9 to 14) (size 15 to 20)
#    0.000    2.200    0.000    4.200    0.000    8.400 
#    0.000    3.000    0.000    3.600    0.000   22.400 
#    0.000    0.000    0.000    0.000    0.000    0.000 
#
# Total GULP energy -247778.138361 kJ/mol
# GULP energy per Si atom -12388.906918 kJ/mol
# Density = 2.158387 g / cm^3
# Si number density = 21.633105 Si / 1000 Ang^3
#
#
#
# Elastic Constant Matrix: (Units=GPa)
#
#
# Indices 1 2 3 4 5 6 
#
# 1 99.2643 21.0589 40.6974 -0.0392 42.8639 0.0227
# 2 21.0589 105.5724 14.9045 -0.0703 19.8879 0.0413
# 3 40.6974 14.9045 88.3008 -0.0374 24.3210 0.0191
# 4 -0.0392 -0.0703 -0.0374 61.0445 0.0141 -15.8629
# 5 42.8639 19.8879 24.3210 0.0141 36.6867 -0.0091
# 6 0.0227 0.0413 0.0191 -15.8629 -0.0091 44.3621
#
#
#
# Elastic Compliance Matrix: (Units=1/GPa)
#
#
# Indices 1 2 3 4 5 6 
#
# 1 0.021263 0.000554 -0.003631 0.000015 -0.022737 -0.000009
# 2 0.000554 0.010569 -0.000346 0.000012 -0.006147 -0.000007
# 3 -0.003631 -0.000346 0.014481 0.000007 -0.005170 -0.000003
# 4 0.000015 0.000012 0.000007 0.018060 -0.000034 0.006458
# 5 -0.022737 -0.006147 -0.005170 -0.000034 0.060583 0.000020
# 6 -0.000009 -0.000007 -0.000003 0.006458 0.000020 0.024851
#
#
# Mechanical properties :
#
#
# Convention : Reuss Voigt Hill
#
# Bulk Modulus (GPa) = 25.33775 49.60657 37.47216
# Shear Modulus (GPa) = 29.44501 42.85043 36.14772
#
# Velocity S-wave (km/s) = 3.69332 4.45542 4.09215
# Velocity P-wave (km/s) = 5.47041 7.03195 6.29975
#
# Compressibility (1/GPa) = 0.03946680
#
# Stress axis : x y z
#
# Youngs Moduli (GPa) = 47.02900 94.62044 69.05662
#
# Poissons Ratio (x) = -0.05246 0.25076
# Poissons Ratio (y) = -0.02607 0.02391
# Poissons Ratio (z) = 0.17077 0.03276
#
# Static dielectric constant tensor:
#      x y z
#    x 4.154990 -0.000060 0.425450 
#    y -0.000060 4.230600 0.000110 
#    z 0.425450 0.000110 3.907350 
# 
# 
# High freq. dielectric constant tensor:
#      x y z
#    x 1.852650 0.000000 0.030660 
#    y 0.000000 1.861510 0.000000 
#    z 0.030660 0.000000 1.828060 
# 
# From -- ./inp_files/59201.got.cif
#   From: 2010.06.25/outbox.cif.g09.slc.cpg/sg12_30_cif.got.tgz:59201.got - 2010.06.28 00:19:55.
