data_PCOD8107942
_publ_section_title
;
Structure prediction by ZEFSAII (Michael W. Deem and Ramdas Pophale) SiO2 
 PCOD8107942
Probable space group: C 2/M
;
_chemical_formula_sum "Si O2"
_cell_formula_units_Z 48
_cell_length_a 19.816727
_cell_length_b 8.569495
_cell_length_c 21.054742
_cell_angle_alpha 90.000000
_cell_angle_beta 45.079292
_cell_angle_gamma 90.000000
_cell_volume 2531.758486
_symmetry_space_group_name_H-M "C 2/M"
_symmetry_group_IT_number 12
_symmetry_cell_setting 'monoclinic'
loop_
_space_group_symop_operation_xyz
x,y,z
-x,y,-z
-x,-y,-z
x,-y,z
1/2+x,1/2+y,z
1/2-x,1/2+y,-z
1/2-x,1/2-y,-z
1/2+x,1/2-y,z
loop_
_atom_site_type_symbol
_atom_site_label
_atom_site_fract_x
_atom_site_fract_y
_atom_site_fract_z
Si Si1 0.354733 0.183357 0.926129
Si Si2 0.858005 0.319229 0.258147
Si Si3 0.995894 0.182728 0.930169
Si Si4 0.501728 0.820407 0.602289
Si Si5 0.844839 0.320434 0.604453
Si Si6 0.004906 0.181443 0.735409
O O1 0.410952 0.223627 0.953076
O O2 0.406544 0.258625 0.831010
O O3 0.350777 0.000000 0.918790
O O4 0.250000 0.250000 0.000000
O O5 0.878706 0.500000 0.232384
O O6 0.903818 0.221593 0.169969
O O7 0.745818 0.290821 0.335259
O O8 0.905247 0.269748 0.293404
O O9 0.974367 0.000000 0.938857
O O10 0.000000 0.237687 0.000000
O O11 0.406312 0.785090 0.626217
O O12 0.593545 0.782166 0.498706
O O13 0.503671 0.708952 0.661341
O O14 0.503281 0.000000 0.623169
O O15 0.811979 0.500000 0.625455
O O16 0.016138 0.000000 0.742605
#
# Coordination Sequence:
#
# PCOD8107942 Si02
#       6
#     8   8   8   8   8   8
#     4  11  22  38  59  82 111 144 182 226 270 321
#     4  11  22  36  56  81 111 145 182 226 271 320
#     4  10  21  38  59  82 110 144 181 223 272 325
#     4   9  19  37  59  82 109 143 182 224 273 324
#     4   9  19  37  59  81 109 144 181 224 272 325
#     4  11  22  37  57  81 111 145 182 225 272 322
#
# _framework density 18.959153000000001
#
# number of rings (size 3 to 8) (size 9 to 14) (size 15 to 20)
#    0.000    1.833    0.000    8.000    0.000    4.667 
#    0.000    3.333    0.000    0.000    0.000    0.000 
#    0.000    0.000    0.000    0.000    0.000    0.000 
#
# Total GULP energy -297704.622004 kJ/mol
# GULP energy per Si atom -12404.359250 kJ/mol
# Density = 1.891600 g / cm^3
# Si number density = 18.959153 Si / 1000 Ang^3
#
#
#
# Elastic Constant Matrix: (Units=GPa)
#
#
# Indices 1 2 3 4 5 6 
#
# 1 91.2791 23.4397 70.4647 -0.0001 1.1846 0.0003
# 2 23.4397 72.3980 24.2180 0.0002 -0.3093 0.0002
# 3 70.4647 24.2180 96.8269 0.0000 -0.3014 0.0000
# 4 -0.0001 0.0002 0.0000 32.7123 0.0000 -0.1626
# 5 1.1846 -0.3093 -0.3014 0.0000 45.3267 0.0000
# 6 0.0003 0.0002 0.0000 -0.1626 0.0000 33.6163
#
#
#
# Elastic Compliance Matrix: (Units=1/GPa)
#
#
# Indices 1 2 3 4 5 6 
#
# 1 0.025352 -0.002225 -0.017896 0.000000 -0.000797 0.000000
# 2 -0.002225 0.015269 -0.002199 0.000000 0.000148 0.000000
# 3 -0.017896 -0.002199 0.023903 0.000000 0.000612 0.000000
# 4 0.000000 0.000000 0.000000 0.030570 0.000000 0.000148
# 5 -0.000797 0.000148 0.000612 0.000000 0.022088 0.000000
# 6 0.000000 0.000000 0.000000 0.000148 0.000000 0.029748
#
#
# Mechanical properties :
#
#
# Convention : Reuss Voigt Hill
#
# Bulk Modulus (GPa) = 50.29114 55.19432 52.74273
# Shear Modulus (GPa) = 25.22721 31.82318 28.52520
#
# Velocity S-wave (km/s) = 3.65171 4.10141 3.88307
# Velocity P-wave (km/s) = 6.66060 7.18361 6.92704
#
# Compressibility (1/GPa) = 0.01988422
#
# Stress axis : x y z
#
# Youngs Moduli (GPa) = 39.44464 65.49100 41.83576
#
# Poissons Ratio (x) = 0.14573 0.74867
# Poissons Ratio (y) = 0.08777 0.09201
# Poissons Ratio (z) = 0.70588 0.14404
#
# Static dielectric constant tensor:
#      x y z
#    x 3.420620 0.000000 0.008920 
#    y 0.000000 3.487030 0.000000 
#    z 0.008920 0.000000 3.461470 
# 
# 
# High freq. dielectric constant tensor:
#      x y z
#    x 1.737810 0.000000 -0.000240 
#    y 0.000000 1.744780 0.000000 
#    z -0.000240 0.000000 1.739160 
# 
# From -- ./inp_files/319562.got.cif
#   From: 2010.06.25/outbox.cif.g09.slc.cpg/sg12_160_cif.got.tgz:319562.got - 2010.06.28 00:19:55.
