data_PCOD8107478
_publ_section_title
;
Structure prediction by ZEFSAII (Michael W. Deem and Ramdas Pophale) SiO2 
 PCOD8107478
Probable space group: C 2/M
;
_chemical_formula_sum "Si O2"
_cell_formula_units_Z 56
_cell_length_a 27.819746
_cell_length_b 9.100813
_cell_length_c 19.049750
_cell_angle_alpha 90.000000
_cell_angle_beta 144.772689
_cell_angle_gamma 90.000000
_cell_volume 2782.045731
_symmetry_space_group_name_H-M "C 2/M"
_symmetry_group_IT_number 12
_symmetry_cell_setting 'monoclinic'
loop_
_space_group_symop_operation_xyz
x,y,z
-x,y,-z
-x,-y,-z
x,-y,z
1/2+x,1/2+y,z
1/2-x,1/2+y,-z
1/2-x,1/2-y,-z
1/2+x,1/2-y,z
loop_
_atom_site_type_symbol
_atom_site_label
_atom_site_fract_x
_atom_site_fract_y
_atom_site_fract_z
Si Si1 0.222601 0.829333 0.896814
Si Si2 0.034052 0.168785 0.693787
Si Si3 0.769639 0.173403 0.814461
Si Si4 0.430008 0.173414 0.971787
Si Si5 0.180204 0.334618 0.457258
Si Si6 0.503962 0.166713 0.798722
Si Si7 0.877849 0.672239 0.463291
O O1 0.124162 0.811309 0.766281
O O2 0.271642 0.753415 0.891721
O O3 0.248513 0.000000 0.931520
O O4 0.250000 0.750000 0.000000
O O5 0.038281 0.233852 0.777088
O O6 0.967280 0.248371 0.563298
O O7 0.008287 0.000000 0.669381
O O8 0.843990 0.239203 0.855118
O O9 0.681297 0.208888 0.672477
O O10 0.782256 0.000000 0.838998
O O11 0.413844 0.000000 0.945567
O O12 0.500000 0.224844 0.000000
O O13 0.459165 0.220719 0.083943
O O14 0.211944 0.500000 0.501942
O O15 0.250000 0.250000 0.500000
O O16 0.095377 0.322484 0.312149
O O17 0.166264 0.269029 0.518431
O O18 0.531015 0.000000 0.814186
O O19 0.896550 0.500000 0.492820
#
# Coordination Sequence:
#
# PCOD8107478 Si02
#       7
#     8   8   8   8   8   8   8
#     4  11  24  41  63  92 123 156 198 247 298 354
#     4  10  21  37  60  89 116 148 195 246 294 346
#     4  11  24  41  61  88 121 158 200 246 297 356
#     4  10  22  39  60  85 116 158 201 244 300 358
#     4   9  18  32  52  78 107 144 189 237 285 338
#     4   9  19  36  55  79 114 151 189 235 290 352
#     4   9  21  40  58  81 119 159 195 238 296 358
#
# _framework density 20.129072000000001
#
# number of rings (size 3 to 8) (size 9 to 14) (size 15 to 20)
#    0.000    2.143    0.000    3.000    2.000    9.429 
#    0.000    2.857    0.000    0.000    0.000    0.000 
#    0.000    0.000    0.000    0.000    0.000    0.000 
#
# Total GULP energy -347260.588364 kJ/mol
# GULP energy per Si atom -12402.163870 kJ/mol
# Density = 2.008326 g / cm^3
# Si number density = 20.129072 Si / 1000 Ang^3
#
#
#
# Elastic Constant Matrix: (Units=GPa)
#
#
# Indices 1 2 3 4 5 6 
#
# 1 94.0724 48.2048 34.9482 0.0000 13.0654 0.0000
# 2 48.2048 96.7863 47.9822 0.0000 7.1405 0.0000
# 3 34.9482 47.9822 92.7955 0.0000 -2.0945 0.0000
# 4 0.0000 0.0000 0.0000 30.4861 0.0000 3.8703
# 5 13.0654 7.1405 -2.0945 0.0000 26.8994 0.0000
# 6 0.0000 0.0000 0.0000 3.8703 0.0000 30.4633
#
#
#
# Elastic Compliance Matrix: (Units=1/GPa)
#
#
# Indices 1 2 3 4 5 6 
#
# 1 0.015598 -0.005814 -0.003009 0.000000 -0.006267 0.000000
# 2 -0.005814 0.016565 -0.006422 0.000000 -0.002073 0.000000
# 3 -0.003009 -0.006422 0.015329 0.000000 0.004360 0.000000
# 4 0.000000 0.000000 0.000000 0.033340 0.000000 -0.004236
# 5 -0.006267 -0.002073 0.004360 0.000000 0.041109 0.000000
# 6 0.000000 0.000000 0.000000 -0.004236 0.000000 0.033365
#
#
# Mechanical properties :
#
#
# Convention : Reuss Voigt Hill
#
# Bulk Modulus (GPa) = 58.82480 60.65830 59.74155
# Shear Modulus (GPa) = 26.11464 27.73767 26.92615
#
# Velocity S-wave (km/s) = 3.60579 3.71616 3.66139
# Velocity P-wave (km/s) = 6.82810 6.97232 6.90058
#
# Compressibility (1/GPa) = 0.01699963
#
# Stress axis : x y z
#
# Youngs Moduli (GPa) = 64.11115 60.36952 65.23596
#
# Poissons Ratio (x) = 0.35101 0.19632
# Poissons Ratio (y) = 0.37276 0.41896
# Poissons Ratio (z) = 0.19294 0.38771
#
# Static dielectric constant tensor:
#      x y z
#    x 3.624370 0.000000 0.027320 
#    y 0.000000 3.616750 0.000000 
#    z 0.027320 0.000000 3.836680 
# 
# 
# High freq. dielectric constant tensor:
#      x y z
#    x 1.783980 0.000000 0.008290 
#    y 0.000000 1.781970 0.000000 
#    z 0.008290 0.000000 1.793290 
# 
# From -- ./inp_files/292510.got.cif
#   From: 2010.06.25/outbox.cif.g09.slc.cpg/sg12_147_cif.got.tgz:292510.got - 2010.06.28 00:19:55.
