data_PCOD8107927
_publ_section_title
;
Structure prediction by ZEFSAII (Michael W. Deem and Ramdas Pophale) SiO2 
 PCOD8107927
Probable space group: C 2/M
;
_chemical_formula_sum "Si O2"
_cell_formula_units_Z 48
_cell_length_a 30.345407
_cell_length_b 9.068449
_cell_length_c 8.962873
_cell_angle_alpha 90.000000
_cell_angle_beta 92.137251
_cell_angle_gamma 90.000000
_cell_volume 2464.739391
_symmetry_space_group_name_H-M "C 2/M"
_symmetry_group_IT_number 12
_symmetry_cell_setting 'monoclinic'
loop_
_space_group_symop_operation_xyz
x,y,z
-x,y,-z
-x,-y,-z
x,-y,z
1/2+x,1/2+y,z
1/2-x,1/2+y,-z
1/2-x,1/2-y,-z
1/2+x,1/2-y,z
loop_
_atom_site_type_symbol
_atom_site_label
_atom_site_fract_x
_atom_site_fract_y
_atom_site_fract_z
Si Si1 0.997076 0.337474 0.322568
Si Si2 0.097253 0.673439 0.627543
Si Si3 0.656772 0.830832 0.156866
Si Si4 0.318247 0.827370 0.171813
Si Si5 0.755441 0.329454 0.656953
Si Si6 0.582872 0.326097 0.314651
O O1 0.006338 0.500000 0.255686
O O2 0.946795 0.286218 0.281749
O O3 0.000000 0.344793 0.500000
O O4 0.033321 0.224696 0.263855
O O5 0.097287 0.500000 0.589462
O O6 0.138925 0.721161 0.729790
O O7 0.099019 0.759408 0.472673
O O8 0.694519 0.807939 0.284412
O O9 0.615568 0.727626 0.189701
O O10 0.640687 0.000000 0.151491
O O11 0.674981 0.783343 0.998505
O O12 0.276363 0.738354 0.223271
O O13 0.308727 0.000000 0.190184
O O14 0.743606 0.500000 0.635193
O O15 0.750000 0.250000 0.500000
O O16 0.583585 0.500000 0.326379
#
# Coordination Sequence:
#
# PCOD8107927 Si02
#       6
#     8   8   8   8   8   8
#     4   8  15  30  52  76 104 138 176 219 264 310
#     4   9  18  34  56  80 105 137 178 221 265 315
#     4  10  22  39  56  76 107 145 179 214 261 318
#     4  10  21  38  59  81 106 138 177 220 266 314
#     4  11  23  38  58  83 109 139 176 217 262 313
#     4  11  21  32  52  81 109 140 179 221 264 310
#
# _framework density 19.474677
#
# number of rings (size 3 to 8) (size 9 to 14) (size 15 to 20)
#    0.000    2.167    0.000    4.500    0.000    9.667 
#    0.000    0.833    0.000    5.000    0.000    0.000 
#    0.000    0.000    0.000    0.000    0.000    0.000 
#
# Total GULP energy -297625.947341 kJ/mol
# GULP energy per Si atom -12401.081139 kJ/mol
# Density = 1.943035 g / cm^3
# Si number density = 19.474677 Si / 1000 Ang^3
#
#
#
# Elastic Constant Matrix: (Units=GPa)
#
#
# Indices 1 2 3 4 5 6 
#
# 1 87.0112 45.0512 15.3585 0.0000 -26.2015 0.0000
# 2 45.0512 96.1586 35.9501 0.0000 -20.5109 0.0000
# 3 15.3585 35.9501 69.1316 0.0000 -22.2611 0.0000
# 4 0.0000 0.0000 0.0000 23.9154 0.0000 -6.6886
# 5 -26.2015 -20.5109 -22.2611 0.0000 24.1103 0.0000
# 6 0.0000 0.0000 0.0000 -6.6886 0.0000 31.0336
#
#
#
# Elastic Compliance Matrix: (Units=1/GPa)
#
#
# Indices 1 2 3 4 5 6 
#
# 1 0.020946 -0.007444 0.006416 0.000000 0.022353 0.000000
# 2 -0.007444 0.016391 -0.007094 0.000000 -0.000695 0.000000
# 3 0.006416 -0.007094 0.024236 0.000000 0.023315 0.000000
# 4 0.000000 0.000000 0.000000 0.044496 0.000000 0.009590
# 5 0.022353 -0.000695 0.023315 0.000000 0.086704 0.000000
# 6 0.000000 0.000000 0.000000 0.009590 0.000000 0.034290
#
#
# Mechanical properties :
#
#
# Convention : Reuss Voigt Hill
#
# Bulk Modulus (GPa) = 22.06085 49.44676 35.75380
# Shear Modulus (GPa) = 19.34864 26.20797 22.77830
#
# Velocity S-wave (km/s) = 3.15545 3.67242 3.42371
# Velocity P-wave (km/s) = 4.96270 6.58997 5.83335
#
# Compressibility (1/GPa) = 0.04532918
#
# Stress axis : x y z
#
# Youngs Moduli (GPa) = 47.74254 61.01010 41.26025
#
# Poissons Ratio (x) = 0.45414 -0.26471
# Poissons Ratio (y) = 0.35538 0.29269
# Poissons Ratio (z) = -0.30630 0.43279
#
# Static dielectric constant tensor:
#      x y z
#    x 3.968660 0.000000 0.007870 
#    y 0.000000 3.448060 0.000000 
#    z 0.007870 0.000000 3.343730 
# 
# 
# High freq. dielectric constant tensor:
#      x y z
#    x 1.776680 0.000000 -0.004660 
#    y 0.000000 1.747600 0.000000 
#    z -0.004660 0.000000 1.738530 
# 
# From -- ./inp_files/108783.got.cif
#   From: 2010.06.25/outbox.cif.g09.slc.cpg/sg12_55_cif.got.tgz:108783.got - 2010.06.28 00:19:55.
