data_PCOD8107951
_publ_section_title
;
Structure prediction by ZEFSAII (Michael W. Deem and Ramdas Pophale) SiO2 
 PCOD8107951
Probable space group: C 2/M
;
_chemical_formula_sum "Si O2"
_cell_formula_units_Z 56
_cell_length_a 15.308999
_cell_length_b 8.648100
_cell_length_c 22.463920
_cell_angle_alpha 90.000000
_cell_angle_beta 68.442786
_cell_angle_gamma 90.000000
_cell_volume 2766.048968
_symmetry_space_group_name_H-M "C 2/M"
_symmetry_group_IT_number 12
_symmetry_cell_setting 'monoclinic'
loop_
_space_group_symop_operation_xyz
x,y,z
-x,y,-z
-x,-y,-z
x,-y,z
1/2+x,1/2+y,z
1/2-x,1/2+y,-z
1/2-x,1/2-y,-z
1/2+x,1/2-y,z
loop_
_atom_site_type_symbol
_atom_site_label
_atom_site_fract_x
_atom_site_fract_y
_atom_site_fract_z
Si Si1 0.512343 0.819700 0.644091
Si Si2 0.652804 0.818994 0.502543
Si Si3 0.807860 0.317555 0.068558
Si Si4 0.376077 0.817353 0.924662
Si Si5 0.417021 0.183340 0.158081
Si Si6 0.354370 0.318753 0.295355
Si Si7 0.656406 0.682352 0.376897
O O1 0.574164 0.783359 0.570809
O O2 0.554293 0.730669 0.690132
O O3 0.406956 0.759703 0.658651
O O4 0.509630 0.000000 0.660234
O O5 0.750000 0.750000 0.500000
O O6 0.619709 0.738667 0.450144
O O7 0.665179 0.000000 0.487885
O O8 0.800640 0.500000 0.068620
O O9 0.703287 0.249158 0.099037
O O10 0.865097 0.262292 0.111361
O O11 0.860153 0.255531 0.996049
O O12 0.475728 0.761425 0.874915
O O13 0.371071 0.000000 0.925774
O O14 0.369116 0.274393 0.223451
O O15 0.408541 0.000000 0.170708
O O16 0.336839 0.500000 0.306200
O O17 0.264425 0.229493 0.342960
O O18 0.647041 0.500000 0.374400
#
# Coordination Sequence:
#
# PCOD8107951 Si02
#       7
#     8   8   8   8   8   8   8
#     4  11  24  43  66  92 122 158 201 249 303 362
#     4  11  22  38  65  95 126 159 198 248 303 360
#     4   9  18  34  58  87 117 151 192 239 292 351
#     4   9  18  34  58  87 117 151 191 239 294 351
#     4  10  21  38  59  82 116 158 199 241 293 357
#     4  12  26  43  62  86 120 161 207 254 301 359
#     4  12  25  42  65  92 123 160 202 250 304 362
#
# _framework density 20.245484999999999
#
# number of rings (size 3 to 8) (size 9 to 14) (size 15 to 20)
#    0.000    1.429    1.429    4.286    0.000    7.429 
#    0.000    2.857    0.000    4.286    0.000    0.000 
#    0.000    0.000    0.000    0.000    0.000    0.000 
#
# Total GULP energy -347355.080801 kJ/mol
# GULP energy per Si atom -12405.538600 kJ/mol
# Density = 2.019941 g / cm^3
# Si number density = 20.245485 Si / 1000 Ang^3
#
#
#
# Elastic Constant Matrix: (Units=GPa)
#
#
# Indices 1 2 3 4 5 6 
#
# 1 96.0621 18.7173 10.9106 0.0000 0.9708 0.0000
# 2 18.7173 69.0230 26.0313 0.0000 1.0423 0.0000
# 3 10.9106 26.0313 65.2044 0.0000 2.3563 0.0000
# 4 0.0000 0.0000 0.0000 31.0148 0.0000 1.5982
# 5 0.9708 1.0423 2.3563 0.0000 13.9255 0.0000
# 6 0.0000 0.0000 0.0000 1.5982 0.0000 38.4167
#
#
#
# Elastic Compliance Matrix: (Units=1/GPa)
#
#
# Indices 1 2 3 4 5 6 
#
# 1 0.011026 -0.002700 -0.000751 0.000000 -0.000439 0.000000
# 2 -0.002700 0.017717 -0.006621 0.000000 -0.000018 0.000000
# 3 -0.000751 -0.006621 0.018197 0.000000 -0.002531 0.000000
# 4 0.000000 0.000000 0.000000 0.032312 0.000000 -0.001344
# 5 -0.000439 -0.000018 -0.002531 0.000000 0.072271 0.000000
# 6 0.000000 0.000000 0.000000 -0.001344 0.000000 0.026086
#
#
# Mechanical properties :
#
#
# Convention : Reuss Voigt Hill
#
# Bulk Modulus (GPa) = 37.31904 37.95643 37.63774
# Shear Modulus (GPa) = 24.19140 28.31340 26.25240
#
# Velocity S-wave (km/s) = 3.46049 3.74372 3.60488
# Velocity P-wave (km/s) = 5.86855 6.12176 5.99650
#
# Compressibility (1/GPa) = 0.02679597
#
# Stress axis : x y z
#
# Youngs Moduli (GPa) = 90.69659 56.44195 54.95487
#
# Poissons Ratio (x) = 0.15239 0.04128
# Poissons Ratio (y) = 0.24488 0.36385
# Poissons Ratio (z) = 0.06813 0.37369
#
# Static dielectric constant tensor:
#      x y z
#    x 3.822120 0.000000 -0.009060 
#    y 0.000000 3.601880 0.000000 
#    z -0.009060 0.000000 3.765190 
# 
# 
# High freq. dielectric constant tensor:
#      x y z
#    x 1.805780 0.000000 0.002440 
#    y 0.000000 1.788770 0.000000 
#    z 0.002440 0.000000 1.786050 
# 
# From -- ./inp_files/338535.got.cif
#   From: 2010.06.25/outbox.cif.g09.slc.cpg/sg12_170_cif.got.tgz:338535.got - 2010.06.28 00:19:55.
