data_PCOD8107359
_publ_section_title
;
Structure prediction by ZEFSAII (Michael W. Deem and Ramdas Pophale) SiO2 
 PCOD8107359
Probable space group: C 2/M
;
_chemical_formula_sum "Si O2"
_cell_formula_units_Z 40
_cell_length_a 19.013072
_cell_length_b 18.400061
_cell_length_c 9.121543
_cell_angle_alpha 90.000000
_cell_angle_beta 139.449696
_cell_angle_gamma 90.000000
_cell_volume 2074.580670
_symmetry_space_group_name_H-M "C 2/M"
_symmetry_group_IT_number 12
_symmetry_cell_setting 'monoclinic'
loop_
_space_group_symop_operation_xyz
x,y,z
-x,y,-z
-x,-y,-z
x,-y,z
1/2+x,1/2+y,z
1/2-x,1/2+y,-z
1/2-x,1/2-y,-z
1/2+x,1/2-y,z
loop_
_atom_site_type_symbol
_atom_site_label
_atom_site_fract_x
_atom_site_fract_y
_atom_site_fract_z
Si Si1 0.080440 0.777504 0.740641
Si Si2 0.215983 0.652216 0.801554
Si Si3 0.717836 0.148606 0.455248
Si Si4 0.116526 0.500000 0.619513
Si Si5 0.572360 0.723586 0.239954
Si Si6 0.888716 0.500000 0.733093
O O1 0.130585 0.707643 0.737779
O O2 0.000000 0.818540 0.500000
O O3 0.003730 0.749867 0.749477
O O4 0.168568 0.834020 0.939260
O O5 0.225734 0.661308 0.642724
O O6 0.181830 0.569809 0.780247
O O7 0.628897 0.205588 0.257156
O O8 0.834246 0.166044 0.565756
O O9 0.683225 0.070045 0.342358
O O10 0.091854 0.500000 0.408413
O O11 0.000000 0.500000 0.500000
O O12 0.500000 0.686055 0.000000
O O13 0.000000 0.500000 0.000000
#
# Coordination Sequence:
#
# PCOD8107359 Si02
#       6
#     8   8   8   4   8   4
#     4  11  21  37  59  84 117 152 195 239 282 336
#     4  10  21  37  60  87 114 152 195 235 284 349
#     4  10  21  37  59  89 115 149 194 236 289 346
#     4  10  22  40  62  82 118 152 188 234 294 344
#     4  11  21  36  59  85 117 149 193 241 289 332
#     4  10  22  42  60  85 118 148 188 241 290 342
#
# _framework density 19.281006000000001
#
# number of rings (size 3 to 8) (size 9 to 14) (size 15 to 20)
#    0.000    1.600    4.000    1.200    2.800    0.000 
#    3.600    2.000    0.000    0.000    0.000    0.000 
#    0.000    0.000    0.000    0.000    0.000    0.000 
#
# Total GULP energy -247904.620639 kJ/mol
# GULP energy per Si atom -12395.231032 kJ/mol
# Density = 1.923712 g / cm^3
# Si number density = 19.281006 Si / 1000 Ang^3
#
#
#
# Elastic Constant Matrix: (Units=GPa)
#
#
# Indices 1 2 3 4 5 6 
#
# 1 81.6225 27.7627 34.9298 0.0000 21.1789 0.0000
# 2 27.7627 137.9055 59.0327 0.0000 19.8860 0.0000
# 3 34.9298 59.0327 145.7895 0.0000 18.7515 0.0000
# 4 0.0000 0.0000 0.0000 20.3421 0.0000 -5.5010
# 5 21.1789 19.8860 18.7515 0.0000 30.6465 0.0000
# 6 0.0000 0.0000 0.0000 -5.5010 0.0000 18.3369
#
#
#
# Elastic Compliance Matrix: (Units=1/GPa)
#
#
# Indices 1 2 3 4 5 6 
#
# 1 0.015868 -0.000928 -0.002272 0.000000 -0.008974 0.000000
# 2 -0.000928 0.009258 -0.003079 0.000000 -0.003483 0.000000
# 3 -0.002272 -0.003079 0.008891 0.000000 -0.001872 0.000000
# 4 0.000000 0.000000 0.000000 0.053499 0.000000 0.016050
# 5 -0.008974 -0.003483 -0.001872 0.000000 0.042237 0.000000
# 6 0.000000 0.000000 0.000000 0.016050 0.000000 0.059350
#
#
# Mechanical properties :
#
#
# Convention : Reuss Voigt Hill
#
# Bulk Modulus (GPa) = 46.59791 67.64086 57.11939
# Shear Modulus (GPa) = 23.94487 30.10458 27.02473
#
# Velocity S-wave (km/s) = 3.52787 3.95569 3.74789
# Velocity P-wave (km/s) = 6.38864 7.48472 6.95830
#
# Compressibility (1/GPa) = 0.02146019
#
# Stress axis : x y z
#
# Youngs Moduli (GPa) = 63.02075 108.01292 112.47464
#
# Poissons Ratio (x) = 0.10023 0.25552
# Poissons Ratio (y) = 0.05848 0.34626
# Poissons Ratio (z) = 0.14317 0.33252
#
# Static dielectric constant tensor:
#      x y z
#    x 3.578420 0.000000 0.073090 
#    y 0.000000 6.926140 0.000000 
#    z 0.073090 0.000000 2.687990 
# 
# 
# High freq. dielectric constant tensor:
#      x y z
#    x 1.753620 0.000000 0.010280 
#    y 0.000000 1.725500 0.000000 
#    z 0.010280 0.000000 1.766670 
# 
# From -- ./inp_files/77225.got.cif
#   From: 2010.06.25/outbox.cif.g09.slc.cpg/sg12_39_cif.got.tgz:77225.got - 2010.06.28 00:19:55.
