data_PCOD8107398
_publ_section_title
;
Structure prediction by ZEFSAII (Michael W. Deem and Ramdas Pophale) SiO2 
 PCOD8107398
Probable space group: C 2/M
;
_chemical_formula_sum "Si O2"
_cell_formula_units_Z 64
_cell_length_a 14.387669
_cell_length_b 17.700939
_cell_length_c 15.421815
_cell_angle_alpha 90.000000
_cell_angle_beta 130.876668
_cell_angle_gamma 90.000000
_cell_volume 2969.702711
_symmetry_space_group_name_H-M "C 2/M"
_symmetry_group_IT_number 12
_symmetry_cell_setting 'monoclinic'
loop_
_space_group_symop_operation_xyz
x,y,z
-x,y,-z
-x,-y,-z
x,-y,z
1/2+x,1/2+y,z
1/2-x,1/2+y,-z
1/2-x,1/2-y,-z
1/2+x,1/2-y,z
loop_
_atom_site_type_symbol
_atom_site_label
_atom_site_fract_x
_atom_site_fract_y
_atom_site_fract_z
Si Si1 0.264285 0.085187 0.504041
Si Si2 0.685670 0.584970 0.653793
Si Si3 0.812900 0.346973 0.052765
Si Si4 0.482157 0.833889 0.702459
Si Si5 0.867323 0.586394 0.913933
Si Si6 0.344221 0.700446 0.697911
Si Si7 0.598951 0.744326 0.628425
Si Si8 0.935848 0.199036 0.052301
O O1 0.212060 0.089234 0.568925
O O2 0.408615 0.107987 0.595709
O O3 0.186634 0.142338 0.397705
O O4 0.253777 0.000000 0.460618
O O5 0.634295 0.500000 0.645704
O O6 0.808884 0.601460 0.784472
O O7 0.594032 0.652248 0.624879
O O8 0.870387 0.265485 0.065984
O O9 0.924893 0.382159 0.178911
O O10 0.784371 0.386014 0.943299
O O11 0.684792 0.354767 0.029661
O O12 0.377593 0.784138 0.685431
O O13 0.564744 0.772915 0.702228
O O14 0.889401 0.500000 0.944797
O O15 0.000000 0.628573 0.000000
O O16 0.228010 0.716557 0.687267
O O17 0.455609 0.664580 0.821854
O O18 0.500000 0.775116 0.500000
O O19 0.000000 0.219880 0.000000
#
# Coordination Sequence:
#
# PCOD8107398 Si02
#       8
#     8   8   8   8   8   8   8   8
#     4  11  22  42  66  92 126 165 211 259 318 381
#     4  10  23  39  60  93 127 165 204 254 320 382
#     4  10  22  36  61  93 123 165 212 250 311 372
#     4  11  22  39  63  97 126 165 213 261 312 371
#     4  10  21  37  59  90 131 165 199 252 316 376
#     4  11  23  41  62  93 128 167 208 259 321 369
#     4  12  23  38  65  89 129 164 208 262 316 379
#     4  10  22  38  61  91 124 159 208 265 305 366
#
# _framework density 21.550979000000002
#
# number of rings (size 3 to 8) (size 9 to 14) (size 15 to 20)
#    0.000    1.375    2.500    3.000    8.750    1.750 
#    0.000    2.500    0.000    3.000    0.000    0.000 
#    0.000    0.000    0.000    0.000    0.000    0.000 
#
# Total GULP energy -396474.121503 kJ/mol
# GULP energy per Si atom -12389.816297 kJ/mol
# Density = 2.150193 g / cm^3
# Si number density = 21.550979 Si / 1000 Ang^3
#
#
#
# Elastic Constant Matrix: (Units=GPa)
#
#
# Indices 1 2 3 4 5 6 
#
# 1 99.6774 6.7876 19.5360 0.0000 11.9198 0.0000
# 2 6.7876 56.1296 26.4640 0.0000 -0.1074 0.0000
# 3 19.5360 26.4640 129.2430 0.0000 17.8082 0.0000
# 4 0.0000 0.0000 0.0000 14.4327 0.0000 3.4591
# 5 11.9198 -0.1074 17.8082 0.0000 35.8275 0.0000
# 6 0.0000 0.0000 0.0000 3.4591 0.0000 17.2559
#
#
#
# Elastic Compliance Matrix: (Units=1/GPa)
#
#
# Indices 1 2 3 4 5 6 
#
# 1 0.010652 -0.000810 -0.001026 0.000000 -0.003036 0.000000
# 2 -0.000810 0.019947 -0.004302 0.000000 0.002468 0.000000
# 3 -0.001026 -0.004302 0.009370 0.000000 -0.004329 0.000000
# 4 0.000000 0.000000 0.000000 0.072784 0.000000 -0.014590
# 5 -0.003036 0.002468 -0.004329 0.000000 0.031081 0.000000
# 6 0.000000 0.000000 0.000000 -0.014590 0.000000 0.060876
#
#
# Mechanical properties :
#
#
# Convention : Reuss Voigt Hill
#
# Bulk Modulus (GPa) = 36.11093 43.40280 39.75686
# Shear Modulus (GPa) = 22.10276 28.98737 25.54506
#
# Velocity S-wave (km/s) = 3.20598 3.67149 3.44660
# Velocity P-wave (km/s) = 5.52239 6.17709 5.85889
#
# Compressibility (1/GPa) = 0.02769245
#
# Stress axis : x y z
#
# Youngs Moduli (GPa) = 93.88183 50.13314 106.72645
#
# Poissons Ratio (x) = 0.04062 0.10948
# Poissons Ratio (y) = 0.07607 0.45913
# Poissons Ratio (z) = 0.09630 0.21567
#
# Static dielectric constant tensor:
#      x y z
#    x 3.925470 0.000000 0.243070 
#    y 0.000000 3.743780 0.000000 
#    z 0.243070 0.000000 4.229230 
# 
# 
# High freq. dielectric constant tensor:
#      x y z
#    x 1.840010 0.000000 0.008520 
#    y 0.000000 1.810160 0.000000 
#    z 0.008520 0.000000 1.865210 
# 
# From -- ./inp_files/216823.got.cif
#   From: 2010.06.25/outbox.cif.g09.slc.cpg/sg12_109_cif.got.tgz:216823.got - 2010.06.28 00:19:55.
