data_PCOD8107090
_publ_section_title
;
Structure prediction by ZEFSAII (Michael W. Deem and Ramdas Pophale) SiO2 
 PCOD8107090
Probable space group: C 2/M
;
_chemical_formula_sum "Si O2"
_cell_formula_units_Z 56
_cell_length_a 27.342275
_cell_length_b 9.715814
_cell_length_c 11.034083
_cell_angle_alpha 90.000000
_cell_angle_beta 96.567029
_cell_angle_gamma 90.000000
_cell_volume 2911.998709
_symmetry_space_group_name_H-M "C 2/M"
_symmetry_group_IT_number 12
_symmetry_cell_setting 'monoclinic'
loop_
_space_group_symop_operation_xyz
x,y,z
-x,y,-z
-x,-y,-z
x,-y,z
1/2+x,1/2+y,z
1/2-x,1/2+y,-z
1/2-x,1/2-y,-z
1/2+x,1/2-y,z
loop_
_atom_site_type_symbol
_atom_site_label
_atom_site_fract_x
_atom_site_fract_y
_atom_site_fract_z
Si Si1 0.648344 0.341992 0.971701
Si Si2 0.451728 0.658065 0.918053
Si Si3 0.091502 0.656005 0.283695
Si Si4 0.056009 0.341375 0.537176
Si Si5 0.690990 0.841788 0.179215
Si Si6 0.370616 0.340333 0.305756
Si Si7 0.230622 0.841198 0.603843
O O1 0.664742 0.500000 0.990838
O O2 0.593841 0.316549 0.006318
O O3 0.648595 0.296405 0.832130
O O4 0.687280 0.250524 0.057544
O O5 0.456644 0.500000 0.880041
O O6 0.500000 0.710240 0.000000
O O7 0.447010 0.745918 0.794760
O O8 0.077409 0.500000 0.246068
O O9 0.087534 0.681055 0.425016
O O10 0.146795 0.691821 0.259507
O O11 0.056849 0.500000 0.580150
O O12 0.081507 0.249011 0.647321
O O13 0.000000 0.292604 0.500000
O O14 0.740862 0.804623 0.263923
O O15 0.690182 0.000000 0.137144
O O16 0.386459 0.500000 0.309349
O O17 0.326934 0.313078 0.389318
O O18 0.250000 0.750000 0.500000
O O19 0.240376 0.000000 0.572270
#
# Coordination Sequence:
#
# PCOD8107090 Si02
#       7
#     8   8   8   8   8   8   8
#     4   9  19  35  52  76 111 143 177 223 270 320
#     4   9  18  31  50  74 100 135 177 219 262 313
#     4   9  18  33  51  73 101 134 173 218 267 314
#     4  10  22  38  55  78 109 145 185 228 274 326
#     4   9  18  34  55  78 106 141 179 221 270 323
#     4  10  22  38  56  81 112 144 181 227 277 329
#     4  10  21  37  58  84 112 144 184 227 272 326
#
# _framework density 19.230778999999998
#
# number of rings (size 3 to 8) (size 9 to 14) (size 15 to 20)
#    0.000    2.571    0.000    0.857    2.000    4.571 
#    0.000    2.857    0.000    0.000    0.000    0.000 
#    0.000    0.000    0.000    0.000    0.000    0.000 
#
# Total GULP energy -347269.750060 kJ/mol
# GULP energy per Si atom -12402.491074 kJ/mol
# Density = 1.918701 g / cm^3
# Si number density = 19.230779 Si / 1000 Ang^3
#
#
#
# Elastic Constant Matrix: (Units=GPa)
#
#
# Indices 1 2 3 4 5 6 
#
# 1 62.5191 37.1040 34.4115 0.0000 16.6085 0.0000
# 2 37.1040 81.5046 65.1638 0.0000 14.3309 0.0000
# 3 34.4115 65.1638 104.5535 0.0000 10.3287 0.0000
# 4 0.0000 0.0000 0.0000 41.3111 0.0000 5.4129
# 5 16.6085 14.3309 10.3287 0.0000 33.3399 0.0000
# 6 0.0000 0.0000 0.0000 5.4129 0.0000 24.2936
#
#
#
# Elastic Compliance Matrix: (Units=1/GPa)
#
#
# Indices 1 2 3 4 5 6 
#
# 1 0.023907 -0.007627 -0.002333 0.000000 -0.007908 0.000000
# 2 -0.007627 0.028099 -0.014632 0.000000 -0.003745 0.000000
# 3 -0.002333 -0.014632 0.019307 0.000000 0.001471 0.000000
# 4 0.000000 0.000000 0.000000 0.024934 0.000000 -0.005556
# 5 -0.007908 -0.003745 0.001471 0.000000 0.035088 0.000000
# 6 0.000000 0.000000 0.000000 -0.005556 0.000000 0.042401
#
#
# Mechanical properties :
#
#
# Convention : Reuss Voigt Hill
#
# Bulk Modulus (GPa) = 45.19501 57.99289 51.59395
# Shear Modulus (GPa) = 21.71101 27.24877 24.47989
#
# Velocity S-wave (km/s) = 3.36366 3.76830 3.57172
# Velocity P-wave (km/s) = 6.21595 7.01108 6.62545
#
# Compressibility (1/GPa) = 0.02212634
#
# Stress axis : x y z
#
# Youngs Moduli (GPa) = 41.82882 35.58871 51.79473
#
# Poissons Ratio (x) = 0.27145 0.12086
# Poissons Ratio (y) = 0.31904 0.75788
# Poissons Ratio (z) = 0.09761 0.52075
#
# Static dielectric constant tensor:
#      x y z
#    x 3.478560 0.000000 0.029060 
#    y 0.000000 3.497460 0.000000 
#    z 0.029060 0.000000 3.461440 
# 
# 
# High freq. dielectric constant tensor:
#      x y z
#    x 1.748700 0.000000 0.002250 
#    y 0.000000 1.741600 0.000000 
#    z 0.002250 0.000000 1.745650 
# 
# From -- ./inp_files/186398.got.cif
#   From: 2010.06.25/outbox.cif.g09.slc.cpg/sg12_94_cif.got.tgz:186398.got - 2010.06.28 00:19:55.
