data_PCOD8107718
_publ_section_title
;
Structure prediction by ZEFSAII (Michael W. Deem and Ramdas Pophale) SiO2 
 PCOD8107718
Probable space group: C 2/M
;
_chemical_formula_sum "Si O2"
_cell_formula_units_Z 56
_cell_length_a 20.955378
_cell_length_b 17.724061
_cell_length_c 9.456290
_cell_angle_alpha 90.000000
_cell_angle_beta 131.272457
_cell_angle_gamma 90.000000
_cell_volume 2639.705609
_symmetry_space_group_name_H-M "C 2/M"
_symmetry_group_IT_number 12
_symmetry_cell_setting 'monoclinic'
loop_
_space_group_symop_operation_xyz
x,y,z
-x,y,-z
-x,-y,-z
x,-y,z
1/2+x,1/2+y,z
1/2-x,1/2+y,-z
1/2-x,1/2-y,-z
1/2+x,1/2-y,z
loop_
_atom_site_type_symbol
_atom_site_label
_atom_site_fract_x
_atom_site_fract_y
_atom_site_fract_z
Si Si1 0.842781 0.651152 0.131387
Si Si2 0.993214 0.178640 0.650937
Si Si3 0.175509 0.188351 0.980708
Si Si4 0.262022 0.313449 0.634206
Si Si5 0.460077 0.085516 0.085518
Si Si6 0.919328 0.653017 0.532032
Si Si7 0.419853 0.589214 0.782832
O O1 0.744395 0.626715 0.019617
O O2 0.874598 0.625535 0.022378
O O3 0.909319 0.627881 0.352571
O O4 0.836955 0.741515 0.144125
O O5 0.968543 0.267209 0.625517
O O6 0.926345 0.128144 0.638125
O O7 0.000000 0.151720 0.500000
O O8 0.081688 0.154603 0.856541
O O9 0.207732 0.224205 0.175261
O O10 0.250000 0.250000 0.500000
O O11 0.170776 0.350173 0.523065
O O12 0.330234 0.379447 0.707504
O O13 0.528069 0.089177 0.310207
O O14 0.435060 0.000000 0.014491
O O15 0.500000 0.123079 0.000000
O O16 0.412591 0.500000 0.755326
O O17 0.500000 0.611198 0.000000
#
# Coordination Sequence:
#
# PCOD8107718 Si02
#       7
#     8   8   8   8   8   8   8
#     4  10  21  39  62  92 128 163 207 269 321 376
#     4  12  21  39  67  98 125 163 214 269 322 388
#     4  10  21  37  64  97 128 159 212 272 318 377
#     4  11  23  38  66 101 125 167 219 266 326 376
#     4  11  25  42  61  90 131 174 213 263 328 388
#     4  11  22  38  65  99 123 162 218 264 324 390
#     4  11  25  44  64  90 133 179 218 265 326 391
#
# _framework density 21.214486999999998
#
# number of rings (size 3 to 8) (size 9 to 14) (size 15 to 20)
#    0.000    1.143    5.714    0.429    2.000    2.571 
#    0.000    2.857    0.000    0.000    0.000    0.000 
#    0.000    0.000    0.000    0.000    0.000    0.000 
#
# Total GULP energy -346891.075011 kJ/mol
# GULP energy per Si atom -12388.966965 kJ/mol
# Density = 2.116620 g / cm^3
# Si number density = 21.214487 Si / 1000 Ang^3
#
#
#
# Elastic Constant Matrix: (Units=GPa)
#
#
# Indices 1 2 3 4 5 6 
#
# 1 157.6174 32.7827 51.4597 0.0000 -5.4798 0.0000
# 2 32.7827 56.1088 11.9385 0.0000 -3.5003 0.0000
# 3 51.4597 11.9385 79.8474 0.0000 4.4119 0.0000
# 4 0.0000 0.0000 0.0000 20.6795 0.0000 2.3882
# 5 -5.4798 -3.5003 4.4119 0.0000 44.5078 0.0000
# 6 0.0000 0.0000 0.0000 2.3882 0.0000 26.4748
#
#
#
# Elastic Compliance Matrix: (Units=1/GPa)
#
#
# Indices 1 2 3 4 5 6 
#
# 1 0.008934 -0.004026 -0.005228 0.000000 0.001301 0.000000
# 2 -0.004026 0.020356 -0.000513 0.000000 0.001156 0.000000
# 3 -0.005228 -0.000513 0.016096 0.000000 -0.002279 0.000000
# 4 0.000000 0.000000 0.000000 0.048866 0.000000 -0.004408
# 5 0.001301 0.001156 -0.002279 0.000000 0.022945 0.000000
# 6 0.000000 0.000000 0.000000 -0.004408 0.000000 0.038169
#
#
# Mechanical properties :
#
#
# Convention : Reuss Voigt Hill
#
# Bulk Modulus (GPa) = 38.68086 53.99283 46.33684
# Shear Modulus (GPa) = 27.24548 31.49194 29.36871
#
# Velocity S-wave (km/s) = 3.58758 3.85704 3.72475
# Velocity P-wave (km/s) = 5.95263 6.73364 6.35514
#
# Compressibility (1/GPa) = 0.02585258
#
# Stress axis : x y z
#
# Youngs Moduli (GPa) = 111.93341 49.12522 62.12907
#
# Poissons Ratio (x) = 0.19779 0.32479
# Poissons Ratio (y) = 0.45068 0.03185
# Poissons Ratio (z) = 0.58514 0.02518
#
# Static dielectric constant tensor:
#      x y z
#    x 4.473800 0.000000 0.195330 
#    y 0.000000 3.270340 0.000000 
#    z 0.195330 0.000000 3.963970 
# 
# 
# High freq. dielectric constant tensor:
#      x y z
#    x 1.869100 0.000000 0.003930 
#    y 0.000000 1.775940 0.000000 
#    z 0.003930 0.000000 1.834580 
# 
# From -- ./inp_files/89688.got.cif
#   From: 2010.06.25/outbox.cif.g09.slc.cpg/sg12_45_cif.got.tgz:89688.got - 2010.06.28 00:19:55.
