data_PCOD8107544
_publ_section_title
;
Structure prediction by ZEFSAII (Michael W. Deem and Ramdas Pophale) SiO2 
 PCOD8107544
Probable space group: C 2/M
;
_chemical_formula_sum "Si O2"
_cell_formula_units_Z 56
_cell_length_a 23.556140
_cell_length_b 9.281962
_cell_length_c 15.364962
_cell_angle_alpha 90.000000
_cell_angle_beta 59.553096
_cell_angle_gamma 90.000000
_cell_volume 2896.227069
_symmetry_space_group_name_H-M "C 2/M"
_symmetry_group_IT_number 12
_symmetry_cell_setting 'monoclinic'
loop_
_space_group_symop_operation_xyz
x,y,z
-x,y,-z
-x,-y,-z
x,-y,z
1/2+x,1/2+y,z
1/2-x,1/2+y,-z
1/2-x,1/2-y,-z
1/2+x,1/2-y,z
loop_
_atom_site_type_symbol
_atom_site_label
_atom_site_fract_x
_atom_site_fract_y
_atom_site_fract_z
Si Si1 0.787999 0.334485 0.897078
Si Si2 0.441547 0.166744 0.980739
Si Si3 0.518203 0.334628 0.579850
Si Si4 0.677240 0.666683 0.850152
Si Si5 0.162141 0.837682 0.527483
Si Si6 0.799055 0.333352 0.341288
Si Si7 0.562957 0.833393 0.214784
O O1 0.790096 0.500000 0.925326
O O2 0.749397 0.314710 0.836381
O O3 0.862361 0.275954 0.830263
O O4 0.750000 0.250000 0.000000
O O5 0.377429 0.263024 0.045668
O O6 0.423351 0.000000 0.011371
O O7 0.500000 0.215810 0.000000
O O8 0.462450 0.191457 0.864218
O O9 0.500000 0.268723 0.500000
O O10 0.495402 0.500000 0.603834
O O11 0.596282 0.317849 0.524521
O O12 0.484236 0.252029 0.684710
O O13 0.659626 0.500000 0.850291
O O14 0.675397 0.745871 0.760237
O O15 0.161666 0.723750 0.605717
O O16 0.221485 0.806430 0.414695
O O17 0.169014 0.000000 0.560134
O O18 0.816665 0.500000 0.313982
O O19 0.558994 0.000000 0.243633
#
# Coordination Sequence:
#
# PCOD8107544 Si02
#       7
#     8   8   8   8   8   8   8
#     4  10  21  38  59  84 115 149 190 236 284 338
#     4  10  22  40  61  87 121 158 197 238 287 353
#     4  10  23  41  61  86 118 156 197 240 291 350
#     4  11  23  37  58  89 119 150 193 240 290 345
#     4   9  20  40  60  84 116 150 194 244 291 344
#     4  10  21  37  61  87 114 152 193 238 295 348
#     4  10  22  40  60  86 119 155 195 243 292 343
#
# _framework density 19.3355
#
# number of rings (size 3 to 8) (size 9 to 14) (size 15 to 20)
#    0.000    2.000    1.429    0.857    4.000    3.429 
#    0.000    0.000    0.000    0.000    0.000    0.000 
#    0.000    0.000    0.000    0.000    0.000    0.000 
#
# Total GULP energy -347291.952567 kJ/mol
# GULP energy per Si atom -12403.284020 kJ/mol
# Density = 1.929149 g / cm^3
# Si number density = 19.335500 Si / 1000 Ang^3
#
#
#
# Elastic Constant Matrix: (Units=GPa)
#
#
# Indices 1 2 3 4 5 6 
#
# 1 102.9978 28.9482 29.1582 0.0000 6.6962 0.0000
# 2 28.9482 77.2543 44.5509 0.0000 6.5297 0.0000
# 3 29.1582 44.5509 100.0902 0.0000 10.6452 0.0000
# 4 0.0000 0.0000 0.0000 36.0273 0.0000 -1.3941
# 5 6.6962 6.5297 10.6452 0.0000 22.8680 0.0000
# 6 0.0000 0.0000 0.0000 -1.3941 0.0000 26.5679
#
#
#
# Elastic Compliance Matrix: (Units=1/GPa)
#
#
# Indices 1 2 3 4 5 6 
#
# 1 0.011158 -0.003053 -0.001722 0.000000 -0.001594 0.000000
# 2 -0.003053 0.018295 -0.007147 0.000000 -0.001003 0.000000
# 3 -0.001722 -0.007147 0.014101 0.000000 -0.004019 0.000000
# 4 0.000000 0.000000 0.000000 0.027813 0.000000 0.001459
# 5 -0.001594 -0.001003 -0.004019 0.000000 0.046353 0.000000
# 6 0.000000 0.000000 0.000000 0.001459 0.000000 0.037716
#
#
# Mechanical properties :
#
#
# Convention : Reuss Voigt Hill
#
# Bulk Modulus (GPa) = 50.73690 53.96190 52.34940
# Shear Modulus (GPa) = 26.90326 28.93829 27.92078
#
# Velocity S-wave (km/s) = 3.73418 3.87284 3.80414
# Velocity P-wave (km/s) = 6.69996 6.92584 6.81384
#
# Compressibility (1/GPa) = 0.01970952
#
# Stress axis : x y z
#
# Youngs Moduli (GPa) = 89.61986 54.66076 70.91558
#
# Poissons Ratio (x) = 0.16690 0.12212
# Poissons Ratio (y) = 0.27364 0.50683
# Poissons Ratio (z) = 0.15433 0.39066
#
# Static dielectric constant tensor:
#      x y z
#    x 3.753250 0.000000 0.000000 
#    y 0.000000 3.571530 0.000000 
#    z 0.000000 0.000000 3.395100 
# 
# 
# High freq. dielectric constant tensor:
#      x y z
#    x 1.762320 0.000000 0.002100 
#    y 0.000000 1.751240 0.000000 
#    z 0.002100 0.000000 1.749970 
# 
# From -- ./inp_files/238287.got.cif
#   From: 2010.06.25/outbox.cif.g09.slc.cpg/sg12_120_cif.got.tgz:238287.got - 2010.06.28 00:19:55.
