data_PCOD8107030
_publ_section_title
;
Structure prediction by ZEFSAII (Michael W. Deem and Ramdas Pophale) SiO2 
 PCOD8107030
Probable space group: C 2/M
;
_chemical_formula_sum "Si O2"
_cell_formula_units_Z 64
_cell_length_a 12.164688
_cell_length_b 18.252681
_cell_length_c 14.398706
_cell_angle_alpha 90.000000
_cell_angle_beta 86.149936
_cell_angle_gamma 90.000000
_cell_volume 3189.847125
_symmetry_space_group_name_H-M "C 2/M"
_symmetry_group_IT_number 12
_symmetry_cell_setting 'monoclinic'
loop_
_space_group_symop_operation_xyz
x,y,z
-x,y,-z
-x,-y,-z
x,-y,z
1/2+x,1/2+y,z
1/2-x,1/2+y,-z
1/2-x,1/2-y,-z
1/2+x,1/2-y,z
loop_
_atom_site_type_symbol
_atom_site_label
_atom_site_fract_x
_atom_site_fract_y
_atom_site_fract_z
Si Si1 0.872223 0.414153 0.016727
Si Si2 0.403218 0.660905 0.678031
Si Si3 0.167803 0.916201 0.499938
Si Si4 0.290352 0.152546 0.837727
Si Si5 0.914681 0.417095 0.428134
Si Si6 0.708584 0.192029 0.822356
Si Si7 0.001709 0.690802 0.723091
Si Si8 0.386927 0.413842 0.290018
O O1 0.864376 0.500000 0.038670
O O2 0.812198 0.371748 0.102900
O O3 0.802389 0.395759 0.928932
O O4 0.000000 0.389595 0.000000
O O5 0.395432 0.630925 0.573689
O O6 0.285757 0.659434 0.736201
O O7 0.450621 0.742970 0.667105
O O8 0.486931 0.610864 0.733897
O O9 0.296831 0.908409 0.480385
O O10 0.142971 0.886371 0.604322
O O11 0.128073 0.000000 0.490884
O O12 0.268650 0.237766 0.865178
O O13 0.404935 0.145056 0.776716
O O14 0.192012 0.123037 0.780265
O O15 0.937394 0.500000 0.393997
O O16 0.926828 0.365038 0.340506
O O17 0.000000 0.391124 0.500000
O O18 0.590907 0.220957 0.791462
O O19 0.373636 0.500000 0.280499
#
# Coordination Sequence:
#
# PCOD8107030 Si02
#       8
#     8   8   8   8   8   8   8   8
#     4  11  24  42  69  99 124 156 203 259 318 374
#     4  11  23  40  63  91 127 169 214 250 308 367
#     4  10  21  38  61  89 125 170 213 258 306 364
#     4  11  23  43  66  93 128 164 204 258 315 376
#     4  10  21  37  57  86 122 162 209 261 316 362
#     4  11  23  44  65  93 126 163 208 256 311 377
#     4  11  22  40  63  90 124 163 211 258 312 364
#     4  11  23  40  63  92 129 169 212 255 309 374
#
# _framework density 20.063656999999999
#
# number of rings (size 3 to 8) (size 9 to 14) (size 15 to 20)
#    0.000    1.250    3.750    2.250    0.000    5.500 
#    0.000    3.125    0.000    1.500    0.000    0.000 
#    0.000    0.000    0.000    0.000    0.000    0.000 
#
# Total GULP energy -396887.650146 kJ/mol
# GULP energy per Si atom -12402.739067 kJ/mol
# Density = 2.001799 g / cm^3
# Si number density = 20.063657 Si / 1000 Ang^3
#
#
#
# Elastic Constant Matrix: (Units=GPa)
#
#
# Indices 1 2 3 4 5 6 
#
# 1 108.7458 28.3577 38.4107 0.0000 15.4964 0.0000
# 2 28.3577 86.1027 47.6736 0.0000 -3.4548 0.0000
# 3 38.4107 47.6736 92.3666 0.0000 15.5673 0.0000
# 4 0.0000 0.0000 0.0000 30.7419 0.0000 6.5804
# 5 15.4964 -3.4548 15.5673 0.0000 30.7089 0.0000
# 6 0.0000 0.0000 0.0000 6.5804 0.0000 27.9555
#
#
#
# Elastic Compliance Matrix: (Units=1/GPa)
#
#
# Indices 1 2 3 4 5 6 
#
# 1 0.011462 -0.002467 -0.002703 0.000000 -0.004692 0.000000
# 2 -0.002467 0.018138 -0.009720 0.000000 0.008213 0.000000
# 3 -0.002703 -0.009720 0.018502 0.000000 -0.009109 0.000000
# 4 0.000000 0.000000 0.000000 0.034255 0.000000 -0.008063
# 5 -0.004692 0.008213 -0.009109 0.000000 0.040473 0.000000
# 6 0.000000 0.000000 0.000000 -0.008063 0.000000 0.037669
#
#
# Mechanical properties :
#
#
# Convention : Reuss Voigt Hill
#
# Bulk Modulus (GPa) = 54.57445 57.34434 55.95939
# Shear Modulus (GPa) = 25.46012 29.39947 27.42980
#
# Velocity S-wave (km/s) = 3.56612 3.83209 3.70149
# Velocity P-wave (km/s) = 6.64951 6.94429 6.79850
#
# Compressibility (1/GPa) = 0.01832359
#
# Stress axis : x y z
#
# Youngs Moduli (GPa) = 87.24319 55.13368 54.04747
#
# Poissons Ratio (x) = 0.13601 0.14607
# Poissons Ratio (y) = 0.21522 0.52533
# Poissons Ratio (z) = 0.23578 0.53589
#
# Static dielectric constant tensor:
#      x y z
#    x 3.848610 0.000000 0.072800 
#    y 0.000000 3.619950 0.000000 
#    z 0.072800 0.000000 3.552790 
# 
# 
# High freq. dielectric constant tensor:
#      x y z
#    x 1.803560 0.000000 0.007160 
#    y 0.000000 1.785570 0.000000 
#    z 0.007160 0.000000 1.769620 
# 
# From -- ./inp_files/206713.got.cif
#   From: 2010.06.25/outbox.cif.g09.slc.cpg/sg12_104_cif.got.tgz:206713.got - 2010.06.28 00:19:55.
