data_PCOD8107673
_publ_section_title
;
Structure prediction by ZEFSAII (Michael W. Deem and Ramdas Pophale) SiO2 
 PCOD8107673
Probable space group: C 2/M
;
_chemical_formula_sum "Si O2"
_cell_formula_units_Z 56
_cell_length_a 26.877045
_cell_length_b 19.523639
_cell_length_c 9.456956
_cell_angle_alpha 90.000000
_cell_angle_beta 35.936451
_cell_angle_gamma 90.000000
_cell_volume 2912.383577
_symmetry_space_group_name_H-M "C 2/M"
_symmetry_group_IT_number 12
_symmetry_cell_setting 'monoclinic'
loop_
_space_group_symop_operation_xyz
x,y,z
-x,y,-z
-x,-y,-z
x,-y,z
1/2+x,1/2+y,z
1/2-x,1/2+y,-z
1/2-x,1/2-y,-z
1/2+x,1/2-y,z
loop_
_atom_site_type_symbol
_atom_site_label
_atom_site_fract_x
_atom_site_fract_y
_atom_site_fract_z
Si Si1 0.425591 0.209673 0.367854
Si Si2 0.752055 0.420729 0.436254
Si Si3 0.813624 0.076665 0.716806
Si Si4 0.231994 0.324015 0.103676
Si Si5 0.386556 0.806887 0.133268
Si Si6 0.526189 0.655434 0.597829
Si Si7 0.155031 0.836668 0.890510
O O1 0.361133 0.165857 0.612913
O O2 0.391162 0.210532 0.288124
O O3 0.422562 0.285056 0.440501
O O4 0.521367 0.181131 0.150013
O O5 0.776168 0.500000 0.411070
O O6 0.692146 0.414031 0.438174
O O7 0.837819 0.377378 0.216753
O O8 0.701693 0.389579 0.682595
O O9 0.909325 0.092060 0.549035
O O10 0.792800 0.000000 0.810847
O O11 0.741089 0.122493 0.955809
O O12 0.304589 0.341384 0.048745
O O13 0.250000 0.250000 0.000000
O O14 0.338272 0.742207 0.175950
O O15 0.500000 0.677797 0.500000
O O16 0.442067 0.638316 0.879980
#
# Coordination Sequence:
#
# PCOD8107673 Si02
#       7
#     8   8   8   8   8   8   8
#     4  10  21  37  63  93 120 152 203 255 307 359
#     4  11  24  42  62  88 123 166 209 249 304 367
#     4  11  25  41  59  87 128 167 201 249 310 368
#     4  12  21  38  63  91 121 159 204 252 305 360
#     4  10  21  39  63  94 121 153 201 263 310 347
#     4  11  21  39  57  93 125 158 200 251 309 362
#     4  11  22  36  66  90 118 159 206 253 301 367
#
# _framework density 19.228237
#
# number of rings (size 3 to 8) (size 9 to 14) (size 15 to 20)
#    0.000    1.143    4.286    2.143    0.000    4.286 
#    0.000    3.571    0.000    1.714    0.000    0.000 
#    0.000    0.000    0.000    0.000    0.000    0.000 
#
# Total GULP energy -347239.403571 kJ/mol
# GULP energy per Si atom -12401.407270 kJ/mol
# Density = 1.918447 g / cm^3
# Si number density = 19.228237 Si / 1000 Ang^3
#
#
#
# Elastic Constant Matrix: (Units=GPa)
#
#
# Indices 1 2 3 4 5 6 
#
# 1 77.9782 41.5922 19.6020 0.0000 4.9256 0.0000
# 2 41.5922 123.3224 44.5089 0.0000 4.4036 0.0000
# 3 19.6020 44.5089 99.4076 0.0000 -0.4655 0.0000
# 4 0.0000 0.0000 0.0000 25.7239 0.0000 1.7182
# 5 4.9256 4.4036 -0.4655 0.0000 26.6638 0.0000
# 6 0.0000 0.0000 0.0000 1.7182 0.0000 28.3905
#
#
#
# Elastic Compliance Matrix: (Units=1/GPa)
#
#
# Indices 1 2 3 4 5 6 
#
# 1 0.015818 -0.004926 -0.000924 0.000000 -0.002125 0.000000
# 2 -0.004926 0.011281 -0.004084 0.000000 -0.001024 0.000000
# 3 -0.000924 -0.004084 0.012075 0.000000 0.001056 0.000000
# 4 0.000000 0.000000 0.000000 0.039032 0.000000 -0.002362
# 5 -0.002125 -0.001024 0.001056 0.000000 0.038084 0.000000
# 6 0.000000 0.000000 0.000000 -0.002362 0.000000 0.035366
#
#
# Mechanical properties :
#
#
# Convention : Reuss Voigt Hill
#
# Bulk Modulus (GPa) = 51.79549 56.90162 54.34855
# Shear Modulus (GPa) = 28.09639 29.15597 28.62618
#
# Velocity S-wave (km/s) = 3.82672 3.89821 3.86263
# Velocity P-wave (km/s) = 6.82061 7.06529 6.94403
#
# Compressibility (1/GPa) = 0.01930670
#
# Stress axis : x y z
#
# Youngs Moduli (GPa) = 63.22047 88.64679 82.81281
#
# Poissons Ratio (x) = 0.43663 0.07649
# Poissons Ratio (y) = 0.31139 0.33824
# Poissons Ratio (z) = 0.05839 0.36207
#
# Static dielectric constant tensor:
#      x y z
#    x 3.641770 0.000000 -0.026140 
#    y 0.000000 3.364540 0.000000 
#    z -0.026140 0.000000 3.764410 
# 
# 
# High freq. dielectric constant tensor:
#      x y z
#    x 1.756060 0.000000 0.003880 
#    y 0.000000 1.724480 0.000000 
#    z 0.003880 0.000000 1.766050 
# 
# From -- ./inp_files/98066.got.cif
#   From: 2010.06.25/outbox.cif.g09.slc.cpg/sg12_50_cif.got.tgz:98066.got - 2010.06.28 00:19:55.
