data_PCOD8107325
_publ_section_title
;
Structure prediction by ZEFSAII (Michael W. Deem and Ramdas Pophale) SiO2 
 PCOD8107325
Probable space group: C 2/M
;
_chemical_formula_sum "Si O2"
_cell_formula_units_Z 56
_cell_length_a 20.576152
_cell_length_b 8.794837
_cell_length_c 14.624044
_cell_angle_alpha 90.000000
_cell_angle_beta 86.051216
_cell_angle_gamma 90.000000
_cell_volume 2640.141484
_symmetry_space_group_name_H-M "C 2/M"
_symmetry_group_IT_number 12
_symmetry_cell_setting 'monoclinic'
loop_
_space_group_symop_operation_xyz
x,y,z
-x,y,-z
-x,-y,-z
x,-y,z
1/2+x,1/2+y,z
1/2-x,1/2+y,-z
1/2-x,1/2-y,-z
1/2+x,1/2-y,z
loop_
_atom_site_type_symbol
_atom_site_label
_atom_site_fract_x
_atom_site_fract_y
_atom_site_fract_z
Si Si1 0.338353 0.825226 0.943204
Si Si2 0.734254 0.678399 0.678782
Si Si3 0.281700 0.826677 0.136013
Si Si4 0.877125 0.320373 0.420419
Si Si5 0.005824 0.680830 0.721501
Si Si6 0.620749 0.180207 0.374015
Si Si7 0.028443 0.822015 0.096019
O O1 0.286937 0.715275 0.901455
O O2 0.407220 0.777603 0.897206
O O3 0.323306 0.000000 0.917690
O O4 0.337021 0.802992 0.053322
O O5 0.732504 0.500000 0.665265
O O6 0.702263 0.722136 0.779003
O O7 0.691867 0.751460 0.602738
O O8 0.808806 0.739843 0.667673
O O9 0.279742 0.000000 0.170012
O O10 0.870080 0.500000 0.418264
O O11 0.891956 0.262836 0.521468
O O12 0.935880 0.265748 0.350082
O O13 0.006702 0.500000 0.735369
O O14 0.937496 0.739887 0.684922
O O15 0.018056 0.764620 0.817430
O O16 0.619736 0.000000 0.371885
O O17 0.043202 0.000000 0.103415
O O18 0.000000 0.782405 0.000000
#
# Coordination Sequence:
#
# PCOD8107325 Si02
#       7
#     8   8   8   8   8   8   8
#     4  10  21  38  60  85 114 152 200 247 295 353
#     4  11  22  35  57  87 123 161 199 243 295 356
#     4  10  21  37  59  87 118 154 196 244 296 352
#     4  10  21  38  61  89 121 155 197 250 306 360
#     4  10  21  39  65  90 114 153 204 254 302 357
#     4   9  19  38  62  88 117 154 201 248 298 357
#     4  11  25  41  58  84 120 160 198 245 300 353
#
# _framework density 21.210984
#
# number of rings (size 3 to 8) (size 9 to 14) (size 15 to 20)
#    0.000    1.857    0.000    3.429    2.000    6.286 
#    0.000    2.143    0.000    1.714    0.000    0.000 
#    0.000    0.000    0.000    0.000    0.000    0.000 
#
# Total GULP energy -347253.163925 kJ/mol
# GULP energy per Si atom -12401.898712 kJ/mol
# Density = 2.116271 g / cm^3
# Si number density = 21.210984 Si / 1000 Ang^3
#
#
#
# Elastic Constant Matrix: (Units=GPa)
#
#
# Indices 1 2 3 4 5 6 
#
# 1 71.8371 17.2528 19.9241 0.0000 -0.3405 0.0000
# 2 17.2528 32.6899 26.5853 0.0000 -4.1558 0.0000
# 3 19.9241 26.5853 131.8828 0.0000 -1.9780 0.0000
# 4 0.0000 0.0000 0.0000 26.3249 0.0000 4.6959
# 5 -0.3405 -4.1558 -1.9780 0.0000 32.6107 0.0000
# 6 0.0000 0.0000 0.0000 4.6959 0.0000 27.1108
#
#
#
# Elastic Compliance Matrix: (Units=1/GPa)
#
#
# Indices 1 2 3 4 5 6 
#
# 1 0.016047 -0.007894 -0.000846 0.000000 -0.000890 0.000000
# 2 -0.007894 0.041061 -0.007014 0.000000 0.004725 0.000000
# 3 -0.000846 -0.007014 0.009119 0.000000 -0.000350 0.000000
# 4 0.000000 0.000000 0.000000 0.039198 0.000000 -0.006790
# 5 -0.000890 0.004725 -0.000350 0.000000 0.031236 0.000000
# 6 0.000000 0.000000 0.000000 -0.006790 0.000000 0.038062
#
#
# Mechanical properties :
#
#
# Convention : Reuss Voigt Hill
#
# Bulk Modulus (GPa) = 28.80264 40.43715 34.61990
# Shear Modulus (GPa) = 22.95638 28.71911 25.83774
#
# Velocity S-wave (km/s) = 3.29338 3.68363 3.49396
# Velocity P-wave (km/s) = 5.29815 6.09900 5.71263
#
# Compressibility (1/GPa) = 0.03471903
#
# Stress axis : x y z
#
# Youngs Moduli (GPa) = 62.31792 24.35377 109.66143
#
# Poissons Ratio (x) = 0.19225 0.09281
# Poissons Ratio (y) = 0.49193 0.76915
# Poissons Ratio (z) = 0.05274 0.17081
#
# Static dielectric constant tensor:
#      x y z
#    x 3.865620 0.000000 -0.102840 
#    y 0.000000 3.539440 0.000000 
#    z -0.102840 0.000000 4.099560 
# 
# 
# High freq. dielectric constant tensor:
#      x y z
#    x 1.829360 0.000000 -0.005680 
#    y 0.000000 1.809680 0.000000 
#    z -0.005680 0.000000 1.849410 
# 
# From -- ./inp_files/231010.got.cif
#   From: 2010.06.25/outbox.cif.g09.slc.cpg/sg12_116_cif.got.tgz:231010.got - 2010.06.28 00:19:55.
