data_PCOD8107208
_publ_section_title
;
Structure prediction by ZEFSAII (Michael W. Deem and Ramdas Pophale) SiO2 
 PCOD8107208
Probable space group: C 2/M
;
_chemical_formula_sum "Si O2"
_cell_formula_units_Z 64
_cell_length_a 14.543091
_cell_length_b 8.945839
_cell_length_c 33.335102
_cell_angle_alpha 90.000000
_cell_angle_beta 50.267540
_cell_angle_gamma 90.000000
_cell_volume 3335.240320
_symmetry_space_group_name_H-M "C 2/M"
_symmetry_group_IT_number 12
_symmetry_cell_setting 'monoclinic'
loop_
_space_group_symop_operation_xyz
x,y,z
-x,y,-z
-x,-y,-z
x,-y,z
1/2+x,1/2+y,z
1/2-x,1/2+y,-z
1/2-x,1/2-y,-z
1/2+x,1/2-y,z
loop_
_atom_site_type_symbol
_atom_site_label
_atom_site_fract_x
_atom_site_fract_y
_atom_site_fract_z
Si Si1 0.413883 0.676639 0.636690
Si Si2 0.384720 0.326751 0.006300
Si Si3 0.681039 0.328501 0.554648
Si Si4 0.963760 0.671226 0.273287
Si Si5 0.801709 0.672298 0.744699
Si Si6 0.253609 0.672086 0.374999
Si Si7 0.938373 0.324526 0.188038
Si Si8 0.636698 0.673195 0.080312
O O1 0.410405 0.500000 0.643477
O O2 0.548573 0.739504 0.597596
O O3 0.340680 0.748588 0.693073
O O4 0.350508 0.724088 0.613251
O O5 0.355615 0.500000 0.023032
O O6 0.271310 0.228689 0.050803
O O7 0.500000 0.275090 0.000000
O O8 0.407778 0.299810 0.952746
O O9 0.668172 0.500000 0.546083
O O10 0.750000 0.250000 0.500000
O O11 0.753952 0.307062 0.575195
O O12 0.921902 0.500000 0.291266
O O13 0.882913 0.778138 0.322969
O O14 0.953828 0.719084 0.230111
O O15 0.100338 0.693543 0.248151
O O16 0.778351 0.500000 0.741364
O O17 0.680950 0.745827 0.795264
O O18 0.233409 0.500000 0.368540
O O19 0.926739 0.500000 0.184843
O O20 0.051901 0.266779 0.132564
O O21 0.630114 0.500000 0.093680
#
# Coordination Sequence:
#
# PCOD8107208 Si02
#       8
#     8   8   8   8   8   8   8   8
#     4  11  22  39  60  86 117 151 190 235 292 353
#     4   9  19  38  63  86 114 156 200 242 295 354
#     4  10  24  42  61  86 118 152 192 242 296 349
#     4  10  22  38  58  84 115 154 195 236 290 352
#     4  11  22  37  59  87 114 151 197 241 289 346
#     4  11  22  38  61  88 115 149 193 241 287 344
#     4  11  23  39  58  84 122 161 196 240 293 351
#     4  10  21  37  58  87 120 153 195 248 295 345
#
# _framework density 19.189022999999999
#
# number of rings (size 3 to 8) (size 9 to 14) (size 15 to 20)
#    0.000    1.625    2.500    1.875    0.000    5.250 
#    0.000    7.500    0.000    0.000    0.000    0.000 
#    0.000    0.000    0.000    0.000    0.000    0.000 
#
# Total GULP energy -396947.517291 kJ/mol
# GULP energy per Si atom -12404.609915 kJ/mol
# Density = 1.914535 g / cm^3
# Si number density = 19.189023 Si / 1000 Ang^3
#
#
#
# Elastic Constant Matrix: (Units=GPa)
#
#
# Indices 1 2 3 4 5 6 
#
# 1 101.8266 31.4120 19.0439 0.0000 -7.2005 0.0000
# 2 31.4120 83.7144 35.9393 -0.0001 -3.1858 -0.0002
# 3 19.0439 35.9393 77.9804 0.0000 -6.3795 0.0000
# 4 0.0000 -0.0001 0.0000 36.5491 0.0000 -4.6432
# 5 -7.2005 -3.1858 -6.3795 0.0000 22.5387 0.0000
# 6 0.0000 -0.0002 0.0000 -4.6432 0.0000 32.6906
#
#
#
# Elastic Compliance Matrix: (Units=1/GPa)
#
#
# Indices 1 2 3 4 5 6 
#
# 1 0.011345 -0.003814 -0.000779 0.000000 0.002865 0.000000
# 2 -0.003814 0.016174 -0.006588 0.000000 -0.000797 0.000000
# 3 -0.000779 -0.006588 0.016332 0.000000 0.003443 0.000000
# 4 0.000000 0.000000 0.000000 0.027863 0.000000 0.003958
# 5 0.002865 -0.000797 0.003443 0.000000 0.046145 0.000000
# 6 0.000000 0.000000 0.000000 0.003958 0.000000 0.031152
#
#
# Mechanical properties :
#
#
# Convention : Reuss Voigt Hill
#
# Bulk Modulus (GPa) = 46.53241 48.47909 47.50575
# Shear Modulus (GPa) = 28.00542 30.16410 29.08476
#
# Velocity S-wave (km/s) = 3.82442 3.96908 3.89742
# Velocity P-wave (km/s) = 6.61844 6.80614 6.71295
#
# Compressibility (1/GPa) = 0.02149040
#
# Stress axis : x y z
#
# Youngs Moduli (GPa) = 88.14196 61.82576 61.22984
#
# Poissons Ratio (x) = 0.23579 0.04767
# Poissons Ratio (y) = 0.33615 0.40340
# Poissons Ratio (z) = 0.06863 0.40732
#
# Static dielectric constant tensor:
#      x y z
#    x 3.808580 0.000000 -0.042000 
#    y 0.000000 3.569170 0.000000 
#    z -0.042000 0.000000 3.391390 
# 
# 
# High freq. dielectric constant tensor:
#      x y z
#    x 1.758910 0.000000 -0.002150 
#    y 0.000000 1.753420 0.000000 
#    z -0.002150 0.000000 1.739560 
# 
# From -- ./inp_files/359947.got.cif
#   From: 2010.06.25/outbox.cif.g09.slc.cpg/sg12_180_cif.got.tgz:359947.got - 2010.06.28 00:19:55.
