data_PCOD8107668
_publ_section_title
;
Structure prediction by ZEFSAII (Michael W. Deem and Ramdas Pophale) SiO2 
 PCOD8107668
Probable space group: C 2/M
;
_chemical_formula_sum "Si O2"
_cell_formula_units_Z 40
_cell_length_a 8.295537
_cell_length_b 27.945849
_cell_length_c 11.924819
_cell_angle_alpha 90.000000
_cell_angle_beta 140.204903
_cell_angle_gamma 90.000000
_cell_volume 1769.389343
_symmetry_space_group_name_H-M "C 2/M"
_symmetry_group_IT_number 12
_symmetry_cell_setting 'monoclinic'
loop_
_space_group_symop_operation_xyz
x,y,z
-x,y,-z
-x,-y,-z
x,-y,z
1/2+x,1/2+y,z
1/2-x,1/2+y,-z
1/2-x,1/2-y,-z
1/2+x,1/2-y,z
loop_
_atom_site_type_symbol
_atom_site_label
_atom_site_fract_x
_atom_site_fract_y
_atom_site_fract_z
Si Si1 0.732010 0.222251 0.375400
Si Si2 0.235358 0.192518 0.204677
Si Si3 0.112379 0.445653 0.402042
Si Si4 0.153303 0.095760 0.273614
Si Si5 0.625031 0.944083 0.950395
O O1 0.750000 0.250000 0.500000
O O2 0.483500 0.189532 0.256167
O O3 0.704082 0.258269 0.255563
O O4 0.000000 0.194100 0.500000
O O5 0.246244 0.149426 0.299300
O O6 0.000000 0.185308 0.000000
O O7 0.209752 0.500000 0.456311
O O8 0.322498 0.413388 0.578641
O O9 0.840773 0.442157 0.316547
O O10 0.070552 0.428576 0.251405
O O11 0.877453 0.087159 0.076508
O O12 0.693989 0.000000 0.977515
O O13 0.500000 0.930940 0.000000
#
# Coordination Sequence:
#
# PCOD8107668 Si02
#       5
#     8   8   8   8   8
#     4   9  21  40  64  92 123 165 208 260 330 390
#     4  11  22  40  67  94 127 166 211 270 325 389
#     4  10  21  37  63  91 125 172 215 258 314 379
#     4  11  22  37  63  94 128 166 218 264 311 382
#     4  10  21  39  62  93 133 171 212 265 323 380
#
# _framework density 22.606670000000001
#
# number of rings (size 3 to 8) (size 9 to 14) (size 15 to 20)
#    0.000    1.800    0.000    4.800    8.400    2.400 
#    0.000   12.000    0.000    0.000    0.000    0.000 
#    0.000    0.000    0.000    0.000    0.000    0.000 
#
# Total GULP energy -247897.361459 kJ/mol
# GULP energy per Si atom -12394.868073 kJ/mol
# Density = 2.255522 g / cm^3
# Si number density = 22.606670 Si / 1000 Ang^3
#
#
#
# Elastic Constant Matrix: (Units=GPa)
#
#
# Indices 1 2 3 4 5 6 
#
# 1 104.2371 32.8863 53.5513 0.0000 4.3450 0.0000
# 2 32.8863 80.5217 44.6974 0.0000 4.7935 0.0000
# 3 53.5513 44.6974 149.2873 0.0000 -12.0732 0.0000
# 4 0.0000 0.0000 0.0000 15.4579 0.0000 -2.4035
# 5 4.3450 4.7935 -12.0732 0.0000 46.7666 0.0000
# 6 0.0000 0.0000 0.0000 -2.4035 0.0000 14.3893
#
#
#
# Elastic Compliance Matrix: (Units=1/GPa)
#
#
# Indices 1 2 3 4 5 6 
#
# 1 0.012526 -0.002914 -0.003769 0.000000 -0.001838 0.000000
# 2 -0.002914 0.015923 -0.003914 0.000000 -0.002372 0.000000
# 3 -0.003769 -0.003914 0.009481 0.000000 0.003199 0.000000
# 4 0.000000 0.000000 0.000000 0.066417 0.000000 0.011094
# 5 -0.001838 -0.002372 0.003199 0.000000 0.022623 0.000000
# 6 0.000000 0.000000 0.000000 0.011094 0.000000 0.071349
#
#
# Mechanical properties :
#
#
# Convention : Reuss Voigt Hill
#
# Bulk Modulus (GPa) = 59.75345 66.25735 63.00540
# Shear Modulus (GPa) = 22.21315 28.85016 25.53166
#
# Velocity S-wave (km/s) = 3.13803 3.57624 3.36428
# Velocity P-wave (km/s) = 6.29435 6.81359 6.55911
#
# Compressibility (1/GPa) = 0.01673544
#
# Stress axis : x y z
#
# Youngs Moduli (GPa) = 79.83389 62.80247 105.47185
#
# Poissons Ratio (x) = 0.18301 0.39757
# Poissons Ratio (y) = 0.23263 0.41281
# Poissons Ratio (z) = 0.30093 0.24581
#
# Static dielectric constant tensor:
#      x y z
#    x 4.673980 0.000000 0.052360 
#    y 0.000000 3.371860 0.000000 
#    z 0.052360 0.000000 4.474710 
# 
# 
# High freq. dielectric constant tensor:
#      x y z
#    x 1.883840 0.000000 -0.007460 
#    y 0.000000 1.861180 0.000000 
#    z -0.007460 0.000000 1.911660 
# 
# From -- ./inp_files/125485.got.cif
#   From: 2010.06.25/outbox.cif.g09.slc.cpg/sg12_63_cif.got.tgz:125485.got - 2010.06.28 00:19:55.
