data_PCOD8107217
_publ_section_title
;
Structure prediction by ZEFSAII (Michael W. Deem and Ramdas Pophale) SiO2 
 PCOD8107217
Probable space group: C 2/M
;
_chemical_formula_sum "Si O2"
_cell_formula_units_Z 40
_cell_length_a 14.119055
_cell_length_b 19.158516
_cell_length_c 8.223319
_cell_angle_alpha 90.000000
_cell_angle_beta 52.602989
_cell_angle_gamma 90.000000
_cell_volume 1767.173471
_symmetry_space_group_name_H-M "C 2/M"
_symmetry_group_IT_number 12
_symmetry_cell_setting 'monoclinic'
loop_
_space_group_symop_operation_xyz
x,y,z
-x,y,-z
-x,-y,-z
x,-y,z
1/2+x,1/2+y,z
1/2-x,1/2+y,-z
1/2-x,1/2-y,-z
1/2+x,1/2-y,z
loop_
_atom_site_type_symbol
_atom_site_label
_atom_site_fract_x
_atom_site_fract_y
_atom_site_fract_z
Si Si1 0.838546 0.196292 0.725060
Si Si2 0.056405 0.919536 0.202383
Si Si3 0.916958 0.275433 0.956472
Si Si4 0.086798 0.330022 0.541013
Si Si5 0.180743 0.080763 0.734596
O O1 0.903261 0.121052 0.673774
O O2 0.864441 0.223959 0.879452
O O3 0.891365 0.248290 0.533779
O O4 0.697078 0.186969 0.841432
O O5 0.923238 0.899354 0.283948
O O6 0.063190 0.000000 0.242926
O O7 0.144765 0.904021 0.958044
O O8 0.010411 0.331948 0.786119
O O9 0.000000 0.233793 0.000000
O O10 0.209352 0.370626 0.430375
O O11 0.000000 0.366453 0.500000
O O12 0.216070 0.000000 0.678017
#
# Coordination Sequence:
#
# PCOD8107217 Si02
#       5
#     8   8   8   8   8
#     4  10  21  37  58  87 123 149 196 251 289 350
#     4   9  18  34  58  86 119 159 198 242 295 344
#     4  10  22  38  58  87 117 156 195 245 296 349
#     4  10  21  38  56  90 121 150 199 241 298 354
#     4   9  18  33  57  88 120 156 200 243 289 349
#
# _framework density 22.635017000000001
#
# number of rings (size 3 to 8) (size 9 to 14) (size 15 to 20)
#    0.000    2.400    0.000    4.800    5.600    1.200 
#   10.800    1.000    0.000    7.800    0.000    0.000 
#    0.000    0.000    0.000    0.000    0.000    0.000 
#
# Total GULP energy -247797.630616 kJ/mol
# GULP energy per Si atom -12389.881531 kJ/mol
# Density = 2.258350 g / cm^3
# Si number density = 22.635017 Si / 1000 Ang^3
#
#
#
# Elastic Constant Matrix: (Units=GPa)
#
#
# Indices 1 2 3 4 5 6 
#
# 1 109.3734 29.3091 31.3502 0.0000 -36.8008 0.0000
# 2 29.3091 86.7512 18.0879 0.0000 -26.0361 0.0000
# 3 31.3502 18.0879 83.6329 0.0000 -43.0935 0.0000
# 4 0.0000 0.0000 0.0000 19.5399 0.0000 -10.3610
# 5 -36.8008 -26.0361 -43.0935 0.0000 40.1310 0.0000
# 6 0.0000 0.0000 0.0000 -10.3610 0.0000 33.6318
#
#
#
# Elastic Compliance Matrix: (Units=1/GPa)
#
#
# Indices 1 2 3 4 5 6 
#
# 1 0.013572 -0.000661 0.002792 0.000000 0.015015 0.000000
# 2 -0.000661 0.014902 0.003793 0.000000 0.013134 0.000000
# 3 0.002792 0.003793 0.028380 0.000000 0.035497 0.000000
# 4 0.000000 0.000000 0.000000 0.061170 0.000000 0.018845
# 5 0.015015 0.013134 0.035497 0.000000 0.085326 0.000000
# 6 0.000000 0.000000 0.000000 0.018845 0.000000 0.035539
#
#
# Mechanical properties :
#
#
# Convention : Reuss Voigt Hill
#
# Bulk Modulus (GPa) = 14.55559 48.58355 31.56957
# Shear Modulus (GPa) = 20.00463 32.06121 26.03292
#
# Velocity S-wave (km/s) = 2.97609 3.76765 3.39502
# Velocity P-wave (km/s) = 4.27247 6.35904 5.41717
#
# Compressibility (1/GPa) = 0.06870213
#
# Stress axis : x y z
#
# Youngs Moduli (GPa) = 73.68132 67.10640 35.23554
#
# Poissons Ratio (x) = 0.04436 -0.09839
# Poissons Ratio (y) = 0.04871 -0.13363
# Poissons Ratio (z) = -0.20575 -0.25451
#
# Static dielectric constant tensor:
#      x y z
#    x 4.459450 0.000000 -0.178430 
#    y 0.000000 3.834980 0.000000 
#    z -0.178430 0.000000 4.078380 
# 
# 
# High freq. dielectric constant tensor:
#      x y z
#    x 1.902900 0.000000 -0.013140 
#    y 0.000000 1.856800 0.000000 
#    z -0.013140 0.000000 1.897130 
# 
# From -- ./inp_files/63167.got.cif
#   From: 2010.06.25/outbox.cif.g09.slc.cpg/sg12_32_cif.got.tgz:63167.got - 2010.06.28 00:19:55.
