data_PCOD8107697
_publ_section_title
;
Structure prediction by ZEFSAII (Michael W. Deem and Ramdas Pophale) SiO2 
 PCOD8107697
Probable space group: C 2/M
;
_chemical_formula_sum "Si O2"
_cell_formula_units_Z 36
_cell_length_a 12.016216
_cell_length_b 22.007630
_cell_length_c 7.991117
_cell_angle_alpha 90.000000
_cell_angle_beta 52.988247
_cell_angle_gamma 90.000000
_cell_volume 1687.446306
_symmetry_space_group_name_H-M "C 2/M"
_symmetry_group_IT_number 12
_symmetry_cell_setting 'monoclinic'
loop_
_space_group_symop_operation_xyz
x,y,z
-x,y,-z
-x,-y,-z
x,-y,z
1/2+x,1/2+y,z
1/2-x,1/2+y,-z
1/2-x,1/2-y,-z
1/2+x,1/2-y,z
loop_
_atom_site_type_symbol
_atom_site_label
_atom_site_fract_x
_atom_site_fract_y
_atom_site_fract_z
Si Si1 0.464315 0.327066 0.838829
Si Si2 0.684260 0.859407 0.212885
Si Si3 0.174226 0.930757 0.634718
Si Si4 0.540343 0.930818 0.778874
Si Si5 0.000000 0.739586 0.500000
O O1 0.541628 0.389139 0.715692
O O2 0.512334 0.277215 0.661126
O O3 0.500000 0.308087 0.000000
O O4 0.297705 0.337326 0.972846
O O5 0.758655 0.912280 0.249669
O O6 0.542041 0.885518 0.266394
O O7 0.639644 0.801647 0.365661
O O8 0.293634 0.922046 0.386942
O O9 0.121769 0.000000 0.691204
O O10 0.497721 0.000000 0.774325
O O11 0.500000 0.912287 0.000000
#
# Coordination Sequence:
#
# PCOD8107697 Si02
#       5
#     8   8   8   8   4
#     4  10  26  42  64  95 127 167 215 258 316 375
#     4  11  22  42  64  93 122 170 212 259 313 375
#     4  10  21  42  66  93 125 162 207 262 323 376
#     4  10  21  37  63  97 128 161 208 262 320 378
#     4  12  24  44  64  90 132 174 212 258 306 376
#
# _framework density 21.334012000000001
#
# number of rings (size 3 to 8) (size 9 to 14) (size 15 to 20)
#    0.000    1.556    2.222    1.333    3.111   11.111 
#    0.000    0.556    0.000    0.000    0.000    0.000 
#    0.000    0.000    0.000    0.000    0.000    0.000 
#
# Total GULP energy -223172.050074 kJ/mol
# GULP energy per Si atom -12398.447226 kJ/mol
# Density = 2.128545 g / cm^3
# Si number density = 21.334012 Si / 1000 Ang^3
#
#
#
# Elastic Constant Matrix: (Units=GPa)
#
#
# Indices 1 2 3 4 5 6 
#
# 1 44.0811 42.5599 32.6864 0.0000 -9.1683 0.0000
# 2 42.5599 128.4623 69.4677 0.0000 -3.5127 0.0000
# 3 32.6864 69.4677 143.8630 0.0000 -6.0064 0.0000
# 4 0.0000 0.0000 0.0000 30.5173 0.0000 2.5509
# 5 -9.1683 -3.5127 -6.0064 0.0000 38.8981 0.0000
# 6 0.0000 0.0000 0.0000 2.5509 0.0000 26.7450
#
#
#
# Elastic Compliance Matrix: (Units=1/GPa)
#
#
# Indices 1 2 3 4 5 6 
#
# 1 0.036240 -0.010177 -0.003021 0.000000 0.007156 0.000000
# 2 -0.010177 0.013394 -0.004232 0.000000 -0.001843 0.000000
# 3 -0.003021 -0.004232 0.009698 0.000000 0.000403 0.000000
# 4 0.000000 0.000000 0.000000 0.033032 0.000000 -0.003151
# 5 0.007156 -0.001843 0.000403 0.000000 0.027291 0.000000
# 6 0.000000 0.000000 0.000000 -0.003151 0.000000 0.037691
#
#
# Mechanical properties :
#
#
# Convention : Reuss Voigt Hill
#
# Bulk Modulus (GPa) = 40.86405 67.31493 54.08949
# Shear Modulus (GPa) = 24.95470 30.67824 27.81647
#
# Velocity S-wave (km/s) = 3.42382 3.79621 3.61481
# Velocity P-wave (km/s) = 5.90136 7.12996 6.54455
#
# Compressibility (1/GPa) = 0.02447139
#
# Stress axis : x y z
#
# Youngs Moduli (GPa) = 27.59407 74.65775 103.11406
#
# Poissons Ratio (x) = 0.75980 0.31149
# Poissons Ratio (y) = 0.28083 0.43643
# Poissons Ratio (z) = 0.08336 0.31599
#
# Static dielectric constant tensor:
#      x y z
#    x 3.553580 0.000000 -0.238280 
#    y 0.000000 3.907140 0.000000 
#    z -0.238280 0.000000 4.288650 
# 
# 
# High freq. dielectric constant tensor:
#      x y z
#    x 1.803120 0.000000 -0.016660 
#    y 0.000000 1.840990 0.000000 
#    z -0.016660 0.000000 1.864070 
# 
# From -- ./inp_files/50343.got.cif
#   From: 2010.06.25/outbox.cif.g09.slc.cpg/sg12_26_cif.got.tgz:50343.got - 2010.06.28 00:19:55.
