data_PCOD8107837
_publ_section_title
;
Structure prediction by ZEFSAII (Michael W. Deem and Ramdas Pophale) SiO2 
 PCOD8107837
Probable space group: C 2/M
;
_chemical_formula_sum "Si O2"
_cell_formula_units_Z 48
_cell_length_a 12.388348
_cell_length_b 13.192300
_cell_length_c 21.118647
_cell_angle_alpha 90.000000
_cell_angle_beta 41.847572
_cell_angle_gamma 90.000000
_cell_volume 2302.630633
_symmetry_space_group_name_H-M "C 2/M"
_symmetry_group_IT_number 12
_symmetry_cell_setting 'monoclinic'
loop_
_space_group_symop_operation_xyz
x,y,z
-x,y,-z
-x,-y,-z
x,-y,z
1/2+x,1/2+y,z
1/2-x,1/2+y,-z
1/2-x,1/2-y,-z
1/2+x,1/2-y,z
loop_
_atom_site_type_symbol
_atom_site_label
_atom_site_fract_x
_atom_site_fract_y
_atom_site_fract_z
Si Si1 0.042398 0.202073 0.637733
Si Si2 0.948650 0.259747 0.233647
Si Si3 0.136474 0.884830 0.392468
Si Si4 0.932905 0.882491 0.128223
Si Si5 0.749696 0.617296 0.917501
Si Si6 0.401182 0.881726 0.478374
O O1 0.970239 0.208642 0.740150
O O2 0.219259 0.154915 0.567519
O O3 0.028084 0.311493 0.608813
O O4 0.930249 0.122540 0.649547
O O5 0.802294 0.324329 0.327244
O O6 0.881081 0.178690 0.213224
O O7 0.083731 0.326315 0.139236
O O8 0.000000 0.839753 0.500000
O O9 0.174125 0.000000 0.394455
O O10 0.823001 0.846550 0.117846
O O11 0.904095 0.000000 0.155589
O O12 0.120991 0.861954 0.029442
O O13 0.791180 0.500000 0.895569
O O14 0.500000 0.865524 0.500000
O O15 0.407814 0.000000 0.454573
#
# Coordination Sequence:
#
# PCOD8107837 Si02
#       6
#     8   8   8   8   8   8
#     4  11  22  36  54  80 112 146 184 232 288 333
#     4  12  22  35  59  88 114 146 191 234 276 336
#     4  11  24  41  57  77 112 156 195 232 275 325
#     4   9  20  39  61  86 117 146 178 229 292 345
#     4   9  19  38  62  86 112 146 186 230 281 340
#     4  10  21  38  58  78 105 146 196 243 282 326
#
# _framework density 20.845723
#
# number of rings (size 3 to 8) (size 9 to 14) (size 15 to 20)
#    0.000    1.667    0.000    7.000    0.000    4.000 
#    0.000    4.167    0.000    1.000    0.000   10.500 
#    0.000    0.000    0.000    0.000    0.000    0.000 
#
# Total GULP energy -297606.697095 kJ/mol
# GULP energy per Si atom -12400.279046 kJ/mol
# Density = 2.079828 g / cm^3
# Si number density = 20.845723 Si / 1000 Ang^3
#
#
#
# Elastic Constant Matrix: (Units=GPa)
#
#
# Indices 1 2 3 4 5 6 
#
# 1 81.4128 25.8171 9.6689 0.0000 9.0485 0.0000
# 2 25.8171 88.8621 31.3869 0.0000 5.6834 0.0000
# 3 9.6689 31.3869 62.6229 -0.0003 0.5865 0.0001
# 4 0.0000 0.0000 -0.0003 20.1921 0.0001 -2.2800
# 5 9.0485 5.6834 0.5865 0.0001 42.1123 0.0000
# 6 0.0000 0.0000 0.0001 -2.2800 0.0000 32.2599
#
#
#
# Elastic Compliance Matrix: (Units=1/GPa)
#
#
# Indices 1 2 3 4 5 6 
#
# 1 0.013776 -0.003770 -0.000215 0.000000 -0.002448 0.000000
# 2 -0.003770 0.014836 -0.006844 0.000000 -0.001097 0.000000
# 3 -0.000215 -0.006844 0.019425 0.000000 0.000699 0.000000
# 4 0.000000 0.000000 0.000000 0.049923 0.000000 0.003528
# 5 -0.002448 -0.001097 0.000699 0.000000 0.024410 0.000000
# 6 0.000000 0.000000 0.000000 0.003528 0.000000 0.031248
#
#
# Mechanical properties :
#
#
# Convention : Reuss Voigt Hill
#
# Bulk Modulus (GPa) = 37.90577 40.73819 39.32198
# Shear Modulus (GPa) = 27.16387 29.98119 28.57253
#
# Velocity S-wave (km/s) = 3.61375 3.79653 3.70627
# Velocity P-wave (km/s) = 5.96956 6.22923 6.10078
#
# Compressibility (1/GPa) = 0.02638121
#
# Stress axis : x y z
#
# Youngs Moduli (GPa) = 72.58893 67.40330 51.47948
#
# Poissons Ratio (x) = 0.25411 0.01104
# Poissons Ratio (y) = 0.27366 0.35230
# Poissons Ratio (z) = 0.01557 0.46128
#
# Static dielectric constant tensor:
#      x y z
#    x 3.802900 0.000000 -0.012530 
#    y 0.000000 3.735640 0.000000 
#    z -0.012530 0.000000 3.601560 
# 
# 
# High freq. dielectric constant tensor:
#      x y z
#    x 1.821650 0.000000 -0.002020 
#    y 0.000000 1.814190 0.000000 
#    z -0.002020 0.000000 1.805430 
# 
# From -- ./inp_files/305629.got.cif
#   From: 2010.06.25/outbox.cif.g09.slc.cpg/sg12_153_cif.got.tgz:305629.got - 2010.06.28 00:19:55.
