data_PCOD8107669
_publ_section_title
;
Structure prediction by ZEFSAII (Michael W. Deem and Ramdas Pophale) SiO2 
 PCOD8107669
Probable space group: C 2/M
;
_chemical_formula_sum "Si O2"
_cell_formula_units_Z 56
_cell_length_a 17.572359
_cell_length_b 22.253872
_cell_length_c 14.209957
_cell_angle_alpha 90.000000
_cell_angle_beta 148.979609
_cell_angle_gamma 90.000000
_cell_volume 2863.682608
_symmetry_space_group_name_H-M "C 2/M"
_symmetry_group_IT_number 12
_symmetry_cell_setting 'monoclinic'
loop_
_space_group_symop_operation_xyz
x,y,z
-x,y,-z
-x,-y,-z
x,-y,z
1/2+x,1/2+y,z
1/2-x,1/2+y,-z
1/2-x,1/2-y,-z
1/2+x,1/2-y,z
loop_
_atom_site_type_symbol
_atom_site_label
_atom_site_fract_x
_atom_site_fract_y
_atom_site_fract_z
Si Si1 0.290141 0.429370 0.527799
Si Si2 0.869482 0.763191 0.704719
Si Si3 0.146543 0.793249 0.708602
Si Si4 0.833484 0.358365 0.432739
Si Si5 0.364997 0.855662 0.799024
Si Si6 0.334497 0.838904 0.226516
Si Si7 0.425371 0.646349 0.175876
O O1 0.282944 0.500000 0.510741
O O2 0.219835 0.410522 0.553354
O O3 0.199853 0.401958 0.344912
O O4 0.460162 0.408741 0.703783
O O5 0.750000 0.750000 0.500000
O O6 0.781524 0.802984 0.687301
O O7 0.931235 0.702338 0.815431
O O8 0.007356 0.796535 0.806055
O O9 0.240146 0.833513 0.737114
O O10 0.219103 0.730458 0.818474
O O11 0.112001 0.837148 0.757755
O O12 0.000000 0.772052 0.500000
O O13 0.829766 0.377121 0.318944
O O14 0.999198 0.339567 0.638916
O O15 0.500000 0.885860 0.000000
O O16 0.224896 0.871880 0.037465
#
# Coordination Sequence:
#
# PCOD8107669 Si02
#       7
#     8   8   8   8   8   8   8
#     4  11  26  47  63  82 121 172 222 262 298 356
#     4  11  18  36  57  91 126 165 189 246 311 381
#     4  12  20  37  60 100 137 161 186 245 318 394
#     4  10  21  37  63  91 127 157 197 250 315 374
#     4  12  24  37  63  95 129 161 211 250 311 375
#     4  11  21  36  62 101 129 153 192 254 325 382
#     4  11  24  37  63  93 129 163 208 250 314 374
#
# _framework density 19.555240000000001
#
# number of rings (size 3 to 8) (size 9 to 14) (size 15 to 20)
#    0.000    0.857    7.143    2.143    2.000    2.000 
#    0.000    5.000    0.000    0.000    0.000    0.000 
#    0.000    0.000    0.000    0.000    0.000    0.000 
#
# Total GULP energy -347183.060200 kJ/mol
# GULP energy per Si atom -12399.395007 kJ/mol
# Density = 1.951073 g / cm^3
# Si number density = 19.555240 Si / 1000 Ang^3
#
#
#
# Elastic Constant Matrix: (Units=GPa)
#
#
# Indices 1 2 3 4 5 6 
#
# 1 91.7671 42.0570 4.1565 0.0000 -8.5728 0.0000
# 2 42.0570 118.9789 30.3221 0.0000 -6.0229 0.0000
# 3 4.1565 30.3221 95.9537 0.0000 -20.5682 0.0000
# 4 0.0000 0.0000 0.0000 28.2747 0.0000 -0.9612
# 5 -8.5728 -6.0229 -20.5682 0.0000 19.9353 0.0000
# 6 0.0000 0.0000 0.0000 -0.9612 0.0000 10.9556
#
#
#
# Elastic Compliance Matrix: (Units=1/GPa)
#
#
# Indices 1 2 3 4 5 6 
#
# 1 0.013806 -0.005172 0.002535 0.000000 0.006989 0.000000
# 2 -0.005172 0.011080 -0.003899 0.000000 -0.002899 0.000000
# 3 0.002535 -0.003899 0.014798 0.000000 0.015180 0.000000
# 4 0.000000 0.000000 0.000000 0.035473 0.000000 0.003112
# 5 0.006989 -0.002899 0.015180 0.000000 0.067954 0.000000
# 6 0.000000 0.000000 0.000000 0.003112 0.000000 0.091551
#
#
# Mechanical properties :
#
#
# Convention : Reuss Voigt Hill
#
# Bulk Modulus (GPa) = 37.57885 51.08566 44.33225
# Shear Modulus (GPa) = 19.48527 27.17737 23.33132
#
# Velocity S-wave (km/s) = 3.16004 3.73201 3.45787
# Velocity P-wave (km/s) = 5.70727 6.68962 6.21788
#
# Compressibility (1/GPa) = 0.02661071
#
# Stress axis : x y z
#
# Youngs Moduli (GPa) = 72.43375 90.25278 67.57778
#
# Poissons Ratio (x) = 0.46681 -0.17128
# Poissons Ratio (y) = 0.37464 0.26347
# Poissons Ratio (z) = -0.18359 0.35188
#
# Static dielectric constant tensor:
#      x y z
#    x 3.968410 0.000000 0.678750 
#    y 0.000000 4.156640 0.000000 
#    z 0.678750 0.000000 6.963030 
# 
# 
# High freq. dielectric constant tensor:
#      x y z
#    x 1.782630 0.000000 -0.002050 
#    y 0.000000 1.705420 0.000000 
#    z -0.002050 0.000000 1.774300 
# 
# From -- ./inp_files/227663.got.cif
#   From: 2010.06.25/outbox.cif.g09.slc.cpg/sg12_114_cif.got.tgz:227663.got - 2010.06.28 00:19:55.
