data_PCOD8107067
_publ_section_title
;
Structure prediction by ZEFSAII (Michael W. Deem and Ramdas Pophale) SiO2 
 PCOD8107067
Probable space group: C 2/M
;
_chemical_formula_sum "Si O2"
_cell_formula_units_Z 64
_cell_length_a 10.094392
_cell_length_b 14.379209
_cell_length_c 28.049113
_cell_angle_alpha 90.000000
_cell_angle_beta 128.438242
_cell_angle_gamma 90.000000
_cell_volume 3188.971295
_symmetry_space_group_name_H-M "C 2/M"
_symmetry_group_IT_number 12
_symmetry_cell_setting 'monoclinic'
loop_
_space_group_symop_operation_xyz
x,y,z
-x,y,-z
-x,-y,-z
x,-y,z
1/2+x,1/2+y,z
1/2-x,1/2+y,-z
1/2-x,1/2-y,-z
1/2+x,1/2-y,z
loop_
_atom_site_type_symbol
_atom_site_label
_atom_site_fract_x
_atom_site_fract_y
_atom_site_fract_z
Si Si1 0.551603 0.239289 0.959320
Si Si2 0.481389 0.391678 0.788781
Si Si3 0.185398 0.237012 0.323168
Si Si4 0.856574 0.108020 0.865418
Si Si5 0.028532 0.606445 0.229380
Si Si6 0.077034 0.758454 0.403102
Si Si7 0.667779 0.608833 0.506338
Si Si8 0.144318 0.606894 0.150734
O O1 0.458834 0.337040 0.928618
O O2 0.498318 0.163430 0.908597
O O3 0.500000 0.203691 0.000000
O O4 0.750000 0.250000 0.000000
O O5 0.462230 0.500000 0.773803
O O6 0.355808 0.340326 0.725146
O O7 0.433376 0.365830 0.831597
O O8 0.672187 0.356924 0.823877
O O9 0.116376 0.336986 0.291139
O O10 0.094708 0.210304 0.352279
O O11 0.385254 0.239533 0.374931
O O12 0.662416 0.140079 0.822260
O O13 0.875452 0.000000 0.881944
O O14 0.030609 0.500000 0.246683
O O15 0.132360 0.622752 0.204407
O O16 0.179996 0.662664 0.433514
O O17 0.145472 0.844353 0.449667
O O18 0.500000 0.621268 0.500000
O O19 0.714135 0.500000 0.510510
O O20 0.116413 0.500000 0.130837
#
# Coordination Sequence:
#
# PCOD8107067 Si02
#       8
#     8   8   8   8   8   8   8   8
#     4  12  24  36  56  83 108 141 190 243 296 343
#     4  10  21  37  58  82 114 155 187 227 295 360
#     4  12  22  36  60  92 130 148 188 255 300 343
#     4  10  21  39  58  78 111 152 192 233 287 356
#     4  10  21  37  60  86 114 157 197 227 287 366
#     4  11  24  39  62  97 122 159 204 253 300 345
#     4  10  22  45  68  85 120 173 213 242 292 358
#     4  10  21  39  58  78 111 152 192 231 283 356
#
# _framework density 20.069168999999999
#
# number of rings (size 3 to 8) (size 9 to 14) (size 15 to 20)
#    0.000    1.375    1.250    4.500    0.000    3.000 
#    0.000    0.625    0.000    0.000    0.000    0.000 
#    0.000    0.000    0.000    0.000    0.000    0.000 
#
# Total GULP energy -397005.426870 kJ/mol
# GULP energy per Si atom -12406.419590 kJ/mol
# Density = 2.002349 g / cm^3
# Si number density = 20.069169 Si / 1000 Ang^3
#
#
#
# Elastic Constant Matrix: (Units=GPa)
#
#
# Indices 1 2 3 4 5 6 
#
# 1 83.5756 13.0777 10.0107 0.0000 2.0502 0.0000
# 2 13.0777 103.3554 40.2009 0.0000 4.0249 0.0000
# 3 10.0107 40.2009 85.0354 0.0000 8.2358 0.0000
# 4 0.0000 0.0000 0.0000 20.2729 0.0000 5.5396
# 5 2.0502 4.0249 8.2358 0.0000 25.6781 0.0000
# 6 0.0000 0.0000 0.0000 5.5396 0.0000 16.5945
#
#
#
# Elastic Compliance Matrix: (Units=1/GPa)
#
#
# Indices 1 2 3 4 5 6 
#
# 1 0.012266 -0.001213 -0.000820 0.000000 -0.000526 0.000000
# 2 -0.001213 0.011975 -0.005518 0.000000 -0.000011 0.000000
# 3 -0.000820 -0.005518 0.014836 0.000000 -0.003828 0.000000
# 4 0.000000 0.000000 0.000000 0.054278 0.000000 -0.018119
# 5 -0.000526 -0.000011 -0.003828 0.000000 0.040215 0.000000
# 6 0.000000 0.000000 0.000000 -0.018119 0.000000 0.066309
#
#
# Mechanical properties :
#
#
# Convention : Reuss Voigt Hill
#
# Bulk Modulus (GPa) = 41.70687 44.28276 42.99482
# Shear Modulus (GPa) = 22.42439 26.42092 24.42266
#
# Velocity S-wave (km/s) = 3.34631 3.63229 3.49223
# Velocity P-wave (km/s) = 5.97972 6.30114 6.14253
#
# Compressibility (1/GPa) = 0.02397686
#
# Stress axis : x y z
#
# Youngs Moduli (GPa) = 81.52572 83.50499 67.40575
#
# Poissons Ratio (x) = 0.10127 0.05525
# Poissons Ratio (y) = 0.09887 0.37192
# Poissons Ratio (z) = 0.06683 0.46075
#
# Static dielectric constant tensor:
#      x y z
#    x 3.918980 0.000000 -0.050680 
#    y 0.000000 3.720730 0.000000 
#    z -0.050680 0.000000 3.635790 
# 
# 
# High freq. dielectric constant tensor:
#      x y z
#    x 1.799450 0.000000 0.001980 
#    y 0.000000 1.789900 0.000000 
#    z 0.001980 0.000000 1.783090 
# 
# From -- ./inp_files/372620.got.cif
#   From: 2010.06.25/outbox.cif.g09.slc.cpg/sg12_187_cif.got.tgz:372620.got - 2010.06.28 00:19:55.
