data_PCOD8107070
_publ_section_title
;
Structure prediction by ZEFSAII (Michael W. Deem and Ramdas Pophale) SiO2 
 PCOD8107070
Probable space group: C 2/M
;
_chemical_formula_sum "Si O2"
_cell_formula_units_Z 56
_cell_length_a 18.443801
_cell_length_b 8.968019
_cell_length_c 29.067369
_cell_angle_alpha 90.000000
_cell_angle_beta 37.779674
_cell_angle_gamma 90.000000
_cell_volume 2945.429242
_symmetry_space_group_name_H-M "C 2/M"
_symmetry_group_IT_number 12
_symmetry_cell_setting 'monoclinic'
loop_
_space_group_symop_operation_xyz
x,y,z
-x,y,-z
-x,-y,-z
x,-y,z
1/2+x,1/2+y,z
1/2-x,1/2+y,-z
1/2-x,1/2-y,-z
1/2+x,1/2-y,z
loop_
_atom_site_type_symbol
_atom_site_label
_atom_site_fract_x
_atom_site_fract_y
_atom_site_fract_z
Si Si1 0.868241 0.830786 0.571464
Si Si2 0.830634 0.675267 0.997686
Si Si3 0.236868 0.826784 0.143722
Si Si4 0.399382 0.173605 0.148589
Si Si5 0.331800 0.323552 0.273844
Si Si6 0.990461 0.677594 0.268382
Si Si7 0.708438 0.166030 0.565268
O O1 0.794459 0.727279 0.642881
O O2 0.814556 0.828276 0.547872
O O3 0.000000 0.766081 0.500000
O O4 0.869258 0.000000 0.590559
O O5 0.818722 0.500000 0.997935
O O6 0.788562 0.726109 0.069106
O O7 0.750000 0.750000 0.000000
O O8 0.965482 0.726654 0.923813
O O9 0.335640 0.794859 0.132298
O O10 0.122587 0.728550 0.212473
O O11 0.200512 0.000000 0.161058
O O12 0.336458 0.272051 0.218851
O O13 0.390973 0.000000 0.166247
O O14 0.343091 0.500000 0.271657
O O15 0.441509 0.249752 0.245980
O O16 0.981577 0.500000 0.267097
O O17 0.909456 0.733488 0.351716
O O18 0.750000 0.250000 0.500000
O O19 0.679557 0.000000 0.563688
#
# Coordination Sequence:
#
# PCOD8107070 Si02
#       7
#     8   8   8   8   8   8   8
#     4   9  19  37  58  79 106 143 185 226 273 329
#     4  10  21  37  58  83 110 144 185 226 270 324
#     4  10  21  37  58  84 111 142 184 229 272 324
#     4  10  21  38  58  80 112 150 182 222 278 330
#     4  11  22  36  56  82 111 144 187 233 272 322
#     4  10  21  38  57  79 110 147 185 225 275 332
#     4   9  19  34  53  77 105 138 176 219 266 320
#
# _framework density 19.012509000000001
#
# number of rings (size 3 to 8) (size 9 to 14) (size 15 to 20)
#    0.000    2.143    0.000    3.857    0.000   10.000 
#    0.000    4.286    0.000    2.571    0.000    0.000 
#    0.000    0.000    0.000    0.000    0.000    0.000 
#
# Total GULP energy -347266.449388 kJ/mol
# GULP energy per Si atom -12402.373192 kJ/mol
# Density = 1.896924 g / cm^3
# Si number density = 19.012509 Si / 1000 Ang^3
#
#
#
# Elastic Constant Matrix: (Units=GPa)
#
#
# Indices 1 2 3 4 5 6 
#
# 1 114.6873 45.8156 77.5136 0.0000 -3.4784 -0.0022
# 2 45.8156 76.5301 51.4521 -0.0002 3.6741 -0.0034
# 3 77.5136 51.4521 134.4645 0.0000 0.2425 -0.0001
# 4 0.0000 -0.0002 0.0000 26.4030 0.0001 -0.1410
# 5 -3.4784 3.6741 0.2425 0.0001 43.1862 0.0000
# 6 -0.0022 -0.0034 -0.0001 -0.1410 0.0000 32.6649
#
#
#
# Elastic Compliance Matrix: (Units=1/GPa)
#
#
# Indices 1 2 3 4 5 6 
#
# 1 0.015406 -0.004483 -0.007168 0.000000 0.001663 0.000001
# 2 -0.004483 0.018990 -0.004678 0.000000 -0.001950 0.000002
# 3 -0.007168 -0.004678 0.013360 0.000000 -0.000254 -0.000001
# 4 0.000000 0.000000 0.000000 0.037875 0.000000 0.000163
# 5 0.001663 -0.001950 -0.000254 0.000000 0.023457 0.000000
# 6 0.000001 0.000002 -0.000001 0.000163 0.000000 0.030615
#
#
# Mechanical properties :
#
#
# Convention : Reuss Voigt Hill
#
# Bulk Modulus (GPa) = 66.24585 75.02717 70.63651
# Shear Modulus (GPa) = 28.18599 30.51084 29.34842
#
# Velocity S-wave (km/s) = 3.85450 4.01031 3.93318
# Velocity P-wave (km/s) = 7.39787 7.80968 7.60656
#
# Compressibility (1/GPa) = 0.01509528
#
# Stress axis : x y z
#
# Youngs Moduli (GPa) = 64.91179 52.66034 74.85194
#
# Poissons Ratio (x) = 0.23609 0.53655
# Poissons Ratio (y) = 0.29101 0.35018
# Poissons Ratio (z) = 0.46530 0.24636
#
# Static dielectric constant tensor:
#      x y z
#    x 3.489280 0.000000 -0.101900 
#    y 0.000000 3.412440 0.000000 
#    z -0.101900 0.000000 3.659620 
# 
# 
# High freq. dielectric constant tensor:
#      x y z
#    x 1.739360 0.000000 -0.002030 
#    y 0.000000 1.729690 0.000000 
#    z -0.002030 0.000000 1.752590 
# 
# From -- ./inp_files/342325.got.cif
#   From: 2010.06.25/outbox.cif.g09.slc.cpg/sg12_172_cif.got.tgz:342325.got - 2010.06.28 00:19:55.
