data_PCOD8107838
_publ_section_title
;
Structure prediction by ZEFSAII (Michael W. Deem and Ramdas Pophale) SiO2 
 PCOD8107838
Probable space group: C 2/M
;
_chemical_formula_sum "Si O2"
_cell_formula_units_Z 44
_cell_length_a 14.281661
_cell_length_b 28.665884
_cell_length_c 11.228201
_cell_angle_alpha 90.000000
_cell_angle_beta 29.642431
_cell_angle_gamma 90.000000
_cell_volume 2273.504115
_symmetry_space_group_name_H-M "C 2/M"
_symmetry_group_IT_number 12
_symmetry_cell_setting 'monoclinic'
loop_
_space_group_symop_operation_xyz
x,y,z
-x,y,-z
-x,-y,-z
x,-y,z
1/2+x,1/2+y,z
1/2-x,1/2+y,-z
1/2-x,1/2-y,-z
1/2+x,1/2-y,z
loop_
_atom_site_type_symbol
_atom_site_label
_atom_site_fract_x
_atom_site_fract_y
_atom_site_fract_z
Si Si1 0.722411 0.632076 0.266763
Si Si2 0.000000 0.117401 0.000000
Si Si3 0.433210 0.884985 0.264972
Si Si4 0.336998 0.052074 0.584768
Si Si5 0.339592 0.311582 0.343683
Si Si6 0.342244 0.268789 0.584425
O O1 0.500000 0.620192 0.500000
O O2 0.802249 0.605198 0.293973
O O3 0.759147 0.687529 0.240254
O O4 0.844708 0.617779 0.015949
O O5 0.819470 0.085021 0.183823
O O6 0.985730 0.149909 0.133162
O O7 0.411506 0.928353 0.377138
O O8 0.361516 0.836699 0.404639
O O9 0.500000 0.050389 0.500000
O O10 0.257348 0.000000 0.649840
O O11 0.429180 0.287697 0.362393
O O12 0.303974 0.272721 0.281341
O O13 0.500000 0.248898 0.500000
#
# Coordination Sequence:
#
# PCOD8107838 Si02
#       6
#     8   4   8   8   8   8
#     4   9  18  35  57  79 106 144 183 222 267 311
#     4  10  21  38  58  78 108 144 180 222 265 318
#     4   9  19  35  55  78 107 137 175 227 271 318
#     4  10  22  39  59  83 109 138 173 217 272 331
#     4   9  19  33  50  76 108 143 182 223 261 304
#     4   9  18  32  49  75 108 145 185 222 259 301
#
# _framework density 19.353384999999999
#
# number of rings (size 3 to 8) (size 9 to 14) (size 15 to 20)
#    0.000    2.727    0.000    0.273    0.000   13.091 
#    0.000    6.364    0.000    1.091    0.000    0.000 
#    0.000    0.727    0.000    0.000    0.000    0.000 
#
# Total GULP energy -272686.412439 kJ/mol
# GULP energy per Si atom -12394.836929 kJ/mol
# Density = 1.930934 g / cm^3
# Si number density = 19.353385 Si / 1000 Ang^3
#
#
#
# Elastic Constant Matrix: (Units=GPa)
#
#
# Indices 1 2 3 4 5 6 
#
# 1 96.5103 52.2690 43.6450 -0.0001 2.1682 -0.0002
# 2 52.2690 112.8871 54.8265 0.0000 8.2356 0.0000
# 3 43.6450 54.8265 138.1310 -0.0005 1.1494 -0.0007
# 4 -0.0001 0.0000 -0.0005 29.2230 0.0003 12.9287
# 5 2.1682 8.2356 1.1494 0.0003 22.9976 0.0003
# 6 -0.0002 0.0000 -0.0007 12.9287 0.0003 39.0573
#
#
#
# Elastic Compliance Matrix: (Units=1/GPa)
#
#
# Indices 1 2 3 4 5 6 
#
# 1 0.014439 -0.005602 -0.002345 0.000000 0.000762 0.000000
# 2 -0.005602 0.013474 -0.003544 0.000000 -0.004120 0.000000
# 3 -0.002345 -0.003544 0.009378 0.000000 0.001021 0.000000
# 4 0.000000 0.000000 0.000000 0.040091 0.000000 -0.013271
# 5 0.000762 -0.004120 0.001021 0.000000 0.044835 0.000000
# 6 0.000000 0.000000 0.000000 -0.013271 0.000000 0.029996
#
#
# Mechanical properties :
#
#
# Convention : Reuss Voigt Hill
#
# Bulk Modulus (GPa) = 69.88246 72.11217 70.99731
# Shear Modulus (GPa) = 27.78304 31.37475 29.57890
#
# Velocity S-wave (km/s) = 3.79300 4.03072 3.91366
# Velocity P-wave (km/s) = 7.44107 7.68140 7.56219
#
# Compressibility (1/GPa) = 0.01430974
#
# Stress axis : x y z
#
# Youngs Moduli (GPa) = 69.25649 74.21699 106.62718
#
# Poissons Ratio (x) = 0.41578 0.25004
# Poissons Ratio (y) = 0.38799 0.37785
# Poissons Ratio (z) = 0.16241 0.26300
#
# Static dielectric constant tensor:
#      x y z
#    x 3.559640 0.000000 0.194750 
#    y 0.000000 3.554490 0.000000 
#    z 0.194750 0.000000 3.546560 
# 
# 
# High freq. dielectric constant tensor:
#      x y z
#    x 1.748300 0.000000 0.014650 
#    y 0.000000 1.739300 0.000000 
#    z 0.014650 0.000000 1.745940 
# 
# From -- ./inp_files/149401.got.cif
#   From: 2010.06.25/outbox.cif.g09.slc.cpg/sg12_75_cif.got.tgz:149401.got - 2010.06.28 00:19:55.
