data_PCOD8107379
_publ_section_title
;
Structure prediction by ZEFSAII (Michael W. Deem and Ramdas Pophale) SiO2 
 PCOD8107379
Probable space group: C 2/M
;
_chemical_formula_sum "Si O2"
_cell_formula_units_Z 48
_cell_length_a 8.424904
_cell_length_b 26.191774
_cell_length_c 9.446299
_cell_angle_alpha 90.000000
_cell_angle_beta 92.386627
_cell_angle_gamma 90.000000
_cell_volume 2082.642290
_symmetry_space_group_name_H-M "C 2/M"
_symmetry_group_IT_number 12
_symmetry_cell_setting 'monoclinic'
loop_
_space_group_symop_operation_xyz
x,y,z
-x,y,-z
-x,-y,-z
x,-y,z
1/2+x,1/2+y,z
1/2-x,1/2+y,-z
1/2-x,1/2-y,-z
1/2+x,1/2-y,z
loop_
_atom_site_type_symbol
_atom_site_label
_atom_site_fract_x
_atom_site_fract_y
_atom_site_fract_z
Si Si1 0.160725 0.207981 0.084651
Si Si2 0.173267 0.602423 0.941109
Si Si3 0.812035 0.095754 0.670262
Si Si4 0.848586 0.791698 0.591191
Si Si5 0.854396 0.556857 0.574984
Si Si6 0.363393 0.560548 0.194623
O O1 0.280711 0.160838 0.082306
O O2 0.122864 0.226906 0.244631
O O3 0.250000 0.250000 0.000000
O O4 0.000000 0.192628 0.000000
O O5 0.179822 0.579026 0.782995
O O6 0.311424 0.573476 0.034006
O O7 0.000000 0.595048 0.000000
O O8 0.772689 0.152021 0.605054
O O9 0.794829 0.056639 0.540029
O O10 0.984463 0.093222 0.750769
O O11 0.750000 0.750000 0.500000
O O12 0.000000 0.799584 0.500000
O O13 0.911352 0.500000 0.611829
O O14 0.787144 0.580681 0.717302
O O15 0.000000 0.586639 0.500000
O O16 0.395433 0.500000 0.214350
#
# Coordination Sequence:
#
# PCOD8107379 Si02
#       6
#     8   8   8   8   8   8
#     4  11  23  42  67  94 128 173 221 271 334 402
#     4  11  24  41  62  92 128 167 214 268 327 389
#     4  11  23  41  63  89 123 166 212 264 322 389
#     4  11  24  41  62  92 125 161 210 266 323 384
#     4  10  21  37  59  89 123 161 207 259 317 380
#     4  11  23  40  65  94 127 170 216 265 323 391
#
# _framework density 23.047644999999999
#
# number of rings (size 3 to 8) (size 9 to 14) (size 15 to 20)
#    0.000    1.167    0.000    7.000    0.000    7.000 
#    0.000    0.000    0.000    0.000    0.000    0.000 
#    0.000    0.000    0.000    0.000    0.000    0.000 
#
# Total GULP energy -297322.055210 kJ/mol
# GULP energy per Si atom -12388.418967 kJ/mol
# Density = 2.299519 g / cm^3
# Si number density = 23.047645 Si / 1000 Ang^3
#
#
#
# Elastic Constant Matrix: (Units=GPa)
#
#
# Indices 1 2 3 4 5 6 
#
# 1 68.6351 9.5904 10.8026 0.0000 -13.6957 0.0000
# 2 9.5904 68.1816 24.4654 0.0000 1.0510 0.0000
# 3 10.8026 24.4654 137.8047 0.0000 -16.2998 0.0000
# 4 0.0000 0.0000 0.0000 36.2260 0.0000 5.5624
# 5 -13.6957 1.0510 -16.2998 0.0000 48.9280 0.0000
# 6 0.0000 0.0000 0.0000 5.5624 0.0000 30.4745
#
#
#
# Elastic Compliance Matrix: (Units=1/GPa)
#
#
# Indices 1 2 3 4 5 6 
#
# 1 0.015795 -0.002167 -0.000338 0.000000 0.004355 0.000000
# 2 -0.002167 0.016044 -0.002905 0.000000 -0.001919 0.000000
# 3 -0.000338 -0.002905 0.008115 0.000000 0.002671 0.000000
# 4 0.000000 0.000000 0.000000 0.028400 0.000000 -0.005184
# 5 0.004355 -0.001919 0.002671 0.000000 0.022588 0.000000
# 6 0.000000 0.000000 0.000000 -0.005184 0.000000 0.033761
#
#
# Mechanical properties :
#
#
# Convention : Reuss Voigt Hill
#
# Bulk Modulus (GPa) = 34.32736 40.48201 37.40469
# Shear Modulus (GPa) = 34.42678 38.44321 36.43499
#
# Velocity S-wave (km/s) = 3.86906 4.08853 3.98031
# Velocity P-wave (km/s) = 5.90643 6.31591 6.11460
#
# Compressibility (1/GPa) = 0.02913128
#
# Stress axis : x y z
#
# Youngs Moduli (GPa) = 63.31140 62.32962 123.22958
#
# Poissons Ratio (x) = 0.13510 0.04168
# Poissons Ratio (y) = 0.13723 0.35804
# Poissons Ratio (z) = 0.02141 0.18110
#
# Static dielectric constant tensor:
#      x y z
#    x -0.083070 0.000000 -1.610420 
#    y 0.000000 3.897640 0.000000 
#    z -1.610420 0.000000 4.446390 
# 
# 
# High freq. dielectric constant tensor:
#      x y z
#    x 1.909870 0.000000 -0.015580 
#    y 0.000000 1.890930 0.000000 
#    z -0.015580 0.000000 1.943340 
# 
# From -- ./inp_files/42241.got.cif
#   From: 2010.06.25/outbox.cif.g09.slc.cpg/sg12_22_cif.got.tgz:42241.got - 2010.06.28 00:19:55.
