data_PCOD8107691
_publ_section_title
;
Structure prediction by ZEFSAII (Michael W. Deem and Ramdas Pophale) SiO2 
 PCOD8107691
Probable space group: C 2/M
;
_chemical_formula_sum "Si O2"
_cell_formula_units_Z 48
_cell_length_a 27.667672
_cell_length_b 18.159106
_cell_length_c 9.784174
_cell_angle_alpha 90.000000
_cell_angle_beta 152.139574
_cell_angle_gamma 90.000000
_cell_volume 2297.232526
_symmetry_space_group_name_H-M "C 2/M"
_symmetry_group_IT_number 12
_symmetry_cell_setting 'monoclinic'
loop_
_space_group_symop_operation_xyz
x,y,z
-x,y,-z
-x,-y,-z
x,-y,z
1/2+x,1/2+y,z
1/2-x,1/2+y,-z
1/2-x,1/2-y,-z
1/2+x,1/2-y,z
loop_
_atom_site_type_symbol
_atom_site_label
_atom_site_fract_x
_atom_site_fract_y
_atom_site_fract_z
Si Si1 0.380433 0.085645 0.677755
Si Si2 0.727292 0.145826 0.851348
Si Si3 0.575692 0.581771 0.579976
Si Si4 0.899857 0.084303 0.658369
Si Si5 0.380129 0.780920 0.177775
Si Si6 0.778314 0.323595 0.653059
O O1 0.345473 0.131786 0.459114
O O2 0.319463 0.113539 0.656482
O O3 0.356043 0.000000 0.594943
O O4 0.500000 0.101068 0.000000
O O5 0.654021 0.156298 0.799627
O O6 0.805143 0.078011 0.072203
O O7 0.806985 0.212024 0.024497
O O8 0.500000 0.623095 0.500000
O O9 0.531208 0.500000 0.451161
O O10 0.570682 0.618130 0.416877
O O11 0.821441 0.142625 0.524435
O O12 0.855582 0.000000 0.536194
O O13 0.000000 0.083886 0.000000
O O14 0.500000 0.761791 0.500000
O O15 0.364451 0.807377 0.983144
O O16 0.750000 0.250000 0.500000
#
# Coordination Sequence:
#
# PCOD8107691 Si02
#       6
#     8   8   8   8   8   8
#     4  11  25  44  67  97 134 176 223 271 328 400
#     4  11  22  42  65  91 130 171 216 273 330 390
#     4  10  21  37  63  95 125 162 211 266 331 397
#     4  10  23  42  65  96 132 170 217 274 335 395
#     4  11  24  42  65  94 130 171 224 278 330 391
#     4  12  24  44  66  98 132 180 219 275 333 394
#
# _framework density 20.894707
#
# number of rings (size 3 to 8) (size 9 to 14) (size 15 to 20)
#    0.000    1.167    3.333    2.500    2.333    2.000 
#    0.000    0.000    0.000    4.000    0.000    0.000 
#    0.000    0.000    0.000    0.000    0.000    0.000 
#
# Total GULP energy -297552.062560 kJ/mol
# GULP energy per Si atom -12398.002607 kJ/mol
# Density = 2.084715 g / cm^3
# Si number density = 20.894707 Si / 1000 Ang^3
#
#
#
# Elastic Constant Matrix: (Units=GPa)
#
#
# Indices 1 2 3 4 5 6 
#
# 1 169.5149 55.1873 68.3279 0.0000 -16.4765 0.0000
# 2 55.1873 67.7140 44.6827 0.0000 6.1028 0.0000
# 3 68.3279 44.6827 147.6703 0.0000 -16.5670 0.0000
# 4 0.0000 0.0000 0.0000 32.5651 0.0000 -3.2824
# 5 -16.4765 6.1028 -16.5670 0.0000 37.7115 0.0000
# 6 0.0000 0.0000 0.0000 -3.2824 0.0000 45.0304
#
#
#
# Elastic Compliance Matrix: (Units=1/GPa)
#
#
# Indices 1 2 3 4 5 6 
#
# 1 0.009225 -0.006770 -0.001730 0.000000 0.004366 0.000000
# 2 -0.006770 0.024674 -0.005378 0.000000 -0.009314 0.000000
# 3 -0.001730 -0.005378 0.009690 0.000000 0.004371 0.000000
# 4 0.000000 0.000000 0.000000 0.030935 0.000000 0.002255
# 5 0.004366 -0.009314 0.004371 0.000000 0.031852 0.000000
# 6 0.000000 0.000000 0.000000 0.002255 0.000000 0.022372
#
#
# Mechanical properties :
#
#
# Convention : Reuss Voigt Hill
#
# Bulk Modulus (GPa) = 63.16273 80.14391 71.65332
# Shear Modulus (GPa) = 30.90556 37.50815 34.20686
#
# Velocity S-wave (km/s) = 3.85009 4.24146 4.05051
# Velocity P-wave (km/s) = 7.07524 7.90101 7.49950
#
# Compressibility (1/GPa) = 0.01583212
#
# Stress axis : x y z
#
# Youngs Moduli (GPa) = 108.40025 40.52808 103.19746
#
# Poissons Ratio (x) = 0.27439 0.17854
# Poissons Ratio (y) = 0.73391 0.55502
# Poissons Ratio (z) = 0.18754 0.21797
#
# Static dielectric constant tensor:
#      x y z
#    x -0.792200 0.000000 0.095050 
#    y 0.000000 3.837290 0.000000 
#    z 0.095050 0.000000 3.745370 
# 
# 
# High freq. dielectric constant tensor:
#      x y z
#    x 1.834730 0.000000 -0.010200 
#    y 0.000000 1.813950 0.000000 
#    z -0.010200 0.000000 1.824020 
# 
# From -- ./inp_files/106584.got.cif
#   From: 2010.06.25/outbox.cif.g09.slc.cpg/sg12_54_cif.got.tgz:106584.got - 2010.06.28 00:19:55.
