data_PCOD8107670
_publ_section_title
;
Structure prediction by ZEFSAII (Michael W. Deem and Ramdas Pophale) SiO2 
 PCOD8107670
Probable space group: C 2/M
;
_chemical_formula_sum "Si O2"
_cell_formula_units_Z 56
_cell_length_a 20.115027
_cell_length_b 8.711274
_cell_length_c 19.493135
_cell_angle_alpha 90.000000
_cell_angle_beta 123.110012
_cell_angle_gamma 90.000000
_cell_volume 2861.097921
_symmetry_space_group_name_H-M "C 2/M"
_symmetry_group_IT_number 12
_symmetry_cell_setting 'monoclinic'
loop_
_space_group_symop_operation_xyz
x,y,z
-x,y,-z
-x,-y,-z
x,-y,z
1/2+x,1/2+y,z
1/2-x,1/2+y,-z
1/2-x,1/2-y,-z
1/2+x,1/2-y,z
loop_
_atom_site_type_symbol
_atom_site_label
_atom_site_fract_x
_atom_site_fract_y
_atom_site_fract_z
Si Si1 0.370992 0.681372 0.266743
Si Si2 0.465102 0.682313 0.192310
Si Si3 0.692696 0.180978 0.141503
Si Si4 0.670061 0.318152 0.986436
Si Si5 0.230873 0.681126 0.562649
Si Si6 0.639505 0.317750 0.253274
Si Si7 0.909059 0.819065 0.437459
O O1 0.379500 0.500000 0.276951
O O2 0.434938 0.747004 0.248707
O O3 0.284559 0.729267 0.192189
O O4 0.385705 0.750355 0.350258
O O5 0.463956 0.500000 0.193263
O O6 0.553988 0.742049 0.230650
O O7 0.405495 0.740326 0.099676
O O8 0.653003 0.261641 0.053827
O O9 0.652630 0.239621 0.187872
O O10 0.681261 0.000000 0.129277
O O11 0.677700 0.500000 0.988566
O O12 0.750000 0.250000 0.000000
O O13 0.233427 0.500000 0.557969
O O14 0.250000 0.750000 0.500000
O O15 0.294932 0.738728 0.655052
O O16 0.143551 0.736156 0.534912
O O17 0.641863 0.500000 0.245449
O O18 0.000000 0.776933 0.500000
O O19 0.893502 0.000000 0.434431
#
# Coordination Sequence:
#
# PCOD8107670 Si02
#       7
#     8   8   8   8   8   8   8
#     4   9  17  33  58  85 112 149 194 236 280 338
#     4   9  19  36  59  85 113 151 197 241 284 339
#     4  11  21  37  61  85 118 156 191 237 294 352
#     4  11  21  36  59  87 117 150 196 246 295 346
#     4  11  24  40  61  87 121 157 196 245 299 355
#     4  10  22  40  62  86 114 153 200 241 283 346
#     4  10  21  37  63  92 118 153 198 241 290 356
#
# _framework density 19.572904999999999
#
# number of rings (size 3 to 8) (size 9 to 14) (size 15 to 20)
#    0.000    1.857    2.857    1.286    2.000    1.429 
#    0.000    4.286    0.000    0.000    0.000    0.000 
#    0.000    0.000    0.000    0.000    0.000    0.000 
#
# Total GULP energy -347243.617891 kJ/mol
# GULP energy per Si atom -12401.557782 kJ/mol
# Density = 1.952836 g / cm^3
# Si number density = 19.572905 Si / 1000 Ang^3
#
#
#
# Elastic Constant Matrix: (Units=GPa)
#
#
# Indices 1 2 3 4 5 6 
#
# 1 158.9332 34.9340 61.7107 0.0000 -15.4214 0.0000
# 2 34.9340 38.8788 30.2090 0.0000 1.6193 0.0000
# 3 61.7107 30.2090 126.9128 0.0000 -18.3226 0.0000
# 4 0.0000 0.0000 0.0000 27.4219 0.0000 -5.4627
# 5 -15.4214 1.6193 -18.3226 0.0000 38.5853 0.0000
# 6 0.0000 0.0000 0.0000 -5.4627 0.0000 28.6279
#
#
#
# Elastic Compliance Matrix: (Units=1/GPa)
#
#
# Indices 1 2 3 4 5 6 
#
# 1 0.008855 -0.006154 -0.002462 0.000000 0.002629 0.000000
# 2 -0.006154 0.036857 -0.006827 0.000000 -0.007248 0.000000
# 3 -0.002462 -0.006827 0.011381 0.000000 0.004707 0.000000
# 4 0.000000 0.000000 0.000000 0.037908 0.000000 0.007234
# 5 0.002629 -0.007248 0.004707 0.000000 0.029507 0.000000
# 6 0.000000 0.000000 0.000000 0.007234 0.000000 0.036311
#
#
# Mechanical properties :
#
#
# Convention : Reuss Voigt Hill
#
# Bulk Modulus (GPa) = 38.15598 64.27023 51.21311
# Shear Modulus (GPa) = 24.94502 32.11841 28.53172
#
# Velocity S-wave (km/s) = 3.57384 4.05527 3.82215
# Velocity P-wave (km/s) = 6.04702 7.40504 6.76021
#
# Compressibility (1/GPa) = 0.02620821
#
# Stress axis : x y z
#
# Youngs Moduli (GPa) = 112.92534 27.13194 87.86528
#
# Poissons Ratio (x) = 0.16696 0.21629
# Poissons Ratio (y) = 0.69490 0.59988
# Poissons Ratio (z) = 0.27798 0.18524
#
# Static dielectric constant tensor:
#      x y z
#    x 3.797470 0.000000 -0.007210 
#    y 0.000000 3.298990 0.000000 
#    z -0.007210 0.000000 3.845850 
# 
# 
# High freq. dielectric constant tensor:
#      x y z
#    x 1.772270 0.000000 -0.007050 
#    y 0.000000 1.733970 0.000000 
#    z -0.007050 0.000000 1.776940 
# 
# From -- ./inp_files/275635.got.cif
#   From: 2010.06.25/outbox.cif.g09.slc.cpg/sg12_138_cif.got.tgz:275635.got - 2010.06.28 00:19:55.
