data_PCOD8107100
_publ_section_title
;
Structure prediction by ZEFSAII (Michael W. Deem and Ramdas Pophale) SiO2 
 PCOD8107100
Probable space group: C 2/M
;
_chemical_formula_sum "Si O2"
_cell_formula_units_Z 56
_cell_length_a 10.061841
_cell_length_b 9.111607
_cell_length_c 31.851147
_cell_angle_alpha 90.000000
_cell_angle_beta 103.758908
_cell_angle_gamma 90.000000
_cell_volume 2836.306610
_symmetry_space_group_name_H-M "C 2/M"
_symmetry_group_IT_number 12
_symmetry_cell_setting 'monoclinic'
loop_
_space_group_symop_operation_xyz
x,y,z
-x,y,-z
-x,-y,-z
x,-y,z
1/2+x,1/2+y,z
1/2-x,1/2+y,-z
1/2-x,1/2-y,-z
1/2+x,1/2-y,z
loop_
_atom_site_type_symbol
_atom_site_label
_atom_site_fract_x
_atom_site_fract_y
_atom_site_fract_z
Si Si1 0.511261 0.171345 0.829580
Si Si2 0.443406 0.168754 0.408086
Si Si3 0.415651 0.328559 0.738741
Si Si4 0.681806 0.670557 0.121693
Si Si5 0.748107 0.829665 0.455742
Si Si6 0.891758 0.669641 0.309382
Si Si7 0.150832 0.171737 0.024144
O O1 0.464024 0.247500 0.783765
O O2 0.432229 0.236096 0.863267
O O3 0.671718 0.201261 0.846776
O O4 0.478948 0.000000 0.824117
O O5 0.604964 0.198900 0.421745
O O6 0.369560 0.269792 0.436247
O O7 0.389791 0.211492 0.358102
O O8 0.409809 0.000000 0.416315
O O9 0.445310 0.500000 0.745865
O O10 0.255803 0.296716 0.721048
O O11 0.496483 0.269610 0.704698
O O12 0.641481 0.500000 0.121991
O O13 0.683068 0.723559 0.073740
O O14 0.750000 0.750000 0.500000
O O15 0.774571 0.000000 0.465763
O O16 0.932731 0.500000 0.306151
O O17 0.173845 0.000000 0.021136
O O18 0.250000 0.250000 0.000000
O O19 0.000000 0.220152 0.000000
#
# Coordination Sequence:
#
# PCOD8107100 Si02
#       7
#     8   8   8   8   8   8   8
#     4  11  23  38  58  83 112 149 189 229 277 332
#     4  10  22  40  60  84 115 149 187 232 280 331
#     4  11  23  38  59  86 114 147 187 231 280 333
#     4  10  22  39  57  82 115 147 185 232 278 329
#     4  11  23  38  59  86 115 150 190 231 278 332
#     4  10  22  40  60  84 115 148 185 232 281 331
#     4  10  21  37  58  84 113 146 185 230 279 331
#
# _framework density 19.743986
#
# number of rings (size 3 to 8) (size 9 to 14) (size 15 to 20)
#    0.000    1.571    0.000    4.286    0.000   10.000 
#    0.000    0.000    0.000    0.000    0.000    0.000 
#    0.000    0.000    0.000    0.000    0.000    0.000 
#
# Total GULP energy -347385.746819 kJ/mol
# GULP energy per Si atom -12406.633815 kJ/mol
# Density = 1.969905 g / cm^3
# Si number density = 19.743986 Si / 1000 Ang^3
#
#
#
# Elastic Constant Matrix: (Units=GPa)
#
#
# Indices 1 2 3 4 5 6 
#
# 1 69.7988 45.5142 11.1885 0.0000 -16.3393 0.0000
# 2 45.5142 85.9500 36.4310 0.0000 -7.1214 0.0000
# 3 11.1885 36.4310 101.8857 0.0000 -0.3353 0.0000
# 4 0.0000 0.0000 0.0000 37.0717 0.0000 -9.0398
# 5 -16.3393 -7.1214 -0.3353 0.0000 36.3609 0.0000
# 6 0.0000 0.0000 0.0000 -9.0398 0.0000 38.1132
#
#
#
# Elastic Compliance Matrix: (Units=1/GPa)
#
#
# Indices 1 2 3 4 5 6 
#
# 1 0.024578 -0.013177 0.002041 0.000000 0.008483 0.000000
# 2 -0.013177 0.021036 -0.006081 0.000000 -0.001857 0.000000
# 3 0.002041 -0.006081 0.011765 0.000000 -0.000165 0.000000
# 4 0.000000 0.000000 0.000000 0.028631 0.000000 0.006791
# 5 0.008483 -0.001857 -0.000165 0.000000 0.030949 0.000000
# 6 0.000000 0.000000 0.000000 0.006791 0.000000 0.027848
#
#
# Mechanical properties :
#
#
# Convention : Reuss Voigt Hill
#
# Bulk Modulus (GPa) = 43.58476 49.32246 46.45361
# Shear Modulus (GPa) = 26.75382 33.27589 30.01485
#
# Velocity S-wave (km/s) = 3.68508 4.10978 3.90321
# Velocity P-wave (km/s) = 6.34265 6.89606 6.62514
#
# Compressibility (1/GPa) = 0.02294380
#
# Stress axis : x y z
#
# Youngs Moduli (GPa) = 40.68668 47.53720 85.00063
#
# Poissons Ratio (x) = 0.62641 -0.17346
# Poissons Ratio (y) = 0.53614 0.51688
# Poissons Ratio (z) = -0.08303 0.28907
#
# Static dielectric constant tensor:
#      x y z
#    x 3.684730 0.000000 0.067610 
#    y 0.000000 2.998750 0.000000 
#    z 0.067610 0.000000 3.839090 
# 
# 
# High freq. dielectric constant tensor:
#      x y z
#    x 1.780990 0.000000 0.002580 
#    y 0.000000 1.771950 0.000000 
#    z 0.002580 0.000000 1.789580 
# 
# From -- ./inp_files/357535.got.cif
#   From: 2010.06.25/outbox.cif.g09.slc.cpg/sg12_179_cif.got.tgz:357535.got - 2010.06.28 00:19:55.
