data_PCOD8107671
_publ_section_title
;
Structure prediction by ZEFSAII (Michael W. Deem and Ramdas Pophale) SiO2 
 PCOD8107671
Probable space group: C 2/M
;
_chemical_formula_sum "Si O2"
_cell_formula_units_Z 56
_cell_length_a 27.300982
_cell_length_b 8.892169
_cell_length_c 12.708226
_cell_angle_alpha 90.000000
_cell_angle_beta 113.092723
_cell_angle_gamma 90.000000
_cell_volume 2837.905859
_symmetry_space_group_name_H-M "C 2/M"
_symmetry_group_IT_number 12
_symmetry_cell_setting 'monoclinic'
loop_
_space_group_symop_operation_xyz
x,y,z
-x,y,-z
-x,-y,-z
x,-y,z
1/2+x,1/2+y,z
1/2-x,1/2+y,-z
1/2-x,1/2-y,-z
1/2+x,1/2-y,z
loop_
_atom_site_type_symbol
_atom_site_label
_atom_site_fract_x
_atom_site_fract_y
_atom_site_fract_z
Si Si1 0.359968 0.673511 0.009102
Si Si2 0.144105 0.822530 0.754514
Si Si3 0.785799 0.670583 0.614767
Si Si4 0.756175 0.825165 0.799971
Si Si5 0.407038 0.830628 0.669672
Si Si6 0.058501 0.678760 0.079496
Si Si7 0.060577 0.677640 0.526943
O O1 0.374167 0.500000 0.002945
O O2 0.369121 0.723141 0.136904
O O3 0.297903 0.703315 0.929555
O O4 0.398823 0.769299 0.969505
O O5 0.201713 0.761042 0.773044
O O6 0.098466 0.754591 0.643524
O O7 0.145441 0.000000 0.740919
O O8 0.766532 0.500000 0.619116
O O9 0.750000 0.750000 0.500000
O O10 0.784940 0.763588 0.720838
O O11 0.843940 0.672945 0.615094
O O12 0.742971 0.000000 0.774247
O O13 0.428953 0.751385 0.794370
O O14 0.427294 0.753815 0.578912
O O15 0.429210 0.000000 0.688021
O O16 0.062649 0.500000 0.086877
O O17 0.000000 0.735628 0.000000
O O18 0.071628 0.500000 0.540648
O O19 0.000000 0.718733 0.500000
#
# Coordination Sequence:
#
# PCOD8107671 Si02
#       7
#     8   8   8   8   8   8   8
#     4  10  23  41  61  89 125 160 198 249 304 364
#     4  11  24  41  61  88 123 161 203 251 305 363
#     4  11  21  35  58  86 122 162 199 247 299 355
#     4  11  22  39  61  88 120 156 202 250 304 368
#     4   9  19  37  57  86 121 151 192 245 294 346
#     4  10  21  37  63  92 119 154 200 249 298 359
#     4  10  22  40  64  90 120 160 204 251 301 356
#
# _framework density 19.732861
#
# number of rings (size 3 to 8) (size 9 to 14) (size 15 to 20)
#    0.000    1.714    1.429    2.571    2.000    3.429 
#    0.000    1.429    0.000    0.000    0.000    0.000 
#    0.000    0.000    0.000    0.000    0.000    0.000 
#
# Total GULP energy -347229.735235 kJ/mol
# GULP energy per Si atom -12401.061973 kJ/mol
# Density = 1.968795 g / cm^3
# Si number density = 19.732861 Si / 1000 Ang^3
#
#
#
# Elastic Constant Matrix: (Units=GPa)
#
#
# Indices 1 2 3 4 5 6 
#
# 1 127.5702 45.0229 81.6585 0.0000 -2.9989 0.0000
# 2 45.0229 53.6236 48.6260 0.0000 3.1612 0.0000
# 3 81.6585 48.6260 167.8281 0.0000 -7.9751 0.0000
# 4 0.0000 0.0000 0.0000 26.3279 0.0000 0.2862
# 5 -2.9989 3.1612 -7.9751 0.0000 36.6809 0.0000
# 6 0.0000 0.0000 0.0000 0.2862 0.0000 29.2995
#
#
#
# Elastic Compliance Matrix: (Units=1/GPa)
#
#
# Indices 1 2 3 4 5 6 
#
# 1 0.013128 -0.007200 -0.004265 0.000000 0.000767 0.000000
# 2 -0.007200 0.029782 -0.005331 0.000000 -0.004314 0.000000
# 3 -0.004265 -0.005331 0.009683 0.000000 0.002216 0.000000
# 4 0.000000 0.000000 0.000000 0.037986 0.000000 -0.000371
# 5 0.000767 -0.004314 0.002216 0.000000 0.028178 0.000000
# 6 0.000000 0.000000 0.000000 -0.000371 0.000000 0.034134
#
#
# Mechanical properties :
#
#
# Convention : Reuss Voigt Hill
#
# Bulk Modulus (GPa) = 52.62629 77.73744 65.18186
# Shear Modulus (GPa) = 25.93121 30.04263 27.98692
#
# Velocity S-wave (km/s) = 3.62900 3.90611 3.77010
# Velocity P-wave (km/s) = 6.65483 7.73460 7.21495
#
# Compressibility (1/GPa) = 0.01900191
#
# Stress axis : x y z
#
# Youngs Moduli (GPa) = 76.17303 33.57733 103.26873
#
# Poissons Ratio (x) = 0.24176 0.44044
# Poissons Ratio (y) = 0.54845 0.55049
# Poissons Ratio (z) = 0.32488 0.17899
#
# Static dielectric constant tensor:
#      x y z
#    x 3.556480 0.000000 -0.002580 
#    y 0.000000 4.402590 0.000000 
#    z -0.002580 0.000000 3.841930 
# 
# 
# High freq. dielectric constant tensor:
#      x y z
#    x 1.776380 0.000000 -0.001270 
#    y 0.000000 1.752660 0.000000 
#    z -0.001270 0.000000 1.790590 
# 
# From -- ./inp_files/181125.got.cif
#   From: 2010.06.25/outbox.cif.g09.slc.cpg/sg12_91_cif.got.tgz:181125.got - 2010.06.28 00:19:55.
