data_PCOD8107241
_publ_section_title
;
Structure prediction by ZEFSAII (Michael W. Deem and Ramdas Pophale) SiO2 
 PCOD8107241
Probable space group: C 2/M
;
_chemical_formula_sum "Si O2"
_cell_formula_units_Z 48
_cell_length_a 22.037506
_cell_length_b 8.787641
_cell_length_c 12.227959
_cell_angle_alpha 90.000000
_cell_angle_beta 107.139956
_cell_angle_gamma 90.000000
_cell_volume 2262.868351
_symmetry_space_group_name_H-M "C 2/M"
_symmetry_group_IT_number 12
_symmetry_cell_setting 'monoclinic'
loop_
_space_group_symop_operation_xyz
x,y,z
-x,y,-z
-x,-y,-z
x,-y,z
1/2+x,1/2+y,z
1/2-x,1/2+y,-z
1/2-x,1/2-y,-z
1/2+x,1/2-y,z
loop_
_atom_site_type_symbol
_atom_site_label
_atom_site_fract_x
_atom_site_fract_y
_atom_site_fract_z
Si Si1 0.025856 0.324899 0.129842
Si Si2 0.669857 0.175478 0.256854
Si Si3 0.005304 0.176560 0.673535
Si Si4 0.268402 0.319373 0.125915
Si Si5 0.869386 0.679173 0.324493
Si Si6 0.638373 0.678044 0.458257
O O1 0.009099 0.500000 0.147353
O O2 0.100694 0.296572 0.170190
O O3 0.989652 0.218378 0.196416
O O4 0.000000 0.273533 0.000000
O O5 0.718120 0.235373 0.190699
O O6 0.678543 0.267004 0.374692
O O7 0.682256 0.000000 0.290946
O O8 0.056855 0.272152 0.633553
O O9 0.935433 0.222000 0.595705
O O10 0.019705 0.000000 0.661998
O O11 0.270434 0.500000 0.115680
O O12 0.336419 0.256462 0.201577
O O13 0.250000 0.250000 0.000000
O O14 0.862353 0.500000 0.311827
O O15 0.836737 0.738079 0.419402
O O16 0.648719 0.500000 0.478865
#
# Coordination Sequence:
#
# PCOD8107241 Si02
#       6
#     8   8   8   8   8   8
#     4   9  18  33  57  87 119 157 198 244 297 360
#     4   9  20  39  61  87 121 159 200 246 299 359
#     4  10  21  37  58  90 126 158 196 249 307 365
#     4  11  25  44  64  89 123 163 207 253 300 358
#     4  12  25  40  62  89 121 164 209 251 304 363
#     4  10  21  39  64  93 125 157 197 251 310 365
#
# _framework density 21.212016999999999
#
# number of rings (size 3 to 8) (size 9 to 14) (size 15 to 20)
#    0.000    1.833    0.000    3.500    2.333    6.333 
#    0.000    0.000    0.000    0.000    0.000    0.000 
#    0.000    0.000    0.000    0.000    0.000    0.000 
#
# Total GULP energy -297705.148751 kJ/mol
# GULP energy per Si atom -12404.381198 kJ/mol
# Density = 2.116374 g / cm^3
# Si number density = 21.212017 Si / 1000 Ang^3
#
#
#
# Elastic Constant Matrix: (Units=GPa)
#
#
# Indices 1 2 3 4 5 6 
#
# 1 71.1839 33.8992 23.4080 0.0000 -22.6204 0.0000
# 2 33.8992 98.3819 50.6557 0.0000 -11.2800 0.0000
# 3 23.4080 50.6557 136.6581 0.0000 -16.7466 0.0000
# 4 0.0000 0.0000 0.0000 39.1182 0.0000 -5.7513
# 5 -22.6204 -11.2800 -16.7466 0.0000 26.0243 0.0000
# 6 0.0000 0.0000 0.0000 -5.7513 0.0000 29.8415
#
#
#
# Elastic Compliance Matrix: (Units=1/GPa)
#
#
# Indices 1 2 3 4 5 6 
#
# 1 0.022094 -0.005920 0.000487 0.000000 0.016952 0.000000
# 2 -0.005920 0.014320 -0.004520 0.000000 -0.001848 0.000000
# 3 0.000487 -0.004520 0.009468 0.000000 0.004557 0.000000
# 4 0.000000 0.000000 0.000000 0.026309 0.000000 0.005071
# 5 0.016952 -0.001848 0.004557 0.000000 0.055292 0.000000
# 6 0.000000 0.000000 0.000000 0.005071 0.000000 0.034488
#
#
# Mechanical properties :
#
#
# Convention : Reuss Voigt Hill
#
# Bulk Modulus (GPa) = 38.49777 58.01665 48.25721
# Shear Modulus (GPa) = 26.24181 32.21419 29.22800
#
# Velocity S-wave (km/s) = 3.52109 3.90125 3.71603
# Velocity P-wave (km/s) = 5.89230 6.90675 6.41959
#
# Compressibility (1/GPa) = 0.02597553
#
# Stress axis : x y z
#
# Youngs Moduli (GPa) = 45.26114 69.83219 105.61776
#
# Poissons Ratio (x) = 0.41342 -0.05147
# Poissons Ratio (y) = 0.26796 0.47744
# Poissons Ratio (z) = -0.02206 0.31567
#
# Static dielectric constant tensor:
#      x y z
#    x 3.871610 0.000000 -0.097810 
#    y 0.000000 3.703690 0.000000 
#    z -0.097810 0.000000 3.931210 
# 
# 
# High freq. dielectric constant tensor:
#      x y z
#    x 1.830180 0.000000 -0.004880 
#    y 0.000000 1.827630 0.000000 
#    z -0.004880 0.000000 1.842750 
# 
# From -- ./inp_files/173044.got.cif
#   From: 2010.06.25/outbox.cif.g09.slc.cpg/sg12_87_cif.got.tgz:173044.got - 2010.06.28 00:19:55.
