data_PCOD8107812
_publ_section_title
;
Structure prediction by ZEFSAII (Michael W. Deem and Ramdas Pophale) SiO2 
 PCOD8107812
Probable space group: C 2/M
;
_chemical_formula_sum "Si O2"
_cell_formula_units_Z 56
_cell_length_a 11.131656
_cell_length_b 28.031647
_cell_length_c 9.400605
_cell_angle_alpha 90.000000
_cell_angle_beta 111.981879
_cell_angle_gamma 90.000000
_cell_volume 2720.104113
_symmetry_space_group_name_H-M "C 2/M"
_symmetry_group_IT_number 12
_symmetry_cell_setting 'monoclinic'
loop_
_space_group_symop_operation_xyz
x,y,z
-x,y,-z
-x,-y,-z
x,-y,z
1/2+x,1/2+y,z
1/2-x,1/2+y,-z
1/2-x,1/2-y,-z
1/2+x,1/2-y,z
loop_
_atom_site_type_symbol
_atom_site_label
_atom_site_fract_x
_atom_site_fract_y
_atom_site_fract_z
Si Si1 0.086299 0.198961 0.395528
Si Si2 0.105940 0.694263 0.424092
Si Si3 0.316849 0.443410 0.192050
Si Si4 0.634215 0.098069 0.313556
Si Si5 0.897799 0.552481 0.111056
Si Si6 0.709708 0.945980 0.635933
Si Si7 0.956396 0.886902 0.819030
O O1 0.069947 0.254294 0.342570
O O2 0.241329 0.190313 0.468783
O O3 0.028531 0.164595 0.249255
O O4 0.000000 0.190025 0.500000
O O5 0.093097 0.653402 0.299941
O O6 0.000000 0.683127 0.500000
O O7 0.314170 0.500000 0.217967
O O8 0.276455 0.413974 0.315465
O O9 0.460290 0.427680 0.219825
O O10 0.226624 0.424816 0.021288
O O11 0.537211 0.076979 0.149709
O O12 0.630711 0.074169 0.467235
O O13 0.908764 0.500000 0.052230
O O14 0.888658 0.552271 0.277233
O O15 0.814612 0.907707 0.734485
O O16 0.763026 0.000000 0.630300
O O17 0.000000 0.880103 0.000000
#
# Coordination Sequence:
#
# PCOD8107812 Si02
#       7
#     8   8   8   8   8   8   8
#     4  10  22  43  66  95 124 164 212 269 325 387
#     4  10  21  39  69  94 124 163 213 262 329 389
#     4  11  24  40  60  88 128 175 209 253 320 385
#     4  12  22  37  62  93 122 156 211 269 312 369
#     4  10  21  38  57  82 123 166 203 246 310 377
#     4  11  22  36  58  88 119 161 210 255 301 365
#     4  12  24  40  62  87 126 167 212 260 319 381
#
# _framework density 20.587447000000001
#
# number of rings (size 3 to 8) (size 9 to 14) (size 15 to 20)
#    0.000    1.143    2.857    4.286    0.000    2.857 
#    0.000    2.857    0.000    9.429    0.000    0.000 
#    0.000    0.000    0.000    0.000    0.000    0.000 
#
# Total GULP energy -346899.146727 kJ/mol
# GULP energy per Si atom -12389.255240 kJ/mol
# Density = 2.054059 g / cm^3
# Si number density = 20.587447 Si / 1000 Ang^3
#
#
#
# Elastic Constant Matrix: (Units=GPa)
#
#
# Indices 1 2 3 4 5 6 
#
# 1 106.1048 28.2027 9.3327 0.0000 -7.1824 0.0000
# 2 28.2027 133.1311 32.9746 0.0000 -5.4187 0.0000
# 3 9.3327 32.9746 43.4934 0.0000 2.4871 0.0000
# 4 0.0000 0.0000 0.0000 22.1291 0.0000 -4.3675
# 5 -7.1824 -5.4187 2.4871 0.0000 30.5310 0.0000
# 6 0.0000 0.0000 0.0000 -4.3675 0.0000 30.8933
#
#
#
# Elastic Compliance Matrix: (Units=1/GPa)
#
#
# Indices 1 2 3 4 5 6 
#
# 1 0.010137 -0.001837 -0.000905 0.000000 0.002132 0.000000
# 2 -0.001837 0.009733 -0.007092 0.000000 0.001873 0.000000
# 3 -0.000905 -0.007092 0.028781 0.000000 -0.003816 0.000000
# 4 0.000000 0.000000 0.000000 0.046486 0.000000 0.006572
# 5 0.002132 0.001873 -0.003816 0.000000 0.033899 0.000000
# 6 0.000000 0.000000 0.000000 0.006572 0.000000 0.033299
#
#
# Mechanical properties :
#
#
# Convention : Reuss Voigt Hill
#
# Bulk Modulus (GPa) = 34.50141 47.08324 40.79233
# Shear Modulus (GPa) = 26.08737 30.85866 28.47301
#
# Velocity S-wave (km/s) = 3.56357 3.87577 3.72294
# Velocity P-wave (km/s) = 5.80748 6.55350 6.19174
#
# Compressibility (1/GPa) = 0.02898432
#
# Stress axis : x y z
#
# Youngs Moduli (GPa) = 98.65137 102.73927 34.74457
#
# Poissons Ratio (x) = 0.18868 0.03143
# Poissons Ratio (y) = 0.18117 0.24642
# Poissons Ratio (z) = 0.08925 0.72867
#
# Static dielectric constant tensor:
#      x y z
#    x 3.885910 0.000000 -0.081750 
#    y 0.000000 3.918220 0.000000 
#    z -0.081750 0.000000 3.583440 
# 
# 
# High freq. dielectric constant tensor:
#      x y z
#    x 1.826150 0.000000 -0.005940 
#    y 0.000000 1.805030 0.000000 
#    z -0.005940 0.000000 1.789120 
# 
# From -- ./inp_files/53153.got.cif
#   From: 2010.06.25/outbox.cif.g09.slc.cpg/sg12_27_cif.got.tgz:53153.got - 2010.06.28 00:19:55.
