data_PCOD8107827
_publ_section_title
;
Structure prediction by ZEFSAII (Michael W. Deem and Ramdas Pophale) SiO2 
 PCOD8107827
Probable space group: C 2/M
;
_chemical_formula_sum "Si O2"
_cell_formula_units_Z 64
_cell_length_a 12.235338
_cell_length_b 28.095767
_cell_length_c 13.888341
_cell_angle_alpha 90.000000
_cell_angle_beta 39.404057
_cell_angle_gamma 90.000000
_cell_volume 3030.637874
_symmetry_space_group_name_H-M "C 2/M"
_symmetry_group_IT_number 12
_symmetry_cell_setting 'monoclinic'
loop_
_space_group_symop_operation_xyz
x,y,z
-x,y,-z
-x,-y,-z
x,-y,z
1/2+x,1/2+y,z
1/2-x,1/2+y,-z
1/2-x,1/2-y,-z
1/2+x,1/2-y,z
loop_
_atom_site_type_symbol
_atom_site_label
_atom_site_fract_x
_atom_site_fract_y
_atom_site_fract_z
Si Si1 0.418422 0.277952 0.787535
Si Si2 0.758243 0.395569 0.553721
Si Si3 0.966524 0.132621 0.628100
Si Si4 0.027958 0.685466 0.373451
Si Si5 0.967884 0.554466 0.740714
Si Si6 0.092213 0.385701 0.840239
Si Si7 0.529108 0.219970 0.083765
Si Si8 0.688284 0.608724 0.825684
O O1 0.482034 0.325421 0.695274
O O2 0.438790 0.233516 0.704753
O O3 0.534091 0.261402 0.800282
O O4 0.230971 0.290411 0.957235
O O5 0.609429 0.402935 0.574187
O O6 0.685429 0.401773 0.712029
O O7 0.858317 0.345730 0.462911
O O8 0.895603 0.437304 0.438806
O O9 0.789276 0.104212 0.735691
O O10 0.000000 0.154126 0.500000
O O11 0.199714 0.655756 0.235835
O O12 0.000000 0.701980 0.500000
O O13 0.966432 0.500000 0.774298
O O14 0.779938 0.567211 0.825745
O O15 0.021161 0.585487 0.797895
O O16 0.074231 0.329147 0.830757
O O17 0.000000 0.401695 0.000000
O O18 0.500000 0.242367 0.000000
O O19 0.500000 0.615855 0.000000
#
# Coordination Sequence:
#
# PCOD8107827 Si02
#       8
#     8   8   8   8   8   8   8   8
#     4  11  22  34  60  91 123 169 236 267 310 367
#     4  10  23  43  64  97 135 179 217 265 345 398
#     4  12  24  41  65  94 127 182 225 271 322 390
#     4   9  20  39  59  92 132 176 221 273 317 384
#     4  11  24  46  75  98 127 172 218 273 342 418
#     4  11  23  46  69  92 139 173 216 270 343 398
#     4  10  21  38  57  87 126 171 210 274 325 377
#     4  10  23  41  70 101 138 173 214 275 342 393
#
# _framework density 21.117666
#
# number of rings (size 3 to 8) (size 9 to 14) (size 15 to 20)
#    0.000    1.500    3.750    3.000    1.750    6.500 
#    0.000    1.250    0.000    0.000    0.000    0.000 
#    0.000    0.000    0.000    0.000    0.000    0.000 
#
# Total GULP energy -396429.946572 kJ/mol
# GULP energy per Si atom -12388.435830 kJ/mol
# Density = 2.106960 g / cm^3
# Si number density = 21.117666 Si / 1000 Ang^3
#
#
#
# Elastic Constant Matrix: (Units=GPa)
#
#
# Indices 1 2 3 4 5 6 
#
# 1 135.0766 26.8147 41.9771 0.0000 4.8183 0.0000
# 2 26.8147 50.3316 11.8014 0.0000 7.4942 0.0000
# 3 41.9771 11.8014 117.5750 0.0000 1.2407 0.0000
# 4 0.0000 0.0000 0.0000 2.3605 0.0000 -8.4954
# 5 4.8183 7.4942 1.2407 0.0000 44.5462 0.0000
# 6 0.0000 0.0000 0.0000 -8.4954 0.0000 2.2316
#
#
#
# Elastic Compliance Matrix: (Units=1/GPa)
#
#
# Indices 1 2 3 4 5 6 
#
# 1 0.009118 -0.004162 -0.002835 0.000000 -0.000207 0.000000
# 2 -0.004162 0.022765 -0.000764 0.000000 -0.003358 0.000000
# 3 -0.002835 -0.000764 0.009592 0.000000 0.000168 0.000000
# 4 0.000000 0.000000 0.000000 -0.033355 0.000000 -0.126979
# 5 -0.000207 -0.003358 0.000168 0.000000 0.023031 0.000000
# 6 0.000000 0.000000 0.000000 -0.126979 0.000000 -0.035282
#
#
# Mechanical properties :
#
#
# Convention : Reuss Voigt Hill
#
# Bulk Modulus (GPa) = 38.53114 51.57440 45.05277
# Shear Modulus (GPa) = 249.47870 24.65367 137.06619
#
# Velocity S-wave (km/s) = 10.88090 3.42049 8.06516
# Velocity P-wave (km/s) = 13.27193 6.33049 10.39758
#
# Compressibility (1/GPa) = 0.02595303
#
# Stress axis : x y z
#
# Youngs Moduli (GPa) = 109.67371 43.92765 104.24939
#
# Poissons Ratio (x) = 0.18283 0.29559
# Poissons Ratio (y) = 0.45647 0.07960
# Poissons Ratio (z) = 0.31097 0.03354
#
# Static dielectric constant tensor:
#      x y z
#    x 4.056200 0.000000 0.328300 
#    y 0.000000 3.420550 0.000000 
#    z 0.328300 0.000000 3.847650 
# 
# 
# High freq. dielectric constant tensor:
#      x y z
#    x 1.847160 0.000000 0.008890 
#    y 0.000000 1.784040 0.000000 
#    z 0.008890 0.000000 1.840010 
# 
# From -- ./inp_files/209858.got.cif
#   From: 2010.06.25/outbox.cif.g09.slc.cpg/sg12_105_cif.got.tgz:209858.got - 2010.06.28 00:19:55.
