data_PCOD8107792
_publ_section_title
;
Structure prediction by ZEFSAII (Michael W. Deem and Ramdas Pophale) SiO2 
 PCOD8107792
Probable space group: C 2/M
;
_chemical_formula_sum "Si O2"
_cell_formula_units_Z 56
_cell_length_a 14.401461
_cell_length_b 8.489645
_cell_length_c 23.721546
_cell_angle_alpha 90.000000
_cell_angle_beta 83.100971
_cell_angle_gamma 90.000000
_cell_volume 2879.274500
_symmetry_space_group_name_H-M "C 2/M"
_symmetry_group_IT_number 12
_symmetry_cell_setting 'monoclinic'
loop_
_space_group_symop_operation_xyz
x,y,z
-x,y,-z
-x,-y,-z
x,-y,z
1/2+x,1/2+y,z
1/2-x,1/2+y,-z
1/2-x,1/2-y,-z
1/2+x,1/2-y,z
loop_
_atom_site_type_symbol
_atom_site_label
_atom_site_fract_x
_atom_site_fract_y
_atom_site_fract_z
Si Si1 0.186252 0.185195 0.855257
Si Si2 0.059441 0.815642 0.760162
Si Si3 0.525716 0.814391 0.937163
Si Si4 0.089992 0.318282 0.637321
Si Si5 0.600785 0.813201 0.156913
Si Si6 0.549383 0.681369 0.438337
Si Si7 0.241846 0.317473 0.438257
O O1 0.136840 0.235275 0.800571
O O2 0.128086 0.255144 0.911593
O O3 0.292548 0.248914 0.849071
O O4 0.186135 0.000000 0.862547
O O5 0.082898 0.715838 0.703635
O O6 0.955707 0.771350 0.788856
O O7 0.064586 0.000000 0.746148
O O8 0.445672 0.761394 0.898902
O O9 0.530563 0.000000 0.940591
O O10 0.500000 0.741759 0.000000
O O11 0.067253 0.500000 0.627004
O O12 0.193603 0.278709 0.609074
O O13 0.018666 0.207954 0.608924
O O14 0.595320 0.000000 0.166441
O O15 0.500000 0.729883 0.500000
O O16 0.581525 0.500000 0.437780
O O17 0.637349 0.794951 0.423409
O O18 0.270510 0.500000 0.436038
O O19 0.250000 0.250000 0.500000
#
# Coordination Sequence:
#
# PCOD8107792 Si02
#       7
#     8   8   8   8   8   8   8
#     4   9  19  35  56  79 107 147 189 233 282 332
#     4  10  21  38  57  80 110 142 186 239 288 339
#     4   9  18  32  51  79 115 151 187 231 282 336
#     4  12  25  41  62  87 117 153 192 236 291 350
#     4   9  18  35  56  78 109 148 190 233 284 342
#     4  11  23  40  63  88 116 149 187 232 283 341
#     4  12  24  40  62  88 118 152 190 232 283 343
#
# _framework density 19.449345000000001
#
# number of rings (size 3 to 8) (size 9 to 14) (size 15 to 20)
#    0.000    1.714    1.429    3.429    0.000    3.714 
#    0.000    4.286    0.000    0.000    0.000    0.000 
#    0.000    0.000    0.000    0.000    0.000    0.000 
#
# Total GULP energy -347322.212670 kJ/mol
# GULP energy per Si atom -12404.364738 kJ/mol
# Density = 1.940508 g / cm^3
# Si number density = 19.449345 Si / 1000 Ang^3
#
#
#
# Elastic Constant Matrix: (Units=GPa)
#
#
# Indices 1 2 3 4 5 6 
#
# 1 148.4267 18.8378 59.1072 0.0000 -11.3489 0.0000
# 2 18.8378 50.9472 26.9103 0.0000 -5.6630 0.0000
# 3 59.1072 26.9103 136.2205 0.0000 -19.7520 0.0000
# 4 0.0000 0.0000 0.0000 27.6139 0.0000 -4.0598
# 5 -11.3489 -5.6630 -19.7520 0.0000 24.6190 0.0000
# 6 0.0000 0.0000 0.0000 -4.0598 0.0000 28.0840
#
#
#
# Elastic Compliance Matrix: (Units=1/GPa)
#
#
# Indices 1 2 3 4 5 6 
#
# 1 0.008239 -0.001256 -0.003189 0.000000 0.000951 0.000000
# 2 -0.001256 0.022175 -0.003599 0.000000 0.001635 0.000000
# 3 -0.003189 -0.003599 0.010301 0.000000 0.005967 0.000000
# 4 0.000000 0.000000 0.000000 0.037000 0.000000 0.005349
# 5 0.000951 0.001635 0.005967 0.000000 0.046220 0.000000
# 6 0.000000 0.000000 0.000000 0.005349 0.000000 0.036381
#
#
# Mechanical properties :
#
#
# Convention : Reuss Voigt Hill
#
# Bulk Modulus (GPa) = 40.60519 60.58942 50.59731
# Shear Modulus (GPa) = 27.08359 31.44599 29.26479
#
# Velocity S-wave (km/s) = 3.73570 4.02533 3.88321
# Velocity P-wave (km/s) = 6.28729 7.26804 6.79538
#
# Compressibility (1/GPa) = 0.02462739
#
# Stress axis : x y z
#
# Youngs Moduli (GPa) = 121.36710 45.09554 97.07916
#
# Poissons Ratio (x) = 0.05666 0.30960
# Poissons Ratio (y) = 0.15248 0.34934
# Poissons Ratio (z) = 0.38706 0.16228
#
# Static dielectric constant tensor:
#      x y z
#    x 3.742500 0.000000 -0.055120 
#    y 0.000000 3.548460 0.000000 
#    z -0.055120 0.000000 3.694920 
# 
# 
# High freq. dielectric constant tensor:
#      x y z
#    x 1.764330 0.000000 -0.003990 
#    y 0.000000 1.756640 0.000000 
#    z -0.003990 0.000000 1.755710 
# 
# From -- ./inp_files/308885.got.cif
#   From: 2010.06.25/outbox.cif.g09.slc.cpg/sg12_155_cif.got.tgz:308885.got - 2010.06.28 00:19:55.
