data_PCOD8107373
_publ_section_title
;
Structure prediction by ZEFSAII (Michael W. Deem and Ramdas Pophale) SiO2 
 PCOD8107373
Probable space group: C 2/M
;
_chemical_formula_sum "Si O2"
_cell_formula_units_Z 64
_cell_length_a 29.961508
_cell_length_b 9.167030
_cell_length_c 22.576960
_cell_angle_alpha 90.000000
_cell_angle_beta 148.511469
_cell_angle_gamma 90.000000
_cell_volume 3238.925745
_symmetry_space_group_name_H-M "C 2/M"
_symmetry_group_IT_number 12
_symmetry_cell_setting 'monoclinic'
loop_
_space_group_symop_operation_xyz
x,y,z
-x,y,-z
-x,-y,-z
x,-y,z
1/2+x,1/2+y,z
1/2-x,1/2+y,-z
1/2-x,1/2-y,-z
1/2+x,1/2-y,z
loop_
_atom_site_type_symbol
_atom_site_label
_atom_site_fract_x
_atom_site_fract_y
_atom_site_fract_z
Si Si1 0.885740 0.332106 0.998349
Si Si2 0.831836 0.668262 0.068556
Si Si3 0.872093 0.166801 0.575654
Si Si4 0.743277 0.671388 0.231040
Si Si5 0.043896 0.168115 0.710199
Si Si6 0.079571 0.330499 0.630938
Si Si7 0.729576 0.333223 0.349027
Si Si8 0.442619 0.668114 0.780217
O O1 0.897561 0.500000 0.994293
O O2 0.833480 0.315648 0.999978
O O3 0.978628 0.262076 0.108164
O O4 0.832764 0.253027 0.887694
O O5 0.829399 0.500000 0.085768
O O6 0.915251 0.744979 0.189111
O O7 0.750000 0.750000 0.000000
O O8 0.787090 0.250514 0.461710
O O9 0.909265 0.228943 0.679399
O O10 0.942038 0.183432 0.602519
O O11 0.845793 0.000000 0.555849
O O12 0.724228 0.500000 0.206257
O O13 0.834206 0.710732 0.305543
O O14 0.744246 0.727986 0.299646
O O15 0.075480 0.234194 0.684695
O O16 0.073142 0.000000 0.746189
O O17 0.076951 0.500000 0.645984
O O18 0.000000 0.288727 0.500000
O O19 0.758882 0.500000 0.384961
O O20 0.630825 0.314429 0.253927
O O21 0.471648 0.500000 0.806179
#
# Coordination Sequence:
#
# PCOD8107373 Si02
#       8
#     8   8   8   8   8   8   8   8
#     4  11  24  40  60  87 118 156 200 246 295 352
#     4  11  23  38  58  85 115 150 194 240 292 351
#     4  10  21  37  59  89 123 156 190 241 305 357
#     4  10  22  40  60  85 119 159 200 246 298 350
#     4  11  22  36  57  86 119 154 194 238 292 353
#     4  10  21  38  60  86 119 160 204 247 295 351
#     4  10  22  39  63  90 115 154 203 247 294 354
#     4  10  21  40  63  88 120 156 196 243 300 359
#
# _framework density 19.759637999999999
#
# number of rings (size 3 to 8) (size 9 to 14) (size 15 to 20)
#    0.000    1.625    1.250    3.000    0.000    8.250 
#    0.000    2.500    0.000    0.000    0.000    0.000 
#    0.000    0.000    0.000    0.000    0.000    0.000 
#
# Total GULP energy -396974.326759 kJ/mol
# GULP energy per Si atom -12405.447711 kJ/mol
# Density = 1.971466 g / cm^3
# Si number density = 19.759638 Si / 1000 Ang^3
#
#
#
# Elastic Constant Matrix: (Units=GPa)
#
#
# Indices 1 2 3 4 5 6 
#
# 1 94.2577 31.0845 29.9784 0.0000 -3.7218 0.0000
# 2 31.0845 83.4702 51.7739 0.0000 -2.0420 0.0000
# 3 29.9784 51.7739 129.4472 0.0000 -5.2459 0.0000
# 4 0.0000 0.0000 0.0000 37.1455 0.0000 -1.5746
# 5 -3.7218 -2.0420 -5.2459 0.0000 30.0025 0.0000
# 6 0.0000 0.0000 0.0000 -1.5746 0.0000 25.0897
#
#
#
# Elastic Compliance Matrix: (Units=1/GPa)
#
#
# Indices 1 2 3 4 5 6 
#
# 1 0.012301 -0.003743 -0.001309 0.000000 0.001042 0.000000
# 2 -0.003743 0.017072 -0.005975 0.000000 -0.000347 0.000000
# 3 -0.001309 -0.005975 0.010469 0.000000 0.001261 0.000000
# 4 0.000000 0.000000 0.000000 0.026993 0.000000 0.001694
# 5 0.001042 -0.000347 0.001261 0.000000 0.033657 0.000000
# 6 0.000000 0.000000 0.000000 0.001694 0.000000 0.039963
#
#
# Mechanical properties :
#
#
# Convention : Reuss Voigt Hill
#
# Bulk Modulus (GPa) = 56.22185 59.20541 57.71363
# Shear Modulus (GPa) = 29.68393 31.40341 30.54367
#
# Velocity S-wave (km/s) = 3.88009 3.99089 3.93588
# Velocity P-wave (km/s) = 6.97052 7.15990 7.06584
#
# Compressibility (1/GPa) = 0.01778668
#
# Stress axis : x y z
#
# Youngs Moduli (GPa) = 81.29210 58.57476 95.51611
#
# Poissons Ratio (x) = 0.21927 0.12507
# Poissons Ratio (y) = 0.30431 0.57074
# Poissons Ratio (z) = 0.10644 0.35001
#
# Static dielectric constant tensor:
#      x y z
#    x 3.683300 0.000000 -0.051820 
#    y 0.000000 3.597630 0.000000 
#    z -0.051820 0.000000 3.624410 
# 
# 
# High freq. dielectric constant tensor:
#      x y z
#    x 1.779920 0.000000 0.003170 
#    y 0.000000 1.767570 0.000000 
#    z 0.003170 0.000000 1.775580 
# 
# From -- ./inp_files/353521.got.cif
#   From: 2010.06.25/outbox.cif.g09.slc.cpg/sg12_177_cif.got.tgz:353521.got - 2010.06.28 00:19:55.
