data_PCOD8107879
_publ_section_title
;
Structure prediction by ZEFSAII (Michael W. Deem and Ramdas Pophale) SiO2 
 PCOD8107879
Probable space group: C 2/M
;
_chemical_formula_sum "Si O2"
_cell_formula_units_Z 56
_cell_length_a 30.401205
_cell_length_b 14.289575
_cell_length_c 7.466874
_cell_angle_alpha 90.000000
_cell_angle_beta 125.903562
_cell_angle_gamma 90.000000
_cell_volume 2627.463743
_symmetry_space_group_name_H-M "C 2/M"
_symmetry_group_IT_number 12
_symmetry_cell_setting 'monoclinic'
loop_
_space_group_symop_operation_xyz
x,y,z
-x,y,-z
-x,-y,-z
x,-y,z
1/2+x,1/2+y,z
1/2-x,1/2+y,-z
1/2-x,1/2-y,-z
1/2+x,1/2-y,z
loop_
_atom_site_type_symbol
_atom_site_label
_atom_site_fract_x
_atom_site_fract_y
_atom_site_fract_z
Si Si1 0.699763 0.765119 0.620934
Si Si2 0.653010 0.105238 0.794842
Si Si3 0.123313 0.896560 0.492324
Si Si4 0.030512 0.600320 0.387336
Si Si5 0.011544 0.800801 0.319350
Si Si6 0.675173 0.237633 0.159544
Si Si7 0.596848 0.397107 0.021882
O O1 0.692624 0.848082 0.744753
O O2 0.674654 0.671230 0.651568
O O3 0.670339 0.786260 0.359852
O O4 0.763368 0.757044 0.745493
O O5 0.593648 0.112502 0.573477
O O6 0.673135 0.000000 0.869506
O O7 0.653763 0.151081 0.993337
O O8 0.068656 0.852580 0.440329
O O9 0.119043 0.908912 0.271805
O O10 0.133181 0.000000 0.600962
O O11 0.020215 0.500000 0.259981
O O12 0.012326 0.694583 0.238019
O O13 0.000000 0.593749 0.500000
O O14 0.000000 0.792736 0.500000
O O15 0.964390 0.858090 0.109072
O O16 0.637301 0.326563 0.014985
O O17 0.596520 0.500000 0.927161
#
# Coordination Sequence:
#
# PCOD8107879 Si02
#       7
#     8   8   8   8   8   8   8
#     4  10  22  41  62  89 122 160 202 251 307 358
#     4  11  22  39  62  89 119 156 205 251 299 358
#     4  10  21  38  58  83 120 160 198 245 301 364
#     4   9  18  33  56  81 114 158 197 243 299 353
#     4  11  20  34  57  86 121 153 194 245 301 364
#     4  10  22  41  63  87 123 161 201 251 304 362
#     4  10  22  38  58  86 118 158 200 243 302 365
#
# _framework density 21.313327999999998
#
# number of rings (size 3 to 8) (size 9 to 14) (size 15 to 20)
#    0.000    1.857    1.429    3.000    0.000    4.000 
#    0.000    2.857    0.000    2.571    0.000    0.000 
#    0.000    0.000    0.000    0.000    0.000    0.000 
#
# Total GULP energy -347053.230942 kJ/mol
# GULP energy per Si atom -12394.758248 kJ/mol
# Density = 2.126482 g / cm^3
# Si number density = 21.313328 Si / 1000 Ang^3
#
#
#
# Elastic Constant Matrix: (Units=GPa)
#
#
# Indices 1 2 3 4 5 6 
#
# 1 95.8369 54.7584 12.4759 0.0000 14.9189 0.0000
# 2 54.7584 220.3958 42.5696 0.0000 4.3056 0.0000
# 3 12.4759 42.5696 33.7708 0.0000 7.0364 0.0000
# 4 0.0000 0.0000 0.0000 18.2359 0.0000 -2.0314
# 5 14.9189 4.3056 7.0364 0.0000 27.2457 0.0000
# 6 0.0000 0.0000 0.0000 -2.0314 0.0000 20.2828
#
#
#
# Elastic Compliance Matrix: (Units=1/GPa)
#
#
# Indices 1 2 3 4 5 6 
#
# 1 0.013315 -0.003307 0.000698 0.000000 -0.006948 0.000000
# 2 -0.003307 0.006848 -0.007993 0.000000 0.002793 0.000000
# 3 0.000698 -0.007993 0.041477 0.000000 -0.009831 0.000000
# 4 0.000000 0.000000 0.000000 0.055455 0.000000 0.005554
# 5 -0.006948 0.002793 -0.009831 0.000000 0.042605 0.000000
# 6 0.000000 0.000000 0.000000 0.005554 0.000000 0.049859
#
#
# Mechanical properties :
#
#
# Convention : Reuss Voigt Hill
#
# Bulk Modulus (GPa) = 24.73050 63.29013 44.01031
# Shear Modulus (GPa) = 20.47144 29.16619 24.81882
#
# Velocity S-wave (km/s) = 3.10256 3.70327 3.41614
# Velocity P-wave (km/s) = 4.94600 6.93146 6.02113
#
# Compressibility (1/GPa) = 0.04043589
#
# Stress axis : x y z
#
# Youngs Moduli (GPa) = 75.10432 146.02410 24.10974
#
# Poissons Ratio (x) = 0.48292 -0.01682
# Poissons Ratio (y) = 0.24838 0.19270
# Poissons Ratio (z) = -0.05240 1.16711
#
# Static dielectric constant tensor:
#      x y z
#    x 3.764670 0.000000 0.047470 
#    y 0.000000 4.676430 0.000000 
#    z 0.047470 0.000000 3.714600 
# 
# 
# High freq. dielectric constant tensor:
#      x y z
#    x 1.841840 0.000000 0.010280 
#    y 0.000000 1.851010 0.000000 
#    z 0.010280 0.000000 1.814560 
# 
# From -- ./inp_files/111707.got.cif
#   From: 2010.06.25/outbox.cif.g09.slc.cpg/sg12_56_cif.got.tgz:111707.got - 2010.06.28 00:19:55.
