data_PCOD8107457
_publ_section_title
;
Structure prediction by ZEFSAII (Michael W. Deem and Ramdas Pophale) SiO2 
 PCOD8107457
Probable space group: C 2/M
;
_chemical_formula_sum "Si O2"
_cell_formula_units_Z 48
_cell_length_a 18.691026
_cell_length_b 14.115219
_cell_length_c 18.218301
_cell_angle_alpha 90.000000
_cell_angle_beta 149.484813
_cell_angle_gamma 90.000000
_cell_volume 2440.579045
_symmetry_space_group_name_H-M "C 2/M"
_symmetry_group_IT_number 12
_symmetry_cell_setting 'monoclinic'
loop_
_space_group_symop_operation_xyz
x,y,z
-x,y,-z
-x,-y,-z
x,-y,z
1/2+x,1/2+y,z
1/2-x,1/2+y,-z
1/2-x,1/2-y,-z
1/2+x,1/2-y,z
loop_
_atom_site_type_symbol
_atom_site_label
_atom_site_fract_x
_atom_site_fract_y
_atom_site_fract_z
Si Si1 0.147613 0.262241 0.164038
Si Si2 0.003115 0.707334 0.179802
Si Si3 0.259249 0.109290 0.882289
Si Si4 0.508745 0.393045 0.261981
Si Si5 0.654208 0.892011 0.604635
Si Si6 0.827579 0.391484 0.546623
O O1 0.116867 0.309478 0.215905
O O2 0.222737 0.340520 0.180089
O O3 0.244441 0.170389 0.255415
O O4 0.000000 0.228011 0.000000
O O5 0.064751 0.668500 0.310051
O O6 0.973828 0.819689 0.165415
O O7 0.857389 0.655866 0.031449
O O8 0.097639 0.121022 0.764243
O O9 0.302194 0.000000 0.911050
O O10 0.495379 0.500000 0.217887
O O11 0.667161 0.375898 0.431911
O O12 0.500000 0.880673 0.500000
O O13 0.658827 0.855904 0.524985
O O14 0.707482 0.000000 0.655956
O O15 0.874454 0.500000 0.594792
#
# Coordination Sequence:
#
# PCOD8107457 Si02
#       6
#     8   8   8   8   8   8
#     4  10  23  38  60  87 116 159 195 236 294 347
#     4  11  21  37  63  88 114 154 198 240 291 348
#     4  10  23  41  59  86 121 156 196 242 289 345
#     4  10  21  38  59  86 121 152 190 243 293 344
#     4  10  22  40  59  85 120 154 194 245 293 346
#     4  10  21  37  60  88 116 152 194 242 297 347
#
# _framework density 19.667463999999999
#
# number of rings (size 3 to 8) (size 9 to 14) (size 15 to 20)
#    0.000    1.833    1.667    1.500    2.333    4.000 
#    0.000    2.500    0.000    3.500    0.000    0.000 
#    0.000    0.000    0.000    0.000    0.000    0.000 
#
# Total GULP energy -297653.288245 kJ/mol
# GULP energy per Si atom -12402.220344 kJ/mol
# Density = 1.962270 g / cm^3
# Si number density = 19.667464 Si / 1000 Ang^3
#
#
#
# Elastic Constant Matrix: (Units=GPa)
#
#
# Indices 1 2 3 4 5 6 
#
# 1 120.0005 55.3766 46.0719 0.0002 4.4053 0.0002
# 2 55.3766 110.2504 49.9914 0.0000 -11.8366 0.0000
# 3 46.0719 49.9914 72.9029 -0.0004 -2.9069 -0.0004
# 4 0.0002 0.0000 -0.0004 29.3971 -0.0001 -3.1442
# 5 4.4053 -11.8366 -2.9069 -0.0001 30.2904 0.0000
# 6 0.0002 0.0000 -0.0004 -3.1442 0.0000 23.8719
#
#
#
# Elastic Compliance Matrix: (Units=1/GPa)
#
#
# Indices 1 2 3 4 5 6 
#
# 1 0.012433 -0.004412 -0.004992 0.000000 -0.004011 0.000000
# 2 -0.004412 0.015310 -0.007474 0.000000 0.005907 0.000000
# 3 -0.004992 -0.007474 0.021993 0.000000 -0.000084 0.000000
# 4 0.000000 0.000000 0.000000 0.034503 0.000000 0.004544
# 5 -0.004011 0.005907 -0.000084 0.000000 0.035897 0.000000
# 6 0.000000 0.000000 0.000000 0.004544 0.000000 0.042489
#
#
# Mechanical properties :
#
#
# Convention : Reuss Voigt Hill
#
# Bulk Modulus (GPa) = 62.57902 67.33706 64.95804
# Shear Modulus (GPa) = 24.78823 26.82615 25.80719
#
# Velocity S-wave (km/s) = 3.55402 3.69722 3.62633
# Velocity P-wave (km/s) = 6.98062 7.24832 7.11573
#
# Compressibility (1/GPa) = 0.01597980
#
# Stress axis : x y z
#
# Youngs Moduli (GPa) = 80.43062 65.31778 45.46802
#
# Poissons Ratio (x) = 0.28819 0.22696
# Poissons Ratio (y) = 0.35487 0.33985
# Poissons Ratio (z) = 0.40148 0.48821
#
# Static dielectric constant tensor:
#      x y z
#    x 3.688370 0.000000 0.120700 
#    y 0.000000 3.741490 0.000000 
#    z 0.120700 0.000000 3.447140 
# 
# 
# High freq. dielectric constant tensor:
#      x y z
#    x 1.773050 0.000000 0.013350 
#    y 0.000000 1.775510 0.000000 
#    z 0.013350 0.000000 1.754740 
# 
# From -- ./inp_files/111759.got.cif
#   From: 2010.06.25/outbox.cif.g09.slc.cpg/sg12_56_cif.got.tgz:111759.got - 2010.06.28 00:19:55.
