data_PCOD8107787
_publ_section_title
;
Structure prediction by ZEFSAII (Michael W. Deem and Ramdas Pophale) SiO2 
 PCOD8107787
Probable space group: C 2/M
;
_chemical_formula_sum "Si O2"
_cell_formula_units_Z 48
_cell_length_a 21.679703
_cell_length_b 12.930701
_cell_length_c 11.134655
_cell_angle_alpha 90.000000
_cell_angle_beta 121.872548
_cell_angle_gamma 90.000000
_cell_volume 2650.786933
_symmetry_space_group_name_H-M "C 2/M"
_symmetry_group_IT_number 12
_symmetry_cell_setting 'monoclinic'
loop_
_space_group_symop_operation_xyz
x,y,z
-x,y,-z
-x,-y,-z
x,-y,z
1/2+x,1/2+y,z
1/2-x,1/2+y,-z
1/2-x,1/2-y,-z
1/2+x,1/2-y,z
loop_
_atom_site_type_symbol
_atom_site_label
_atom_site_fract_x
_atom_site_fract_y
_atom_site_fract_z
Si Si1 0.080560 0.116819 0.575810
Si Si2 0.358753 0.689097 0.120235
Si Si3 0.786448 0.380902 0.153531
Si Si4 0.140176 0.803639 0.399702
Si Si5 0.502786 0.617823 0.861979
Si Si6 0.280586 0.883206 0.427714
O O1 0.123082 0.122705 0.743926
O O2 0.132103 0.166868 0.530023
O O3 0.000000 0.170024 0.500000
O O4 0.068328 0.000000 0.523219
O O5 0.343800 0.808055 0.142788
O O6 0.426675 0.683175 0.101134
O O7 0.292197 0.636421 0.984086
O O8 0.810133 0.500000 0.160151
O O9 0.784027 0.350757 0.291388
O O10 0.064295 0.815681 0.254774
O O11 0.198031 0.873887 0.388956
O O12 0.167604 0.685102 0.433137
O O13 0.503180 0.500000 0.808976
O O14 0.500000 0.610949 0.000000
O O15 0.307311 0.000000 0.471067
#
# Coordination Sequence:
#
# PCOD8107787 Si02
#       6
#     8   8   8   8   8   8
#     4  11  20  32  53  83 115 142 172 229 285 324
#     4  11  21  35  57  83 111 143 184 228 275 326
#     4  10  21  38  57  79 111 149 187 224 268 326
#     4  11  21  35  57  83 111 143 184 228 275 326
#     4  11  22  37  60  85 110 143 181 228 280 326
#     4  10  21  38  57  79 111 149 187 224 268 326
#
# _framework density 18.107828999999999
#
# number of rings (size 3 to 8) (size 9 to 14) (size 15 to 20)
#    0.000    1.333    3.333    4.000    0.000    2.667 
#    0.000    0.833    0.000    4.000    0.000    0.000 
#    0.000    0.000    0.000    0.000    0.000    0.000 
#
# Total GULP energy -297588.978771 kJ/mol
# GULP energy per Si atom -12399.540782 kJ/mol
# Density = 1.806662 g / cm^3
# Si number density = 18.107829 Si / 1000 Ang^3
#
#
#
# Elastic Constant Matrix: (Units=GPa)
#
#
# Indices 1 2 3 4 5 6 
#
# 1 120.4941 52.7134 29.1690 0.0000 3.6739 0.0000
# 2 52.7134 91.9101 35.9539 0.0000 4.5880 0.0000
# 3 29.1690 35.9539 91.0730 0.0000 7.1796 0.0000
# 4 0.0000 0.0000 0.0000 26.3824 0.0000 -3.6597
# 5 3.6739 4.5880 7.1796 0.0000 31.5948 0.0000
# 6 0.0000 0.0000 0.0000 -3.6597 0.0000 23.5449
#
#
#
# Elastic Compliance Matrix: (Units=1/GPa)
#
#
# Indices 1 2 3 4 5 6 
#
# 1 0.011197 -0.005932 -0.001232 0.000000 -0.000161 0.000000
# 2 -0.005932 0.016027 -0.004376 0.000000 -0.000643 0.000000
# 3 -0.001232 -0.004376 0.013279 0.000000 -0.002239 0.000000
# 4 0.000000 0.000000 0.000000 0.038739 0.000000 0.006021
# 5 -0.000161 -0.000643 -0.002239 0.000000 0.032272 0.000000
# 6 0.000000 0.000000 0.000000 0.006021 0.000000 0.043408
#
#
# Mechanical properties :
#
#
# Convention : Reuss Voigt Hill
#
# Bulk Modulus (GPa) = 57.39758 59.90554 58.65156
# Shear Modulus (GPa) = 27.20202 28.68048 27.94125
#
# Velocity S-wave (km/s) = 3.88006 3.98411 3.93243
# Velocity P-wave (km/s) = 7.19997 7.37012 7.28554
#
# Compressibility (1/GPa) = 0.01742234
#
# Stress axis : x y z
#
# Youngs Moduli (GPa) = 89.30600 62.39634 75.30763
#
# Poissons Ratio (x) = 0.37015 0.09276
# Poissons Ratio (y) = 0.52979 0.32957
# Poissons Ratio (z) = 0.11000 0.27307
#
# Static dielectric constant tensor:
#      x y z
#    x 3.537780 0.000000 -0.113900 
#    y 0.000000 3.302730 0.000000 
#    z -0.113900 0.000000 3.407330 
# 
# 
# High freq. dielectric constant tensor:
#      x y z
#    x 1.708010 0.000000 -0.008560 
#    y 0.000000 1.690560 0.000000 
#    z -0.008560 0.000000 1.709600 
# 
# From -- ./inp_files/158047.got.cif
#   From: 2010.06.25/outbox.cif.g09.slc.cpg/sg12_80_cif.got.tgz:158047.got - 2010.06.28 00:19:55.
