data_PCOD8107525
_publ_section_title
;
Structure prediction by ZEFSAII (Michael W. Deem and Ramdas Pophale) SiO2 
 PCOD8107525
Probable space group: C 2/M
;
_chemical_formula_sum "Si O2"
_cell_formula_units_Z 56
_cell_length_a 19.046137
_cell_length_b 25.796503
_cell_length_c 9.468725
_cell_angle_alpha 90.000000
_cell_angle_beta 144.762746
_cell_angle_gamma 90.000000
_cell_volume 2684.154981
_symmetry_space_group_name_H-M "C 2/M"
_symmetry_group_IT_number 12
_symmetry_cell_setting 'monoclinic'
loop_
_space_group_symop_operation_xyz
x,y,z
-x,y,-z
-x,-y,-z
x,-y,z
1/2+x,1/2+y,z
1/2-x,1/2+y,-z
1/2-x,1/2-y,-z
1/2+x,1/2-y,z
loop_
_atom_site_type_symbol
_atom_site_label
_atom_site_fract_x
_atom_site_fract_y
_atom_site_fract_z
Si Si1 0.616934 0.777787 0.775920
Si Si2 0.724561 0.879974 0.838902
Si Si3 0.073167 0.440119 0.359409
Si Si4 0.211753 0.441329 0.084200
Si Si5 0.383766 0.221916 0.903743
Si Si6 0.866094 0.165091 0.835849
Si Si7 0.208617 0.616785 0.352804
O O1 0.500000 0.751466 0.500000
O O2 0.634864 0.833412 0.733326
O O3 0.750000 0.750000 0.000000
O O4 0.571858 0.781654 0.862199
O O5 0.650047 0.918977 0.616928
O O6 0.845771 0.858455 0.958970
O O7 0.772776 0.909042 0.057703
O O8 0.109032 0.500000 0.391687
O O9 0.093226 0.407669 0.246885
O O10 0.932679 0.434458 0.166900
O O11 0.254559 0.500000 0.138498
O O12 0.256182 0.421675 0.309901
O O13 0.311936 0.275927 0.752224
O O14 0.301630 0.172790 0.735568
O O15 0.500000 0.216122 0.000000
O O16 0.807845 0.123789 0.635894
O O17 0.000000 0.171388 0.000000
#
# Coordination Sequence:
#
# PCOD8107525 Si02
#       7
#     8   8   8   8   8   8   8
#     4  12  26  43  64  97 133 171 215 266 318 375
#     4  11  22  40  63  88 123 166 207 253 316 378
#     4  10  21  37  60  91 126 160 196 247 313 385
#     4  11  21  36  60  94 124 152 196 255 320 380
#     4  11  23  40  63  93 128 168 208 253 308 378
#     4  10  24  43  60  85 119 164 218 257 305 371
#     4  11  22  36  62  90 125 163 202 249 314 369
#
# _framework density 20.863177
#
# number of rings (size 3 to 8) (size 9 to 14) (size 15 to 20)
#    0.000    1.143    2.857    3.857    4.000    4.571 
#    0.000    0.714    0.000   16.286    0.000    0.000 
#    0.000    0.000    0.000    0.000    0.000    0.000 
#
# Total GULP energy -346984.158792 kJ/mol
# GULP energy per Si atom -12392.291385 kJ/mol
# Density = 2.081569 g / cm^3
# Si number density = 20.863177 Si / 1000 Ang^3
#
#
#
# Elastic Constant Matrix: (Units=GPa)
#
#
# Indices 1 2 3 4 5 6 
#
# 1 130.1956 47.6562 39.6851 0.0000 -29.2378 0.0000
# 2 47.6562 122.9468 29.7023 0.0000 -4.8628 0.0000
# 3 39.6851 29.7023 62.1051 0.0000 -13.5933 0.0000
# 4 0.0000 0.0000 0.0000 228.3234 0.0000 73.8518
# 5 -29.2378 -4.8628 -13.5933 0.0000 33.5274 0.0000
# 6 0.0000 0.0000 0.0000 73.8518 0.0000 69.2603
#
#
#
# Elastic Compliance Matrix: (Units=1/GPa)
#
#
# Indices 1 2 3 4 5 6 
#
# 1 0.012070 -0.003308 -0.004315 0.000000 0.008296 0.000000
# 2 -0.003308 0.010110 -0.003327 0.000000 -0.002767 0.000000
# 3 -0.004315 -0.003327 0.021422 0.000000 0.004440 0.000000
# 4 0.000000 0.000000 0.000000 0.006686 0.000000 -0.007129
# 5 0.008296 -0.002767 0.004440 0.000000 0.038460 0.000000
# 6 0.000000 0.000000 0.000000 -0.007129 0.000000 0.022040
#
#
# Mechanical properties :
#
#
# Convention : Reuss Voigt Hill
#
# Bulk Modulus (GPa) = 46.07813 61.03720 53.55766
# Shear Modulus (GPa) = 35.73444 79.43583 57.58514
#
# Velocity S-wave (km/s) = 4.14309 6.17716 5.25940
# Velocity P-wave (km/s) = 6.70975 8.95521 7.91254
#
# Compressibility (1/GPa) = 0.02170227
#
# Stress axis : x y z
#
# Youngs Moduli (GPa) = 82.85099 98.91030 46.68115
#
# Poissons Ratio (x) = 0.32719 0.20141
# Poissons Ratio (y) = 0.27407 0.15532
# Poissons Ratio (z) = 0.35748 0.32909
#
# Static dielectric constant tensor:
#      x y z
#    x 4.265400 0.000000 0.236210 
#    y 0.000000 4.246440 0.000000 
#    z 0.236210 0.000000 5.645970 
# 
# 
# High freq. dielectric constant tensor:
#      x y z
#    x 1.829300 0.000000 -0.033090 
#    y 0.000000 1.827250 0.000000 
#    z -0.033090 0.000000 1.782830 
# 
# From -- ./inp_files/53307.got.cif
#   From: 2010.06.25/outbox.cif.g09.slc.cpg/sg12_27_cif.got.tgz:53307.got - 2010.06.28 00:19:55.
