data_PCOD8107071
_publ_section_title
;
Structure prediction by ZEFSAII (Michael W. Deem and Ramdas Pophale) SiO2 
 PCOD8107071
Probable space group: C 2/M
;
_chemical_formula_sum "Si O2"
_cell_formula_units_Z 32
_cell_length_a 31.497580
_cell_length_b 8.541477
_cell_length_c 7.054500
_cell_angle_alpha 90.000000
_cell_angle_beta 62.278081
_cell_angle_gamma 90.000000
_cell_volume 1680.062834
_symmetry_space_group_name_H-M "C 2/M"
_symmetry_group_IT_number 12
_symmetry_cell_setting 'monoclinic'
loop_
_space_group_symop_operation_xyz
x,y,z
-x,y,-z
-x,-y,-z
x,-y,z
1/2+x,1/2+y,z
1/2-x,1/2+y,-z
1/2-x,1/2-y,-z
1/2+x,1/2-y,z
loop_
_atom_site_type_symbol
_atom_site_label
_atom_site_fract_x
_atom_site_fract_y
_atom_site_fract_z
Si Si1 0.503748 0.183333 0.277215
Si Si2 0.928875 0.181300 0.160588
Si Si3 0.326284 0.819393 0.341239
Si Si4 0.743322 0.682475 0.806757
O O1 0.500000 0.242116 0.500000
O O2 0.453965 0.219565 0.274670
O O3 0.514624 0.000000 0.243875
O O4 0.547987 0.273663 0.089132
O O5 0.872779 0.214890 0.275884
O O6 0.937893 0.000000 0.182794
O O7 0.300951 0.771306 0.198217
O O8 0.291618 0.785145 0.589624
O O9 0.341203 0.000000 0.297923
O O10 0.731015 0.500000 0.840108
O O11 0.750000 0.750000 0.000000
#
# Coordination Sequence:
#
# PCOD8107071 Si02
#       4
#     8   8   8   8
#     4  10  21  38  59  81 109 145 183 224 271 324
#     4  11  22  36  57  83 112 144 180 226 274 322
#     4  10  21  38  58  80 110 146 184 225 270 323
#     4  10  21  37  58  83 111 144 182 226 274 323
#
# _framework density 19.046906
#
# number of rings (size 3 to 8) (size 9 to 14) (size 15 to 20)
#    0.000    1.750    0.000    6.000    0.000    7.000 
#    0.000    2.500    0.000    0.000    0.000    0.000 
#    0.000    0.000    0.000    0.000    0.000    0.000 
#
# Total GULP energy -198489.843586 kJ/mol
# GULP energy per Si atom -12405.615224 kJ/mol
# Density = 1.900355 g / cm^3
# Si number density = 19.046906 Si / 1000 Ang^3
#
#
#
# Elastic Constant Matrix: (Units=GPa)
#
#
# Indices 1 2 3 4 5 6 
#
# 1 91.9530 15.1883 48.8956 0.0000 -6.3320 0.0000
# 2 15.1883 63.7900 27.4550 0.0000 -3.4937 0.0000
# 3 48.8956 27.4550 116.5057 0.0000 25.2446 0.0000
# 4 0.0000 0.0000 0.0000 18.7738 0.0000 -5.2082
# 5 -6.3320 -3.4937 25.2446 0.0000 28.0233 0.0000
# 6 0.0000 0.0000 0.0000 -5.2082 0.0000 32.9558
#
#
#
# Elastic Compliance Matrix: (Units=1/GPa)
#
#
# Indices 1 2 3 4 5 6 
#
# 1 0.017091 0.001096 -0.010310 0.000000 0.013286 0.000000
# 2 0.001096 0.018809 -0.006777 0.000000 0.008697 0.000000
# 3 -0.010310 -0.006777 0.018880 0.000000 -0.020183 0.000000
# 4 0.000000 0.000000 0.000000 0.055708 0.000000 0.008804
# 5 0.013286 0.008697 -0.020183 0.000000 0.057952 0.000000
# 6 0.000000 0.000000 0.000000 0.008804 0.000000 0.031735
#
#
# Mechanical properties :
#
#
# Convention : Reuss Voigt Hill
#
# Bulk Modulus (GPa) = 43.86306 50.59185 47.22745
# Shear Modulus (GPa) = 20.85447 27.99791 24.42619
#
# Velocity S-wave (km/s) = 3.31252 3.83815 3.58498
# Velocity P-wave (km/s) = 6.14079 6.80156 6.47960
#
# Compressibility (1/GPa) = 0.02279823
#
# Stress axis : x y z
#
# Youngs Moduli (GPa) = 58.50919 53.16734 52.96516
#
# Poissons Ratio (x) = -0.05825 0.54607
# Poissons Ratio (y) = -0.06410 0.35893
# Poissons Ratio (z) = 0.60323 0.36030
#
# Static dielectric constant tensor:
#      x y z
#    x 3.396450 0.000000 0.119230 
#    y 0.000000 3.645420 0.000000 
#    z 0.119230 0.000000 3.391960 
# 
# 
# High freq. dielectric constant tensor:
#      x y z
#    x 1.742530 0.000000 0.002270 
#    y 0.000000 1.756790 0.000000 
#    z 0.002270 0.000000 1.741240 
# 
# From -- ./inp_files/30186.got.cif
#   From: 2010.06.25/outbox.cif.g09.slc.cpg/sg12_16_cif.got.tgz:30186.got - 2010.06.28 00:19:55.
