data_PCOD8107563
_publ_section_title
;
Structure prediction by ZEFSAII (Michael W. Deem and Ramdas Pophale) SiO2 
 PCOD8107563
Probable space group: C 2/M
;
_chemical_formula_sum "Si O2"
_cell_formula_units_Z 64
_cell_length_a 25.883317
_cell_length_b 13.724723
_cell_length_c 8.926873
_cell_angle_alpha 90.000000
_cell_angle_beta 96.887070
_cell_angle_gamma 90.000000
_cell_volume 3148.312489
_symmetry_space_group_name_H-M "C 2/M"
_symmetry_group_IT_number 12
_symmetry_cell_setting 'monoclinic'
loop_
_space_group_symop_operation_xyz
x,y,z
-x,y,-z
-x,-y,-z
x,-y,z
1/2+x,1/2+y,z
1/2-x,1/2+y,-z
1/2-x,1/2-y,-z
1/2+x,1/2-y,z
loop_
_atom_site_type_symbol
_atom_site_label
_atom_site_fract_x
_atom_site_fract_y
_atom_site_fract_z
Si Si1 0.586378 0.609046 0.233051
Si Si2 0.815736 0.890661 0.925743
Si Si3 0.626075 0.267636 0.821494
Si Si4 0.230025 0.289028 0.727311
Si Si5 0.224353 0.612521 0.418379
Si Si6 0.938681 0.212665 0.484198
Si Si7 0.942663 0.704752 0.940544
Si Si8 0.103564 0.388676 0.359421
O O1 0.564127 0.500000 0.199751
O O2 0.646255 0.615666 0.203874
O O3 0.585482 0.635983 0.407513
O O4 0.552493 0.685888 0.125806
O O5 0.766519 0.821442 0.877739
O O6 0.795993 0.000000 0.946348
O O7 0.846017 0.856749 0.084560
O O8 0.670069 0.202080 0.756924
O O9 0.585954 0.310485 0.685765
O O10 0.593959 0.201181 0.926405
O O11 0.240321 0.362405 0.593731
O O12 0.242421 0.177652 0.685258
O O13 0.236948 0.500000 0.389533
O O14 0.164105 0.638129 0.374214
O O15 0.925476 0.323104 0.527654
O O16 0.000000 0.197783 0.500000
O O17 0.919065 0.630426 0.812846
O O18 0.000000 0.667775 0.000000
O O19 0.094407 0.500000 0.403227
#
# Coordination Sequence:
#
# PCOD8107563 Si02
#       8
#     8   8   8   8   8   8   8   8
#     4   9  20  38  60  83 115 160 201 241 294 363
#     4  10  22  39  60  88 125 163 199 240 301 372
#     4  11  22  37  60  91 123 156 197 253 305 350
#     4  11  21  37  61  88 125 161 195 249 301 364
#     4  10  21  37  61  89 118 160 203 241 295 365
#     4  11  22  39  61  87 120 155 200 257 309 352
#     4  10  21  40  62  85 116 159 202 247 304 363
#     4  10  21  41  62  83 115 157 205 245 293 362
#
# _framework density 20.328351000000001
#
# number of rings (size 3 to 8) (size 9 to 14) (size 15 to 20)
#    0.000    1.750    1.250    4.500    1.750    2.000 
#    0.000    5.625    0.000    0.750    0.000    0.000 
#    0.000    0.000    0.000    0.000    0.000    0.000 
#
# Total GULP energy -396926.206503 kJ/mol
# GULP energy per Si atom -12403.943953 kJ/mol
# Density = 2.028208 g / cm^3
# Si number density = 20.328351 Si / 1000 Ang^3
#
#
#
# Elastic Constant Matrix: (Units=GPa)
#
#
# Indices 1 2 3 4 5 6 
#
# 1 101.3432 27.1167 47.1525 0.0000 16.7595 0.0000
# 2 27.1167 81.7918 26.4451 0.0000 -1.3429 0.0000
# 3 47.1525 26.4451 113.3145 0.0000 13.6046 0.0000
# 4 0.0000 0.0000 0.0000 18.3770 0.0000 0.9148
# 5 16.7595 -1.3429 13.6046 0.0000 37.2598 0.0000
# 6 0.0000 0.0000 0.0000 0.9148 0.0000 20.7473
#
#
#
# Elastic Compliance Matrix: (Units=1/GPa)
#
#
# Indices 1 2 3 4 5 6 
#
# 1 0.013482 -0.003147 -0.004323 0.000000 -0.004599 0.000000
# 2 -0.003147 0.014060 -0.002303 0.000000 0.002763 0.000000
# 3 -0.004323 -0.002303 0.011440 0.000000 -0.002315 0.000000
# 4 0.000000 0.000000 0.000000 0.054535 0.000000 -0.002405
# 5 -0.004599 0.002763 -0.002315 0.000000 0.029852 0.000000
# 6 0.000000 0.000000 0.000000 -0.002405 0.000000 0.048305
#
#
# Mechanical properties :
#
#
# Convention : Reuss Voigt Hill
#
# Bulk Modulus (GPa) = 51.45899 55.31980 53.38939
# Shear Modulus (GPa) = 25.29095 28.32585 26.80840
#
# Velocity S-wave (km/s) = 3.53104 3.73690 3.63543
# Velocity P-wave (km/s) = 6.48021 6.77432 6.62890
#
# Compressibility (1/GPa) = 0.01943295
#
# Stress axis : x y z
#
# Youngs Moduli (GPa) = 74.17477 71.12534 87.41602
#
# Poissons Ratio (x) = 0.22385 0.37793
# Poissons Ratio (y) = 0.23345 0.20135
# Poissons Ratio (z) = 0.32068 0.16383
#
# Static dielectric constant tensor:
#      x y z
#    x 3.657910 0.000000 -0.017340 
#    y 0.000000 3.531790 0.000000 
#    z -0.017340 0.000000 3.728660 
# 
# 
# High freq. dielectric constant tensor:
#      x y z
#    x 1.796500 0.000000 0.003670 
#    y 0.000000 1.778680 0.000000 
#    z 0.003670 0.000000 1.800560 
# 
# From -- ./inp_files/96884.got.cif
#   From: 2010.06.25/outbox.cif.g09.slc.cpg/sg12_49_cif.got.tgz:96884.got - 2010.06.28 00:19:55.
