data_PCOD8107445
_publ_section_title
;
Structure prediction by ZEFSAII (Michael W. Deem and Ramdas Pophale) SiO2 
 PCOD8107445
Probable space group: C 2/M
;
_chemical_formula_sum "Si O2"
_cell_formula_units_Z 56
_cell_length_a 25.277920
_cell_length_b 17.899226
_cell_length_c 9.620391
_cell_angle_alpha 90.000000
_cell_angle_beta 138.757509
_cell_angle_gamma 90.000000
_cell_volume 2869.568880
_symmetry_space_group_name_H-M "C 2/M"
_symmetry_group_IT_number 12
_symmetry_cell_setting 'monoclinic'
loop_
_space_group_symop_operation_xyz
x,y,z
-x,y,-z
-x,-y,-z
x,-y,z
1/2+x,1/2+y,z
1/2-x,1/2+y,-z
1/2-x,1/2-y,-z
1/2+x,1/2-y,z
loop_
_atom_site_type_symbol
_atom_site_label
_atom_site_fract_x
_atom_site_fract_y
_atom_site_fract_z
Si Si1 0.795572 0.911377 0.486307
Si Si2 0.930420 0.790277 0.752227
Si Si3 0.207856 0.196581 0.027830
Si Si4 0.256689 0.083883 0.918735
Si Si5 0.966745 0.740815 0.280510
Si Si6 0.060399 0.419208 0.745179
Si Si7 0.709879 0.187623 0.513943
O O1 0.877210 0.864490 0.670327
O O2 0.760024 0.883325 0.268434
O O3 0.730373 0.891083 0.478352
O O4 0.812915 0.000000 0.527817
O O5 0.883331 0.711134 0.669917
O O6 0.972341 0.792176 0.684677
O O7 0.000000 0.790416 0.000000
O O8 0.202927 0.119084 0.934607
O O9 0.120659 0.223313 0.899729
O O10 0.250000 0.250000 0.000000
O O11 0.260012 0.187220 0.268830
O O12 0.227318 0.000000 0.857758
O O13 0.350402 0.093805 0.139725
O O14 0.962097 0.654989 0.210720
O O15 0.000000 0.737140 0.500000
O O16 0.058978 0.500000 0.825221
O O17 0.000000 0.427156 0.500000
O O18 0.750000 0.250000 0.500000
#
# Coordination Sequence:
#
# PCOD8107445 Si02
#       7
#     8   8   8   8   8   8   8
#     4  10  22  43  66  87 118 163 204 245 303 362
#     4  11  24  39  59  89 120 156 198 251 301 355
#     4  12  21  36  61  86 119 156 203 250 292 357
#     4  10  21  37  60  87 118 156 200 248 302 361
#     4  11  21  34  58  87 116 153 194 242 302 351
#     4   9  19  33  52  80 117 153 191 238 296 354
#     4  10  22  39  60  85 119 157 202 247 292 356
#
# _framework density 19.515127
#
# number of rings (size 3 to 8) (size 9 to 14) (size 15 to 20)
#    0.000    1.571    1.429    5.143    4.000    0.857 
#    0.000    1.429    0.000    3.429    0.000    0.000 
#    0.000    0.000    0.000    0.000    0.000    0.000 
#
# Total GULP energy -346938.788928 kJ/mol
# GULP energy per Si atom -12390.671033 kJ/mol
# Density = 1.947071 g / cm^3
# Si number density = 19.515127 Si / 1000 Ang^3
#
#
#
# Elastic Constant Matrix: (Units=GPa)
#
#
# Indices 1 2 3 4 5 6 
#
# 1 109.4931 47.1791 50.9365 0.0000 -0.8218 0.0000
# 2 47.1791 97.4072 50.7284 0.0000 0.4554 0.0000
# 3 50.9365 50.7284 134.1598 0.0000 1.3738 0.0000
# 4 0.0000 0.0000 0.0000 9.0550 0.0000 -10.4077
# 5 -0.8218 0.4554 1.3738 0.0000 41.7333 0.0000
# 6 0.0000 0.0000 0.0000 -10.4077 0.0000 21.2406
#
#
#
# Elastic Compliance Matrix: (Units=1/GPa)
#
#
# Indices 1 2 3 4 5 6 
#
# 1 0.012477 -0.004453 -0.003057 0.000000 0.000395 0.000000
# 2 -0.004453 0.014373 -0.003743 0.000000 -0.000121 0.000000
# 3 -0.003057 -0.003743 0.010033 0.000000 -0.000350 0.000000
# 4 0.000000 0.000000 0.000000 0.252827 0.000000 0.123883
# 5 0.000395 -0.000121 -0.000350 0.000000 0.023982 0.000000
# 6 0.000000 0.000000 0.000000 0.123883 0.000000 0.107781
#
#
# Mechanical properties :
#
#
# Convention : Reuss Voigt Hill
#
# Bulk Modulus (GPa) = 69.55552 70.97200 70.26376
# Shear Modulus (GPa) = 11.14154 27.22020 19.18087
#
# Velocity S-wave (km/s) = 2.39198 3.73879 3.13848
# Velocity P-wave (km/s) = 6.58392 7.42191 7.01544
#
# Compressibility (1/GPa) = 0.01437700
#
# Stress axis : x y z
#
# Youngs Moduli (GPa) = 80.14792 69.57689 99.66692
#
# Poissons Ratio (x) = 0.30981 0.30473
# Poissons Ratio (y) = 0.35688 0.37303
# Poissons Ratio (z) = 0.24505 0.26041
#
# Static dielectric constant tensor:
#      x y z
#    x 3.955000 0.000000 0.049840 
#    y 0.000000 4.346410 0.000000 
#    z 0.049840 0.000000 3.654400 
# 
# 
# High freq. dielectric constant tensor:
#      x y z
#    x 1.747360 0.000000 0.006020 
#    y 0.000000 1.761130 0.000000 
#    z 0.006020 0.000000 1.768490 
# 
# From -- ./inp_files/98210.got.cif
#   From: 2010.06.25/outbox.cif.g09.slc.cpg/sg12_50_cif.got.tgz:98210.got - 2010.06.28 00:19:55.
