data_PCOD8107559
_publ_section_title
;
Structure prediction by ZEFSAII (Michael W. Deem and Ramdas Pophale) SiO2 
 PCOD8107559
Probable space group: C 2/M
;
_chemical_formula_sum "Si O2"
_cell_formula_units_Z 64
_cell_length_a 28.948132
_cell_length_b 14.054693
_cell_length_c 12.927040
_cell_angle_alpha 90.000000
_cell_angle_beta 141.470114
_cell_angle_gamma 90.000000
_cell_volume 3276.236202
_symmetry_space_group_name_H-M "C 2/M"
_symmetry_group_IT_number 12
_symmetry_cell_setting 'monoclinic'
loop_
_space_group_symop_operation_xyz
x,y,z
-x,y,-z
-x,-y,-z
x,-y,z
1/2+x,1/2+y,z
1/2-x,1/2+y,-z
1/2-x,1/2-y,-z
1/2+x,1/2-y,z
loop_
_atom_site_type_symbol
_atom_site_label
_atom_site_fract_x
_atom_site_fract_y
_atom_site_fract_z
Si Si1 0.835389 0.730942 0.171466
Si Si2 0.376773 0.610549 0.383564
Si Si3 0.345070 0.611877 0.637972
Si Si4 0.613099 0.231863 0.958655
Si Si5 0.445303 0.730565 0.669925
Si Si6 0.188792 0.893869 0.189188
Si Si7 0.266764 0.892435 0.730825
Si Si8 0.852774 0.609231 0.403671
O O1 0.874833 0.829860 0.274298
O O2 0.876728 0.694450 0.140596
O O3 0.845820 0.649502 0.275412
O O4 0.750000 0.750000 0.000000
O O5 0.392161 0.500000 0.388003
O O6 0.441138 0.652610 0.570151
O O7 0.297268 0.629795 0.297758
O O8 0.367401 0.500000 0.662900
O O9 0.409138 0.681167 0.707085
O O10 0.333000 0.641405 0.734773
O O11 0.267785 0.630225 0.441973
O O12 0.528080 0.237836 0.842852
O O13 0.647154 0.336846 0.026743
O O14 0.659640 0.168310 0.120942
O O15 0.407546 0.828695 0.568962
O O16 0.275985 0.883534 0.329178
O O17 0.161146 0.000000 0.124634
O O18 0.293231 0.000000 0.786048
O O19 0.880579 0.500000 0.445914
#
# Coordination Sequence:
#
# PCOD8107559 Si02
#       8
#     8   8   8   8   8   8   8   8
#     4  11  20  36  57  82 113 147 184 237 288 332
#     4   9  18  35  57  77 102 145 191 227 274 333
#     4   9  19  39  64  85 110 150 193 232 282 342
#     4  12  23  35  53  86 117 145 187 234 287 338
#     4  10  22  37  55  81 119 151 182 231 281 341
#     4  10  21  37  61  89 113 145 192 239 283 337
#     4   9  18  34  57  80 102 138 193 239 268 319
#     4  10  22  40  59  83 115 153 194 235 281 333
#
# _framework density 19.534611999999999
#
# number of rings (size 3 to 8) (size 9 to 14) (size 15 to 20)
#    0.000    2.000    2.500    2.625    0.000    7.500 
#    0.000    2.500    0.000    0.000    0.000    5.250 
#    0.000    0.000    0.000    0.000    0.000    0.000 
#
# Total GULP energy -396745.502885 kJ/mol
# GULP energy per Si atom -12398.296965 kJ/mol
# Density = 1.949015 g / cm^3
# Si number density = 19.534612 Si / 1000 Ang^3
#
#
#
# Elastic Constant Matrix: (Units=GPa)
#
#
# Indices 1 2 3 4 5 6 
#
# 1 71.2767 38.4438 28.6421 0.0000 -1.5723 0.0000
# 2 38.4438 107.8918 33.2626 0.0000 6.2768 0.0000
# 3 28.6421 33.2626 66.4315 0.0000 18.2761 0.0000
# 4 0.0000 0.0000 0.0000 11.7982 0.0000 -5.8171
# 5 -1.5723 6.2768 18.2761 0.0000 28.0362 0.0000
# 6 0.0000 0.0000 0.0000 -5.8171 0.0000 24.2911
#
#
#
# Elastic Compliance Matrix: (Units=1/GPa)
#
#
# Indices 1 2 3 4 5 6 
#
# 1 0.020299 -0.005120 -0.008307 0.000000 0.007700 0.000000
# 2 -0.005120 0.012295 -0.003793 0.000000 -0.000567 0.000000
# 3 -0.008307 -0.003793 0.024892 0.000000 -0.015843 0.000000
# 4 0.000000 0.000000 0.000000 0.096106 0.000000 0.023015
# 5 0.007700 -0.000567 -0.015843 0.000000 0.046555 0.000000
# 6 0.000000 0.000000 0.000000 0.023015 0.000000 0.046679
#
#
# Mechanical properties :
#
#
# Convention : Reuss Voigt Hill
#
# Bulk Modulus (GPa) = 43.38776 49.58854 46.48815
# Shear Modulus (GPa) = 17.30415 22.50852 19.90634
#
# Velocity S-wave (km/s) = 2.97950 3.39815 3.19569
# Velocity P-wave (km/s) = 5.83914 6.39035 6.12095
#
# Compressibility (1/GPa) = 0.02304797
#
# Stress axis : x y z
#
# Youngs Moduli (GPa) = 49.26305 81.33280 40.17313
#
# Poissons Ratio (x) = 0.41642 0.33371
# Poissons Ratio (y) = 0.25223 0.15236
# Poissons Ratio (z) = 0.40921 0.30847
#
# Static dielectric constant tensor:
#      x y z
#    x 3.447790 0.000000 -0.155700 
#    y 0.000000 3.732350 0.000000 
#    z -0.155700 0.000000 3.474110 
# 
# 
# High freq. dielectric constant tensor:
#      x y z
#    x 1.743670 0.000000 -0.012310 
#    y 0.000000 1.767840 0.000000 
#    z -0.012310 0.000000 1.754170 
# 
# From -- ./inp_files/183819.got.cif
#   From: 2010.06.25/outbox.cif.g09.slc.cpg/sg12_92_cif.got.tgz:183819.got - 2010.06.28 00:19:55.
