data_PCOD8107328
_publ_section_title
;
Structure prediction by ZEFSAII (Michael W. Deem and Ramdas Pophale) SiO2 
 PCOD8107328
Probable space group: C 2/M
;
_chemical_formula_sum "Si O2"
_cell_formula_units_Z 56
_cell_length_a 8.819204
_cell_length_b 17.528318
_cell_length_c 18.533336
_cell_angle_alpha 90.000000
_cell_angle_beta 103.764276
_cell_angle_gamma 90.000000
_cell_volume 2782.716334
_symmetry_space_group_name_H-M "C 2/M"
_symmetry_group_IT_number 12
_symmetry_cell_setting 'monoclinic'
loop_
_space_group_symop_operation_xyz
x,y,z
-x,y,-z
-x,-y,-z
x,-y,z
1/2+x,1/2+y,z
1/2-x,1/2+y,-z
1/2-x,1/2-y,-z
1/2+x,1/2-y,z
loop_
_atom_site_type_symbol
_atom_site_label
_atom_site_fract_x
_atom_site_fract_y
_atom_site_fract_z
Si Si1 0.042866 0.909705 0.426284
Si Si2 0.616582 0.909705 0.573716
Si Si3 0.897702 0.911631 0.151567
Si Si4 0.753865 0.411631 0.151568
Si Si5 0.822269 0.167417 1.000000
Si Si6 0.824225 0.831849 0.290416
Si Si7 0.466191 0.168152 0.290416
O O1 0.210260 0.876076 0.420519
O O2 0.000000 0.875938 0.500000
O O3 0.910253 0.888252 0.354682
O O4 0.051709 0.000000 0.430911
O O5 0.500000 0.875938 0.500000
O O6 0.555571 0.888251 0.645318
O O7 0.620798 0.000000 0.569090
O O8 0.806698 0.880511 0.071577
O O9 0.835693 0.864165 0.211574
O O10 0.082806 0.899783 0.165612
O O11 0.855655 0.000000 0.156868
O O12 0.801214 0.500000 0.156869
O O13 0.875881 0.364164 0.211575
O O14 0.764879 0.380511 0.071577
O O15 0.750000 0.250000 0.000000
O O16 0.000000 0.179396 0.000000
O O17 0.645816 0.824900 0.291631
O O18 0.902552 0.750000 0.305103
#
# Coordination Sequence:
#
# PCOD8107328 Si02
#       7
#     8   8   8   8   8   8   8
#     4  10  21  39  63  90 120 154 193 238 289 346
#     4  10  21  39  63  90 120 154 193 238 289 346
#     4  10  21  39  62  87 117 154 196 241 291 348
#     4  10  21  39  62  87 117 154 196 241 291 348
#     4  10  21  37  59  87 119 156 195 238 290 346
#     4  12  25  40  59  85 118 155 197 243 293 348
#     4  12  25  40  59  85 118 155 197 243 293 348
#
# _framework density 20.124222
#
# number of rings (size 3 to 8) (size 9 to 14) (size 15 to 20)
#    0.000    1.429    0.000    5.571    0.000   11.429 
#    0.000    2.857    0.000    2.571    0.000    0.000 
#    0.000    0.000    0.000    0.000    0.000    0.000 
#
# Total GULP energy -347350.590416 kJ/mol
# GULP energy per Si atom -12405.378229 kJ/mol
# Density = 2.007842 g / cm^3
# Si number density = 20.124222 Si / 1000 Ang^3
#
#
#
# Elastic Constant Matrix: (Units=GPa)
#
#
# Indices 1 2 3 4 5 6 
#
# 1 110.9830 18.9845 49.4982 0.0000 -0.1080 0.0000
# 2 18.9845 37.5843 -1.5351 0.0000 0.9659 0.0000
# 3 49.4982 -1.5351 132.0997 0.0000 -0.8849 0.0000
# 4 0.0000 0.0000 0.0000 19.1772 0.0000 0.6665
# 5 -0.1080 0.9659 -0.8849 0.0000 31.9303 0.0000
# 6 0.0000 0.0000 0.0000 0.6665 0.0000 33.3308
#
#
#
# Elastic Compliance Matrix: (Units=1/GPa)
#
#
# Indices 1 2 3 4 5 6 
#
# 1 0.012158 -0.006333 -0.004629 0.000000 0.000104 0.000000
# 2 -0.006333 0.029939 0.002715 0.000000 -0.000852 0.000000
# 3 -0.004629 0.002715 0.009337 0.000000 0.000161 0.000000
# 4 0.000000 0.000000 0.000000 0.052182 0.000000 -0.001043
# 5 0.000104 -0.000852 0.000161 0.000000 0.031349 0.000000
# 6 0.000000 0.000000 0.000000 -0.001043 0.000000 0.030023
#
#
# Mechanical properties :
#
#
# Convention : Reuss Voigt Hill
#
# Bulk Modulus (GPa) = 28.61976 46.06248 37.34112
# Shear Modulus (GPa) = 25.88969 31.13562 28.51265
#
# Velocity S-wave (km/s) = 3.59066 3.93768 3.76817
# Velocity P-wave (km/s) = 5.60740 6.60398 6.12599
#
# Compressibility (1/GPa) = 0.03494090
#
# Stress axis : x y z
#
# Youngs Moduli (GPa) = 82.24933 33.40174 107.10056
#
# Poissons Ratio (x) = 0.21153 0.49573
# Poissons Ratio (y) = 0.52089 -0.29080
# Poissons Ratio (z) = 0.38070 -0.09069
#
# Static dielectric constant tensor:
#      x y z
#    x 3.784660 0.000000 -0.004740 
#    y 0.000000 3.620560 0.000000 
#    z -0.004740 0.000000 3.885310 
# 
# 
# High freq. dielectric constant tensor:
#      x y z
#    x 1.789030 0.000000 -0.000760 
#    y 0.000000 1.788820 0.000000 
#    z -0.000760 0.000000 1.805210 
# 
# From -- ./inp_files/257131.got.cif
#   From: 2010.06.25/outbox.cif.g09.slc.cpg/sg12_129_cif.got.tgz:257131.got - 2010.06.28 00:19:55.
