data_PCOD8107734
_publ_section_title
;
Structure prediction by ZEFSAII (Michael W. Deem and Ramdas Pophale) SiO2 
 PCOD8107734
Probable space group: C 2/M
;
_chemical_formula_sum "Si O2"
_cell_formula_units_Z 40
_cell_length_a 21.917673
_cell_length_b 22.543734
_cell_length_c 5.062825
_cell_angle_alpha 90.000000
_cell_angle_beta 53.177081
_cell_angle_gamma 90.000000
_cell_volume 2002.488536
_symmetry_space_group_name_H-M "C 2/M"
_symmetry_group_IT_number 12
_symmetry_cell_setting 'monoclinic'
loop_
_space_group_symop_operation_xyz
x,y,z
-x,y,-z
-x,-y,-z
x,-y,z
1/2+x,1/2+y,z
1/2-x,1/2+y,-z
1/2-x,1/2-y,-z
1/2+x,1/2-y,z
loop_
_atom_site_type_symbol
_atom_site_label
_atom_site_fract_x
_atom_site_fract_y
_atom_site_fract_z
Si Si1 0.223550 0.500000 0.512324
Si Si2 0.293752 0.692531 0.793433
Si Si3 0.049772 0.253752 0.610467
Si Si4 0.576353 0.883117 0.636018
Si Si5 0.624401 0.000000 0.267109
Si Si6 0.757837 0.625348 0.578611
O O1 0.195653 0.500000 0.281368
O O2 0.273170 0.559917 0.426492
O O3 0.151188 0.500000 0.896264
O O4 0.381768 0.707965 0.525735
O O5 0.260183 0.672667 0.600010
O O6 0.250000 0.750000 0.000000
O O7 0.282573 0.642113 0.042156
O O8 0.077853 0.320870 0.470649
O O9 0.000000 0.229026 0.500000
O O10 0.000000 0.254564 0.000000
O O11 0.650831 0.881323 0.629944
O O12 0.576617 0.939450 0.438102
O O13 0.500000 0.888785 0.000000
#
# Coordination Sequence:
#
# PCOD8107734 Si02
#       6
#     4   8   8   8   4   8
#     4  10  22  38  61  84 122 151 208 248 292 351
#     4  12  24  39  64  88 122 156 202 244 304 355
#     4  11  25  40  59  88 120 158 200 246 298 355
#     4  10  22  36  58  82 126 165 210 241 286 336
#     4  10  21  38  52  82 118 171 210 240 276 331
#     4  11  23  40  60  90 118 162 200 249 297 350
#
# _framework density 19.975145999999999
#
# number of rings (size 3 to 8) (size 9 to 14) (size 15 to 20)
#    0.000    1.200    2.000    4.500    5.600    3.200 
#    0.000    4.500    0.000    0.000    0.000   14.000 
#    0.000    0.000    0.000    0.000    0.000    0.000 
#
# Total GULP energy -247991.490674 kJ/mol
# GULP energy per Si atom -12399.574534 kJ/mol
# Density = 1.992968 g / cm^3
# Si number density = 19.975146 Si / 1000 Ang^3
#
#
#
# Elastic Constant Matrix: (Units=GPa)
#
#
# Indices 1 2 3 4 5 6 
#
# 1 93.4403 31.1510 33.6246 0.0000 -1.2533 0.0000
# 2 31.1510 109.4187 49.5530 0.0000 -17.3740 0.0000
# 3 33.6246 49.5530 92.9876 0.0000 -0.2002 0.0000
# 4 0.0000 0.0000 0.0000 38.9039 0.0000 1.6275
# 5 -1.2533 -17.3740 -0.2002 0.0000 29.4822 0.0000
# 6 0.0000 0.0000 0.0000 1.6275 0.0000 22.4415
#
#
#
# Elastic Compliance Matrix: (Units=1/GPa)
#
#
# Indices 1 2 3 4 5 6 
#
# 1 0.012646 -0.002175 -0.003415 0.000000 -0.000768 0.000000
# 2 -0.002175 0.014092 -0.006705 0.000000 0.008166 0.000000
# 3 -0.003415 -0.006705 0.015554 0.000000 -0.003991 0.000000
# 4 0.000000 0.000000 0.000000 0.025783 0.000000 -0.001870
# 5 -0.000768 0.008166 -0.003991 0.000000 0.038671 0.000000
# 6 0.000000 0.000000 0.000000 -0.001870 0.000000 0.044696
#
#
# Mechanical properties :
#
#
# Convention : Reuss Voigt Hill
#
# Bulk Modulus (GPa) = 56.49826 58.27819 57.38822
# Shear Modulus (GPa) = 27.48258 30.26672 28.87465
#
# Velocity S-wave (km/s) = 3.71325 3.89680 3.80614
# Velocity P-wave (km/s) = 6.83594 7.03459 6.93597
#
# Compressibility (1/GPa) = 0.01769966
#
# Stress axis : x y z
#
# Youngs Moduli (GPa) = 79.07681 70.96259 64.29336
#
# Poissons Ratio (x) = 0.15438 0.21957
# Poissons Ratio (y) = 0.17203 0.43111
# Poissons Ratio (z) = 0.27006 0.47583
#
# Static dielectric constant tensor:
#      x y z
#    x 3.500100 0.000000 0.030780 
#    y 0.000000 4.289400 0.000000 
#    z 0.030780 0.000000 3.640110 
# 
# 
# High freq. dielectric constant tensor:
#      x y z
#    x 1.762790 0.000000 0.021020 
#    y 0.000000 1.790170 0.000000 
#    z 0.021020 0.000000 1.772320 
# 
# From -- ./inp_files/21141.got.cif
#   From: 2010.06.25/outbox.cif.g09.slc.cpg/sg12_11_cif.got.tgz:21141.got - 2010.06.28 00:19:55.
