data_PCOD8107702
_publ_section_title
;
Structure prediction by ZEFSAII (Michael W. Deem and Ramdas Pophale) SiO2 
 PCOD8107702
Probable space group: C 2/M
;
_chemical_formula_sum "Si O2"
_cell_formula_units_Z 64
_cell_length_a 18.196070
_cell_length_b 13.965671
_cell_length_c 15.064470
_cell_angle_alpha 90.000000
_cell_angle_beta 48.002632
_cell_angle_gamma 90.000000
_cell_volume 2845.015803
_symmetry_space_group_name_H-M "C 2/M"
_symmetry_group_IT_number 12
_symmetry_cell_setting 'monoclinic'
loop_
_space_group_symop_operation_xyz
x,y,z
-x,y,-z
-x,-y,-z
x,-y,z
1/2+x,1/2+y,z
1/2-x,1/2+y,-z
1/2-x,1/2-y,-z
1/2+x,1/2-y,z
loop_
_atom_site_type_symbol
_atom_site_label
_atom_site_fract_x
_atom_site_fract_y
_atom_site_fract_z
Si Si1 0.483588 0.890157 0.413071
Si Si2 0.297542 0.853109 0.465884
Si Si3 0.746671 0.610138 0.176070
Si Si4 0.109727 0.894003 0.883516
Si Si5 0.400935 0.397469 0.310239
Si Si6 0.070599 0.220624 0.246215
Si Si7 0.896599 0.729573 0.973215
Si Si8 0.403830 0.109966 0.197436
O O1 0.500000 0.859973 0.500000
O O2 0.368407 0.866869 0.492524
O O3 0.555256 0.828169 0.292534
O O4 0.510313 0.000000 0.372055
O O5 0.250000 0.750000 0.500000
O O6 0.203127 0.920197 0.557369
O O7 0.367559 0.878662 0.326942
O O8 0.720083 0.500000 0.187119
O O9 0.642316 0.665798 0.256536
O O10 0.807410 0.632975 0.216628
O O11 0.818291 0.643043 0.038282
O O12 0.114193 0.855165 0.777556
O O13 0.164705 0.000000 0.847471
O O14 0.142868 0.807968 0.922292
O O15 0.000000 0.915728 0.000000
O O16 0.455942 0.500000 0.256063
O O17 0.463344 0.329172 0.324517
O O18 0.115279 0.219962 0.111610
O O19 0.006887 0.683782 0.899096
O O20 0.439770 0.000000 0.152724
#
# Coordination Sequence:
#
# PCOD8107702 Si02
#       8
#     8   8   8   8   8   8   8   8
#     4  11  26  47  70  99 140 183 228 285 346 410
#     4  12  24  43  71 106 135 175 231 285 339 408
#     4  11  27  44  65  99 139 181 227 282 347 414
#     4  10  21  37  63  99 136 175 227 283 335 400
#     4  11  23  41  69 102 139 185 230 283 346 404
#     4  12  25  43  67  98 138 182 227 282 343 415
#     4  12  23  42  71 100 133 184 234 286 346 405
#     4  11  24  44  72 102 137 177 231 291 341 408
#
# _framework density 22.495481000000002
#
# number of rings (size 3 to 8) (size 9 to 14) (size 15 to 20)
#    0.000    0.750    3.750    3.375    3.500    2.000 
#    0.000    1.875    0.000    3.750    0.000    0.000 
#    0.000    0.000    0.000    0.000    0.000    0.000 
#
# Total GULP energy -396540.944288 kJ/mol
# GULP energy per Si atom -12391.904509 kJ/mol
# Density = 2.244428 g / cm^3
# Si number density = 22.495481 Si / 1000 Ang^3
#
#
#
# Elastic Constant Matrix: (Units=GPa)
#
#
# Indices 1 2 3 4 5 6 
#
# 1 129.7021 49.4529 36.1942 0.0000 -2.4389 0.0000
# 2 49.4529 119.5690 32.2659 0.0000 7.9763 0.0000
# 3 36.1942 32.2659 79.1934 0.0000 -8.8912 0.0000
# 4 0.0000 0.0000 0.0000 30.3013 0.0000 5.5481
# 5 -2.4389 7.9763 -8.8912 0.0000 26.7612 0.0000
# 6 0.0000 0.0000 0.0000 5.5481 0.0000 31.4306
#
#
#
# Elastic Compliance Matrix: (Units=1/GPa)
#
#
# Indices 1 2 3 4 5 6 
#
# 1 0.009838 -0.003303 -0.003053 0.000000 0.000866 0.000000
# 2 -0.003303 0.010990 -0.003500 0.000000 -0.004740 0.000000
# 3 -0.003053 -0.003500 0.016137 0.000000 0.006126 0.000000
# 4 0.000000 0.000000 0.000000 0.034104 0.000000 -0.006020
# 5 0.000866 -0.004740 0.006126 0.000000 0.040895 0.000000
# 6 0.000000 0.000000 0.000000 -0.006020 0.000000 0.032879
#
#
# Mechanical properties :
#
#
# Convention : Reuss Voigt Hill
#
# Bulk Modulus (GPa) = 57.96488 62.69895 60.33191
# Shear Modulus (GPa) = 29.35909 31.73538 30.54723
#
# Velocity S-wave (km/s) = 3.61655 3.76006 3.68900
# Velocity P-wave (km/s) = 6.57743 6.83981 6.70990
#
# Compressibility (1/GPa) = 0.01725183
#
# Stress axis : x y z
#
# Youngs Moduli (GPa) = 101.65174 90.99112 61.97037
#
# Poissons Ratio (x) = 0.30051 0.18921
# Poissons Ratio (y) = 0.33572 0.21692
# Poissons Ratio (z) = 0.31036 0.31851
#
# Static dielectric constant tensor:
#      x y z
#    x 4.018280 0.000000 0.125490 
#    y 0.000000 4.614030 0.000000 
#    z 0.125490 0.000000 4.016150 
# 
# 
# High freq. dielectric constant tensor:
#      x y z
#    x 1.874470 0.000000 0.005560 
#    y 0.000000 1.912810 0.000000 
#    z 0.005560 0.000000 1.875270 
# 
# From -- ./inp_files/225697.got.cif
#   From: 2010.06.25/outbox.cif.g09.slc.cpg/sg12_113_cif.got.tgz:225697.got - 2010.06.28 00:19:55.
