data_PCOD8107945
_publ_section_title
;
Structure prediction by ZEFSAII (Michael W. Deem and Ramdas Pophale) SiO2 
 PCOD8107945
Probable space group: C 2/M
;
_chemical_formula_sum "Si O2"
_cell_formula_units_Z 64
_cell_length_a 20.102430
_cell_length_b 9.237409
_cell_length_c 17.331920
_cell_angle_alpha 90.000000
_cell_angle_beta 89.925473
_cell_angle_gamma 90.000000
_cell_volume 3218.437205
_symmetry_space_group_name_H-M "C 2/M"
_symmetry_group_IT_number 12
_symmetry_cell_setting 'monoclinic'
loop_
_space_group_symop_operation_xyz
x,y,z
-x,y,-z
-x,-y,-z
x,-y,z
1/2+x,1/2+y,z
1/2-x,1/2+y,-z
1/2-x,1/2-y,-z
1/2+x,1/2-y,z
loop_
_atom_site_type_symbol
_atom_site_label
_atom_site_fract_x
_atom_site_fract_y
_atom_site_fract_z
Si Si1 0.502680 0.332938 0.819002
Si Si2 0.386441 0.332223 0.937191
Si Si3 0.887151 0.328954 0.092939
Si Si4 0.857552 0.831296 0.416518
Si Si5 0.620800 0.831121 0.430137
Si Si6 0.743355 0.669341 0.152641
Si Si7 0.996595 0.833443 0.642714
Si Si8 0.263795 0.832206 0.688672
O O1 0.524776 0.500000 0.826825
O O2 0.438894 0.296928 0.870441
O O3 0.564112 0.232758 0.842298
O O4 0.482887 0.295989 0.731679
O O5 0.388983 0.500000 0.961127
O O6 0.313757 0.286294 0.907688
O O7 0.406286 0.238240 0.010800
O O8 0.895386 0.500000 0.088138
O O9 0.812797 0.281802 0.115548
O O10 0.848545 0.741298 0.494263
O O11 0.927460 0.797242 0.376414
O O12 0.800690 0.778750 0.357992
O O13 0.849097 0.000000 0.436630
O O14 0.549143 0.764187 0.411442
O O15 0.670247 0.799503 0.359888
O O16 0.611949 0.000000 0.445955
O O17 0.741248 0.500000 0.169819
O O18 0.730138 0.746687 0.232634
O O19 0.979830 0.000000 0.624385
O O20 0.256788 0.000000 0.709084
#
# Coordination Sequence:
#
# PCOD8107945 Si02
#       8
#     8   8   8   8   8   8   8   8
#     4  10  21  38  60  83 109 147 191 230 271 325
#     4  10  21  38  59  82 110 148 192 229 267 326
#     4  11  23  37  56  85 117 146 180 228 284 332
#     4  10  21  38  59  82 110 148 192 229 267 326
#     4  11  23  37  56  85 117 146 180 228 284 332
#     4  10  22  39  59  84 112 145 186 230 277 329
#     4  10  21  38  60  83 109 147 191 230 271 325
#     4  10  22  39  59  84 112 145 186 230 277 329
#
# _framework density 19.885428000000001
#
# number of rings (size 3 to 8) (size 9 to 14) (size 15 to 20)
#    0.000    1.750    0.000    3.750    0.000    9.500 
#    0.000    0.000    0.000    0.000    0.000    0.000 
#    0.000    0.000    0.000    0.000    0.000    0.000 
#
# Total GULP energy -397029.165310 kJ/mol
# GULP energy per Si atom -12407.161416 kJ/mol
# Density = 1.984017 g / cm^3
# Si number density = 19.885428 Si / 1000 Ang^3
#
#
#
# Elastic Constant Matrix: (Units=GPa)
#
#
# Indices 1 2 3 4 5 6 
#
# 1 75.6229 22.8736 -10.2736 0.0000 8.3353 0.0000
# 2 22.8736 54.5008 25.4889 0.0000 -4.9343 0.0000
# 3 -10.2736 25.4889 67.2305 0.0000 -5.6190 0.0000
# 4 0.0000 0.0000 0.0000 36.4098 0.0000 2.1891
# 5 8.3353 -4.9343 -5.6190 0.0000 21.2010 0.0000
# 6 0.0000 0.0000 0.0000 2.1891 0.0000 32.0373
#
#
#
# Elastic Compliance Matrix: (Units=1/GPa)
#
#
# Indices 1 2 3 4 5 6 
#
# 1 0.018519 -0.011572 0.006528 0.000000 -0.008244 0.000000
# 2 -0.011572 0.029724 -0.012353 0.000000 0.008194 0.000000
# 3 0.006528 -0.012353 0.020555 0.000000 0.000006 0.000000
# 4 0.000000 0.000000 0.000000 0.027578 0.000000 -0.001884
# 5 -0.008244 0.008194 0.000006 0.000000 0.052317 0.000000
# 6 0.000000 0.000000 0.000000 -0.001884 0.000000 0.031342
#
#
# Mechanical properties :
#
#
# Convention : Reuss Voigt Hill
#
# Bulk Modulus (GPa) = 29.40667 30.39245 29.89956
# Shear Modulus (GPa) = 22.10781 28.54731 25.32756
#
# Velocity S-wave (km/s) = 3.33792 3.79303 3.57273
# Velocity P-wave (km/s) = 5.44755 5.87365 5.66461
#
# Compressibility (1/GPa) = 0.03400589
#
# Stress axis : x y z
#
# Youngs Moduli (GPa) = 53.99826 33.64313 48.64884
#
# Poissons Ratio (x) = 0.38931 -0.31758
# Poissons Ratio (y) = 0.62485 0.60094
# Poissons Ratio (z) = -0.35250 0.41558
#
# Static dielectric constant tensor:
#      x y z
#    x 3.782970 0.000000 -0.023000 
#    y 0.000000 3.530490 0.000000 
#    z -0.023000 0.000000 3.625480 
# 
# 
# High freq. dielectric constant tensor:
#      x y z
#    x 1.791140 0.000000 -0.000760 
#    y 0.000000 1.768030 0.000000 
#    z -0.000760 0.000000 1.786390 
# 
# From -- ./inp_files/281267.got.cif
#   From: 2010.06.25/outbox.cif.g09.slc.cpg/sg12_141_cif.got.tgz:281267.got - 2010.06.28 00:19:55.
