data_PCOD8107016
_publ_section_title
;
Structure prediction by ZEFSAII (Michael W. Deem and Ramdas Pophale) SiO2 
 PCOD8107016
Probable space group: C 2/M
;
_chemical_formula_sum "Si O2"
_cell_formula_units_Z 56
_cell_length_a 27.487955
_cell_length_b 8.843942
_cell_length_c 19.029688
_cell_angle_alpha 90.000000
_cell_angle_beta 35.973785
_cell_angle_gamma 90.000000
_cell_volume 2717.471780
_symmetry_space_group_name_H-M "C 2/M"
_symmetry_group_IT_number 12
_symmetry_cell_setting 'monoclinic'
loop_
_space_group_symop_operation_xyz
x,y,z
-x,y,-z
-x,-y,-z
x,-y,z
1/2+x,1/2+y,z
1/2-x,1/2+y,-z
1/2-x,1/2-y,-z
1/2+x,1/2-y,z
loop_
_atom_site_type_symbol
_atom_site_label
_atom_site_fract_x
_atom_site_fract_y
_atom_site_fract_z
Si Si1 0.609799 0.672703 0.178631
Si Si2 0.939476 0.676462 0.380642
Si Si3 0.161327 0.823523 0.623295
Si Si4 0.201703 0.166499 0.210428
Si Si5 0.380658 0.170820 0.970560
Si Si6 0.079741 0.675372 0.444666
Si Si7 0.477700 0.323090 0.106973
O O1 0.577628 0.500000 0.216018
O O2 0.536172 0.791073 0.277584
O O3 0.681379 0.697175 0.152429
O O4 0.645105 0.716427 0.061668
O O5 0.923020 0.500000 0.384288
O O6 0.903766 0.775673 0.359676
O O7 0.900589 0.733344 0.499760
O O8 0.250000 0.750000 0.500000
O O9 0.116199 0.785477 0.752502
O O10 0.178182 0.000000 0.600141
O O11 0.160919 0.294614 0.305032
O O12 0.167287 0.000000 0.271354
O O13 0.298958 0.172477 0.114063
O O14 0.459856 0.227310 0.919498
O O15 0.399320 0.000000 0.922182
O O16 0.060485 0.500000 0.473477
O O17 0.000000 0.754019 0.500000
O O18 0.494796 0.500000 0.098138
O O19 0.500000 0.278740 0.000000
#
# Coordination Sequence:
#
# PCOD8107016 Si02
#       7
#     8   8   8   8   8   8   8
#     4  11  21  36  59  87 120 161 205 246 299 360
#     4  11  22  38  62  90 122 159 202 250 303 362
#     4  11  24  43  68  96 126 160 207 259 318 381
#     4  10  23  38  56  88 126 164 206 252 303 362
#     4  11  23  39  60  89 123 159 204 255 306 365
#     4  10  21  37  57  85 120 162 208 250 299 359
#     4  10  23  44  68  93 123 161 207 259 316 380
#
# _framework density 20.607389000000001
#
# number of rings (size 3 to 8) (size 9 to 14) (size 15 to 20)
#    0.000    1.429    2.857    2.143    0.000    5.143 
#    0.000    4.286    0.000    0.000    0.000    0.000 
#    0.000    0.000    0.000    0.000    0.000    0.000 
#
# Total GULP energy -346927.504815 kJ/mol
# GULP energy per Si atom -12390.268029 kJ/mol
# Density = 2.056049 g / cm^3
# Si number density = 20.607389 Si / 1000 Ang^3
#
#
#
# Elastic Constant Matrix: (Units=GPa)
#
#
# Indices 1 2 3 4 5 6 
#
# 1 61.2899 25.8811 50.1411 -0.0127 0.9093 0.0105
# 2 25.8811 51.1920 39.5522 -0.0109 0.9853 0.0067
# 3 50.1411 39.5522 140.1989 -0.0151 5.8102 0.0156
# 4 -0.0127 -0.0109 -0.0151 33.1785 0.0118 -0.5036
# 5 0.9093 0.9853 5.8102 0.0118 38.0028 -0.0110
# 6 0.0105 0.0067 0.0156 -0.5036 -0.0110 23.1714
#
#
#
# Elastic Compliance Matrix: (Units=1/GPa)
#
#
# Indices 1 2 3 4 5 6 
#
# 1 0.025068 -0.007338 -0.006922 0.000004 0.000649 -0.000004
# 2 -0.007338 0.027134 -0.005041 0.000004 0.000243 -0.000001
# 3 -0.006922 -0.005041 0.011088 0.000001 -0.001399 -0.000003
# 4 0.000004 0.000004 0.000001 0.030150 -0.000010 0.000655
# 5 0.000649 0.000243 -0.001399 -0.000010 0.026506 0.000013
# 6 -0.000004 -0.000001 -0.000003 0.000655 0.000013 0.043171
#
#
# Mechanical properties :
#
#
# Convention : Reuss Voigt Hill
#
# Bulk Modulus (GPa) = 40.50385 53.75884 47.13135
# Shear Modulus (GPa) = 23.81546 28.01096 25.91321
#
# Velocity S-wave (km/s) = 3.40321 3.69082 3.54993
# Velocity P-wave (km/s) = 5.92791 6.65633 6.30265
#
# Compressibility (1/GPa) = 0.02468901
#
# Stress axis : x y z
#
# Youngs Moduli (GPa) = 39.89186 36.85420 90.18472
#
# Poissons Ratio (x) = 0.27043 0.62426
# Poissons Ratio (y) = 0.29272 0.45459
# Poissons Ratio (z) = 0.27613 0.18577
#
# Static dielectric constant tensor:
#      x y z
#    x 3.693840 -0.000030 0.211000 
#    y -0.000030 3.684430 0.000060 
#    z 0.211000 0.000060 3.988770 
# 
# 
# High freq. dielectric constant tensor:
#      x y z
#    x 1.792290 0.000000 0.003810 
#    y 0.000000 1.804960 0.000000 
#    z 0.003810 0.000000 1.816010 
# 
# From -- ./inp_files/292402.got.cif
#   From: 2010.06.25/outbox.cif.g09.slc.cpg/sg12_147_cif.got.tgz:292402.got - 2010.06.28 00:19:55.
