data_PCOD8107134
_publ_section_title
;
Structure prediction by ZEFSAII (Michael W. Deem and Ramdas Pophale) SiO2 
 PCOD8107134
Probable space group: C 2/M
;
_chemical_formula_sum "Si O2"
_cell_formula_units_Z 40
_cell_length_a 17.823035
_cell_length_b 8.835567
_cell_length_c 13.517782
_cell_angle_alpha 90.000000
_cell_angle_beta 108.989309
_cell_angle_gamma 90.000000
_cell_volume 2012.887407
_symmetry_space_group_name_H-M "C 2/M"
_symmetry_group_IT_number 12
_symmetry_cell_setting 'monoclinic'
loop_
_space_group_symop_operation_xyz
x,y,z
-x,y,-z
-x,-y,-z
x,-y,z
1/2+x,1/2+y,z
1/2-x,1/2+y,-z
1/2-x,1/2-y,-z
1/2+x,1/2-y,z
loop_
_atom_site_type_symbol
_atom_site_label
_atom_site_fract_x
_atom_site_fract_y
_atom_site_fract_z
Si Si1 0.539910 0.824636 0.803984
Si Si2 0.832088 0.822023 0.003272
Si Si3 0.866266 0.676299 0.810579
Si Si4 0.235061 0.177803 0.598816
Si Si5 0.566103 0.674553 0.610417
O O1 0.600629 0.723866 0.890915
O O2 0.452108 0.789440 0.803702
O O3 0.544245 0.781548 0.691558
O O4 0.561769 0.000000 0.827475
O O5 0.821804 0.000000 0.000893
O O6 0.750000 0.750000 0.000000
O O7 0.856784 0.770805 0.905435
O O8 0.854302 0.500000 0.830361
O O9 0.801546 0.733948 0.704170
O O10 0.250000 0.250000 0.500000
O O11 0.149923 0.228815 0.602952
O O12 0.239663 0.000000 0.586350
O O13 0.500000 0.699461 0.500000
O O14 0.569858 0.500000 0.646748
#
# Coordination Sequence:
#
# PCOD8107134 Si02
#       5
#     8   8   8   8   8
#     4  11  23  39  61  88 119 157 200 247 298 353
#     4  12  25  41  63  89 118 154 196 243 297 357
#     4  10  22  40  60  86 121 158 198 245 295 349
#     4  10  21  37  58  84 116 154 194 242 297 350
#     4  10  21  37  58  86 120 158 202 251 299 349
#
# _framework density 19.871950999999999
#
# number of rings (size 3 to 8) (size 9 to 14) (size 15 to 20)
#    0.000    1.400    0.000    5.400    0.000    7.600 
#    0.000    0.000    0.000    0.000    0.000    0.000 
#    0.000    0.000    0.000    0.000    0.000    0.000 
#
# Total GULP energy -248133.846404 kJ/mol
# GULP energy per Si atom -12406.692320 kJ/mol
# Density = 1.982672 g / cm^3
# Si number density = 19.871951 Si / 1000 Ang^3
#
#
#
# Elastic Constant Matrix: (Units=GPa)
#
#
# Indices 1 2 3 4 5 6 
#
# 1 160.2411 62.1919 69.5199 0.0000 0.1779 0.0000
# 2 62.1919 84.8651 52.5635 0.0000 -9.4904 0.0000
# 3 69.5199 52.5635 132.8144 0.0000 -7.1587 0.0000
# 4 0.0000 0.0000 0.0000 40.7524 0.0000 -2.2294
# 5 0.1779 -9.4904 -7.1587 0.0000 44.1998 0.0000
# 6 0.0000 0.0000 0.0000 -2.2294 0.0000 24.3639
#
#
#
# Elastic Compliance Matrix: (Units=1/GPa)
#
#
# Indices 1 2 3 4 5 6 
#
# 1 0.009637 -0.005392 -0.003001 0.000000 -0.001683 0.000000
# 2 -0.005392 0.018877 -0.004468 0.000000 0.003351 0.000000
# 3 -0.003001 -0.004468 0.010913 0.000000 0.000820 0.000000
# 4 0.000000 0.000000 0.000000 0.024662 0.000000 0.002257
# 5 -0.001683 0.003351 0.000820 0.000000 0.023484 0.000000
# 6 0.000000 0.000000 0.000000 0.002257 0.000000 0.041251
#
#
# Mechanical properties :
#
#
# Convention : Reuss Voigt Hill
#
# Bulk Modulus (GPa) = 72.96698 82.94123 77.95411
# Shear Modulus (GPa) = 31.42423 34.77293 33.09858
#
# Velocity S-wave (km/s) = 3.98092 4.18766 4.08559
# Velocity P-wave (km/s) = 7.61108 8.07530 7.84662
#
# Compressibility (1/GPa) = 0.01370483
#
# Stress axis : x y z
#
# Youngs Moduli (GPa) = 103.76538 52.97548 91.63593
#
# Poissons Ratio (x) = 0.28562 0.27503
# Poissons Ratio (y) = 0.55946 0.40942
# Poissons Ratio (z) = 0.31143 0.23669
#
# Static dielectric constant tensor:
#      x y z
#    x 3.911860 0.000000 0.095610 
#    y 0.000000 3.599090 0.000000 
#    z 0.095610 0.000000 3.768660 
# 
# 
# High freq. dielectric constant tensor:
#      x y z
#    x 1.797770 0.000000 0.002430 
#    y 0.000000 1.771940 0.000000 
#    z 0.002430 0.000000 1.792410 
# 
# From -- ./inp_files/151630.got.cif
#   From: 2010.06.25/outbox.cif.g09.slc.cpg/sg12_76_cif.got.tgz:151630.got - 2010.06.28 00:19:55.
