data_PCOD8107301
_publ_section_title
;
Structure prediction by ZEFSAII (Michael W. Deem and Ramdas Pophale) SiO2 
 PCOD8107301
Probable space group: C 2/M
;
_chemical_formula_sum "Si O2"
_cell_formula_units_Z 64
_cell_length_a 24.274727
_cell_length_b 8.807610
_cell_length_c 15.296636
_cell_angle_alpha 90.000000
_cell_angle_beta 89.656112
_cell_angle_gamma 90.000000
_cell_volume 3270.397485
_symmetry_space_group_name_H-M "C 2/M"
_symmetry_group_IT_number 12
_symmetry_cell_setting 'monoclinic'
loop_
_space_group_symop_operation_xyz
x,y,z
-x,y,-z
-x,-y,-z
x,-y,z
1/2+x,1/2+y,z
1/2-x,1/2+y,-z
1/2-x,1/2-y,-z
1/2+x,1/2-y,z
loop_
_atom_site_type_symbol
_atom_site_label
_atom_site_fract_x
_atom_site_fract_y
_atom_site_fract_z
Si Si1 0.131722 0.830052 0.639992
Si Si2 0.477081 0.172350 0.403669
Si Si3 0.126316 0.169897 0.843672
Si Si4 0.815939 0.679814 0.743761
Si Si5 0.742330 0.178154 0.594123
Si Si6 0.442211 0.179319 0.750848
Si Si7 0.011438 0.820127 0.901376
Si Si8 0.241561 0.819265 0.905490
O O1 0.076591 0.776461 0.593134
O O2 0.119288 0.831160 0.741309
O O3 0.180322 0.712810 0.622880
O O4 0.147318 0.000000 0.607216
O O5 0.500000 0.181513 0.500000
O O6 0.522293 0.233089 0.333561
O O7 0.460741 0.000000 0.379225
O O8 0.071741 0.251567 0.881117
O O9 0.183216 0.248815 0.872140
O O10 0.128077 0.000000 0.881791
O O11 0.810143 0.500000 0.732954
O O12 0.785379 0.753820 0.662252
O O13 0.879195 0.734701 0.740929
O O14 0.788358 0.732703 0.835836
O O15 0.750000 0.250000 0.500000
O O16 0.751801 0.000000 0.588867
O O17 0.465625 0.249790 0.839213
O O18 0.443502 0.000000 0.760206
O O19 0.010835 0.000000 0.886446
O O20 0.000000 0.772571 0.000000
O O21 0.241272 0.000000 0.911617
O O22 0.250000 0.750000 0.000000
#
# Coordination Sequence:
#
# PCOD8107301 Si02
#       8
#     8   8   8   8   8   8   8   8
#     4  11  21  40  66  90 120 159 204 254 306 359
#     4  10  22  39  59  89 123 159 201 248 303 360
#     4   9  18  36  59  83 115 154 196 250 305 352
#     4  10  22  42  62  85 123 166 203 249 308 366
#     4  12  26  43  65  94 124 159 204 252 305 366
#     4  10  22  39  59  85 122 160 196 246 306 361
#     4  10  21  37  59  86 117 158 205 252 304 360
#     4  10  21  38  59  85 118 155 201 250 304 360
#
# _framework density 19.569486999999999
#
# number of rings (size 3 to 8) (size 9 to 14) (size 15 to 20)
#    0.000    1.750    2.500    1.500    3.500    1.500 
#    0.000    0.625    0.000    0.000    0.000    0.000 
#    0.000    0.000    0.000    0.000    0.000    0.000 
#
# Total GULP energy -396777.319388 kJ/mol
# GULP energy per Si atom -12399.291231 kJ/mol
# Density = 1.952495 g / cm^3
# Si number density = 19.569487 Si / 1000 Ang^3
#
#
#
# Elastic Constant Matrix: (Units=GPa)
#
#
# Indices 1 2 3 4 5 6 
#
# 1 154.3713 28.2625 54.4378 0.0000 1.3738 0.0000
# 2 28.2625 37.4816 27.3537 0.0000 3.4252 0.0000
# 3 54.4378 27.3537 120.8684 0.0000 3.5495 0.0000
# 4 0.0000 0.0000 0.0000 23.5829 0.0000 5.9106
# 5 1.3738 3.4252 3.5495 0.0000 31.5245 0.0000
# 6 0.0000 0.0000 0.0000 5.9106 0.0000 26.8081
#
#
#
# Elastic Compliance Matrix: (Units=1/GPa)
#
#
# Indices 1 2 3 4 5 6 
#
# 1 0.008220 -0.004223 -0.002759 0.000000 0.000411 0.000000
# 2 -0.004223 0.034352 -0.005787 0.000000 -0.002897 0.000000
# 3 -0.002759 -0.005787 0.010840 0.000000 -0.000471 0.000000
# 4 0.000000 0.000000 0.000000 0.044884 0.000000 -0.009896
# 5 0.000411 -0.002897 -0.000471 0.000000 0.032071 0.000000
# 6 0.000000 0.000000 0.000000 -0.009896 0.000000 0.039484
#
#
# Mechanical properties :
#
#
# Convention : Reuss Voigt Hill
#
# Bulk Modulus (GPa) = 35.87517 59.20324 47.53921
# Shear Modulus (GPa) = 24.42845 29.89425 27.16135
#
# Velocity S-wave (km/s) = 3.53695 3.91269 3.72955
# Velocity P-wave (km/s) = 5.92048 7.12255 6.54915
#
# Compressibility (1/GPa) = 0.02787443
#
# Stress axis : x y z
#
# Youngs Moduli (GPa) = 121.65230 29.11040 92.25489
#
# Poissons Ratio (x) = 0.12292 0.25451
# Poissons Ratio (y) = 0.51369 0.53391
# Poissons Ratio (z) = 0.33561 0.16847
#
# Static dielectric constant tensor:
#      x y z
#    x 3.987270 0.000000 -0.164200 
#    y 0.000000 3.522050 0.000000 
#    z -0.164200 0.000000 3.713400 
# 
# 
# High freq. dielectric constant tensor:
#      x y z
#    x 1.780500 0.000000 -0.002080 
#    y 0.000000 1.740430 0.000000 
#    z -0.002080 0.000000 1.771580 
# 
# From -- ./inp_files/238584.got.cif
#   From: 2010.06.25/outbox.cif.g09.slc.cpg/sg12_120_cif.got.tgz:238584.got - 2010.06.28 00:19:55.
