data_PCOD8107182
_publ_section_title
;
Structure prediction by ZEFSAII (Michael W. Deem and Ramdas Pophale) SiO2 
 PCOD8107182
Probable space group: C 2/M
;
_chemical_formula_sum "Si O2"
_cell_formula_units_Z 48
_cell_length_a 14.516605
_cell_length_b 17.825969
_cell_length_c 11.409434
_cell_angle_alpha 90.000000
_cell_angle_beta 121.635446
_cell_angle_gamma 90.000000
_cell_volume 2513.722214
_symmetry_space_group_name_H-M "C 2/M"
_symmetry_group_IT_number 12
_symmetry_cell_setting 'monoclinic'
loop_
_space_group_symop_operation_xyz
x,y,z
-x,y,-z
-x,-y,-z
x,-y,z
1/2+x,1/2+y,z
1/2-x,1/2+y,-z
1/2-x,1/2-y,-z
1/2+x,1/2-y,z
loop_
_atom_site_type_symbol
_atom_site_label
_atom_site_fract_x
_atom_site_fract_y
_atom_site_fract_z
Si Si1 0.895187 0.310350 0.644343
Si Si2 0.825584 0.085671 0.146665
Si Si3 0.749929 0.191429 0.660574
Si Si4 0.393869 0.087145 0.864983
Si Si5 0.122633 0.086467 0.082978
Si Si6 0.926901 0.219087 0.339459
O O1 0.841477 0.232464 0.647159
O O2 0.837886 0.342942 0.488753
O O3 0.884420 0.373464 0.734107
O O4 0.018519 0.286312 0.699192
O O5 0.708024 0.103724 0.120523
O O6 0.914293 0.141817 0.259420
O O7 0.860632 0.000000 0.198923
O O8 0.820688 0.098335 0.004373
O O9 0.804372 0.126560 0.771951
O O10 0.691861 0.252126 0.705152
O O11 0.406944 0.000000 0.846160
O O12 0.500000 0.119078 0.000000
O O13 0.118650 0.000000 0.117440
O O14 0.000000 0.118954 0.000000
O O15 0.000000 0.199178 0.500000
#
# Coordination Sequence:
#
# PCOD8107182 Si02
#       6
#     8   8   8   8   8   8
#     4  10  21  38  59  84 116 150 190 236 285 340
#     4  10  21  39  60  85 116 149 191 239 287 340
#     4  10  21  38  58  83 115 151 189 238 285 335
#     4  10  22  39  59  85 116 151 191 236 285 338
#     4  10  22  39  58  84 116 151 192 237 287 340
#     4  10  21  37  58  86 117 149 189 237 287 341
#
# _framework density 19.095189000000001
#
# number of rings (size 3 to 8) (size 9 to 14) (size 15 to 20)
#    0.000    2.000    1.667    1.000    2.333    3.667 
#    0.000    0.000    0.000    3.000    0.000    0.000 
#    0.000    0.000    0.000    0.000    0.000    0.000 
#
# Total GULP energy -297627.288953 kJ/mol
# GULP energy per Si atom -12401.137040 kJ/mol
# Density = 1.905173 g / cm^3
# Si number density = 19.095189 Si / 1000 Ang^3
#
#
#
# Elastic Constant Matrix: (Units=GPa)
#
#
# Indices 1 2 3 4 5 6 
#
# 1 92.6226 32.7695 49.6272 0.0000 -6.6107 0.0000
# 2 32.7695 74.3786 70.0959 0.0000 0.3003 0.0000
# 3 49.6272 70.0959 122.1238 0.0000 -2.4753 0.0000
# 4 0.0000 0.0000 0.0000 36.1076 0.0000 -5.2818
# 5 -6.6107 0.3003 -2.4753 0.0000 28.8568 0.0000
# 6 0.0000 0.0000 0.0000 -5.2818 0.0000 28.2287
#
#
#
# Elastic Compliance Matrix: (Units=1/GPa)
#
#
# Indices 1 2 3 4 5 6 
#
# 1 0.014137 -0.001918 -0.004585 0.000000 0.002865 0.000000
# 2 -0.001918 0.029635 -0.016274 0.000000 -0.002144 0.000000
# 3 -0.004585 -0.016274 0.019408 0.000000 0.000784 0.000000
# 4 0.000000 0.000000 0.000000 0.028474 0.000000 0.005328
# 5 0.002865 -0.002144 0.000784 0.000000 0.035400 0.000000
# 6 0.000000 0.000000 0.000000 0.005328 0.000000 0.036422
#
#
# Mechanical properties :
#
#
# Convention : Reuss Voigt Hill
#
# Bulk Modulus (GPa) = 56.73747 66.01224 61.37485
# Shear Modulus (GPa) = 23.26591 27.74744 25.50667
#
# Velocity S-wave (km/s) = 3.49437 3.81611 3.65878
# Velocity P-wave (km/s) = 6.78663 7.35269 7.07532
#
# Compressibility (1/GPa) = 0.01762504
#
# Stress axis : x y z
#
# Youngs Moduli (GPa) = 70.73828 33.74352 51.52400
#
# Poissons Ratio (x) = 0.06473 0.23626
# Poissons Ratio (y) = 0.13570 0.83849
# Poissons Ratio (z) = 0.32437 0.54914
#
# Static dielectric constant tensor:
#      x y z
#    x 3.759650 0.000000 -0.040190 
#    y 0.000000 3.278730 0.000000 
#    z -0.040190 0.000000 3.451010 
# 
# 
# High freq. dielectric constant tensor:
#      x y z
#    x 1.760790 0.000000 -0.006270 
#    y 0.000000 1.727820 0.000000 
#    z -0.006270 0.000000 1.740850 
# 
# From -- ./inp_files/143526.got.cif
#   From: 2010.06.25/outbox.cif.g09.slc.cpg/sg12_72_cif.got.tgz:143526.got - 2010.06.28 00:19:55.
