data_PCOD8107006
_publ_section_title
;
Structure prediction by ZEFSAII (Michael W. Deem and Ramdas Pophale) SiO2 
 PCOD8107006
Probable space group: C 2/M
;
_chemical_formula_sum "Si O2"
_cell_formula_units_Z 64
_cell_length_a 30.084649
_cell_length_b 9.165314
_cell_length_c 15.965167
_cell_angle_alpha 90.000000
_cell_angle_beta 133.406730
_cell_angle_gamma 90.000000
_cell_volume 3198.142208
_symmetry_space_group_name_H-M "C 2/M"
_symmetry_group_IT_number 12
_symmetry_cell_setting 'monoclinic'
loop_
_space_group_symop_operation_xyz
x,y,z
-x,y,-z
-x,-y,-z
x,-y,z
1/2+x,1/2+y,z
1/2-x,1/2+y,-z
1/2-x,1/2-y,-z
1/2+x,1/2-y,z
loop_
_atom_site_type_symbol
_atom_site_label
_atom_site_fract_x
_atom_site_fract_y
_atom_site_fract_z
Si Si1 0.436363 0.672538 0.379160
Si Si2 0.913382 0.170440 0.163228
Si Si3 0.725782 0.326192 0.051410
Si Si4 0.022645 0.333646 0.893870
Si Si5 0.407534 0.166124 0.853263
Si Si6 0.306083 0.162097 0.466080
Si Si7 0.808858 0.825431 0.296662
Si Si8 0.327786 0.659342 0.643244
O O1 0.500000 0.737087 0.500000
O O2 0.441857 0.500000 0.381897
O O3 0.423571 0.735716 0.269606
O O4 0.377946 0.716747 0.359576
O O5 0.965500 0.237272 0.171975
O O6 0.924329 0.000000 0.180297
O O7 0.846571 0.207080 0.039800
O O8 0.738589 0.500000 0.066197
O O9 0.758970 0.252081 0.173086
O O10 0.750000 0.250000 0.000000
O O11 0.016710 0.500000 0.857051
O O12 0.962520 0.281318 0.864446
O O13 0.078451 0.315186 0.031021
O O14 0.350778 0.268073 0.758895
O O15 0.390901 0.000000 0.811324
O O16 0.298798 0.263190 0.375899
O O17 0.348575 0.245356 0.588983
O O18 0.243895 0.143171 0.436567
O O19 0.331768 0.000000 0.476521
O O20 0.798435 0.000000 0.281090
O O21 0.357288 0.500000 0.669042
#
# Coordination Sequence:
#
# PCOD8107006 Si02
#       8
#     8   8   8   8   8   8   8   8
#     4   9  19  38  60  82 113 150 188 236 286 336
#     4  10  21  37  57  85 116 148 192 242 293 345
#     4  11  22  38  59  86 120 154 193 243 296 346
#     4   9  20  37  56  82 113 150 191 232 287 346
#     4   9  19  37  57  79 114 152 188 235 287 340
#     4  10  22  39  57  83 118 150 187 239 289 336
#     4  11  22  38  60  88 117 153 198 236 289 356
#     4  10  21  37  58  83 112 150 194 235 284 343
#
# _framework density 20.011619
#
# number of rings (size 3 to 8) (size 9 to 14) (size 15 to 20)
#    0.000    2.125    1.250    2.250    1.750    4.500 
#    0.000    2.500    0.000    2.625    0.000    0.000 
#    0.000    0.000    0.000    0.000    0.000    0.000 
#
# Total GULP energy -396664.178667 kJ/mol
# GULP energy per Si atom -12395.755583 kJ/mol
# Density = 1.996607 g / cm^3
# Si number density = 20.011619 Si / 1000 Ang^3
#
#
#
# Elastic Constant Matrix: (Units=GPa)
#
#
# Indices 1 2 3 4 5 6 
#
# 1 61.4273 24.9649 18.5167 0.0000 -16.9076 0.0000
# 2 24.9649 89.5072 38.1078 0.0000 -6.8462 0.0000
# 3 18.5167 38.1078 96.2455 0.0000 -4.1896 0.0000
# 4 0.0000 0.0000 0.0000 25.6092 0.0000 -2.9919
# 5 -16.9076 -6.8462 -4.1896 0.0000 31.4897 0.0000
# 6 0.0000 0.0000 0.0000 -2.9919 0.0000 31.6400
#
#
#
# Elastic Compliance Matrix: (Units=1/GPa)
#
#
# Indices 1 2 3 4 5 6 
#
# 1 0.021487 -0.004372 -0.001954 0.000000 0.010327 0.000000
# 2 -0.004372 0.014484 -0.004887 0.000000 0.000152 0.000000
# 3 -0.001954 -0.004887 0.012683 0.000000 -0.000424 0.000000
# 4 0.000000 0.000000 0.000000 0.039485 0.000000 0.003734
# 5 0.010327 0.000152 -0.000424 0.000000 0.037278 0.000000
# 6 0.000000 0.000000 0.000000 0.003734 0.000000 0.031959
#
#
# Mechanical properties :
#
#
# Convention : Reuss Voigt Hill
#
# Bulk Modulus (GPa) = 38.12541 45.59542 41.86042
# Shear Modulus (GPa) = 26.51926 28.78714 27.65320
#
# Velocity S-wave (km/s) = 3.64427 3.79690 3.72137
# Velocity P-wave (km/s) = 6.06635 6.48505 6.27919
#
# Compressibility (1/GPa) = 0.02622922
#
# Stress axis : x y z
#
# Youngs Moduli (GPa) = 46.53912 69.04227 78.84865
#
# Poissons Ratio (x) = 0.30182 0.15403
# Poissons Ratio (y) = 0.20345 0.38535
# Poissons Ratio (z) = 0.09092 0.33742
#
# Static dielectric constant tensor:
#      x y z
#    x 3.488710 0.000000 0.070610 
#    y 0.000000 3.711600 0.000000 
#    z 0.070610 0.000000 4.391710 
# 
# 
# High freq. dielectric constant tensor:
#      x y z
#    x 1.769640 0.000000 -0.007150 
#    y 0.000000 1.773980 0.000000 
#    z -0.007150 0.000000 1.788710 
# 
# From -- ./inp_files/250046.got.cif
#   From: 2010.06.25/outbox.cif.g09.slc.cpg/sg12_126_cif.got.tgz:250046.got - 2010.06.28 00:19:55.
