data_PCOD8107674
_publ_section_title
;
Structure prediction by ZEFSAII (Michael W. Deem and Ramdas Pophale) SiO2 
 PCOD8107674
Probable space group: C 2/M
;
_chemical_formula_sum "Si O2"
_cell_formula_units_Z 64
_cell_length_a 31.199713
_cell_length_b 8.563549
_cell_length_c 12.227412
_cell_angle_alpha 90.000000
_cell_angle_beta 90.000000
_cell_angle_gamma 90.000000
_cell_volume 3266.923253
_symmetry_space_group_name_H-M "C 2/M"
_symmetry_group_IT_number 12
_symmetry_cell_setting 'monoclinic'
loop_
_space_group_symop_operation_xyz
x,y,z
-x,y,-z
-x,-y,-z
x,-y,z
1/2+x,1/2+y,z
1/2-x,1/2+y,-z
1/2-x,1/2-y,-z
1/2+x,1/2-y,z
loop_
_atom_site_type_symbol
_atom_site_label
_atom_site_fract_x
_atom_site_fract_y
_atom_site_fract_z
Si Si1 0.796722 0.314723 0.981257
Si Si2 0.796722 0.314723 0.518743
Si Si3 0.578105 0.814328 0.250000
Si Si4 0.327622 0.814615 0.750000
Si Si5 0.951608 0.685172 0.981592
Si Si6 0.048392 0.314828 0.481592
Si Si7 0.374420 0.684434 0.123423
Si Si8 0.125580 0.815566 0.623423
O O1 0.797411 0.500000 0.989099
O O2 0.805441 0.252757 0.859181
O O3 0.750000 0.250000 0.000000
O O4 0.832145 0.252749 0.065711
O O5 0.797411 0.500000 0.510901
O O6 0.750000 0.250000 0.500000
O O7 0.805441 0.252757 0.640819
O O8 0.832145 0.252749 0.434289
O O9 0.625242 0.743936 0.250000
O O10 0.556057 0.751962 0.140611
O O11 0.556057 0.751962 0.359389
O O12 0.577966 0.000000 0.250000
O O13 0.328925 0.000000 0.750000
O O14 0.946086 0.500000 0.991767
O O15 0.918278 0.759236 0.066694
O O16 0.000000 0.740031 0.000000
O O17 0.053914 0.500000 0.491767
O O18 0.081722 0.240764 0.566694
O O19 0.000000 0.259969 0.500000
O O20 0.371863 0.500000 0.115108
O O21 0.374858 0.739472 0.250000
O O22 0.128137 0.000000 0.615108
#
# Coordination Sequence:
#
# PCOD8107674 Si02
#       8
#     8   8   8   8   8   8   8   8
#     4  11  23  41  64  91 121 157 201 248 303 364
#     4  11  23  41  64  91 121 157 201 248 303 364
#     4   9  16  34  58  87 120 149 188 245 304 349
#     4   9  18  36  62  85 116 153 188 243 304 351
#     4  10  21  37  63  93 120 155 200 250 303 363
#     4  10  21  37  63  93 120 155 200 250 303 363
#     4  11  25  43  60  84 124 167 205 251 303 354
#     4  11  25  43  60  84 124 167 205 251 303 354
#
# _framework density 19.590299000000002
#
# number of rings (size 3 to 8) (size 9 to 14) (size 15 to 20)
#    0.000    1.750    2.500    1.500    3.500    2.500 
#    0.000    3.750    0.000    0.000    0.000    0.000 
#    0.000    0.000    0.000    0.000    0.000    0.000 
#
# Total GULP energy -396646.563395 kJ/mol
# GULP energy per Si atom -12395.205106 kJ/mol
# Density = 1.954571 g / cm^3
# Si number density = 19.590299 Si / 1000 Ang^3
#
#
#
# Elastic Constant Matrix: (Units=GPa)
#
#
# Indices 1 2 3 4 5 6 
#
# 1 209.7409 42.6396 119.9247 0.0000 0.0000 0.0000
# 2 42.6396 55.7967 47.4942 0.0000 0.0000 0.0000
# 3 119.9247 47.4942 220.5785 0.0000 0.0000 0.0000
# 4 0.0000 0.0000 0.0000 26.8558 0.0000 0.0000
# 5 0.0000 0.0000 0.0000 0.0000 42.0021 0.0000
# 6 0.0000 0.0000 0.0000 0.0000 0.0000 33.6665
#
#
#
# Elastic Compliance Matrix: (Units=1/GPa)
#
#
# Indices 1 2 3 4 5 6 
#
# 1 0.007229 -0.002668 -0.003356 0.000000 0.000000 0.000000
# 2 -0.002668 0.022929 -0.003486 0.000000 0.000000 0.000000
# 3 -0.003356 -0.003486 0.007109 0.000000 0.000000 0.000000
# 4 0.000000 0.000000 0.000000 0.037236 0.000000 0.000000
# 5 0.000000 0.000000 0.000000 0.000000 0.023808 0.000000
# 6 0.000000 0.000000 0.000000 0.000000 0.000000 0.029703
#
#
# Mechanical properties :
#
#
# Convention : Reuss Voigt Hill
#
# Bulk Modulus (GPa) = 54.80635 100.69256 77.74946
# Shear Modulus (GPa) = 32.65502 38.90873 35.78187
#
# Velocity S-wave (km/s) = 4.08719 4.46143 4.27841
# Velocity P-wave (km/s) = 7.09299 8.83459 8.01126
#
# Compressibility (1/GPa) = 0.01824606
#
# Stress axis : x y z
#
# Youngs Moduli (GPa) = 138.33330 43.61362 140.67229
#
# Poissons Ratio (x) = 0.11635 0.47207
# Poissons Ratio (y) = 0.36905 0.49045
# Poissons Ratio (z) = 0.46422 0.15206
#
# Static dielectric constant tensor:
#      x y z
#    x 3.505120 0.000000 0.000000 
#    y 0.000000 3.350460 0.000000 
#    z 0.000000 0.000000 4.018580 
# 
# 
# High freq. dielectric constant tensor:
#      x y z
#    x 1.779510 0.000000 0.000000 
#    y 0.000000 1.741110 0.000000 
#    z 0.000000 0.000000 1.784910 
# 
# From -- ./inp_files/187466.got.cif
#   From: 2010.06.25/outbox.cif.g09.slc.cpg/sg12_94_cif.got.tgz:187466.got - 2010.06.28 00:19:55.
