data_PCOD8107162
_publ_section_title
;
Structure prediction by ZEFSAII (Michael W. Deem and Ramdas Pophale) SiO2 
 PCOD8107162
Probable space group: C 2/M
;
_chemical_formula_sum "Si O2"
_cell_formula_units_Z 40
_cell_length_a 27.222979
_cell_length_b 8.301453
_cell_length_c 18.541007
_cell_angle_alpha 90.000000
_cell_angle_beta 27.093604
_cell_angle_gamma 90.000000
_cell_volume 1908.356561
_symmetry_space_group_name_H-M "C 2/M"
_symmetry_group_IT_number 12
_symmetry_cell_setting 'monoclinic'
loop_
_space_group_symop_operation_xyz
x,y,z
-x,y,-z
-x,-y,-z
x,-y,z
1/2+x,1/2+y,z
1/2-x,1/2+y,-z
1/2-x,1/2-y,-z
1/2+x,1/2-y,z
loop_
_atom_site_type_symbol
_atom_site_label
_atom_site_fract_x
_atom_site_fract_y
_atom_site_fract_z
Si Si1 0.382781 0.691645 0.132686
Si Si2 0.214162 0.690534 0.469537
Si Si3 0.195841 0.813438 0.919779
Si Si4 0.422241 0.685772 0.665699
Si Si5 0.025352 0.686378 0.250445
O O1 0.385562 0.500000 0.132078
O O2 0.295527 0.761309 0.303160
O O3 0.352001 0.750588 0.093087
O O4 0.500000 0.762357 0.000000
O O5 0.217465 0.500000 0.462708
O O6 0.250000 0.750000 0.500000
O O7 0.094354 0.752887 0.608778
O O8 0.299246 0.707571 0.803028
O O9 0.229450 0.000000 0.870923
O O10 0.107022 0.793021 0.097567
O O11 0.500000 0.743697 0.500000
O O12 0.442820 0.500000 0.658457
O O13 0.448508 0.795558 0.699742
O O14 0.037233 0.500000 0.213065
#
# Coordination Sequence:
#
# PCOD8107162 Si02
#       5
#     8   8   8   8   8
#     4   9  18  34  57  84 113 147 189 234 282 341
#     4  10  21  37  58  85 116 151 191 237 289 345
#     4  11  22  38  62  87 115 153 195 241 292 344
#     4  11  24  41  61  86 117 152 192 239 290 347
#     4  11  23  39  59  85 119 155 195 241 288 344
#
# _framework density 20.960445
#
# number of rings (size 3 to 8) (size 9 to 14) (size 15 to 20)
#    0.000    1.600    0.000    4.800    0.000    6.400 
#    0.000    2.000    0.000    5.400    0.000    0.000 
#    0.000    0.000    0.000    0.000    0.000    0.000 
#
# Total GULP energy -248128.767523 kJ/mol
# GULP energy per Si atom -12406.438376 kJ/mol
# Density = 2.091274 g / cm^3
# Si number density = 20.960445 Si / 1000 Ang^3
#
#
#
# Elastic Constant Matrix: (Units=GPa)
#
#
# Indices 1 2 3 4 5 6 
#
# 1 165.1040 5.4523 73.2837 0.0003 -2.3956 0.0010
# 2 5.4523 28.1507 8.2391 0.0056 0.7849 -0.0002
# 3 73.2837 8.2391 176.6860 0.0025 -1.6198 0.0005
# 4 0.0003 0.0056 0.0025 7.3855 -0.0006 8.5241
# 5 -2.3956 0.7849 -1.6198 -0.0006 48.6387 -0.0006
# 6 0.0010 -0.0002 0.0005 8.5241 -0.0006 24.8873
#
#
#
# Elastic Compliance Matrix: (Units=1/GPa)
#
#
# Indices 1 2 3 4 5 6 
#
# 1 0.007435 -0.000553 -0.003056 0.000002 0.000273 -0.000001
# 2 -0.000553 0.036076 -0.001459 -0.000045 -0.000658 0.000016
# 3 -0.003056 -0.001459 0.006996 -0.000002 0.000106 0.000001
# 4 0.000002 -0.000045 -0.000002 0.223919 0.000002 -0.076694
# 5 0.000273 -0.000658 0.000106 0.000002 0.020587 0.000000
# 6 -0.000001 0.000016 0.000001 -0.076694 0.000000 0.066449
#
#
# Mechanical properties :
#
#
# Convention : Reuss Voigt Hill
#
# Bulk Modulus (GPa) = 24.76993 60.43232 42.60112
# Shear Modulus (GPa) = 12.98514 35.04666 24.01590
#
# Velocity S-wave (km/s) = 2.49169 4.09349 3.38860
# Velocity P-wave (km/s) = 4.48566 7.15796 5.97317
#
# Compressibility (1/GPa) = 0.04037153
#
# Stress axis : x y z
#
# Youngs Moduli (GPa) = 134.49345 27.71953 142.93631
#
# Poissons Ratio (x) = 0.01534 0.43676
# Poissons Ratio (y) = 0.07443 0.20851
# Poissons Ratio (z) = 0.41096 0.04044
#
# Static dielectric constant tensor:
#      x y z
#    x 3.872140 0.000000 -0.050150 
#    y 0.000000 3.450570 0.000010 
#    z -0.050150 0.000010 4.070270 
# 
# 
# High freq. dielectric constant tensor:
#      x y z
#    x 1.835890 0.000000 -0.000590 
#    y 0.000000 1.797720 0.000000 
#    z -0.000590 0.000000 1.839120 
# 
# From -- ./inp_files/151690.got.cif
#   From: 2010.06.25/outbox.cif.g09.slc.cpg/sg12_76_cif.got.tgz:151690.got - 2010.06.28 00:19:55.
