data_PCOD8107200
_publ_section_title
;
Structure prediction by ZEFSAII (Michael W. Deem and Ramdas Pophale) SiO2 
 PCOD8107200
Probable space group: C 2/M
;
_chemical_formula_sum "Si O2"
_cell_formula_units_Z 48
_cell_length_a 24.999500
_cell_length_b 14.242239
_cell_length_c 22.481469
_cell_angle_alpha 90.000000
_cell_angle_beta 162.351367
_cell_angle_gamma 90.000000
_cell_volume 2426.795535
_symmetry_space_group_name_H-M "C 2/M"
_symmetry_group_IT_number 12
_symmetry_cell_setting 'monoclinic'
loop_
_space_group_symop_operation_xyz
x,y,z
-x,y,-z
-x,-y,-z
x,-y,z
1/2+x,1/2+y,z
1/2-x,1/2+y,-z
1/2-x,1/2-y,-z
1/2+x,1/2-y,z
loop_
_atom_site_type_symbol
_atom_site_label
_atom_site_fract_x
_atom_site_fract_y
_atom_site_fract_z
Si Si1 0.224510 0.212855 0.597012
Si Si2 0.050273 0.394677 0.383151
Si Si3 0.081672 0.238722 0.026100
Si Si4 0.165213 0.892415 0.013014
Si Si5 0.312392 0.397443 0.328725
Si Si6 0.171867 0.893410 0.421457
O O1 0.137749 0.315381 0.517625
O O2 0.151117 0.139337 0.566406
O O3 0.175819 0.178160 0.479921
O O4 0.433348 0.219612 0.825778
O O5 0.087199 0.500000 0.448046
O O6 0.141379 0.386370 0.414980
O O7 0.839013 0.377107 0.156126
O O8 0.199943 0.326233 0.170316
O O9 0.188543 0.163343 0.100111
O O10 0.000000 0.192688 0.000000
O O11 0.990162 0.860340 0.792125
O O12 0.143837 0.000000 0.009010
O O13 0.500000 0.410284 0.500000
O O14 0.218389 0.500000 0.231226
O O15 0.140322 0.000000 0.410273
#
# Coordination Sequence:
#
# PCOD8107200 Si02
#       6
#     8   8   8   8   8   8
#     4  11  21  37  62  86 116 154 195 240 292 346
#     4  10  21  37  58  86 121 155 190 237 290 345
#     4  10  22  37  60  86 113 153 197 239 289 346
#     4  10  21  39  60  85 120 155 192 241 292 343
#     4  10  22  41  60  84 118 153 195 244 287 339
#     4  10  21  38  59  86 120 153 192 239 292 349
#
# _framework density 19.779169
#
# number of rings (size 3 to 8) (size 9 to 14) (size 15 to 20)
#    0.000    1.833    1.667    2.000    0.000    4.667 
#    3.000    2.500    0.000    9.000    0.000    0.000 
#    0.000    0.000    0.000    0.000    0.000    0.000 
#
# Total GULP energy -297493.865635 kJ/mol
# GULP energy per Si atom -12395.577735 kJ/mol
# Density = 1.973415 g / cm^3
# Si number density = 19.779169 Si / 1000 Ang^3
#
#
#
# Elastic Constant Matrix: (Units=GPa)
#
#
# Indices 1 2 3 4 5 6 
#
# 1 109.5681 74.1408 65.3571 -0.0248 2.5840 -0.0561
# 2 74.1408 129.7924 55.6286 -0.0058 -12.6513 -0.0173
# 3 65.3571 55.6286 94.1719 0.0062 -0.3868 -0.0316
# 4 -0.0248 -0.0058 0.0062 24.0299 -0.0061 -5.6771
# 5 2.5840 -12.6513 -0.3868 -0.0061 32.6203 -0.0241
# 6 -0.0561 -0.0173 -0.0316 -5.6771 -0.0241 38.4624
#
#
#
# Elastic Compliance Matrix: (Units=1/GPa)
#
#
# Indices 1 2 3 4 5 6 
#
# 1 0.020237 -0.008038 -0.009317 0.000025 -0.004831 0.000019
# 2 -0.008038 0.014038 -0.002690 -0.000004 0.006049 -0.000004
# 3 -0.009317 -0.002690 0.018673 -0.000015 -0.000084 -0.000002
# 4 0.000025 -0.000004 -0.000015 0.043119 0.000009 0.006364
# 5 -0.004831 0.006049 -0.000084 0.000009 0.033384 0.000018
# 6 0.000019 -0.000004 -0.000002 0.006364 0.000018 0.026939
#
#
# Mechanical properties :
#
#
# Convention : Reuss Voigt Hill
#
# Bulk Modulus (GPa) = 77.75580 80.42059 79.08820
# Shear Modulus (GPa) = 24.90493 28.24958 26.57726
#
# Velocity S-wave (km/s) = 3.55230 3.78332 3.66963
# Velocity P-wave (km/s) = 7.49816 7.73513 7.61756
#
# Compressibility (1/GPa) = 0.01286078
#
# Stress axis : x y z
#
# Youngs Moduli (GPa) = 49.41506 71.23407 53.55268
#
# Poissons Ratio (x) = 0.57255 0.49893
# Poissons Ratio (y) = 0.39718 0.14403
# Poissons Ratio (z) = 0.46038 0.19159
#
# Static dielectric constant tensor:
#      x y z
#    x 3.656880 -0.000050 0.070360 
#    y -0.000050 4.048200 -0.000110 
#    z 0.070360 -0.000110 3.745780 
# 
# 
# High freq. dielectric constant tensor:
#      x y z
#    x 1.763500 0.000000 0.014240 
#    y 0.000000 1.786720 -0.000010 
#    z 0.014240 -0.000010 1.764000 
# 
# From -- ./inp_files/325723.got.cif
#   From: 2010.06.25/outbox.cif.g09.slc.cpg/sg12_163_cif.got.tgz:325723.got - 2010.06.28 00:19:55.
