data_PCOD8107271
_publ_section_title
;
Structure prediction by ZEFSAII (Michael W. Deem and Ramdas Pophale) SiO2 
 PCOD8107271
Probable space group: C 2/M
;
_chemical_formula_sum "Si O2"
_cell_formula_units_Z 40
_cell_length_a 28.399926
_cell_length_b 9.409943
_cell_length_c 7.710769
_cell_angle_alpha 90.000000
_cell_angle_beta 89.971133
_cell_angle_gamma 90.000000
_cell_volume 2060.638638
_symmetry_space_group_name_H-M "C 2/M"
_symmetry_group_IT_number 12
_symmetry_cell_setting 'monoclinic'
loop_
_space_group_symop_operation_xyz
x,y,z
-x,y,-z
-x,-y,-z
x,-y,z
1/2+x,1/2+y,z
1/2-x,1/2+y,-z
1/2-x,1/2-y,-z
1/2+x,1/2-y,z
loop_
_atom_site_type_symbol
_atom_site_label
_atom_site_fract_x
_atom_site_fract_y
_atom_site_fract_z
Si Si1 0.399536 0.665494 0.823756
Si Si2 0.055363 0.337284 0.486058
Si Si3 0.803137 0.837363 0.663704
Si Si4 0.698857 0.163604 0.675723
Si Si5 0.104591 0.664329 0.843646
O O1 0.412784 0.500000 0.832392
O O2 0.426266 0.734049 0.662682
O O3 0.343233 0.689438 0.806290
O O4 0.415826 0.740641 0.000908
O O5 0.069103 0.500000 0.441384
O O6 0.078125 0.291354 0.668233
O O7 0.000000 0.318285 0.500000
O O8 0.751569 0.794979 0.740262
O O9 0.815581 0.747524 0.495333
O O10 0.803039 0.000000 0.603028
O O11 0.660555 0.195933 0.824111
O O12 0.695994 0.000000 0.621627
O O13 0.095032 0.500000 0.888975
#
# Coordination Sequence:
#
# PCOD8107271 Si02
#       5
#     8   8   8   8   8
#     4  11  23  37  57  86 120 152 183 227 284 343
#     4  10  22  42  65  85 108 143 190 241 287 332
#     4   9  18  32  52  81 115 149 185 227 276 328
#     4   9  17  32  55  81 110 148 192 231 270 322
#     4  10  21  37  59  85 113 148 190 234 278 331
#
# _framework density 19.411459000000001
#
# number of rings (size 3 to 8) (size 9 to 14) (size 15 to 20)
#    0.000    2.200    2.000    0.600    0.000    4.400 
#    0.000    4.000    0.000    0.000    0.000    0.000 
#    0.000    0.000    0.000    0.000    0.000    0.000 
#
# Total GULP energy -247980.284363 kJ/mol
# GULP energy per Si atom -12399.014218 kJ/mol
# Density = 1.936728 g / cm^3
# Si number density = 19.411459 Si / 1000 Ang^3
#
#
#
# Elastic Constant Matrix: (Units=GPa)
#
#
# Indices 1 2 3 4 5 6 
#
# 1 78.5640 39.5148 46.4936 0.0000 -0.0310 0.0000
# 2 39.5148 93.3743 78.2578 0.0000 -6.0141 0.0000
# 3 46.4936 78.2578 137.4985 0.0000 -5.6059 0.0000
# 4 0.0000 0.0000 0.0000 33.5685 0.0000 -3.3278
# 5 -0.0310 -6.0141 -5.6059 0.0000 11.5313 0.0000
# 6 0.0000 0.0000 0.0000 -3.3278 0.0000 21.9813
#
#
#
# Elastic Compliance Matrix: (Units=1/GPa)
#
#
# Indices 1 2 3 4 5 6 
#
# 1 0.017025 -0.004782 -0.003198 0.000000 -0.004003 0.000000
# 2 -0.004782 0.022121 -0.010716 0.000000 0.006315 0.000000
# 3 -0.003198 -0.010716 0.014513 0.000000 0.001458 0.000000
# 4 0.000000 0.000000 0.000000 0.030244 0.000000 0.004579
# 5 -0.004003 0.006315 0.001458 0.000000 0.090712 0.000000
# 6 0.000000 0.000000 0.000000 0.004579 0.000000 0.046186
#
#
# Mechanical properties :
#
#
# Convention : Reuss Voigt Hill
#
# Bulk Modulus (GPa) = 61.47687 70.88545 66.18116
# Shear Modulus (GPa) = 18.96708 23.09427 21.03068
#
# Velocity S-wave (km/s) = 3.12926 3.45298 3.29510
# Velocity P-wave (km/s) = 6.69295 7.24528 6.97458
#
# Compressibility (1/GPa) = 0.01626628
#
# Stress axis : x y z
#
# Youngs Moduli (GPa) = 58.73791 45.20580 68.90536
#
# Poissons Ratio (x) = 0.21618 0.22038
# Poissons Ratio (y) = 0.28089 0.73838
# Poissons Ratio (z) = 0.18786 0.48442
#
# Static dielectric constant tensor:
#      x y z
#    x 3.780030 0.000000 0.053450 
#    y 0.000000 3.611100 0.000000 
#    z 0.053450 0.000000 3.242070 
# 
# 
# High freq. dielectric constant tensor:
#      x y z
#    x 1.764140 0.000000 0.001640 
#    y 0.000000 1.753950 0.000000 
#    z 0.001640 0.000000 1.737420 
# 
# From -- ./inp_files/101098.got.cif
#   From: 2010.06.25/outbox.cif.g09.slc.cpg/sg12_51_cif.got.tgz:101098.got - 2010.06.28 00:19:55.
