data_PCOD8107366
_publ_section_title
;
Structure prediction by ZEFSAII (Michael W. Deem and Ramdas Pophale) SiO2 
 PCOD8107366
Probable space group: C 2/M
;
_chemical_formula_sum "Si O2"
_cell_formula_units_Z 56
_cell_length_a 20.227256
_cell_length_b 8.964288
_cell_length_c 27.625011
_cell_angle_alpha 90.000000
_cell_angle_beta 145.371919
_cell_angle_gamma 90.000000
_cell_volume 2846.377254
_symmetry_space_group_name_H-M "C 2/M"
_symmetry_group_IT_number 12
_symmetry_cell_setting 'monoclinic'
loop_
_space_group_symop_operation_xyz
x,y,z
-x,y,-z
-x,-y,-z
x,-y,z
1/2+x,1/2+y,z
1/2-x,1/2+y,-z
1/2-x,1/2-y,-z
1/2+x,1/2-y,z
loop_
_atom_site_type_symbol
_atom_site_label
_atom_site_fract_x
_atom_site_fract_y
_atom_site_fract_z
Si Si1 0.027548 0.823917 0.253833
Si Si2 0.559484 0.329144 0.986527
Si Si3 0.435189 0.827086 0.825206
Si Si4 0.186427 0.329548 0.825504
Si Si5 0.749799 0.824208 0.551826
Si Si6 0.468270 0.328017 0.535525
Si Si7 0.198310 0.828461 0.733146
O O1 0.031472 0.758832 0.202850
O O2 0.137832 0.767889 0.351081
O O3 0.911884 0.773294 0.211186
O O4 0.026362 0.000000 0.248913
O O5 0.521664 0.500000 0.954208
O O6 0.518070 0.226329 0.918071
O O7 0.500000 0.271031 0.000000
O O8 0.698161 0.313691 0.072912
O O9 0.300731 0.795835 0.756735
O O10 0.459112 0.000000 0.830609
O O11 0.143349 0.500000 0.798260
O O12 0.215680 0.278611 0.788952
O O13 0.750000 0.750000 0.500000
O O14 0.636426 0.778171 0.513004
O O15 0.752012 0.000000 0.545991
O O16 0.500000 0.290012 0.500000
O O17 0.430172 0.500000 0.518257
O O18 0.577132 0.290358 0.634869
O O19 0.202374 0.000000 0.752939
#
# Coordination Sequence:
#
# PCOD8107366 Si02
#       7
#     8   8   8   8   8   8   8
#     4  11  25  43  61  86 124 162 199 248 305 356
#     4  10  21  40  63  90 124 159 196 243 301 356
#     4  11  23  39  64  93 122 159 203 248 296 356
#     4  11  23  39  63  90 118 156 201 245 293 357
#     4  11  24  41  62  88 119 160 204 249 300 356
#     4  10  21  38  60  86 120 158 196 245 302 355
#     4  10  21  37  59  89 121 155 197 247 300 352
#
# _framework density 19.674130999999999
#
# number of rings (size 3 to 8) (size 9 to 14) (size 15 to 20)
#    0.000    1.429    1.429    3.429    0.000   10.286 
#    0.000    0.000    0.000    0.000    0.000    0.000 
#    0.000    0.000    0.000    0.000    0.000    0.000 
#
# Total GULP energy -347389.557060 kJ/mol
# GULP energy per Si atom -12406.769895 kJ/mol
# Density = 1.962935 g / cm^3
# Si number density = 19.674131 Si / 1000 Ang^3
#
#
#
# Elastic Constant Matrix: (Units=GPa)
#
#
# Indices 1 2 3 4 5 6 
#
# 1 55.2687 18.1307 15.5945 0.0000 -7.2423 0.0001
# 2 18.1307 59.3343 30.3851 0.0000 -5.3763 0.0004
# 3 15.5945 30.3851 88.7115 0.0001 -0.0180 0.0000
# 4 0.0000 0.0000 0.0001 30.3356 0.0000 0.9959
# 5 -7.2423 -5.3763 -0.0180 0.0000 33.7830 0.0000
# 6 0.0001 0.0004 0.0000 0.9959 0.0000 39.2284
#
#
#
# Elastic Compliance Matrix: (Units=1/GPa)
#
#
# Indices 1 2 3 4 5 6 
#
# 1 0.020765 -0.005027 -0.001928 0.000000 0.003650 0.000000
# 2 -0.005027 0.022019 -0.006658 0.000000 0.002423 0.000000
# 3 -0.001928 -0.006658 0.013891 0.000000 -0.001465 0.000000
# 4 0.000000 0.000000 0.000000 0.032992 0.000000 -0.000838
# 5 0.003650 0.002423 -0.001465 0.000000 0.030768 0.000000
# 6 0.000000 0.000000 0.000000 -0.000838 0.000000 0.025513
#
#
# Mechanical properties :
#
#
# Convention : Reuss Voigt Hill
#
# Bulk Modulus (GPa) = 33.95564 36.83725 35.39645
# Shear Modulus (GPa) = 27.32400 29.94967 28.63683
#
# Velocity S-wave (km/s) = 3.73074 3.90588 3.81932
# Velocity P-wave (km/s) = 5.98786 6.25344 6.12209
#
# Compressibility (1/GPa) = 0.02945019
#
# Stress axis : x y z
#
# Youngs Moduli (GPa) = 48.15841 45.41600 71.98722
#
# Poissons Ratio (x) = 0.22832 0.13876
# Poissons Ratio (y) = 0.24210 0.47926
# Poissons Ratio (z) = 0.09283 0.30236
#
# Static dielectric constant tensor:
#      x y z
#    x 3.568890 0.000000 0.051050 
#    y 0.000000 3.623750 0.000000 
#    z 0.051050 0.000000 3.772770 
# 
# 
# High freq. dielectric constant tensor:
#      x y z
#    x 1.775910 0.000000 0.001680 
#    y 0.000000 1.770580 0.000000 
#    z 0.001680 0.000000 1.780770 
# 
# From -- ./inp_files/363237.got.cif
#   From: 2010.06.25/outbox.cif.g09.slc.cpg/sg12_182_cif.got.tgz:363237.got - 2010.06.28 00:19:55.
