data_PCOD8107943
_publ_section_title
;
Structure prediction by ZEFSAII (Michael W. Deem and Ramdas Pophale) SiO2 
 PCOD8107943
Probable space group: C 2/M
;
_chemical_formula_sum "Si O2"
_cell_formula_units_Z 64
_cell_length_a 29.404544
_cell_length_b 8.993707
_cell_length_c 14.172320
_cell_angle_alpha 90.000000
_cell_angle_beta 121.569568
_cell_angle_gamma 90.000000
_cell_volume 3193.275138
_symmetry_space_group_name_H-M "C 2/M"
_symmetry_group_IT_number 12
_symmetry_cell_setting 'monoclinic'
loop_
_space_group_symop_operation_xyz
x,y,z
-x,y,-z
-x,-y,-z
x,-y,z
1/2+x,1/2+y,z
1/2-x,1/2+y,-z
1/2-x,1/2-y,-z
1/2+x,1/2-y,z
loop_
_atom_site_type_symbol
_atom_site_label
_atom_site_fract_x
_atom_site_fract_y
_atom_site_fract_z
Si Si1 0.154101 0.329215 0.127141
Si Si2 0.922924 0.835769 0.479707
Si Si3 0.313698 0.333281 0.475000
Si Si4 0.476773 0.174915 0.695026
Si Si5 0.906849 0.327576 0.125419
Si Si6 0.737734 0.176040 0.747842
Si Si7 0.873228 0.326225 0.692391
Si Si8 0.645289 0.676360 0.762996
O O1 0.174185 0.500000 0.148539
O O2 0.203039 0.221308 0.156340
O O3 0.128002 0.287329 0.198840
O O4 0.108358 0.303536 0.999883
O O5 0.868861 0.836343 0.479847
O O6 0.966685 0.731788 0.577063
O O7 0.906570 0.780444 0.357284
O O8 0.948020 0.000000 0.502784
O O9 0.291484 0.500000 0.466623
O O10 0.271462 0.241062 0.367205
O O11 0.323665 0.255223 0.586720
O O12 0.533159 0.234155 0.795215
O O13 0.430021 0.232135 0.713964
O O14 0.477014 0.000000 0.691408
O O15 0.902565 0.500000 0.150156
O O16 0.865852 0.233524 0.144201
O O17 0.697813 0.243793 0.781309
O O18 0.730864 0.000000 0.738405
O O19 0.866777 0.500000 0.665146
O O20 0.655297 0.500000 0.771763
#
# Coordination Sequence:
#
# PCOD8107943 Si02
#       8
#     8   8   8   8   8   8   8   8
#     4  10  22  39  56  77 109 147 189 231 270 320
#     4   8  16  31  52  79 108 139 174 214 267 329
#     4   9  17  32  55  83 114 144 176 218 271 330
#     4   9  18  33  55  83 112 142 179 224 271 318
#     4  10  22  38  55  79 110 145 187 231 272 319
#     4  11  22  37  59  84 110 141 179 225 277 329
#     4   9  18  34  57  83 111 146 184 224 271 320
#     4  10  21  38  59  82 110 144 181 223 273 329
#
# _framework density 20.042119
#
# number of rings (size 3 to 8) (size 9 to 14) (size 15 to 20)
#    0.000    2.500    0.000    2.625    0.000    7.000 
#    0.000    5.000    0.000    0.000    0.000    5.250 
#    0.000    0.000    0.000    0.000    0.000    0.000 
#
# Total GULP energy -396807.044631 kJ/mol
# GULP energy per Si atom -12400.220145 kJ/mol
# Density = 1.999650 g / cm^3
# Si number density = 20.042119 Si / 1000 Ang^3
#
#
#
# Elastic Constant Matrix: (Units=GPa)
#
#
# Indices 1 2 3 4 5 6 
#
# 1 55.4526 24.0595 22.3010 0.0000 -2.8803 0.0000
# 2 24.0595 74.5905 25.1255 0.0000 0.5853 0.0000
# 3 22.3010 25.1255 92.5598 0.0000 -3.7660 0.0000
# 4 0.0000 0.0000 0.0000 29.9349 0.0000 -1.7768
# 5 -2.8803 0.5853 -3.7660 0.0000 34.7349 0.0000
# 6 0.0000 0.0000 0.0000 -1.7768 0.0000 21.7946
#
#
#
# Elastic Compliance Matrix: (Units=1/GPa)
#
#
# Indices 1 2 3 4 5 6 
#
# 1 0.022159 -0.005924 -0.003668 0.000000 0.001540 0.000000
# 2 -0.005924 0.016356 -0.003057 0.000000 -0.001098 0.000000
# 3 -0.003668 -0.003057 0.012563 0.000000 0.001109 0.000000
# 4 0.000000 0.000000 0.000000 0.033568 0.000000 0.002737
# 5 0.001540 -0.001098 0.001109 0.000000 0.029056 0.000000
# 6 0.000000 0.000000 0.000000 0.002737 0.000000 0.046106
#
#
# Mechanical properties :
#
#
# Convention : Reuss Voigt Hill
#
# Bulk Modulus (GPa) = 38.79176 40.61944 39.70560
# Shear Modulus (GPa) = 25.81327 27.36734 26.59030
#
# Velocity S-wave (km/s) = 3.59270 3.69926 3.64637
# Velocity P-wave (km/s) = 6.05038 6.20944 6.13042
#
# Compressibility (1/GPa) = 0.02577867
#
# Stress axis : x y z
#
# Youngs Moduli (GPa) = 45.12875 61.14064 79.60109
#
# Poissons Ratio (x) = 0.36219 0.29199
# Poissons Ratio (y) = 0.26734 0.24336
# Poissons Ratio (z) = 0.16554 0.18692
#
# Static dielectric constant tensor:
#      x y z
#    x 3.548480 0.000000 -0.001500 
#    y 0.000000 3.605400 0.000000 
#    z -0.001500 0.000000 3.763890 
# 
# 
# High freq. dielectric constant tensor:
#      x y z
#    x 1.773430 0.000000 -0.001120 
#    y 0.000000 1.773450 0.000000 
#    z -0.001120 0.000000 1.782500 
# 
# From -- ./inp_files/249946.got.cif
#   From: 2010.06.25/outbox.cif.g09.slc.cpg/sg12_125_cif.got.tgz:249946.got - 2010.06.28 00:19:55.
