data_PCOD8107157
_publ_section_title
;
Structure prediction by ZEFSAII (Michael W. Deem and Ramdas Pophale) SiO2 
 PCOD8107157
Probable space group: C 2/M
;
_chemical_formula_sum "Si O2"
_cell_formula_units_Z 56
_cell_length_a 18.910648
_cell_length_b 13.862065
_cell_length_c 23.153318
_cell_angle_alpha 90.000000
_cell_angle_beta 26.972170
_cell_angle_gamma 90.000000
_cell_volume 2752.834397
_symmetry_space_group_name_H-M "C 2/M"
_symmetry_group_IT_number 12
_symmetry_cell_setting 'monoclinic'
loop_
_space_group_symop_operation_xyz
x,y,z
-x,y,-z
-x,-y,-z
x,-y,z
1/2+x,1/2+y,z
1/2-x,1/2+y,-z
1/2-x,1/2-y,-z
1/2+x,1/2-y,z
loop_
_atom_site_type_symbol
_atom_site_label
_atom_site_fract_x
_atom_site_fract_y
_atom_site_fract_z
Si Si1 0.843228 0.611937 0.583409
Si Si2 0.604933 0.767412 0.793072
Si Si3 0.992970 0.385449 0.247802
Si Si4 0.734029 0.741034 0.943306
Si Si5 0.272971 0.111767 0.507610
Si Si6 0.122119 0.111827 0.361877
Si Si7 0.564539 0.387618 0.271615
O O1 0.812732 0.500000 0.619806
O O2 0.692099 0.669168 0.713668
O O3 0.865566 0.630724 0.499208
O O4 0.000000 0.649509 0.500000
O O5 0.556530 0.833310 0.774576
O O6 0.715830 0.830937 0.752795
O O7 0.448515 0.733577 0.940638
O O8 0.989241 0.500000 0.241930
O O9 0.872163 0.344976 0.383146
O O10 0.165317 0.354521 0.145084
O O11 0.798446 0.832670 0.861258
O O12 0.750000 0.750000 0.000000
O O13 0.097651 0.153650 0.636275
O O14 0.253071 0.000000 0.509146
O O15 0.054815 0.131412 0.347363
O O16 0.000000 0.148024 0.500000
O O17 0.158769 0.000000 0.345683
O O18 0.592686 0.500000 0.238035
#
# Coordination Sequence:
#
# PCOD8107157 Si02
#       7
#     8   8   8   8   8   8   8
#     4  10  22  39  59  85 115 150 196 247 298 352
#     4  11  22  37  57  84 117 158 199 238 291 355
#     4  10  21  37  58  85 116 149 191 247 305 356
#     4  10  23  37  53  82 114 155 205 239 280 348
#     4   9  18  35  59  83 108 143 191 245 300 354
#     4  10  21  37  60  92 125 155 194 248 308 364
#     4  10  21  38  61  89 121 156 196 247 303 358
#
# _framework density 20.342669000000001
#
# number of rings (size 3 to 8) (size 9 to 14) (size 15 to 20)
#    0.000    2.000    0.000    3.429    0.000   10.857 
#    0.000    1.429    0.000    0.000    0.000    6.000 
#    0.000    0.000    0.000    0.000    0.000    0.000 
#
# Total GULP energy -347120.407715 kJ/mol
# GULP energy per Si atom -12397.157418 kJ/mol
# Density = 2.029637 g / cm^3
# Si number density = 20.342669 Si / 1000 Ang^3
#
#
#
# Elastic Constant Matrix: (Units=GPa)
#
#
# Indices 1 2 3 4 5 6 
#
# 1 97.1433 37.4947 40.7781 0.0016 -12.0914 0.0002
# 2 37.4947 88.2971 42.5260 -0.0117 -7.8808 0.0085
# 3 40.7781 42.5260 135.3171 0.0032 -18.1221 -0.0036
# 4 0.0016 -0.0117 0.0032 33.4489 -0.0005 -1.9504
# 5 -12.0914 -7.8808 -18.1221 -0.0005 39.4774 -0.0006
# 6 0.0002 0.0085 -0.0036 -1.9504 -0.0006 22.8496
#
#
#
# Elastic Compliance Matrix: (Units=1/GPa)
#
#
# Indices 1 2 3 4 5 6 
#
# 1 0.013196 -0.004285 -0.002348 -0.000002 0.002109 0.000001
# 2 -0.004285 0.014760 -0.003333 0.000005 0.000104 -0.000006
# 3 -0.002348 -0.003333 0.009547 -0.000002 0.002998 0.000003
# 4 -0.000002 0.000005 -0.000002 0.030046 0.000000 0.002565
# 5 0.002109 0.000104 0.002998 0.000000 0.027374 0.000001
# 6 0.000001 -0.000006 0.000003 0.002565 0.000001 0.043983
#
#
# Mechanical properties :
#
#
# Convention : Reuss Voigt Hill
#
# Bulk Modulus (GPa) = 56.91317 62.48389 59.69853
# Shear Modulus (GPa) = 30.35951 32.48575 31.42263
#
# Velocity S-wave (km/s) = 3.86736 4.00049 3.93449
# Velocity P-wave (km/s) = 6.92675 7.21948 7.07463
#
# Compressibility (1/GPa) = 0.01757063
#
# Stress axis : x y z
#
# Youngs Moduli (GPa) = 75.78191 67.75276 104.74946
#
# Poissons Ratio (x) = 0.29029 0.24591
# Poissons Ratio (y) = 0.32469 0.34917
# Poissons Ratio (z) = 0.17791 0.22585
#
# Static dielectric constant tensor:
#      x y z
#    x 3.743680 -0.000010 -0.233870 
#    y -0.000010 3.727630 -0.000020 
#    z -0.233870 -0.000020 4.186570 
# 
# 
# High freq. dielectric constant tensor:
#      x y z
#    x 1.789400 0.000000 -0.007380 
#    y 0.000000 1.802810 0.000000 
#    z -0.007380 0.000000 1.793920 
# 
# From -- ./inp_files/316677.got.cif
#   From: 2010.06.25/outbox.cif.g09.slc.cpg/sg12_159_cif.got.tgz:316677.got - 2010.06.28 00:19:55.
