data_PCOD8107380
_publ_section_title
;
Structure prediction by ZEFSAII (Michael W. Deem and Ramdas Pophale) SiO2 
 PCOD8107380
Probable space group: C 2/M
;
_chemical_formula_sum "Si O2"
_cell_formula_units_Z 36
_cell_length_a 8.539457
_cell_length_b 22.653431
_cell_length_c 13.853689
_cell_angle_alpha 90.000000
_cell_angle_beta 140.555498
_cell_angle_gamma 90.000000
_cell_volume 1702.665705
_symmetry_space_group_name_H-M "C 2/M"
_symmetry_group_IT_number 12
_symmetry_cell_setting 'monoclinic'
loop_
_space_group_symop_operation_xyz
x,y,z
-x,y,-z
-x,-y,-z
x,-y,z
1/2+x,1/2+y,z
1/2-x,1/2+y,-z
1/2-x,1/2-y,-z
1/2+x,1/2-y,z
loop_
_atom_site_type_symbol
_atom_site_label
_atom_site_fract_x
_atom_site_fract_y
_atom_site_fract_z
Si Si1 0.635025 0.126744 0.468805
Si Si2 0.500000 0.094487 0.000000
Si Si3 0.710313 0.000000 0.459554
Si Si4 0.788160 0.284185 0.660686
Si Si5 0.761877 0.500000 0.754821
Si Si6 0.108157 0.172729 0.764722
O O1 0.500000 0.151311 0.500000
O O2 0.585284 0.169949 0.354135
O O3 0.927877 0.126596 0.625594
O O4 0.554958 0.058881 0.412026
O O5 0.268238 0.136778 0.920098
O O6 0.409457 0.056451 0.865939
O O7 0.735125 0.000000 0.357589
O O8 0.970814 0.000000 0.641812
O O9 0.500000 0.271641 0.500000
O O10 0.806554 0.306368 0.778796
O O11 0.946551 0.224653 0.732737
#
# Coordination Sequence:
#
# PCOD8107380 Si02
#       6
#     8   4   4   8   4   8
#     4  11  21  36  60  92 121 153 203 256 294 348
#     4  11  22  38  62  90 126 159 196 242 308 363
#     4  11  21  38  65  90 116 155 211 247 300 343
#     4  10  21  37  59  89 124 156 203 251 294 345
#     4  10  22  40  61  92 119 158 200 256 287 365
#     4  11  21  37  59  87 121 166 193 245 302 357
#
# _framework density 21.143317
#
# number of rings (size 3 to 8) (size 9 to 14) (size 15 to 20)
#    0.000    1.333    2.222    6.333    6.222    0.889 
#    0.000    0.000    0.000    5.333    0.000    0.000 
#    0.000    0.000    0.000    0.000    0.000    0.000 
#
# Total GULP energy -223023.631059 kJ/mol
# GULP energy per Si atom -12390.201726 kJ/mol
# Density = 2.109519 g / cm^3
# Si number density = 21.143317 Si / 1000 Ang^3
#
#
#
# Elastic Constant Matrix: (Units=GPa)
#
#
# Indices 1 2 3 4 5 6 
#
# 1 108.5305 39.3605 13.5338 0.0000 -6.7922 0.0000
# 2 39.3605 150.8704 44.0633 0.0000 10.3062 0.0000
# 3 13.5338 44.0633 93.0778 0.0000 1.2860 0.0000
# 4 0.0000 0.0000 0.0000 36.2662 0.0000 0.3821
# 5 -6.7922 10.3062 1.2860 0.0000 16.2049 0.0000
# 6 0.0000 0.0000 0.0000 0.3821 0.0000 -1.3976
#
#
#
# Elastic Compliance Matrix: (Units=1/GPa)
#
#
# Indices 1 2 3 4 5 6 
#
# 1 0.010817 -0.003234 -0.000133 0.000000 0.006601 0.000000
# 2 -0.003234 0.009018 -0.003705 0.000000 -0.006797 0.000000
# 3 -0.000133 -0.003705 0.012499 0.000000 0.001309 0.000000
# 4 0.000000 0.000000 0.000000 0.027495 0.000000 0.007516
# 5 0.006601 -0.006797 0.001309 0.000000 0.068696 0.000001
# 6 0.000000 0.000000 0.000000 0.007516 0.000001 -0.713442
#
#
# Mechanical properties :
#
#
# Convention : Reuss Voigt Hill
#
# Bulk Modulus (GPa) = 54.97645 60.71042 57.84343
# Shear Modulus (GPa) = -8.85409 27.24944 9.19767
#
# Velocity S-wave (km/s) = -2.04860 3.59388 2.08797
# Velocity P-wave (km/s) = 4.52356 6.78214 5.76454
#
# Compressibility (1/GPa) = 0.01818961
#
# Stress axis : x y z
#
# Youngs Moduli (GPa) = 92.45064 110.88454 80.00644
#
# Poissons Ratio (x) = 0.35860 0.01064
# Poissons Ratio (y) = 0.29899 0.29644
# Poissons Ratio (z) = 0.01229 0.41085
#
# Static dielectric constant tensor:
#      x y z
#    x 3.656160 0.000000 0.037900 
#    y 0.000000 4.084300 0.000000 
#    z 0.037900 0.000000 3.750440 
# 
# 
# High freq. dielectric constant tensor:
#      x y z
#    x 1.805030 0.000000 0.000070 
#    y 0.000000 1.857580 0.000000 
#    z 0.000070 0.000000 1.802580 
# 
# From -- ./inp_files/197627.got.cif
#   From: 2010.06.25/outbox.cif.g09.slc.cpg/sg12_99_cif.got.tgz:197627.got - 2010.06.28 00:19:55.
