data_PCOD8107128
_publ_section_title
;
Structure prediction by ZEFSAII (Michael W. Deem and Ramdas Pophale) SiO2 
 PCOD8107128
Probable space group: C 2/M
;
_chemical_formula_sum "Si O2"
_cell_formula_units_Z 48
_cell_length_a 18.671093
_cell_length_b 8.696873
_cell_length_c 17.745122
_cell_angle_alpha 90.000000
_cell_angle_beta 58.708188
_cell_angle_gamma 90.000000
_cell_volume 2462.298675
_symmetry_space_group_name_H-M "C 2/M"
_symmetry_group_IT_number 12
_symmetry_cell_setting 'monoclinic'
loop_
_space_group_symop_operation_xyz
x,y,z
-x,y,-z
-x,-y,-z
x,-y,z
1/2+x,1/2+y,z
1/2-x,1/2+y,-z
1/2-x,1/2-y,-z
1/2+x,1/2-y,z
loop_
_atom_site_type_symbol
_atom_site_label
_atom_site_fract_x
_atom_site_fract_y
_atom_site_fract_z
Si Si1 0.744208 0.680242 0.420961
Si Si2 0.428692 0.675760 0.729319
Si Si3 0.091875 0.179622 0.733774
Si Si4 0.910620 0.679426 0.581180
Si Si5 0.505024 0.820747 0.083616
Si Si6 0.337432 0.678664 0.930037
O O1 0.741488 0.500000 0.431428
O O2 0.750000 0.750000 0.500000
O O3 0.824847 0.727158 0.329146
O O4 0.660503 0.731553 0.424826
O O5 0.432735 0.500000 0.699159
O O6 0.518188 0.724783 0.715654
O O7 0.406452 0.784349 0.671975
O O8 0.355462 0.696479 0.831109
O O9 0.063904 0.223459 0.833209
O O10 0.111678 0.000000 0.719090
O O11 0.895898 0.500000 0.576685
O O12 0.000000 0.733103 0.500000
O O13 0.597222 0.778463 0.059480
O O14 0.487393 0.000000 0.106386
O O15 0.500000 0.773207 0.000000
O O16 0.343342 0.500000 0.950084
O O17 0.250000 0.750000 0.000000
#
# Coordination Sequence:
#
# PCOD8107128 Si02
#       6
#     8   8   8   8   8   8
#     4  12  25  41  62  87 118 153 191 236 286 341
#     4   9  20  38  59  84 114 149 188 234 288 341
#     4  10  21  39  62  87 117 152 193 239 288 343
#     4  11  24  40  60  87 116 149 191 235 282 340
#     4  10  21  37  58  85 118 155 194 238 290 345
#     4  10  21  37  58  84 115 152 195 241 290 345
#
# _framework density 19.493980000000001
#
# number of rings (size 3 to 8) (size 9 to 14) (size 15 to 20)
#    0.000    1.667    0.000    5.500    0.000   10.667 
#    0.000    1.667    0.000    0.000    0.000    0.000 
#    0.000    0.000    0.000    0.000    0.000    0.000 
#
# Total GULP energy -297703.716897 kJ/mol
# GULP energy per Si atom -12404.321537 kJ/mol
# Density = 1.944961 g / cm^3
# Si number density = 19.493980 Si / 1000 Ang^3
#
#
#
# Elastic Constant Matrix: (Units=GPa)
#
#
# Indices 1 2 3 4 5 6 
#
# 1 110.4277 52.0284 78.3977 0.0000 -4.0271 -0.0006
# 2 52.0284 94.4799 48.2031 0.0001 2.8662 -0.0011
# 3 78.3977 48.2031 124.4055 0.0000 -3.5524 -0.0001
# 4 0.0000 0.0001 0.0000 37.8573 0.0000 1.5593
# 5 -4.0271 2.8662 -3.5524 0.0000 42.1615 0.0000
# 6 -0.0006 -0.0011 -0.0001 1.5593 0.0000 35.2437
#
#
#
# Elastic Compliance Matrix: (Units=1/GPa)
#
#
# Indices 1 2 3 4 5 6 
#
# 1 0.018307 -0.005303 -0.009445 0.000000 0.001313 0.000000
# 2 -0.005303 0.014803 -0.002443 0.000000 -0.001719 0.000000
# 3 -0.009445 -0.002443 0.014952 0.000000 0.000524 0.000000
# 4 0.000000 0.000000 0.000000 0.026463 0.000000 -0.001171
# 5 0.001313 -0.001719 0.000524 0.000000 0.024005 0.000000
# 6 0.000000 0.000000 0.000000 -0.001171 0.000000 0.028426
#
#
# Mechanical properties :
#
#
# Convention : Reuss Voigt Hill
#
# Bulk Modulus (GPa) = 73.09482 76.28573 74.69027
# Shear Modulus (GPa) = 30.13925 33.09808 31.61867
#
# Velocity S-wave (km/s) = 3.93629 4.12498 4.03174
# Velocity P-wave (km/s) = 7.63129 7.86799 7.75054
#
# Compressibility (1/GPa) = 0.01368086
#
# Stress axis : x y z
#
# Youngs Moduli (GPa) = 54.62335 67.55407 66.88224
#
# Poissons Ratio (x) = 0.35822 0.63168
# Poissons Ratio (y) = 0.28965 0.16340
# Poissons Ratio (z) = 0.51590 0.16504
#
# Static dielectric constant tensor:
#      x y z
#    x 3.480760 0.000000 -0.078150 
#    y 0.000000 3.766130 0.000000 
#    z -0.078150 0.000000 3.501500 
# 
# 
# High freq. dielectric constant tensor:
#      x y z
#    x 1.758410 0.000000 -0.003200 
#    y 0.000000 1.771530 0.000000 
#    z -0.003200 0.000000 1.772450 
# 
# From -- ./inp_files/274021.got.cif
#   From: 2010.06.25/outbox.cif.g09.slc.cpg/sg12_138_cif.got.tgz:274021.got - 2010.06.28 00:19:55.
