data_PCOD8107432
_publ_section_title
;
Structure prediction by ZEFSAII (Michael W. Deem and Ramdas Pophale) SiO2 
 PCOD8107432
Probable space group: C 2/M
;
_chemical_formula_sum "Si O2"
_cell_formula_units_Z 56
_cell_length_a 24.379332
_cell_length_b 14.242271
_cell_length_c 8.393512
_cell_angle_alpha 90.000000
_cell_angle_beta 67.167606
_cell_angle_gamma 90.000000
_cell_volume 2686.011825
_symmetry_space_group_name_H-M "C 2/M"
_symmetry_group_IT_number 12
_symmetry_cell_setting 'monoclinic'
loop_
_space_group_symop_operation_xyz
x,y,z
-x,y,-z
-x,-y,-z
x,-y,z
1/2+x,1/2+y,z
1/2-x,1/2+y,-z
1/2-x,1/2-y,-z
1/2+x,1/2-y,z
loop_
_atom_site_type_symbol
_atom_site_label
_atom_site_fract_x
_atom_site_fract_y
_atom_site_fract_z
Si Si1 0.514318 0.720598 0.667487
Si Si2 0.317311 0.254479 0.871758
Si Si3 0.723655 0.316250 0.397822
Si Si4 0.096512 0.111464 0.067587
Si Si5 0.050215 0.396737 0.813563
Si Si6 0.660406 0.109124 0.900772
Si Si7 0.883374 0.104770 0.317488
O O1 0.500000 0.721646 0.500000
O O2 0.463817 0.667281 0.825300
O O3 0.525473 0.827005 0.708329
O O4 0.575601 0.666773 0.617562
O O5 0.316296 0.253240 0.680128
O O6 0.349116 0.351984 0.885658
O O7 0.250000 0.250000 0.000000
O O8 0.350406 0.167083 0.921677
O O9 0.750000 0.250000 0.500000
O O10 0.774711 0.371757 0.245589
O O11 0.683076 0.390399 0.537919
O O12 0.088013 0.000000 0.104784
O O13 0.114308 0.138030 0.867801
O O14 0.061824 0.500000 0.723959
O O15 0.111028 0.359260 0.827332
O O16 0.000000 0.406402 0.000000
O O17 0.653370 0.000000 0.952337
O O18 0.907724 0.000000 0.300080
#
# Coordination Sequence:
#
# PCOD8107432 Si02
#       7
#     8   8   8   8   8   8   8
#     4  12  24  38  61  91 125 159 196 248 304 362
#     4  10  21  37  60  86 116 155 195 244 295 349
#     4  11  22  38  59  87 124 161 201 249 305 364
#     4  11  24  42  64  89 120 159 203 250 302 361
#     4  10  21  39  64  89 118 159 203 248 300 360
#     4  10  21  39  62  88 119 160 206 252 305 361
#     4  11  23  39  60  87 120 160 203 248 301 362
#
# _framework density 20.848755000000001
#
# number of rings (size 3 to 8) (size 9 to 14) (size 15 to 20)
#    0.000    1.286    0.000    7.286    0.000    6.571 
#    0.000    1.429    0.000    6.000    0.000    0.000 
#    0.000    0.000    0.000    0.000    0.000    0.000 
#
# Total GULP energy -347156.173181 kJ/mol
# GULP energy per Si atom -12398.434756 kJ/mol
# Density = 2.080130 g / cm^3
# Si number density = 20.848755 Si / 1000 Ang^3
#
#
#
# Elastic Constant Matrix: (Units=GPa)
#
#
# Indices 1 2 3 4 5 6 
#
# 1 119.5472 54.6218 45.9609 0.0000 14.1764 0.0000
# 2 54.6218 120.0408 44.4209 0.0000 18.3861 0.0000
# 3 45.9609 44.4209 109.7998 0.0000 16.1095 0.0000
# 4 0.0000 0.0000 0.0000 41.6940 0.0000 -4.8796
# 5 14.1764 18.3861 16.1095 0.0000 48.9823 0.0000
# 6 0.0000 0.0000 0.0000 -4.8796 0.0000 35.2940
#
#
#
# Elastic Compliance Matrix: (Units=1/GPa)
#
#
# Indices 1 2 3 4 5 6 
#
# 1 0.011447 -0.003945 -0.003075 0.000000 -0.000821 0.000000
# 2 -0.003945 0.011456 -0.002648 0.000000 -0.002288 0.000000
# 3 -0.003075 -0.002648 0.011757 0.000000 -0.001983 0.000000
# 4 0.000000 0.000000 0.000000 0.024379 0.000000 0.003370
# 5 -0.000821 -0.002288 -0.001983 0.000000 0.022164 0.000000
# 6 0.000000 0.000000 0.000000 0.003370 0.000000 0.028799
#
#
# Mechanical properties :
#
#
# Convention : Reuss Voigt Hill
#
# Bulk Modulus (GPa) = 65.25750 71.04390 68.15070
# Shear Modulus (GPa) = 37.18995 38.81966 38.00480
#
# Velocity S-wave (km/s) = 4.22808 4.31973 4.27415
# Velocity P-wave (km/s) = 7.42994 7.68309 7.55758
#
# Compressibility (1/GPa) = 0.01532391
#
# Stress axis : x y z
#
# Youngs Moduli (GPa) = 87.35911 87.29283 85.05767
#
# Poissons Ratio (x) = 0.34437 0.26156
# Poissons Ratio (y) = 0.34463 0.22520
# Poissons Ratio (z) = 0.26864 0.23112
#
# Static dielectric constant tensor:
#      x y z
#    x 4.220600 0.000000 -0.004670 
#    y 0.000000 3.897050 0.000000 
#    z -0.004670 0.000000 3.990550 
# 
# 
# High freq. dielectric constant tensor:
#      x y z
#    x 1.834490 0.000000 -0.002940 
#    y 0.000000 1.818490 0.000000 
#    z -0.002940 0.000000 1.810510 
# 
# From -- ./inp_files/96746.got.cif
#   From: 2010.06.25/outbox.cif.g09.slc.cpg/sg12_49_cif.got.tgz:96746.got - 2010.06.28 00:19:55.
