data_PCOD8107672
_publ_section_title
;
Structure prediction by ZEFSAII (Michael W. Deem and Ramdas Pophale) SiO2 
 PCOD8107672
Probable space group: C 2/M
;
_chemical_formula_sum "Si O2"
_cell_formula_units_Z 64
_cell_length_a 27.397872
_cell_length_b 17.940673
_cell_length_c 11.485944
_cell_angle_alpha 90.000000
_cell_angle_beta 34.112038
_cell_angle_gamma 90.000000
_cell_volume 3166.214246
_symmetry_space_group_name_H-M "C 2/M"
_symmetry_group_IT_number 12
_symmetry_cell_setting 'monoclinic'
loop_
_space_group_symop_operation_xyz
x,y,z
-x,y,-z
-x,-y,-z
x,-y,z
1/2+x,1/2+y,z
1/2-x,1/2+y,-z
1/2-x,1/2-y,-z
1/2+x,1/2-y,z
loop_
_atom_site_type_symbol
_atom_site_label
_atom_site_fract_x
_atom_site_fract_y
_atom_site_fract_z
Si Si1 0.170422 0.143148 0.915831
Si Si2 0.095933 0.916793 0.285687
Si Si3 0.399081 0.204432 0.667781
Si Si4 0.000179 0.156199 0.866615
Si Si5 0.001816 0.333025 0.130631
Si Si6 0.648052 0.651238 0.397206
Si Si7 0.642328 0.087311 0.437400
Si Si8 0.665844 0.190618 0.945380
O O1 0.257973 0.097475 0.715640
O O2 0.181639 0.228644 0.857236
O O3 0.146767 0.137440 0.098781
O O4 0.085695 0.114926 0.013308
O O5 0.145024 0.916327 0.311535
O O6 0.000000 0.883825 0.500000
O O7 0.092467 0.000000 0.240490
O O8 0.500000 0.208547 0.500000
O O9 0.373648 0.271950 0.630810
O O10 0.374233 0.127256 0.653120
O O11 0.347345 0.202098 0.890821
O O12 0.004270 0.244836 0.843349
O O13 0.083908 0.129742 0.629222
O O14 0.000000 0.131238 0.000000
O O15 0.919999 0.375438 0.345037
O O16 0.000000 0.357517 0.000000
O O17 0.089452 0.354872 0.029328
O O18 0.744642 0.648569 0.257900
O O19 0.621982 0.000000 0.464018
#
# Coordination Sequence:
#
# PCOD8107672 Si02
#       8
#     8   8   8   8   8   8   8   8
#     4  11  20  38  60  90 122 156 196 247 306 361
#     4  11  22  35  57  88 121 159 193 236 301 374
#     4  12  20  37  62  90 123 158 198 245 310 363
#     4  10  21  37  63  92 120 151 203 261 303 344
#     4  10  22  42  61  87 118 159 208 254 296 350
#     4  12  20  37  62  90 124 156 194 252 304 360
#     4  12  25  40  60  88 125 165 202 249 303 367
#     4  11  21  35  65  93 119 153 198 250 306 355
#
# _framework density 20.213414
#
# number of rings (size 3 to 8) (size 9 to 14) (size 15 to 20)
#    0.000    0.875    6.250    2.625    0.000    1.500 
#    0.000    4.375    0.000    4.875    0.000    0.000 
#    0.000    0.000    0.000    0.000    0.000    0.000 
#
# Total GULP energy -396639.917207 kJ/mol
# GULP energy per Si atom -12394.997413 kJ/mol
# Density = 2.016741 g / cm^3
# Si number density = 20.213414 Si / 1000 Ang^3
#
#
#
# Elastic Constant Matrix: (Units=GPa)
#
#
# Indices 1 2 3 4 5 6 
#
# 1 118.3359 14.9229 84.1249 0.0000 0.7140 0.0000
# 2 14.9229 54.1116 16.4802 0.0000 -1.0143 0.0000
# 3 84.1249 16.4802 118.4300 0.0000 -19.8083 0.0000
# 4 0.0000 0.0000 0.0000 10.0918 0.0000 -3.3658
# 5 0.7140 -1.0143 -19.8083 0.0000 40.4332 0.0000
# 6 0.0000 0.0000 0.0000 -3.3658 0.0000 16.3055
#
#
#
# Elastic Compliance Matrix: (Units=1/GPa)
#
#
# Indices 1 2 3 4 5 6 
#
# 1 0.019023 -0.000928 -0.014644 0.000000 -0.007533 0.000000
# 2 -0.000928 0.019374 -0.002127 0.000000 -0.000540 0.000000
# 3 -0.014644 -0.002127 0.020888 0.000000 0.010438 0.000000
# 4 0.000000 0.000000 0.000000 0.106416 0.000000 0.021966
# 5 -0.007533 -0.000540 0.010438 0.000000 0.029965 0.000000
# 6 0.000000 0.000000 0.000000 0.021966 0.000000 0.065863
#
#
# Mechanical properties :
#
#
# Convention : Reuss Voigt Hill
#
# Bulk Modulus (GPa) = 41.86310 57.99261 49.92786
# Shear Modulus (GPa) = 16.39942 25.05608 20.72775
#
# Velocity S-wave (km/s) = 2.85145 3.52458 3.20573
# Velocity P-wave (km/s) = 5.62108 6.73172 6.20131
#
# Compressibility (1/GPa) = 0.02388738
#
# Stress axis : x y z
#
# Youngs Moduli (GPa) = 52.56765 51.61576 47.87529
#
# Poissons Ratio (x) = 0.04788 0.70107
# Poissons Ratio (y) = 0.04876 0.10185
# Poissons Ratio (z) = 0.76978 0.10981
#
# Static dielectric constant tensor:
#      x y z
#    x 3.889630 0.000000 -0.123640 
#    y 0.000000 3.349860 0.000000 
#    z -0.123640 0.000000 3.751610 
# 
# 
# High freq. dielectric constant tensor:
#      x y z
#    x 1.788190 0.000000 -0.011250 
#    y 0.000000 1.757070 0.000000 
#    z -0.011250 0.000000 1.798740 
# 
# From -- ./inp_files/146144.got.cif
#   From: 2010.06.25/outbox.cif.g09.slc.cpg/sg12_74_cif.got.tgz:146144.got - 2010.06.28 00:19:55.
