data_PCOD8107753
_publ_section_title
;
Structure prediction by ZEFSAII (Michael W. Deem and Ramdas Pophale) SiO2 
 PCOD8107753
Probable space group: C 2/M
;
_chemical_formula_sum "Si O2"
_cell_formula_units_Z 48
_cell_length_a 12.226531
_cell_length_b 13.310313
_cell_length_c 16.915738
_cell_angle_alpha 90.000000
_cell_angle_beta 111.800083
_cell_angle_gamma 90.000000
_cell_volume 2555.980279
_symmetry_space_group_name_H-M "C 2/M"
_symmetry_group_IT_number 12
_symmetry_cell_setting 'monoclinic'
loop_
_space_group_symop_operation_xyz
x,y,z
-x,y,-z
-x,-y,-z
x,-y,z
1/2+x,1/2+y,z
1/2-x,1/2+y,-z
1/2-x,1/2-y,-z
1/2+x,1/2-y,z
loop_
_atom_site_type_symbol
_atom_site_label
_atom_site_fract_x
_atom_site_fract_y
_atom_site_fract_z
Si Si1 0.957419 0.226766 0.299038
Si Si2 0.893627 0.618331 0.020021
Si Si3 0.374094 0.213016 0.438570
Si Si4 0.152694 0.884293 0.445956
Si Si5 0.737429 0.616369 0.844768
Si Si6 0.035566 0.615476 0.202674
O O1 0.873114 0.271371 0.344291
O O2 0.877719 0.176286 0.211130
O O3 0.046623 0.146403 0.359863
O O4 0.033662 0.315778 0.279937
O O5 0.899656 0.500000 0.006788
O O6 0.916571 0.640572 0.118888
O O7 0.771765 0.653026 0.944178
O O8 0.000000 0.669375 0.000000
O O9 0.500000 0.169541 0.500000
O O10 0.275673 0.131934 0.433884
O O11 0.349748 0.319985 0.474323
O O12 0.139130 0.000000 0.466221
O O13 0.703286 0.500000 0.833933
O O14 0.847032 0.637456 0.815789
O O15 0.033288 0.500000 0.229894
#
# Coordination Sequence:
#
# PCOD8107753 Si02
#       6
#     8   8   8   8   8   8
#     4  11  20  31  50  78 104 125 159 203 247 293
#     4   7  12  26  46  67  94 130 169 203 235 275
#     4   9  21  38  53  74  99 126 163 199 237 293
#     4  10  21  38  56  73  98 129 159 197 244 292
#     4   9  17  30  49  72  99 132 168 204 241 283
#     4   9  18  32  49  70 100 135 167 202 241 282
#
# _framework density 18.779489000000002
#
# number of rings (size 3 to 8) (size 9 to 14) (size 15 to 20)
#    0.000    2.833    0.000    3.500    0.000    5.333 
#    0.000   10.000    0.000    0.000    0.000    0.000 
#    0.000   16.667    0.000    0.000    0.000    0.000 
#
# Total GULP energy -297402.612800 kJ/mol
# GULP energy per Si atom -12391.775533 kJ/mol
# Density = 1.873675 g / cm^3
# Si number density = 18.779489 Si / 1000 Ang^3
#
#
#
# Elastic Constant Matrix: (Units=GPa)
#
#
# Indices 1 2 3 4 5 6 
#
# 1 56.1371 12.4942 3.8212 0.0000 2.5525 0.0000
# 2 12.4942 64.7158 19.5163 0.0000 -3.7345 0.0000
# 3 3.8212 19.5163 44.6687 0.0000 4.8494 0.0000
# 4 0.0000 0.0000 0.0000 25.4317 0.0000 4.8599
# 5 2.5525 -3.7345 4.8494 0.0000 25.8901 0.0000
# 6 0.0000 0.0000 0.0000 4.8599 0.0000 17.2511
#
#
#
# Elastic Compliance Matrix: (Units=1/GPa)
#
#
# Indices 1 2 3 4 5 6 
#
# 1 0.018764 -0.003873 0.000356 0.000000 -0.002475 0.000000
# 2 -0.003873 0.019035 -0.008498 0.000000 0.004719 0.000000
# 3 0.000356 -0.008498 0.026750 0.000000 -0.006271 0.000000
# 4 0.000000 0.000000 0.000000 0.041558 0.000000 -0.011708
# 5 -0.002475 0.004719 -0.006271 0.000000 0.040724 0.000000
# 6 0.000000 0.000000 0.000000 -0.011708 0.000000 0.061266
#
#
# Mechanical properties :
#
#
# Convention : Reuss Voigt Hill
#
# Bulk Modulus (GPa) = 24.67954 26.35390 25.51672
# Shear Modulus (GPa) = 20.35561 22.36057 21.35809
#
# Velocity S-wave (km/s) = 3.29588 3.45438 3.37606
# Velocity P-wave (km/s) = 5.25871 5.47487 5.36788
#
# Compressibility (1/GPa) = 0.04051939
#
# Stress axis : x y z
#
# Youngs Moduli (GPa) = 53.29413 52.53542 37.38296
#
# Poissons Ratio (x) = 0.20345 -0.01329
# Poissons Ratio (y) = 0.20639 0.31766
# Poissons Ratio (z) = -0.01895 0.44642
#
# Static dielectric constant tensor:
#      x y z
#    x 3.298560 0.000000 0.138150 
#    y 0.000000 3.079550 0.000000 
#    z 0.138150 0.000000 3.636830 
# 
# 
# High freq. dielectric constant tensor:
#      x y z
#    x 1.712900 0.000000 0.012590 
#    y 0.000000 1.701680 0.000000 
#    z 0.012590 0.000000 1.741340 
# 
# From -- ./inp_files/204268.got.cif
#   From: 2010.06.25/outbox.cif.g09.slc.cpg/sg12_103_cif.got.tgz:204268.got - 2010.06.28 00:19:55.
