data_PCOD8107558
_publ_section_title
;
Structure prediction by ZEFSAII (Michael W. Deem and Ramdas Pophale) SiO2 
 PCOD8107558
Probable space group: C 2/M
;
_chemical_formula_sum "Si O2"
_cell_formula_units_Z 56
_cell_length_a 16.313446
_cell_length_b 14.244329
_cell_length_c 13.801657
_cell_angle_alpha 90.000000
_cell_angle_beta 55.467976
_cell_angle_gamma 90.000000
_cell_volume 2642.078530
_symmetry_space_group_name_H-M "C 2/M"
_symmetry_group_IT_number 12
_symmetry_cell_setting 'monoclinic'
loop_
_space_group_symop_operation_xyz
x,y,z
-x,y,-z
-x,-y,-z
x,-y,z
1/2+x,1/2+y,z
1/2-x,1/2+y,-z
1/2-x,1/2-y,-z
1/2+x,1/2-y,z
loop_
_atom_site_type_symbol
_atom_site_label
_atom_site_fract_x
_atom_site_fract_y
_atom_site_fract_z
Si Si1 0.721848 0.395328 0.217210
Si Si2 0.273066 0.795856 0.705680
Si Si3 0.566001 0.605956 0.869241
Si Si4 0.577603 0.892377 0.026152
Si Si5 0.500573 0.395731 0.297118
Si Si6 0.567843 0.222634 0.545631
Si Si7 0.419724 0.111031 0.757633
O O1 0.729131 0.500000 0.257747
O O2 0.736485 0.317203 0.289032
O O3 0.615345 0.376434 0.241690
O O4 0.808050 0.380833 0.080430
O O5 0.164496 0.836945 0.781557
O O6 0.326790 0.815574 0.566391
O O7 0.332144 0.835162 0.759388
O O8 0.596475 0.500000 0.877551
O O9 0.500644 0.609506 0.817332
O O10 0.500000 0.650738 0.000000
O O11 0.570998 0.849029 0.138811
O O12 0.545227 0.000000 0.057774
O O13 0.500000 0.845699 0.000000
O O14 0.467434 0.500000 0.355317
O O15 0.427868 0.318162 0.393722
O O16 0.500000 0.249788 0.500000
O O17 0.523721 0.136067 0.636286
O O18 0.399342 0.000000 0.766886
#
# Coordination Sequence:
#
# PCOD8107558 Si02
#       7
#     8   8   8   8   8   8   8
#     4  10  21  38  62  90 123 163 206 254 315 371
#     4  11  23  39  62  92 123 164 207 257 305 368
#     4  10  24  43  64  93 128 164 206 258 312 371
#     4   9  20  38  59  88 123 157 202 257 310 367
#     4  10  21  40  64  89 124 165 209 259 309 369
#     4  10  21  39  59  89 121 157 210 257 305 364
#     4  10  21  37  61  88 122 164 202 250 310 372
#
# _framework density 21.195433999999999
#
# number of rings (size 3 to 8) (size 9 to 14) (size 15 to 20)
#    0.000    2.000    2.857    0.429    2.000    8.000 
#    0.000    0.000    0.000    3.429    0.000    0.000 
#    0.000    0.000    0.000    0.000    0.000    0.000 
#
# Total GULP energy -347044.992306 kJ/mol
# GULP energy per Si atom -12394.464011 kJ/mol
# Density = 2.114719 g / cm^3
# Si number density = 21.195434 Si / 1000 Ang^3
#
#
#
# Elastic Constant Matrix: (Units=GPa)
#
#
# Indices 1 2 3 4 5 6 
#
# 1 50.8585 16.9171 33.7152 0.0000 -11.2421 0.0000
# 2 16.9171 86.6694 21.2014 0.0000 -8.0413 0.0000
# 3 33.7152 21.2014 116.1721 0.0000 -14.3840 0.0000
# 4 0.0000 0.0000 0.0000 30.7041 0.0000 1.1257
# 5 -11.2421 -8.0413 -14.3840 0.0000 38.2564 0.0000
# 6 0.0000 0.0000 0.0000 1.1257 0.0000 14.9925
#
#
#
# Elastic Compliance Matrix: (Units=1/GPa)
#
#
# Indices 1 2 3 4 5 6 
#
# 1 0.025938 -0.003073 -0.006401 0.000000 0.004570 0.000000
# 2 -0.003073 0.012560 -0.001243 0.000000 0.001270 0.000000
# 3 -0.006401 -0.001243 0.010936 0.000000 0.001970 0.000000
# 4 0.000000 0.000000 0.000000 0.032659 0.000000 -0.002452
# 5 0.004570 0.001270 0.001970 0.000000 0.028490 0.000000
# 6 0.000000 0.000000 0.000000 -0.002452 0.000000 0.066884
#
#
# Mechanical properties :
#
#
# Convention : Reuss Voigt Hill
#
# Bulk Modulus (GPa) = 35.71460 44.15192 39.93326
# Shear Modulus (GPa) = 24.01136 28.91502 26.46319
#
# Velocity S-wave (km/s) = 3.36944 3.69753 3.53729
# Velocity P-wave (km/s) = 5.65900 6.25340 5.96361
#
# Compressibility (1/GPa) = 0.02799976
#
# Stress axis : x y z
#
# Youngs Moduli (GPa) = 38.55342 79.61896 91.43809
#
# Poissons Ratio (x) = 0.24467 0.58530
# Poissons Ratio (y) = 0.11848 0.11367
# Poissons Ratio (z) = 0.24678 0.09898
#
# Static dielectric constant tensor:
#      x y z
#    x 3.764520 0.000000 0.050000 
#    y 0.000000 3.990810 0.000000 
#    z 0.050000 0.000000 4.063750 
# 
# 
# High freq. dielectric constant tensor:
#      x y z
#    x 1.814440 0.000000 -0.002180 
#    y 0.000000 1.836060 0.000000 
#    z -0.002180 0.000000 1.834070 
# 
# From -- ./inp_files/225186.got.cif
#   From: 2010.06.25/outbox.cif.g09.slc.cpg/sg12_113_cif.got.tgz:225186.got - 2010.06.28 00:19:55.
