data_PCOD8107947
_publ_section_title
;
Structure prediction by ZEFSAII (Michael W. Deem and Ramdas Pophale) SiO2 
 PCOD8107947
Probable space group: C 2/M
;
_chemical_formula_sum "Si O2"
_cell_formula_units_Z 64
_cell_length_a 17.902769
_cell_length_b 8.609586
_cell_length_c 20.665992
_cell_angle_alpha 90.000000
_cell_angle_beta 90.025129
_cell_angle_gamma 90.000000
_cell_volume 3185.361243
_symmetry_space_group_name_H-M "C 2/M"
_symmetry_group_IT_number 12
_symmetry_cell_setting 'monoclinic'
loop_
_space_group_symop_operation_xyz
x,y,z
-x,y,-z
-x,-y,-z
x,-y,z
1/2+x,1/2+y,z
1/2-x,1/2+y,-z
1/2-x,1/2-y,-z
1/2+x,1/2-y,z
loop_
_atom_site_type_symbol
_atom_site_label
_atom_site_fract_x
_atom_site_fract_y
_atom_site_fract_z
Si Si1 0.673952 0.820012 0.120878
Si Si2 0.331653 0.818738 0.503463
Si Si3 0.833980 0.321859 0.113605
Si Si4 0.424258 0.819024 0.242355
Si Si5 0.086142 0.179779 0.005163
Si Si6 0.663373 0.682664 0.367107
Si Si7 0.831681 0.682418 0.362443
Si Si8 0.584165 0.318112 0.237045
O O1 0.746836 0.714879 0.115279
O O2 0.630754 0.780085 0.186085
O O3 0.696564 0.000000 0.121186
O O4 0.621309 0.787014 0.060032
O O5 0.250000 0.750000 0.500000
O O6 0.373403 0.745787 0.565747
O O7 0.368588 0.781093 0.433176
O O8 0.326977 0.000000 0.514650
O O9 0.844982 0.500000 0.092196
O O10 0.867152 0.291485 0.184192
O O11 0.874820 0.210565 0.063129
O O12 0.384925 0.749265 0.306740
O O13 0.497464 0.719114 0.228939
O O14 0.445823 0.000000 0.249682
O O15 0.096223 0.000000 0.024175
O O16 0.000000 0.226023 0.000000
O O17 0.667365 0.500000 0.373287
O O18 0.747346 0.751182 0.357261
O O19 0.611121 0.734778 0.308095
O O20 0.825305 0.500000 0.350341
O O21 0.598251 0.500000 0.224946
#
# Coordination Sequence:
#
# PCOD8107947 Si02
#       8
#     8   8   8   8   8   8   8   8
#     4  12  25  41  63  89 117 150 192 238 282 337
#     4   9  16  28  50  79 109 142 183 232 282 335
#     4  11  23  40  63  89 118 153 193 237 284 335
#     4  10  21  38  59  82 112 151 191 232 283 342
#     4  11  24  42  64  90 122 157 191 232 281 333
#     4   9  18  34  55  78 107 145 187 232 283 338
#     4   8  15  31  54  78 105 141 185 228 275 333
#     4  11  23  39  58  82 115 151 188 235 290 343
#
# _framework density 20.091913000000002
#
# number of rings (size 3 to 8) (size 9 to 14) (size 15 to 20)
#    0.000    1.875    0.000    5.250    0.000    7.000 
#    0.000    3.750    0.000    3.750    0.000    0.000 
#    0.000    0.000    0.000    0.000    0.000    0.000 
#
# Total GULP energy -396803.100233 kJ/mol
# GULP energy per Si atom -12400.096882 kJ/mol
# Density = 2.004618 g / cm^3
# Si number density = 20.091913 Si / 1000 Ang^3
#
#
#
# Elastic Constant Matrix: (Units=GPa)
#
#
# Indices 1 2 3 4 5 6 
#
# 1 94.9355 19.5405 36.5693 0.0000 11.4818 0.0000
# 2 19.5405 38.3775 38.9042 0.0000 -10.7308 0.0000
# 3 36.5693 38.9042 132.4788 0.0000 16.1321 0.0000
# 4 0.0000 0.0000 0.0000 24.2098 0.0000 10.3628
# 5 11.4818 -10.7308 16.1321 0.0000 -18.0566 0.0000
# 6 0.0000 0.0000 0.0000 10.3628 0.0000 15.3377
#
#
#
# Elastic Compliance Matrix: (Units=1/GPa)
#
#
# Indices 1 2 3 4 5 6 
#
# 1 0.011492 -0.000996 -0.003465 0.000000 0.004804 0.000000
# 2 -0.000996 0.025791 -0.004830 0.000000 -0.020276 0.000000
# 3 -0.003465 -0.004830 0.008876 0.000000 0.008597 0.000000
# 4 0.000000 0.000000 0.000000 0.058112 0.000000 -0.039263
# 5 0.004804 -0.020276 0.008597 0.000000 -0.032596 0.000000
# 6 0.000000 0.000000 0.000000 -0.039263 0.000000 0.091726
#
#
# Mechanical properties :
#
#
# Convention : Reuss Voigt Hill
#
# Bulk Modulus (GPa) = 36.26065 50.64663 43.45364
# Shear Modulus (GPa) = 26.15408 15.68337 20.91873
#
# Velocity S-wave (km/s) = 3.61185 2.79692 3.23019
# Velocity P-wave (km/s) = 5.95655 5.97432 5.96545
#
# Compressibility (1/GPa) = 0.02757811
#
# Stress axis : x y z
#
# Youngs Moduli (GPa) = 87.01650 38.77332 112.65996
#
# Poissons Ratio (x) = 0.03861 0.39034
# Poissons Ratio (y) = 0.08665 0.54415
# Poissons Ratio (z) = 0.30149 0.18727
#
# Static dielectric constant tensor:
#      x y z
#    x 3.653590 0.000000 -0.014830 
#    y 0.000000 3.452790 0.000000 
#    z -0.014830 0.000000 4.123930 
# 
# 
# High freq. dielectric constant tensor:
#      x y z
#    x 1.768110 0.000000 0.000890 
#    y 0.000000 1.774100 0.000000 
#    z 0.000890 0.000000 1.807440 
# 
# From -- ./inp_files/313981.got.cif
#   From: 2010.06.25/outbox.cif.g09.slc.cpg/sg12_157_cif.got.tgz:313981.got - 2010.06.28 00:19:55.
