data_PCOD8107642
_publ_section_title
;
Structure prediction by ZEFSAII (Michael W. Deem and Ramdas Pophale) SiO2 
 PCOD8107642
Probable space group: C 2/M
;
_chemical_formula_sum "Si O2"
_cell_formula_units_Z 56
_cell_length_a 8.996900
_cell_length_b 16.633585
_cell_length_c 27.108119
_cell_angle_alpha 90.000000
_cell_angle_beta 140.105197
_cell_angle_gamma 90.000000
_cell_volume 2601.917855
_symmetry_space_group_name_H-M "C 2/M"
_symmetry_group_IT_number 12
_symmetry_cell_setting 'monoclinic'
loop_
_space_group_symop_operation_xyz
x,y,z
-x,y,-z
-x,-y,-z
x,-y,z
1/2+x,1/2+y,z
1/2-x,1/2+y,-z
1/2-x,1/2-y,-z
1/2+x,1/2-y,z
loop_
_atom_site_type_symbol
_atom_site_label
_atom_site_fract_x
_atom_site_fract_y
_atom_site_fract_z
Si Si1 0.876992 0.366327 0.706429
Si Si2 0.516335 0.297850 0.948455
Si Si3 0.232402 0.698352 0.423492
Si Si4 0.014516 0.589890 0.561118
Si Si5 0.998072 0.854556 0.320800
Si Si6 0.576089 0.707837 0.798431
Si Si7 0.610807 0.410222 0.168119
O O1 0.795848 0.362730 0.629329
O O2 0.669735 0.406542 0.685814
O O3 0.902499 0.279297 0.739304
O O4 0.113694 0.415812 0.770404
O O5 0.512102 0.374729 0.911648
O O6 0.304812 0.237685 0.884064
O O7 0.500000 0.329910 0.000000
O O8 0.750000 0.250000 0.000000
O O9 0.500000 0.719686 0.500000
O O10 0.089085 0.778336 0.375436
O O11 0.132749 0.655991 0.447035
O O12 0.922320 0.500000 0.549474
O O13 0.285823 0.593916 0.644246
O O14 0.000000 0.610342 0.500000
O O15 0.848840 0.832221 0.234138
O O16 0.437440 0.646303 0.797597
O O17 0.514398 0.500000 0.152676
#
# Coordination Sequence:
#
# PCOD8107642 Si02
#       7
#     8   8   8   8   8   8   8
#     4  10  21  37  62  91 124 162 208 258 316 374
#     4  11  22  41  70  96 128 170 207 250 312 379
#     4  11  22  38  63  93 120 160 214 273 313 362
#     4  11  25  42  59  85 125 168 206 255 325 387
#     4  11  22  38  64  91 124 159 213 262 310 367
#     4  10  21  39  63  93 124 167 207 247 308 383
#     4  11  24  42  65  96 129 165 211 259 307 366
#
# _framework density 21.522584999999999
#
# number of rings (size 3 to 8) (size 9 to 14) (size 15 to 20)
#    0.000    1.286    1.429    6.429    2.000    5.143 
#    0.000    1.429    0.000    0.000    0.000    0.000 
#    0.000    0.000    0.000    0.000    0.000    0.000 
#
# Total GULP energy -347207.637604 kJ/mol
# GULP energy per Si atom -12400.272772 kJ/mol
# Density = 2.147360 g / cm^3
# Si number density = 21.522585 Si / 1000 Ang^3
#
#
#
# Elastic Constant Matrix: (Units=GPa)
#
#
# Indices 1 2 3 4 5 6 
#
# 1 122.9818 35.2475 35.9407 -0.0001 -6.2847 -0.0001
# 2 35.2475 97.0549 23.5751 -0.0001 -9.9990 -0.0001
# 3 35.9407 23.5751 113.5922 -0.0004 -9.8029 -0.0004
# 4 -0.0001 -0.0001 -0.0004 8.6838 -0.0002 2.6628
# 5 -6.2847 -9.9990 -9.8029 -0.0002 48.3696 -0.0001
# 6 -0.0001 -0.0001 -0.0004 2.6628 -0.0001 16.9456
#
#
#
# Elastic Compliance Matrix: (Units=1/GPa)
#
#
# Indices 1 2 3 4 5 6 
#
# 1 0.009688 -0.002907 -0.002448 0.000000 0.000162 0.000000
# 2 -0.002907 0.011882 -0.001391 0.000000 0.001797 0.000000
# 3 -0.002448 -0.001391 0.009989 0.000000 0.001419 0.000000
# 4 0.000000 0.000000 0.000000 0.120986 0.000000 -0.019012
# 5 0.000162 0.001797 0.001419 0.000000 0.021354 0.000000
# 6 0.000000 0.000000 0.000000 -0.019012 0.000000 0.062000
#
#
# Mechanical properties :
#
#
# Convention : Reuss Voigt Hill
#
# Bulk Modulus (GPa) = 55.35008 58.12840 56.73924
# Shear Modulus (GPa) = 19.57597 30.72419 25.15008
#
# Velocity S-wave (km/s) = 3.01915 3.78237 3.42211
# Velocity P-wave (km/s) = 6.15847 6.79278 6.48339
#
# Compressibility (1/GPa) = 0.01806682
#
# Stress axis : x y z
#
# Youngs Moduli (GPa) = 103.21850 84.15909 100.10857
#
# Poissons Ratio (x) = 0.24466 0.24507
# Poissons Ratio (y) = 0.30007 0.13927
# Poissons Ratio (z) = 0.25268 0.11708
#
# Static dielectric constant tensor:
#      x y z
#    x 4.088660 0.000000 -0.020050 
#    y 0.000000 3.613250 0.000000 
#    z -0.020050 0.000000 4.470310 
# 
# 
# High freq. dielectric constant tensor:
#      x y z
#    x 1.861720 0.000000 -0.007230 
#    y 0.000000 1.814590 0.000000 
#    z -0.007230 0.000000 1.851630 
# 
# From -- ./inp_files/356731.got.cif
#   From: 2010.06.25/outbox.cif.g09.slc.cpg/sg12_179_cif.got.tgz:356731.got - 2010.06.28 00:19:55.
