data_PCOD8107486
_publ_section_title
;
Structure prediction by ZEFSAII (Michael W. Deem and Ramdas Pophale) SiO2 
 PCOD8107486
Probable space group: C 2/M
;
_chemical_formula_sum "Si O2"
_cell_formula_units_Z 52
_cell_length_a 8.731829
_cell_length_b 25.589153
_cell_length_c 11.745266
_cell_angle_alpha 90.000000
_cell_angle_beta 99.147154
_cell_angle_gamma 90.000000
_cell_volume 2590.990288
_symmetry_space_group_name_H-M "C 2/M"
_symmetry_group_IT_number 12
_symmetry_cell_setting 'monoclinic'
loop_
_space_group_symop_operation_xyz
x,y,z
-x,y,-z
-x,-y,-z
x,-y,z
1/2+x,1/2+y,z
1/2-x,1/2+y,-z
1/2-x,1/2-y,-z
1/2+x,1/2-y,z
loop_
_atom_site_type_symbol
_atom_site_label
_atom_site_fract_x
_atom_site_fract_y
_atom_site_fract_z
Si Si1 0.841814 0.000000 0.822986
Si Si2 0.254138 0.913416 0.744834
Si Si3 0.970364 0.254626 0.352857
Si Si4 0.990033 0.893206 0.875592
Si Si5 0.741408 0.824708 0.438643
Si Si6 0.987988 0.500000 0.861526
Si Si7 0.302942 0.322510 0.700007
Si Si8 0.969494 0.000000 0.366030
O O1 0.658880 0.000000 0.827538
O O2 0.933307 0.047977 0.889453
O O3 0.871859 0.000000 0.689391
O O4 0.160649 0.887278 0.838862
O O5 0.304252 0.869969 0.657557
O O6 0.399437 0.947555 0.807815
O O7 0.127773 0.948707 0.669523
O O8 0.882903 0.210757 0.415290
O O9 0.857356 0.295985 0.277964
O O10 0.094460 0.287095 0.443492
O O11 0.066885 0.222613 0.270450
O O12 0.849338 0.869222 0.786612
O O13 0.000000 0.865691 0.000000
O O14 0.787613 0.845853 0.569334
O O15 0.000000 0.500000 0.000000
O O16 0.000000 0.000000 0.500000
#
# Coordination Sequence:
#
# PCOD8107486 Si02
#       8
#     4   8   8   8   8   4   8   4
#     4  10  23  40  67  87 116 158 207 244 301 361
#     4  10  23  38  62  91 120 155 201 250 299 363
#     4  10  21  37  60  89 121 156 197 245 297 365
#     4  11  23  41  62  87 117 159 207 244 291 365
#     4  11  20  36  61  92 121 151 198 246 305 354
#     4  11  23  45  66  89 121 163 206 253 303 358
#     4  11  21  36  62  88 119 161 197 245 300 353
#     4   9  21  39  60  90 127 162 188 244 314 370
#
# _framework density 20.069547
#
# number of rings (size 3 to 8) (size 9 to 14) (size 15 to 20)
#    0.000    1.538    1.538    5.308    6.462    0.000 
#    0.000    2.308    0.000    0.000    0.000    0.000 
#    0.000    0.000    0.000    0.000    0.000    0.000 
#
# Total GULP energy -322216.618881 kJ/mol
# GULP energy per Si atom -12392.946880 kJ/mol
# Density = 2.002387 g / cm^3
# Si number density = 20.069547 Si / 1000 Ang^3
#
#
#
# Elastic Constant Matrix: (Units=GPa)
#
#
# Indices 1 2 3 4 5 6 
#
# 1 106.1915 20.0372 32.4966 0.0000 4.9933 0.0000
# 2 20.0372 85.3146 45.4519 0.0000 9.5546 0.0000
# 3 32.4966 45.4519 130.3394 0.0000 2.6502 0.0000
# 4 0.0000 0.0000 0.0000 15.8202 0.0000 6.7302
# 5 4.9933 9.5546 2.6502 0.0000 21.7166 0.0000
# 6 0.0000 0.0000 0.0000 6.7302 0.0000 55.9359
#
#
#
# Elastic Compliance Matrix: (Units=1/GPa)
#
#
# Indices 1 2 3 4 5 6 
#
# 1 0.010364 -0.001095 -0.002169 0.000000 -0.001636 0.000000
# 2 -0.001095 0.015261 -0.004930 0.000000 -0.005861 0.000000
# 3 -0.002169 -0.004930 0.009902 0.000000 0.001459 0.000000
# 4 0.000000 0.000000 0.000000 0.066620 0.000000 -0.008016
# 5 -0.001636 -0.005861 0.001459 0.000000 0.048825 0.000000
# 6 0.000000 0.000000 0.000000 -0.008016 0.000000 0.018842
#
#
# Mechanical properties :
#
#
# Convention : Reuss Voigt Hill
#
# Bulk Modulus (GPa) = 52.24601 57.53523 54.89062
# Shear Modulus (GPa) = 25.96285 33.61852 29.79068
#
# Velocity S-wave (km/s) = 3.60063 4.09724 3.85694
# Velocity P-wave (km/s) = 6.58597 7.14936 6.87344
#
# Compressibility (1/GPa) = 0.01914022
#
# Stress axis : x y z
#
# Youngs Moduli (GPa) = 96.48524 65.52526 100.98580
#
# Poissons Ratio (x) = 0.07178 0.21901
# Poissons Ratio (y) = 0.10570 0.49782
# Poissons Ratio (z) = 0.20925 0.32301
#
# Static dielectric constant tensor:
#      x y z
#    x 3.899600 0.000000 -0.073270 
#    y 0.000000 3.742380 0.000000 
#    z -0.073270 0.000000 3.455550 
# 
# 
# High freq. dielectric constant tensor:
#      x y z
#    x 1.797080 0.000000 0.000130 
#    y 0.000000 1.780770 0.000000 
#    z 0.000130 0.000000 1.762740 
# 
# From -- ./inp_files/123802.got.cif
#   From: 2010.06.25/outbox.cif.g09.slc.cpg/sg12_62_cif.got.tgz:123802.got - 2010.06.28 00:19:55.
