data_PCOD8107799
_publ_section_title
;
Structure prediction by ZEFSAII (Michael W. Deem and Ramdas Pophale) SiO2 
 PCOD8107799
Probable space group: C 2/M
;
_chemical_formula_sum "Si O2"
_cell_formula_units_Z 48
_cell_length_a 14.181937
_cell_length_b 8.762293
_cell_length_c 22.338040
_cell_angle_alpha 90.000000
_cell_angle_beta 71.216680
_cell_angle_gamma 90.000000
_cell_volume 2628.031145
_symmetry_space_group_name_H-M "C 2/M"
_symmetry_group_IT_number 12
_symmetry_cell_setting 'monoclinic'
loop_
_space_group_symop_operation_xyz
x,y,z
-x,y,-z
-x,-y,-z
x,-y,z
1/2+x,1/2+y,z
1/2-x,1/2+y,-z
1/2-x,1/2-y,-z
1/2+x,1/2-y,z
loop_
_atom_site_type_symbol
_atom_site_label
_atom_site_fract_x
_atom_site_fract_y
_atom_site_fract_z
Si Si1 0.819904 0.178576 0.660906
Si Si2 0.716922 0.318454 0.569169
Si Si3 0.449574 0.320501 0.099280
Si Si4 0.851855 0.180573 0.999935
Si Si5 0.616469 0.826102 0.766387
Si Si6 0.475683 0.820309 0.339522
O O1 0.791112 0.250309 0.603392
O O2 0.730860 0.204939 0.725920
O O3 0.914699 0.264954 0.667427
O O4 0.842337 0.000000 0.647388
O O5 0.725220 0.500000 0.567226
O O6 0.750000 0.250000 0.500000
O O7 0.603223 0.268970 0.603551
O O8 0.451465 0.500000 0.095089
O O9 0.375572 0.260459 0.062410
O O10 0.412261 0.275180 0.171807
O O11 0.561234 0.260985 0.062744
O O12 0.843355 0.000000 0.000064
O O13 0.750000 0.250000 0.000000
O O14 0.545384 0.782240 0.725527
O O15 0.600229 0.000000 0.788318
O O16 0.463318 0.000000 0.354282
#
# Coordination Sequence:
#
# PCOD8107799 Si02
#       6
#     8   8   8   8   8   8
#     4  10  21  38  57  81 111 143 180 223 267 318
#     4  11  22  38  59  83 111 144 180 222 269 318
#     4   9  19  35  53  73 103 138 174 213 262 318
#     4   9  19  35  52  74 102 135 173 217 262 312
#     4   9  20  36  54  78 109 139 175 220 265 314
#     4  10  21  38  57  81 111 143 180 223 267 318
#
# _framework density 18.264624000000001
#
# number of rings (size 3 to 8) (size 9 to 14) (size 15 to 20)
#    0.000    2.333    0.000    4.500    0.000    7.333 
#    0.000   11.667    0.000    0.000    0.000    0.000 
#    0.000    0.000    0.000    0.000    0.000    0.000 
#
# Total GULP energy -297591.950612 kJ/mol
# GULP energy per Si atom -12399.664609 kJ/mol
# Density = 1.822305 g / cm^3
# Si number density = 18.264624 Si / 1000 Ang^3
#
#
#
# Elastic Constant Matrix: (Units=GPa)
#
#
# Indices 1 2 3 4 5 6 
#
# 1 134.0662 19.0150 54.3148 0.0000 5.4718 0.0000
# 2 19.0150 55.6339 37.7806 0.0000 3.9867 0.0000
# 3 54.3148 37.7806 129.0441 0.0000 3.4428 0.0000
# 4 0.0000 0.0000 0.0000 35.2175 0.0000 -0.0425
# 5 5.4718 3.9867 3.4428 0.0000 12.9167 0.0000
# 6 0.0000 0.0000 0.0000 -0.0425 0.0000 36.1928
#
#
#
# Elastic Compliance Matrix: (Units=1/GPa)
#
#
# Indices 1 2 3 4 5 6 
#
# 1 0.009105 -0.000452 -0.003626 0.000000 -0.002751 0.000000
# 2 -0.000452 0.022811 -0.006351 0.000000 -0.005156 0.000000
# 3 -0.003626 -0.006351 0.011121 0.000000 0.000532 0.000000
# 4 0.000000 0.000000 0.000000 0.028395 0.000000 0.000033
# 5 -0.002751 -0.005156 0.000532 0.000000 0.080034 0.000000
# 6 0.000000 0.000000 0.000000 0.000033 0.000000 0.027630
#
#
# Mechanical properties :
#
#
# Convention : Reuss Voigt Hill
#
# Bulk Modulus (GPa) = 45.08893 60.10722 52.59808
# Shear Modulus (GPa) = 24.11420 30.70765 27.41093
#
# Velocity S-wave (km/s) = 3.63749 4.10477 3.87817
# Velocity P-wave (km/s) = 6.51014 7.44621 6.99385
#
# Compressibility (1/GPa) = 0.02217839
#
# Stress axis : x y z
#
# Youngs Moduli (GPa) = 109.83510 43.83779 89.92206
#
# Poissons Ratio (x) = 0.01982 0.32609
# Poissons Ratio (y) = 0.04965 0.57107
# Poissons Ratio (z) = 0.39830 0.27840
#
# Static dielectric constant tensor:
#      x y z
#    x 3.763430 0.000000 -0.011820 
#    y 0.000000 3.365300 0.000000 
#    z -0.011820 0.000000 3.421750 
# 
# 
# High freq. dielectric constant tensor:
#      x y z
#    x 1.715390 0.000000 0.000920 
#    y 0.000000 1.712000 0.000000 
#    z 0.000920 0.000000 1.711510 
# 
# From -- ./inp_files/308309.got.cif
#   From: 2010.06.25/outbox.cif.g09.slc.cpg/sg12_155_cif.got.tgz:308309.got - 2010.06.28 00:19:55.
