data_PCOD8107407
_publ_section_title
;
Structure prediction by ZEFSAII (Michael W. Deem and Ramdas Pophale) SiO2 
 PCOD8107407
Probable space group: C 2/M
;
_chemical_formula_sum "Si O2"
_cell_formula_units_Z 48
_cell_length_a 8.201096
_cell_length_b 22.843254
_cell_length_c 11.463181
_cell_angle_alpha 90.000000
_cell_angle_beta 107.362837
_cell_angle_gamma 90.000000
_cell_volume 2049.655902
_symmetry_space_group_name_H-M "C 2/M"
_symmetry_group_IT_number 12
_symmetry_cell_setting 'monoclinic'
loop_
_space_group_symop_operation_xyz
x,y,z
-x,y,-z
-x,-y,-z
x,-y,z
1/2+x,1/2+y,z
1/2-x,1/2+y,-z
1/2-x,1/2-y,-z
1/2+x,1/2-y,z
loop_
_atom_site_type_symbol
_atom_site_label
_atom_site_fract_x
_atom_site_fract_y
_atom_site_fract_z
Si Si1 0.380472 0.826771 0.070882
Si Si2 0.083870 0.726047 0.681509
Si Si3 0.389942 0.934238 0.812247
Si Si4 0.099689 0.836987 0.342937
Si Si5 0.138728 0.619864 0.438973
Si Si6 0.909508 0.892241 0.094087
O O1 0.378243 0.781002 0.174094
O O2 0.457874 0.890696 0.120735
O O3 0.500000 0.796936 0.000000
O O4 0.190031 0.835955 0.980123
O O5 0.252728 0.709776 0.649820
O O6 0.055736 0.795316 0.648452
O O7 0.927060 0.684743 0.609535
O O8 0.332469 0.920148 0.667911
O O9 0.227596 0.931334 0.864917
O O10 0.462675 0.000000 0.833503
O O11 0.173558 0.878702 0.460190
O O12 0.055150 0.873573 0.217548
O O13 0.000000 0.591984 0.500000
O O14 0.000000 0.923475 0.000000
#
# Coordination Sequence:
#
# PCOD8107407 Si02
#       6
#     8   8   8   8   8   8
#     4   9  20  38  61  88 126 163 212 261 306 369
#     4  10  21  37  59  92 124 173 217 249 309 372
#     4  10  23  44  72  94 117 164 218 265 325 379
#     4  11  23  37  62  93 129 173 212 253 313 374
#     4   9  21  43  65  92 129 162 210 270 315 374
#     4  11  23  41  61  91 136 167 201 265 316 371
#
# _framework density 23.418565999999998
#
# number of rings (size 3 to 8) (size 9 to 14) (size 15 to 20)
#    0.000    2.000    1.667    0.500    7.000    5.667 
#    0.000    1.667    0.000    0.000    0.000    0.000 
#    0.000    0.000    0.000    0.000    0.000    0.000 
#
# Total GULP energy -297468.098428 kJ/mol
# GULP energy per Si atom -12394.504101 kJ/mol
# Density = 2.336526 g / cm^3
# Si number density = 23.418566 Si / 1000 Ang^3
#
#
#
# Elastic Constant Matrix: (Units=GPa)
#
#
# Indices 1 2 3 4 5 6 
#
# 1 64.0239 5.8352 26.5980 0.0000 -2.7325 0.0000
# 2 5.8352 49.3627 5.5842 0.0000 5.2696 0.0000
# 3 26.5980 5.5842 141.9805 0.0000 7.1113 0.0000
# 4 0.0000 0.0000 0.0000 14.6180 0.0000 -2.6689
# 5 -2.7325 5.2696 7.1113 0.0000 49.4648 0.0000
# 6 0.0000 0.0000 0.0000 -2.6689 0.0000 12.5919
#
#
#
# Elastic Compliance Matrix: (Units=1/GPa)
#
#
# Indices 1 2 3 4 5 6 
#
# 1 0.017197 -0.001839 -0.003230 0.000000 0.001610 0.000000
# 2 -0.001839 0.020758 -0.000359 0.000000 -0.002261 0.000000
# 3 -0.003230 -0.000359 0.007725 0.000000 -0.001251 0.000000
# 4 0.000000 0.000000 0.000000 0.071163 0.000000 0.015083
# 5 0.001610 -0.002261 -0.001251 0.000000 0.020726 0.000000
# 6 0.000000 0.000000 0.000000 0.015083 0.000000 0.082613
#
#
# Mechanical properties :
#
#
# Convention : Reuss Voigt Hill
#
# Bulk Modulus (GPa) = 28.71572 36.82243 32.76908
# Shear Modulus (GPa) = 20.60615 29.82491 25.21553
#
# Velocity S-wave (km/s) = 2.96954 3.57257 3.28492
# Velocity P-wave (km/s) = 4.90368 5.72498 5.33017
#
# Compressibility (1/GPa) = 0.03482413
#
# Stress axis : x y z
#
# Youngs Moduli (GPa) = 58.14825 48.17510 129.44867
#
# Poissons Ratio (x) = 0.08861 0.41812
# Poissons Ratio (y) = 0.10696 0.04641
# Poissons Ratio (z) = 0.18782 0.01727
#
# Static dielectric constant tensor:
#      x y z
#    x 4.356950 0.000000 -0.040650 
#    y 0.000000 3.565650 0.000000 
#    z -0.040650 0.000000 4.771470 
# 
# 
# High freq. dielectric constant tensor:
#      x y z
#    x 1.928470 0.000000 -0.004940 
#    y 0.000000 1.863760 0.000000 
#    z -0.004940 0.000000 1.958720 
# 
# From -- ./inp_files/122545.got.cif
#   From: 2010.06.25/outbox.cif.g09.slc.cpg/sg12_62_cif.got.tgz:122545.got - 2010.06.28 00:19:55.
