data_PCOD8107568
_publ_section_title
;
Structure prediction by ZEFSAII (Michael W. Deem and Ramdas Pophale) SiO2 
 PCOD8107568
Probable space group: C 2/M
;
_chemical_formula_sum "Si O2"
_cell_formula_units_Z 40
_cell_length_a 26.219454
_cell_length_b 18.453880
_cell_length_c 9.340823
_cell_angle_alpha 90.000000
_cell_angle_beta 151.131118
_cell_angle_gamma 90.000000
_cell_volume 2182.076087
_symmetry_space_group_name_H-M "C 2/M"
_symmetry_group_IT_number 12
_symmetry_cell_setting 'monoclinic'
loop_
_space_group_symop_operation_xyz
x,y,z
-x,y,-z
-x,-y,-z
x,-y,z
1/2+x,1/2+y,z
1/2-x,1/2+y,-z
1/2-x,1/2-y,-z
1/2+x,1/2-y,z
loop_
_atom_site_type_symbol
_atom_site_label
_atom_site_fract_x
_atom_site_fract_y
_atom_site_fract_z
Si Si1 0.706209 0.915399 0.066361
Si Si2 0.795440 0.681281 0.197225
Si Si3 0.029780 0.303357 0.726699
Si Si4 0.618845 0.416296 0.273388
Si Si5 0.810526 0.800652 0.759209
O O1 0.812681 0.899991 0.416980
O O2 0.676293 0.000000 0.991749
O O3 0.731026 0.888774 0.965849
O O4 0.608033 0.872187 0.896617
O O5 0.747415 0.681185 0.235994
O O6 0.920699 0.677233 0.535939
O O7 0.750000 0.750000 0.000000
O O8 0.000000 0.270056 0.500000
O O9 0.080557 0.239991 0.943339
O O10 0.618580 0.500000 0.233247
O O11 0.669991 0.377786 0.263471
O O12 0.500000 0.387072 0.000000
O O13 0.750000 0.750000 0.500000
#
# Coordination Sequence:
#
# PCOD8107568 Si02
#       5
#     8   8   8   8   8
#     4  10  21  42  63  87 121 162 203 243 300 366
#     4  11  22  38  58  90 122 153 202 246 300 350
#     4  10  21  37  61  90 119 157 198 249 296 362
#     4  10  23  41  61  87 124 163 200 245 305 363
#     4  12  23  37  62  91 122 157 199 251 306 348
#
# _framework density 18.331166
#
# number of rings (size 3 to 8) (size 9 to 14) (size 15 to 20)
#    0.000    1.400    6.000    0.000    5.600    4.400 
#    0.000    0.000    0.000    6.600    0.000    0.000 
#    0.000    0.000    0.000    0.000    0.000    0.000 
#
# Total GULP energy -247903.457571 kJ/mol
# GULP energy per Si atom -12395.172879 kJ/mol
# Density = 1.828944 g / cm^3
# Si number density = 18.331166 Si / 1000 Ang^3
#
#
#
# Elastic Constant Matrix: (Units=GPa)
#
#
# Indices 1 2 3 4 5 6 
#
# 1 146.6101 54.4516 58.8091 0.0000 -4.3368 0.0000
# 2 54.4516 82.7904 49.9278 0.0000 -3.7557 0.0000
# 3 58.8091 49.9278 141.0027 0.0000 4.5566 0.0000
# 4 0.0000 0.0000 0.0000 33.0620 0.0000 -5.3638
# 5 -4.3368 -3.7557 4.5566 0.0000 27.2216 0.0000
# 6 0.0000 0.0000 0.0000 -5.3638 0.0000 29.6778
#
#
#
# Elastic Compliance Matrix: (Units=1/GPa)
#
#
# Indices 1 2 3 4 5 6 
#
# 1 0.009591 -0.004851 -0.002323 0.000000 0.001248 0.000000
# 2 -0.004851 0.018067 -0.004454 0.000000 0.002465 0.000000
# 3 -0.002323 -0.004454 0.009722 0.000000 -0.002612 0.000000
# 4 0.000000 0.000000 0.000000 0.031160 0.000000 0.005632
# 5 0.001248 0.002465 -0.002612 0.000000 0.037712 0.000000
# 6 0.000000 0.000000 0.000000 0.005632 0.000000 0.034713
#
#
# Mechanical properties :
#
#
# Convention : Reuss Voigt Hill
#
# Bulk Modulus (GPa) = 70.79480 77.42003 74.10742
# Shear Modulus (GPa) = 29.59839 31.80659 30.70249
#
# Velocity S-wave (km/s) = 4.02263 4.16998 4.09697
# Velocity P-wave (km/s) = 7.76396 8.09387 7.93064
#
# Compressibility (1/GPa) = 0.01412533
#
# Stress axis : x y z
#
# Youngs Moduli (GPa) = 104.26383 55.35031 102.85504
#
# Poissons Ratio (x) = 0.26848 0.23893
# Poissons Ratio (y) = 0.50574 0.45810
# Poissons Ratio (z) = 0.24220 0.24652
#
# Static dielectric constant tensor:
#      x y z
#    x 5.408180 0.000000 0.582540 
#    y 0.000000 3.380600 0.000000 
#    z 0.582540 0.000000 3.995170 
# 
# 
# High freq. dielectric constant tensor:
#      x y z
#    x 1.702270 0.000000 0.001120 
#    y 0.000000 1.705330 0.000000 
#    z 0.001120 0.000000 1.735420 
# 
# From -- ./inp_files/46959.got.cif
#   From: 2010.06.25/outbox.cif.g09.slc.cpg/sg12_24_cif.got.tgz:46959.got - 2010.06.28 00:19:55.
