data_PCOD8107856
_publ_section_title
;
Structure prediction by ZEFSAII (Michael W. Deem and Ramdas Pophale) SiO2 
 PCOD8107856
Probable space group: C 2/M
;
_chemical_formula_sum "Si O2"
_cell_formula_units_Z 48
_cell_length_a 14.356643
_cell_length_b 8.692127
_cell_length_c 19.152814
_cell_angle_alpha 90.000000
_cell_angle_beta 91.239041
_cell_angle_gamma 90.000000
_cell_volume 2389.516300
_symmetry_space_group_name_H-M "C 2/M"
_symmetry_group_IT_number 12
_symmetry_cell_setting 'monoclinic'
loop_
_space_group_symop_operation_xyz
x,y,z
-x,y,-z
-x,-y,-z
x,-y,z
1/2+x,1/2+y,z
1/2-x,1/2+y,-z
1/2-x,1/2-y,-z
1/2+x,1/2-y,z
loop_
_atom_site_type_symbol
_atom_site_label
_atom_site_fract_x
_atom_site_fract_y
_atom_site_fract_z
Si Si1 0.108974 0.170195 0.516516
Si Si2 0.629451 0.680644 0.363781
Si Si3 0.895980 0.681987 0.005701
Si Si4 0.274353 0.320632 0.263241
Si Si5 0.069292 0.678040 0.650986
Si Si6 0.757152 0.819679 0.104609
O O1 0.156904 0.224755 0.444576
O O2 0.127849 0.287121 0.580592
O O3 0.000000 0.162649 0.500000
O O4 0.144819 0.000000 0.538401
O O5 0.646212 0.500000 0.351039
O O6 0.690288 0.781861 0.313256
O O7 0.522097 0.718119 0.346782
O O8 0.900724 0.500000 0.008572
O O9 0.833839 0.739012 0.938989
O O10 0.850355 0.740647 0.076692
O O11 0.000000 0.751097 0.000000
O O12 0.298540 0.500000 0.269429
O O13 0.365601 0.221751 0.283075
O O14 0.243611 0.274226 0.184883
O O15 0.041854 0.500000 0.653307
O O16 0.769835 0.000000 0.094791
#
# Coordination Sequence:
#
# PCOD8107856 Si02
#       6
#     8   8   8   8   8   8
#     4   8  16  33  55  77 105 141 183 234 284 332
#     4  10  21  38  58  81 110 145 187 233 284 339
#     4   9  18  35  60  86 111 141 176 216 265 321
#     4  11  23  38  55  79 115 153 189 229 272 326
#     4  11  22  36  56  81 109 145 190 236 285 336
#     4   9  20  37  55  81 114 144 178 220 265 318
#
# _framework density 20.087748000000001
#
# number of rings (size 3 to 8) (size 9 to 14) (size 15 to 20)
#    0.000    2.333    0.000    3.500    0.000    7.333 
#    0.000    1.667    0.000    0.000    0.000    0.000 
#    0.000    0.000    0.000    0.000    0.000    0.000 
#
# Total GULP energy -297597.007695 kJ/mol
# GULP energy per Si atom -12399.875321 kJ/mol
# Density = 2.004203 g / cm^3
# Si number density = 20.087748 Si / 1000 Ang^3
#
#
#
# Elastic Constant Matrix: (Units=GPa)
#
#
# Indices 1 2 3 4 5 6 
#
# 1 73.4946 4.0308 23.5851 0.0000 -3.0151 0.0000
# 2 4.0308 49.8803 24.9600 0.0000 2.6180 0.0000
# 3 23.5851 24.9600 102.6466 0.0000 0.2117 0.0000
# 4 0.0000 0.0000 0.0000 25.5185 0.0000 -4.4840
# 5 -3.0151 2.6180 0.2117 0.0000 24.9421 0.0000
# 6 0.0000 0.0000 0.0000 -4.4840 0.0000 29.7323
#
#
#
# Elastic Compliance Matrix: (Units=1/GPa)
#
#
# Indices 1 2 3 4 5 6 
#
# 1 0.014781 0.000471 -0.003515 0.000000 0.001767 0.000000
# 2 0.000471 0.022979 -0.005691 0.000000 -0.002307 0.000000
# 3 -0.003515 -0.005691 0.011933 0.000000 0.000071 0.000000
# 4 0.000000 0.000000 0.000000 0.040254 0.000000 0.006071
# 5 0.001767 -0.002307 0.000071 0.000000 0.040548 0.000000
# 6 0.000000 0.000000 0.000000 0.006071 0.000000 0.034549
#
#
# Mechanical properties :
#
#
# Convention : Reuss Voigt Hill
#
# Bulk Modulus (GPa) = 31.03208 36.79703 33.91456
# Shear Modulus (GPa) = 25.87267 27.60163 26.73715
#
# Velocity S-wave (km/s) = 3.59274 3.71084 3.65227
# Velocity P-wave (km/s) = 5.71771 6.05957 5.89112
#
# Compressibility (1/GPa) = 0.03222471
#
# Stress axis : x y z
#
# Youngs Moduli (GPa) = 67.65475 43.51831 83.79815
#
# Poissons Ratio (x) = -0.02052 0.29451
# Poissons Ratio (y) = -0.03190 0.47691
# Poissons Ratio (z) = 0.23777 0.24767
#
# Static dielectric constant tensor:
#      x y z
#    x 3.624220 0.000000 0.038590 
#    y 0.000000 3.497870 0.000000 
#    z 0.038590 0.000000 3.852360 
# 
# 
# High freq. dielectric constant tensor:
#      x y z
#    x 1.780260 0.000000 0.000800 
#    y 0.000000 1.777490 0.000000 
#    z 0.000800 0.000000 1.782710 
# 
# From -- ./inp_files/267642.got.cif
#   From: 2010.06.25/outbox.cif.g09.slc.cpg/sg12_134_cif.got.tgz:267642.got - 2010.06.28 00:19:55.
