data_PCOD8107821
_publ_section_title
;
Structure prediction by ZEFSAII (Michael W. Deem and Ramdas Pophale) SiO2 
 PCOD8107821
Probable space group: C 2/M
;
_chemical_formula_sum "Si O2"
_cell_formula_units_Z 64
_cell_length_a 14.193796
_cell_length_b 13.188524
_cell_length_c 17.165249
_cell_angle_alpha 90.000000
_cell_angle_beta 114.068837
_cell_angle_gamma 90.000000
_cell_volume 2933.879943
_symmetry_space_group_name_H-M "C 2/M"
_symmetry_group_IT_number 12
_symmetry_cell_setting 'monoclinic'
loop_
_space_group_symop_operation_xyz
x,y,z
-x,y,-z
-x,-y,-z
x,-y,z
1/2+x,1/2+y,z
1/2-x,1/2+y,-z
1/2-x,1/2-y,-z
1/2+x,1/2-y,z
loop_
_atom_site_type_symbol
_atom_site_label
_atom_site_fract_x
_atom_site_fract_y
_atom_site_fract_z
Si Si1 0.556175 0.620594 0.440899
Si Si2 0.017624 0.817985 0.750106
Si Si3 0.712739 0.119891 0.488311
Si Si4 0.882652 0.240415 0.965426
Si Si5 0.153976 0.384266 0.633385
Si Si6 0.192821 0.880531 0.915251
Si Si7 0.467294 0.114704 0.679242
Si Si8 0.662524 0.616241 0.203216
O O1 0.500000 0.658514 0.500000
O O2 0.560757 0.500000 0.439254
O O3 0.492228 0.660019 0.345180
O O4 0.672396 0.667053 0.479999
O O5 0.131039 0.851159 0.815912
O O6 0.002092 0.695673 0.756689
O O7 0.933680 0.879611 0.770465
O O8 0.660787 0.164392 0.549687
O O9 0.645788 0.146718 0.389333
O O10 0.719576 0.000000 0.495362
O O11 0.808308 0.336816 0.950360
O O12 0.854883 0.180861 0.878834
O O13 0.871029 0.164683 0.034129
O O14 0.000000 0.280017 0.000000
O O15 0.190134 0.500000 0.638234
O O16 0.039047 0.375889 0.627188
O O17 0.236750 0.335446 0.721030
O O18 0.201656 0.000000 0.928115
O O19 0.471506 0.000000 0.715308
O O20 0.679358 0.500000 0.183325
#
# Coordination Sequence:
#
# PCOD8107821 Si02
#       8
#     8   8   8   8   8   8   8   8
#     4  10  21  38  57  85 125 168 215 269 327 386
#     4  12  23  40  64  93 126 170 222 273 324 389
#     4   9  17  34  57  82 115 163 215 266 326 382
#     4  11  24  44  71 105 137 173 216 262 325 406
#     4   9  17  33  59  86 117 159 209 263 320 375
#     4  11  25  46  73 105 139 172 214 271 327 392
#     4  10  22  38  56  84 125 168 214 272 331 386
#     4  11  21  38  68  99 130 170 218 274 322 377
#
# _framework density 21.814117
#
# number of rings (size 3 to 8) (size 9 to 14) (size 15 to 20)
#    0.000    1.625    2.500    2.625    0.000    3.750 
#    4.500    3.125    0.000    0.000    0.000    0.000 
#    0.000    0.000    0.000    0.000    0.000    0.000 
#
# Total GULP energy -396818.990521 kJ/mol
# GULP energy per Si atom -12400.593454 kJ/mol
# Density = 2.176447 g / cm^3
# Si number density = 21.814117 Si / 1000 Ang^3
#
#
#
# Elastic Constant Matrix: (Units=GPa)
#
#
# Indices 1 2 3 4 5 6 
#
# 1 101.5544 35.1283 43.7540 0.0000 13.6087 0.0000
# 2 35.1283 92.5310 33.2687 0.0000 12.5589 0.0000
# 3 43.7540 33.2687 100.8479 0.0000 8.2259 0.0000
# 4 0.0000 0.0000 0.0000 -27.9954 0.0000 116.8563
# 5 13.6087 12.5589 8.2259 0.0000 35.0843 0.0000
# 6 0.0000 0.0000 0.0000 116.8563 0.0000 -213.4958
#
#
#
# Elastic Compliance Matrix: (Units=1/GPa)
#
#
# Indices 1 2 3 4 5 6 
#
# 1 0.013226 -0.002994 -0.004506 0.000000 -0.003002 0.000000
# 2 -0.002994 0.013378 -0.002873 0.000000 -0.002954 0.000000
# 3 -0.004506 -0.002873 0.012838 0.000000 -0.000234 0.000000
# 4 0.000000 0.000000 0.000000 0.027804 0.000000 0.015219
# 5 -0.003002 -0.002954 -0.000234 0.000000 0.030779 0.000000
# 6 0.000000 0.000000 0.000000 0.015219 0.000000 0.003646
#
#
# Mechanical properties :
#
#
# Convention : Reuss Voigt Hill
#
# Bulk Modulus (GPa) = 53.48787 57.69282 55.59034
# Shear Modulus (GPa) = 38.86545 -29.09589 4.88478
#
# Velocity S-wave (km/s) = 4.22556 -3.65610 1.49804
# Velocity P-wave (km/s) = 6.95559 2.94655 5.34146
#
# Compressibility (1/GPa) = 0.01869583
#
# Stress axis : x y z
#
# Youngs Moduli (GPa) = 75.60837 74.75114 77.89497
#
# Poissons Ratio (x) = 0.22378 0.35098
# Poissons Ratio (y) = 0.22634 0.22383
# Poissons Ratio (z) = 0.34068 0.21479
#
# Static dielectric constant tensor:
#      x y z
#    x 4.034880 0.000000 0.127930 
#    y 0.000000 3.979400 0.000000 
#    z 0.127930 0.000000 3.990630 
# 
# 
# High freq. dielectric constant tensor:
#      x y z
#    x 1.854190 0.000000 0.012990 
#    y 0.000000 1.860970 0.000000 
#    z 0.012990 0.000000 1.854260 
# 
# From -- ./inp_files/270318.got.cif
#   From: 2010.06.25/outbox.cif.g09.slc.cpg/sg12_136_cif.got.tgz:270318.got - 2010.06.28 00:19:55.
