data_PCOD8107166
_publ_section_title
;
Structure prediction by ZEFSAII (Michael W. Deem and Ramdas Pophale) SiO2 
 PCOD8107166
Probable space group: C 2/M
;
_chemical_formula_sum "Si O2"
_cell_formula_units_Z 40
_cell_length_a 10.072010
_cell_length_b 8.966077
_cell_length_c 22.189196
_cell_angle_alpha 90.000000
_cell_angle_beta 96.331467
_cell_angle_gamma 90.000000
_cell_volume 1991.604528
_symmetry_space_group_name_H-M "C 2/M"
_symmetry_group_IT_number 12
_symmetry_cell_setting 'monoclinic'
loop_
_space_group_symop_operation_xyz
x,y,z
-x,y,-z
-x,-y,-z
x,-y,z
1/2+x,1/2+y,z
1/2-x,1/2+y,-z
1/2-x,1/2-y,-z
1/2+x,1/2-y,z
loop_
_atom_site_type_symbol
_atom_site_label
_atom_site_fract_x
_atom_site_fract_y
_atom_site_fract_z
Si Si1 0.037711 0.327341 0.758800
Si Si2 0.639643 0.675288 0.034564
Si Si3 0.821573 0.827223 0.827766
Si Si4 0.251820 0.826543 0.564364
Si Si5 0.501171 0.673296 0.634230
O O1 0.016666 0.500000 0.742135
O O2 0.906844 0.268974 0.785723
O O3 0.061390 0.238512 0.698471
O O4 0.165656 0.301453 0.807313
O O5 0.661238 0.500000 0.032861
O O6 0.649318 0.731761 0.103653
O O7 0.500000 0.726099 0.000000
O O8 0.750000 0.750000 0.000000
O O9 0.861885 0.000000 0.822365
O O10 0.250000 0.750000 0.500000
O O11 0.364036 0.755640 0.612133
O O12 0.107667 0.800769 0.586741
O O13 0.283467 0.000000 0.557718
O O14 0.469310 0.500000 0.641635
#
# Coordination Sequence:
#
# PCOD8107166 Si02
#       5
#     8   8   8   8   8
#     4  11  23  38  59  86 114 150 195 239 289 347
#     4  10  21  37  58  85 116 152 194 239 290 347
#     4  10  22  39  58  84 118 153 192 240 292 347
#     4  11  24  41  63  91 121 156 197 239 288 344
#     4  11  24  41  61  87 119 154 194 240 290 345
#
# _framework density 20.084308
#
# number of rings (size 3 to 8) (size 9 to 14) (size 15 to 20)
#    0.000    1.400    0.000    4.800    0.000   11.600 
#    0.000    0.000    0.000    0.000    0.000    0.000 
#    0.000    0.000    0.000    0.000    0.000    0.000 
#
# Total GULP energy -248148.985603 kJ/mol
# GULP energy per Si atom -12407.449280 kJ/mol
# Density = 2.003860 g / cm^3
# Si number density = 20.084308 Si / 1000 Ang^3
#
#
#
# Elastic Constant Matrix: (Units=GPa)
#
#
# Indices 1 2 3 4 5 6 
#
# 1 90.4355 51.1852 22.0727 0.0000 -2.1842 0.0000
# 2 51.1852 99.0795 41.9863 0.0000 -6.6044 0.0000
# 3 22.0727 41.9863 118.6891 0.0000 -1.2362 0.0000
# 4 0.0000 0.0000 0.0000 37.7542 0.0000 -4.1374
# 5 -2.1842 -6.6044 -1.2362 0.0000 39.3649 0.0000
# 6 0.0000 0.0000 0.0000 -4.1374 0.0000 34.2280
#
#
#
# Elastic Compliance Matrix: (Units=1/GPa)
#
#
# Indices 1 2 3 4 5 6 
#
# 1 0.015636 -0.008089 -0.000052 0.000000 -0.000491 0.000000
# 2 -0.008089 0.016195 -0.004202 0.000000 0.002136 0.000000
# 3 -0.000052 -0.004202 0.009917 0.000000 -0.000396 0.000000
# 4 0.000000 0.000000 0.000000 0.026843 0.000000 0.003245
# 5 -0.000491 0.002136 -0.000396 0.000000 0.025722 0.000000
# 6 0.000000 0.000000 0.000000 0.003245 0.000000 0.029608
#
#
# Mechanical properties :
#
#
# Convention : Reuss Voigt Hill
#
# Bulk Modulus (GPa) = 58.60585 59.85474 59.23030
# Shear Modulus (GPa) = 32.40546 35.13341 33.76943
#
# Velocity S-wave (km/s) = 4.02116 4.18700 4.10492
# Velocity P-wave (km/s) = 7.12762 7.29664 7.21263
#
# Compressibility (1/GPa) = 0.01706314
#
# Stress axis : x y z
#
# Youngs Moduli (GPa) = 63.95298 61.74800 100.83238
#
# Poissons Ratio (x) = 0.49947 0.00521
# Poissons Ratio (y) = 0.51730 0.42374
# Poissons Ratio (z) = 0.00330 0.25949
#
# Static dielectric constant tensor:
#      x y z
#    x 3.700230 0.000000 0.206670 
#    y 0.000000 3.717890 0.000000 
#    z 0.206670 0.000000 4.087770 
# 
# 
# High freq. dielectric constant tensor:
#      x y z
#    x 1.795270 0.000000 0.002660 
#    y 0.000000 1.789450 0.000000 
#    z 0.002660 0.000000 1.801810 
# 
# From -- ./inp_files/260961.got.cif
#   From: 2010.06.25/outbox.cif.g09.slc.cpg/sg12_131_cif.got.tgz:260961.got - 2010.06.28 00:19:55.
