data_PCOD8107386
_publ_section_title
;
Structure prediction by ZEFSAII (Michael W. Deem and Ramdas Pophale) SiO2 
 PCOD8107386
Probable space group: C 2/M
;
_chemical_formula_sum "Si O2"
_cell_formula_units_Z 56
_cell_length_a 26.723304
_cell_length_b 8.815063
_cell_length_c 12.506891
_cell_angle_alpha 90.000000
_cell_angle_beta 111.816871
_cell_angle_gamma 90.000000
_cell_volume 2735.199737
_symmetry_space_group_name_H-M "C 2/M"
_symmetry_group_IT_number 12
_symmetry_cell_setting 'monoclinic'
loop_
_space_group_symop_operation_xyz
x,y,z
-x,y,-z
-x,-y,-z
x,-y,z
1/2+x,1/2+y,z
1/2-x,1/2+y,-z
1/2-x,1/2-y,-z
1/2+x,1/2-y,z
loop_
_atom_site_type_symbol
_atom_site_label
_atom_site_fract_x
_atom_site_fract_y
_atom_site_fract_z
Si Si1 0.390590 0.826254 0.514806
Si Si2 0.607386 0.174600 0.725000
Si Si3 0.845677 0.322771 0.829138
Si Si4 0.956341 0.826787 0.877101
Si Si5 0.692045 0.178832 0.968255
Si Si6 0.302778 0.678579 0.591281
Si Si7 0.494458 0.674918 0.670902
O O1 0.369406 0.808996 0.376688
O O2 0.355474 0.724257 0.566211
O O3 0.452557 0.772380 0.567823
O O4 0.386376 0.000000 0.549657
O O5 0.554693 0.275625 0.693811
O O6 0.592621 0.000000 0.738617
O O7 0.652523 0.236201 0.842664
O O8 0.835011 0.500000 0.805921
O O9 0.907457 0.287594 0.853182
O O10 0.832182 0.267858 0.937873
O O11 0.807417 0.233468 0.716856
O O12 0.984066 0.795893 0.786715
O O13 0.935451 0.000000 0.870066
O O14 0.000000 0.787254 0.000000
O O15 0.698297 0.000000 0.967607
O O16 0.750000 0.250000 0.000000
O O17 0.296915 0.500000 0.584887
O O18 0.250000 0.750000 0.500000
O O19 0.487353 0.500000 0.633497
#
# Coordination Sequence:
#
# PCOD8107386 Si02
#       7
#     8   8   8   8   8   8   8
#     4  11  23  41  65  94 128 168 211 257 314 376
#     4  10  23  42  63  90 127 169 211 258 314 373
#     4  11  23  41  65  95 127 163 211 261 313 376
#     4  10  21  37  59  89 126 168 212 258 312 371
#     4  10  24  44  65  93 125 164 213 262 315 374
#     4  12  26  44  67  95 128 165 210 262 319 380
#     4  11  22  37  60  93 128 166 211 258 311 372
#
# _framework density 20.473825000000001
#
# number of rings (size 3 to 8) (size 9 to 14) (size 15 to 20)
#    0.000    1.286    1.429    3.857    2.000    5.429 
#    0.000    0.000    0.000    0.000    0.000    0.000 
#    0.000    0.000    0.000    0.000    0.000    0.000 
#
# Total GULP energy -347384.582807 kJ/mol
# GULP energy per Si atom -12406.592243 kJ/mol
# Density = 2.042723 g / cm^3
# Si number density = 20.473825 Si / 1000 Ang^3
#
#
#
# Elastic Constant Matrix: (Units=GPa)
#
#
# Indices 1 2 3 4 5 6 
#
# 1 63.4474 23.0665 30.1442 0.0000 11.5618 0.0000
# 2 23.0665 96.2379 46.7675 0.0000 1.4358 0.0000
# 3 30.1442 46.7675 154.2391 0.0000 10.5300 0.0000
# 4 0.0000 0.0000 0.0000 28.7415 0.0000 5.6448
# 5 11.5618 1.4358 10.5300 0.0000 33.4463 0.0000
# 6 0.0000 0.0000 0.0000 5.6448 0.0000 40.1778
#
#
#
# Elastic Compliance Matrix: (Units=1/GPa)
#
#
# Indices 1 2 3 4 5 6 
#
# 1 0.019137 -0.003371 -0.002326 0.000000 -0.005738 0.000000
# 2 -0.003371 0.012794 -0.003334 0.000000 0.001666 0.000000
# 3 -0.002326 -0.003334 0.008058 0.000000 -0.001589 0.000000
# 4 0.000000 0.000000 0.000000 0.035780 0.000000 -0.005027
# 5 -0.005738 0.001666 -0.001589 0.000000 0.032311 0.000000
# 6 0.000000 0.000000 0.000000 -0.005027 0.000000 0.025596
#
#
# Mechanical properties :
#
#
# Convention : Reuss Voigt Hill
#
# Bulk Modulus (GPa) = 45.60702 57.09787 51.35245
# Shear Modulus (GPa) = 31.43698 34.73620 33.08659
#
# Velocity S-wave (km/s) = 3.92276 4.12347 4.02437
# Velocity P-wave (km/s) = 6.54534 7.11473 6.83597
#
# Compressibility (1/GPa) = 0.02192645
#
# Stress axis : x y z
#
# Youngs Moduli (GPa) = 52.25344 78.15956 124.10568
#
# Poissons Ratio (x) = 0.26346 0.28872
# Poissons Ratio (y) = 0.17613 0.41381
# Poissons Ratio (z) = 0.12156 0.26061
#
# Static dielectric constant tensor:
#      x y z
#    x 3.655240 0.000000 -0.085030 
#    y 0.000000 3.730990 0.000000 
#    z -0.085030 0.000000 4.335720 
# 
# 
# High freq. dielectric constant tensor:
#      x y z
#    x 1.799220 0.000000 -0.001150 
#    y 0.000000 1.801670 0.000000 
#    z -0.001150 0.000000 1.823370 
# 
# From -- ./inp_files/181014.got.cif
#   From: 2010.06.25/outbox.cif.g09.slc.cpg/sg12_91_cif.got.tgz:181014.got - 2010.06.28 00:19:55.
