data_PCOD8107750
_publ_section_title
;
Structure prediction by ZEFSAII (Michael W. Deem and Ramdas Pophale) SiO2 
 PCOD8107750
Probable space group: C 2/M
;
_chemical_formula_sum "Si O2"
_cell_formula_units_Z 48
_cell_length_a 19.080898
_cell_length_b 14.291466
_cell_length_c 18.707883
_cell_angle_alpha 90.000000
_cell_angle_beta 30.173470
_cell_angle_gamma 90.000000
_cell_volume 2564.128255
_symmetry_space_group_name_H-M "C 2/M"
_symmetry_group_IT_number 12
_symmetry_cell_setting 'monoclinic'
loop_
_space_group_symop_operation_xyz
x,y,z
-x,y,-z
-x,-y,-z
x,-y,z
1/2+x,1/2+y,z
1/2-x,1/2+y,-z
1/2-x,1/2-y,-z
1/2+x,1/2-y,z
loop_
_atom_site_type_symbol
_atom_site_label
_atom_site_fract_x
_atom_site_fract_y
_atom_site_fract_z
Si Si1 0.904822 0.823404 0.390847
Si Si2 0.157107 0.701114 0.840851
Si Si3 0.380122 0.785770 0.285345
Si Si4 0.324746 0.240846 0.822984
Si Si5 0.545609 0.500000 0.572444
Si Si6 0.724318 0.500000 0.283370
Si Si7 0.334201 0.112484 0.943548
O O1 0.745265 0.824450 0.555726
O O2 0.921895 0.810501 0.289567
O O3 0.007172 0.744903 0.335992
O O4 0.972187 0.917938 0.356437
O O5 0.177481 0.737727 0.742209
O O6 0.253087 0.764268 0.808216
O O7 0.189739 0.590937 0.815318
O O8 0.000000 0.718808 0.000000
O O9 0.507760 0.859350 0.172493
O O10 0.294568 0.149511 0.898657
O O11 0.268717 0.336131 0.910274
O O12 0.690459 0.500000 0.398715
O O13 0.421573 0.500000 0.626692
O O14 0.318041 0.000000 0.961872
#
# Coordination Sequence:
#
# PCOD8107750 Si02
#       7
#     8   8   8   8   4   4   8
#     4  10  21  38  55  82 112 153 190 233 275 344
#     4  12  22  35  55  82 117 147 184 235 283 344
#     4  10  22  37  57  83 114 148 191 233 287 327
#     4  10  22  38  57  84 114 153 192 228 287 342
#     4  11  20  34  56  80 115 146 189 225 291 351
#     4  11  23  32  50  88 117 146 178 234 293 347
#     4  10  22  39  58  83 114 153 192 232 279 343
#
# _framework density 18.719812999999998
#
# number of rings (size 3 to 8) (size 9 to 14) (size 15 to 20)
#    0.000    1.500    5.000    0.250    4.667    0.667 
#    0.000    0.000    1.833    0.500    0.000    3.500 
#    0.000    0.000    0.000    0.000    0.000    0.000 
#
# Total GULP energy -297326.121269 kJ/mol
# GULP energy per Si atom -12388.588386 kJ/mol
# Density = 1.867721 g / cm^3
# Si number density = 18.719813 Si / 1000 Ang^3
#
#
#
# Elastic Constant Matrix: (Units=GPa)
#
#
# Indices 1 2 3 4 5 6 
#
# 1 139.3405 32.0940 7.4230 0.0009 10.7134 -0.0003
# 2 32.0940 64.7873 7.6739 0.0027 12.6213 -0.0008
# 3 7.4230 7.6739 55.4584 0.0028 -11.5364 -0.0010
# 4 0.0009 0.0027 0.0028 9.3453 -0.0016 0.6964
# 5 10.7134 12.6213 -11.5364 -0.0016 30.2612 0.0006
# 6 -0.0003 -0.0008 -0.0010 0.6964 0.0006 27.3390
#
#
#
# Elastic Compliance Matrix: (Units=1/GPa)
#
#
# Indices 1 2 3 4 5 6 
#
# 1 0.008193 -0.003600 -0.000966 0.000000 -0.001768 0.000000
# 2 -0.003600 0.019290 -0.003906 -0.000005 -0.008260 0.000001
# 3 -0.000966 -0.003906 0.020757 -0.000003 0.009884 0.000000
# 4 0.000000 -0.000005 -0.000003 0.107210 0.000007 -0.002731
# 5 -0.001768 -0.008260 0.009884 0.000007 0.040885 -0.000001
# 6 0.000000 0.000001 0.000000 -0.002731 -0.000001 0.036647
#
#
# Mechanical properties :
#
#
# Convention : Reuss Voigt Hill
#
# Bulk Modulus (GPa) = 31.95161 39.32978 35.64070
# Shear Modulus (GPa) = 19.20430 27.54879 23.37655
#
# Velocity S-wave (km/s) = 3.20641 3.84036 3.53761
# Velocity P-wave (km/s) = 5.55099 6.38120 5.98052
#
# Compressibility (1/GPa) = 0.03129733
#
# Stress axis : x y z
#
# Youngs Moduli (GPa) = 122.05243 51.83981 48.17556
#
# Poissons Ratio (x) = 0.18662 0.04655
# Poissons Ratio (y) = 0.43938 0.18816
# Poissons Ratio (z) = 0.11793 0.20247
#
# Static dielectric constant tensor:
#      x y z
#    x 3.973720 0.000000 0.094750 
#    y 0.000000 3.238430 0.000000 
#    z 0.094750 0.000000 3.711320 
# 
# 
# High freq. dielectric constant tensor:
#      x y z
#    x 1.738630 0.000000 -0.009830 
#    y 0.000000 1.681290 0.000000 
#    z -0.009830 0.000000 1.742960 
# 
# From -- ./inp_files/278077.got.cif
#   From: 2010.06.25/outbox.cif.g09.slc.cpg/sg12_140_cif.got.tgz:278077.got - 2010.06.28 00:19:55.
