data_PCOD8107733
_publ_section_title
;
Structure prediction by ZEFSAII (Michael W. Deem and Ramdas Pophale) SiO2 
 PCOD8107733
Probable space group: C 2/M
;
_chemical_formula_sum "Si O2"
_cell_formula_units_Z 40
_cell_length_a 24.139322
_cell_length_b 10.546660
_cell_length_c 11.870474
_cell_angle_alpha 90.000000
_cell_angle_beta 41.973701
_cell_angle_gamma 90.000000
_cell_volume 2021.145015
_symmetry_space_group_name_H-M "C 2/M"
_symmetry_group_IT_number 12
_symmetry_cell_setting 'monoclinic'
loop_
_space_group_symop_operation_xyz
x,y,z
-x,y,-z
-x,-y,-z
x,-y,z
1/2+x,1/2+y,z
1/2-x,1/2+y,-z
1/2-x,1/2-y,-z
1/2+x,1/2-y,z
loop_
_atom_site_type_symbol
_atom_site_label
_atom_site_fract_x
_atom_site_fract_y
_atom_site_fract_z
Si Si1 0.670851 0.694474 0.063189
Si Si2 0.902259 0.000000 0.659727
Si Si3 0.423940 0.500000 0.385364
Si Si4 0.129492 0.000000 0.776130
Si Si5 0.006053 0.273067 0.235098
Si Si6 0.558747 0.000000 0.521264
Si Si7 0.247466 0.000000 0.785269
Si Si8 0.000000 0.787762 0.000000
O O1 0.627048 0.622046 0.230787
O O2 0.602601 0.794318 0.121674
O O3 0.750000 0.750000 0.000000
O O4 0.703022 0.619121 0.907655
O O5 0.867716 0.000000 0.583048
O O6 0.000000 0.000000 0.500000
O O7 0.362179 0.500000 0.372143
O O8 0.481739 0.625878 0.296094
O O9 0.221501 0.000000 0.692081
O O10 0.080661 0.875959 0.891840
O O11 0.953683 0.373289 0.386285
O O12 0.993070 0.300267 0.121646
O O13 0.500000 0.000000 0.500000
O O14 0.654682 0.000000 0.340202
#
# Coordination Sequence:
#
# PCOD8107733 Si02
#       8
#     8   4   4   4   8   4   4   4
#     4  11  23  36  61  89 125 167 211 260 315 364
#     4  11  21  36  61  91 117 160 222 263 294 370
#     4  10  21  37  71  96 116 160 222 264 298 376
#     4   9  17  36  66 100 119 153 212 276 314 356
#     4  11  22  42  65  96 122 174 212 257 318 381
#     4  12  29  42  61  91 143 175 200 254 336 390
#     4  11  22  42  60  93 126 170 209 262 318 377
#     4   9  18  37  70  94 120 158 222 264 304 386
#
# _framework density 19.790762000000001
#
# number of rings (size 3 to 8) (size 9 to 14) (size 15 to 20)
#    0.000    1.400    4.000    2.400    5.600    1.200 
#    0.000    6.000    0.000    0.000    0.000    0.000 
#    0.000    0.000    0.000    0.000    0.000    0.000 
#
# Total GULP energy -247867.640252 kJ/mol
# GULP energy per Si atom -12393.382013 kJ/mol
# Density = 1.974572 g / cm^3
# Si number density = 19.790762 Si / 1000 Ang^3
#
#
#
# Elastic Constant Matrix: (Units=GPa)
#
#
# Indices 1 2 3 4 5 6 
#
# 1 155.3526 24.2608 62.7436 0.0000 11.6705 0.0000
# 2 24.2608 70.2434 29.7419 0.0000 6.0428 0.0000
# 3 62.7436 29.7419 119.4940 0.0000 9.4658 0.0000
# 4 0.0000 0.0000 0.0000 69.8147 0.0000 16.5576
# 5 11.6705 6.0428 9.4658 0.0000 46.4790 0.0000
# 6 0.0000 0.0000 0.0000 16.5576 0.0000 28.0140
#
#
#
# Elastic Compliance Matrix: (Units=1/GPa)
#
#
# Indices 1 2 3 4 5 6 
#
# 1 0.008307 -0.001076 -0.004005 0.000000 -0.001130 0.000000
# 2 -0.001076 0.016128 -0.003359 0.000000 -0.001143 0.000000
# 3 -0.004005 -0.003359 0.011377 0.000000 -0.000875 0.000000
# 4 0.000000 0.000000 0.000000 0.016659 0.000000 -0.009846
# 5 -0.001130 -0.001143 -0.000875 0.000000 0.022126 0.000000
# 6 0.000000 0.000000 0.000000 -0.009846 0.000000 0.041516
#
#
# Mechanical properties :
#
#
# Convention : Reuss Voigt Hill
#
# Bulk Modulus (GPa) = 52.81742 64.28696 58.55219
# Shear Modulus (GPa) = 35.89303 44.08446 39.98874
#
# Velocity S-wave (km/s) = 4.26329 4.72479 4.49996
# Velocity P-wave (km/s) = 7.14003 7.89422 7.52658
#
# Compressibility (1/GPa) = 0.01893315
#
# Stress axis : x y z
#
# Youngs Moduli (GPa) = 120.37571 62.00258 87.90006
#
# Poissons Ratio (x) = 0.06674 0.35200
# Poissons Ratio (y) = 0.12957 0.29522
# Poissons Ratio (z) = 0.48205 0.20824
#
# Static dielectric constant tensor:
#      x y z
#    x 3.937950 0.000000 0.327820 
#    y 0.000000 3.374850 0.000000 
#    z 0.327820 0.000000 3.355230 
# 
# 
# High freq. dielectric constant tensor:
#      x y z
#    x 1.789840 0.000000 0.018040 
#    y 0.000000 1.744800 0.000000 
#    z 0.018040 0.000000 1.765800 
# 
# From -- ./inp_files/174381.got.cif
#   From: 2010.06.25/outbox.cif.g09.slc.cpg/sg12_88_cif.got.tgz:174381.got - 2010.06.28 00:19:55.
