data_PCOD8107577
_publ_section_title
;
Structure prediction by ZEFSAII (Michael W. Deem and Ramdas Pophale) SiO2 
 PCOD8107577
Probable space group: C 2/M
;
_chemical_formula_sum "Si O2"
_cell_formula_units_Z 56
_cell_length_a 24.166524
_cell_length_b 18.089832
_cell_length_c 5.207245
_cell_angle_alpha 90.000000
_cell_angle_beta 102.880555
_cell_angle_gamma 90.000000
_cell_volume 2219.160406
_symmetry_space_group_name_H-M "C 2/M"
_symmetry_group_IT_number 12
_symmetry_cell_setting 'monoclinic'
loop_
_space_group_symop_operation_xyz
x,y,z
-x,y,-z
-x,-y,-z
x,-y,z
1/2+x,1/2+y,z
1/2-x,1/2+y,-z
1/2-x,1/2-y,-z
1/2+x,1/2-y,z
loop_
_atom_site_type_symbol
_atom_site_label
_atom_site_fract_x
_atom_site_fract_y
_atom_site_fract_z
Si Si1 0.264417 0.420523 0.011395
Si Si2 0.963496 0.180697 0.221908
Si Si3 0.620633 0.580784 0.145385
Si Si4 0.062857 0.656285 0.652510
Si Si5 0.180953 0.183865 0.535254
Si Si6 0.295458 0.159501 0.435474
Si Si7 0.882879 0.412841 0.794390
O O1 0.253300 0.500000 0.139621
O O2 0.314907 0.434479 0.861098
O O3 0.205478 0.397992 0.804925
O O4 0.286657 0.355003 0.204908
O O5 0.933592 0.256615 0.280146
O O6 0.000000 0.150362 0.500000
O O7 0.915651 0.119157 0.118072
O O8 0.000000 0.193491 0.000000
O O9 0.593670 0.500000 0.191671
O O10 0.624279 0.638942 0.388900
O O11 0.101709 0.628513 0.459260
O O12 0.000000 0.633518 0.500000
O O13 0.079569 0.613740 0.930483
O O14 0.230057 0.187853 0.368101
O O15 0.164531 0.268778 0.583715
O O16 0.316651 0.115671 0.721108
O O17 0.889294 0.500000 0.774280
#
# Coordination Sequence:
#
# PCOD8107577 Si02
#       7
#     8   8   8   8   8   8   8
#     4  10  21  37  61  90 130 174 212 265 325 393
#     4  11  25  45  72 100 131 174 220 279 335 390
#     4  10  23  40  62  97 131 170 219 267 329 397
#     4  11  25  46  70  95 129 174 223 273 332 406
#     4  10  21  39  65  88 126 179 220 267 324 395
#     4  10  23  39  59  95 129 167 226 273 325 390
#     4  12  26  42  68 101 134 173 217 280 340 390
#
# _framework density 25.234767000000002
#
# number of rings (size 3 to 8) (size 9 to 14) (size 15 to 20)
#    0.000    1.429    0.000    4.714    6.000    4.000 
#    0.000    0.000    0.000    0.000    0.000    0.000 
#    0.000    0.000    0.000    0.000    0.000    0.000 
#
# Total GULP energy -346870.945177 kJ/mol
# GULP energy per Si atom -12388.248042 kJ/mol
# Density = 2.517733 g / cm^3
# Si number density = 25.234767 Si / 1000 Ang^3
#
#
#
# Elastic Constant Matrix: (Units=GPa)
#
#
# Indices 1 2 3 4 5 6 
#
# 1 37.4516 17.7336 24.3544 0.0000 20.9878 0.0000
# 2 17.7336 213.3823 92.1144 0.0000 38.8853 0.0000
# 3 24.3544 92.1144 193.6569 0.0000 37.4635 0.0000
# 4 0.0000 0.0000 0.0000 17.4325 0.0000 5.9062
# 5 20.9878 38.8853 37.4635 0.0000 40.0355 0.0000
# 6 0.0000 0.0000 0.0000 5.9062 0.0000 10.9865
#
#
#
# Elastic Compliance Matrix: (Units=1/GPa)
#
#
# Indices 1 2 3 4 5 6 
#
# 1 0.038182 0.001054 -0.001505 0.000000 -0.019632 0.000000
# 2 0.001054 0.006438 -0.002293 0.000000 -0.004660 0.000000
# 3 -0.001505 -0.002293 0.007156 0.000000 -0.003679 0.000000
# 4 0.000000 0.000000 0.000000 0.070139 0.000000 -0.037706
# 5 -0.019632 -0.004660 -0.003679 0.000000 0.043238 0.000000
# 6 0.000000 0.000000 0.000000 -0.037706 0.000000 0.111292
#
#
# Mechanical properties :
#
#
# Convention : Reuss Voigt Hill
#
# Bulk Modulus (GPa) = 21.60447 79.21063 50.40755
# Shear Modulus (GPa) = 16.81444 34.37678 25.59561
#
# Velocity S-wave (km/s) = 2.58412 3.69491 3.18826
# Velocity P-wave (km/s) = 4.18133 7.04704 5.79415
#
# Compressibility (1/GPa) = 0.04628672
#
# Stress axis : x y z
#
# Youngs Moduli (GPa) = 26.19002 155.32790 139.74739
#
# Poissons Ratio (x) = -0.16374 0.21039
# Poissons Ratio (y) = -0.02761 0.32050
# Poissons Ratio (z) = 0.03943 0.35624
#
# Static dielectric constant tensor:
#      x y z
#    x 5.123570 0.000000 0.219070 
#    y 0.000000 5.152390 0.000000 
#    z 0.219070 0.000000 4.546440 
# 
# 
# High freq. dielectric constant tensor:
#      x y z
#    x 2.000910 0.000000 0.015510 
#    y 0.000000 2.022170 0.000000 
#    z 0.015510 0.000000 2.013560 
# 
# From -- ./inp_files/32100.got.cif
#   From: 2010.06.25/outbox.cif.g09.slc.cpg/sg12_17_cif.got.tgz:32100.got - 2010.06.28 00:19:55.
