data_PCOD8107756
_publ_section_title
;
Structure prediction by ZEFSAII (Michael W. Deem and Ramdas Pophale) SiO2 
 PCOD8107756
Probable space group: C 2/M
;
_chemical_formula_sum "Si O2"
_cell_formula_units_Z 64
_cell_length_a 14.530983
_cell_length_b 9.162015
_cell_length_c 27.253631
_cell_angle_alpha 90.000000
_cell_angle_beta 109.218494
_cell_angle_gamma 90.000000
_cell_volume 3426.152064
_symmetry_space_group_name_H-M "C 2/M"
_symmetry_group_IT_number 12
_symmetry_cell_setting 'monoclinic'
loop_
_space_group_symop_operation_xyz
x,y,z
-x,y,-z
-x,-y,-z
x,-y,z
1/2+x,1/2+y,z
1/2-x,1/2+y,-z
1/2-x,1/2-y,-z
1/2+x,1/2-y,z
loop_
_atom_site_type_symbol
_atom_site_label
_atom_site_fract_x
_atom_site_fract_y
_atom_site_fract_z
Si Si1 0.277508 0.671033 0.857974
Si Si2 0.507896 0.166217 0.382388
Si Si3 0.847008 0.327986 0.673822
Si Si4 0.127135 0.328104 0.212580
Si Si5 0.424371 0.170989 0.128571
Si Si6 0.519500 0.670587 0.058332
Si Si7 0.352414 0.327946 0.406474
Si Si8 0.346347 0.832382 0.502170
O O1 0.270528 0.500000 0.845657
O O2 0.295219 0.751985 0.809625
O O3 0.176655 0.727099 0.864775
O O4 0.368287 0.708451 0.909390
O O5 0.557880 0.214429 0.340406
O O6 0.421440 0.281390 0.373790
O O7 0.580533 0.180989 0.440384
O O8 0.469093 0.000000 0.372137
O O9 0.837087 0.500000 0.676521
O O10 0.854195 0.263077 0.729806
O O11 0.754124 0.270628 0.627376
O O12 0.145601 0.500000 0.212774
O O13 0.015181 0.290510 0.179783
O O14 0.442259 0.249264 0.079863
O O15 0.417157 0.000000 0.116811
O O16 0.498913 0.500000 0.060151
O O17 0.500000 0.725963 0.000000
O O18 0.356194 0.500000 0.416814
O O19 0.389811 0.243774 0.461369
O O20 0.250000 0.750000 0.500000
O O21 0.322955 0.000000 0.485997
#
# Coordination Sequence:
#
# PCOD8107756 Si02
#       8
#     8   8   8   8   8   8   8   8
#     4   9  18  33  51  74 104 133 168 217 259 297
#     4  10  21  38  56  77 105 138 170 208 258 310
#     4   9  19  37  55  73 104 137 166 207 261 310
#     4   9  18  34  55  74  96 133 174 210 254 309
#     4   9  18  32  51  75 100 132 173 214 255 298
#     4   9  18  32  49  72 105 141 171 205 255 307
#     4  11  22  37  55  79 106 136 171 211 255 307
#     4  11  21  36  58  80 105 138 172 208 255 309
#
# _framework density 18.679848
#
# number of rings (size 3 to 8) (size 9 to 14) (size 15 to 20)
#    0.000    2.375    1.250    1.125    0.000    4.750 
#    0.000    3.125    0.000    0.000    0.000    0.000 
#    0.000    0.000    0.000    0.000    0.000    0.000 
#
# Total GULP energy -396781.310041 kJ/mol
# GULP energy per Si atom -12399.415939 kJ/mol
# Density = 1.863733 g / cm^3
# Si number density = 18.679848 Si / 1000 Ang^3
#
#
#
# Elastic Constant Matrix: (Units=GPa)
#
#
# Indices 1 2 3 4 5 6 
#
# 1 103.1340 33.5642 39.2684 0.0000 -29.0726 0.0000
# 2 33.5642 54.9089 37.5643 0.0000 -9.1092 0.0000
# 3 39.2684 37.5643 132.4182 0.0000 -23.4607 0.0000
# 4 0.0000 0.0000 0.0000 27.1003 0.0000 -8.5885
# 5 -29.0726 -9.1092 -23.4607 0.0000 24.9047 0.0000
# 6 0.0000 0.0000 0.0000 -8.5885 0.0000 30.7856
#
#
#
# Elastic Compliance Matrix: (Units=1/GPa)
#
#
# Indices 1 2 3 4 5 6 
#
# 1 0.016952 -0.007638 0.000181 0.000000 0.017166 0.000000
# 2 -0.007638 0.026188 -0.006058 0.000000 -0.005044 0.000000
# 3 0.000181 -0.006058 0.010637 0.000000 0.008016 0.000000
# 4 0.000000 0.000000 0.000000 0.040479 0.000000 0.011293
# 5 0.017166 -0.005044 0.008016 0.000000 0.065897 0.000000
# 6 0.000000 0.000000 0.000000 0.011293 0.000000 0.035633
#
#
# Mechanical properties :
#
#
# Convention : Reuss Voigt Hill
#
# Bulk Modulus (GPa) = 37.38728 56.80608 47.09668
# Shear Modulus (GPa) = 21.57668 28.56241 25.06955
#
# Velocity S-wave (km/s) = 3.40233 3.91455 3.66739
# Velocity P-wave (km/s) = 5.95757 7.13498 6.57270
#
# Compressibility (1/GPa) = 0.02674707
#
# Stress axis : x y z
#
# Youngs Moduli (GPa) = 58.99067 38.18486 94.01382
#
# Poissons Ratio (x) = 0.29167 -0.01702
# Poissons Ratio (y) = 0.45059 0.56951
# Poissons Ratio (z) = -0.01068 0.23131
#
# Static dielectric constant tensor:
#      x y z
#    x 3.343240 0.000000 -0.068170 
#    y 0.000000 3.319260 0.000000 
#    z -0.068170 0.000000 3.666200 
# 
# 
# High freq. dielectric constant tensor:
#      x y z
#    x 1.729430 0.000000 -0.009580 
#    y 0.000000 1.709040 0.000000 
#    z -0.009580 0.000000 1.726030 
# 
# From -- ./inp_files/338874.got.cif
#   From: 2010.06.25/outbox.cif.g09.slc.cpg/sg12_170_cif.got.tgz:338874.got - 2010.06.28 00:19:55.
