data_PCOD8107686
_publ_section_title
;
Structure prediction by ZEFSAII (Michael W. Deem and Ramdas Pophale) SiO2 
 PCOD8107686
Probable space group: C 2/M
;
_chemical_formula_sum "Si O2"
_cell_formula_units_Z 56
_cell_length_a 17.590389
_cell_length_b 22.410092
_cell_length_c 8.878311
_cell_angle_alpha 90.000000
_cell_angle_beta 131.269539
_cell_angle_gamma 90.000000
_cell_volume 2630.539491
_symmetry_space_group_name_H-M "C 2/M"
_symmetry_group_IT_number 12
_symmetry_cell_setting 'monoclinic'
loop_
_space_group_symop_operation_xyz
x,y,z
-x,y,-z
-x,-y,-z
x,-y,z
1/2+x,1/2+y,z
1/2-x,1/2+y,-z
1/2-x,1/2-y,-z
1/2+x,1/2-y,z
loop_
_atom_site_type_symbol
_atom_site_label
_atom_site_fract_x
_atom_site_fract_y
_atom_site_fract_z
Si Si1 0.472668 0.198574 0.793810
Si Si2 0.761501 0.433069 0.272239
Si Si3 0.960984 0.166669 0.785052
Si Si4 0.727283 0.065378 0.147989
Si Si5 0.910958 0.933647 0.163335
Si Si6 0.919951 0.393975 0.276404
Si Si7 0.233875 0.359851 0.445209
O O1 0.501326 0.267250 0.800140
O O2 0.534348 0.164226 0.744093
O O3 0.353102 0.186496 0.621046
O O4 0.500000 0.178940 0.000000
O O5 0.803621 0.500000 0.294853
O O6 0.822389 0.382669 0.255888
O O7 0.772842 0.419382 0.462587
O O8 0.644101 0.430083 0.071077
O O9 0.840481 0.171220 0.615735
O O10 0.002579 0.117339 0.719875
O O11 0.000000 0.147942 0.000000
O O12 0.827304 0.078133 0.181212
O O13 0.719930 0.118774 0.256573
O O14 0.735581 0.000000 0.234484
O O15 0.623883 0.063821 0.913213
O O16 0.959657 0.000000 0.248432
O O17 0.000000 0.423207 0.500000
#
# Coordination Sequence:
#
# PCOD8107686 Si02
#       7
#     8   8   8   8   8   8   8
#     4  11  24  45  62  89 128 167 212 265 308 371
#     4  10  21  37  63  94 124 161 206 258 313 370
#     4  11  24  42  68  93 122 168 215 255 318 372
#     4  10  23  41  62  95 132 166 205 256 318 377
#     4   9  20  42  65  91 125 158 205 258 309 377
#     4  11  21  41  65  89 127 167 212 262 308 365
#     4  12  22  42  63  94 128 166 209 263 310 370
#
# _framework density 21.288408
#
# number of rings (size 3 to 8) (size 9 to 14) (size 15 to 20)
#    0.000    1.429    4.286    2.143    0.000    3.143 
#    2.571    5.000    0.000    0.000    0.000    0.000 
#    0.000    0.000    0.000    0.000    0.000    0.000 
#
# Total GULP energy -346896.179011 kJ/mol
# GULP energy per Si atom -12389.149250 kJ/mol
# Density = 2.123995 g / cm^3
# Si number density = 21.288408 Si / 1000 Ang^3
#
#
#
# Elastic Constant Matrix: (Units=GPa)
#
#
# Indices 1 2 3 4 5 6 
#
# 1 92.3083 63.3507 20.9600 0.0000 7.2584 0.0000
# 2 63.3507 101.3624 13.1337 0.0000 2.5048 0.0000
# 3 20.9600 13.1337 82.0940 0.0000 -2.3565 0.0000
# 4 0.0000 0.0000 0.0000 16.9784 0.0000 0.3643
# 5 7.2584 2.5048 -2.3565 0.0000 34.0139 0.0000
# 6 0.0000 0.0000 0.0000 0.3643 0.0000 30.4154
#
#
#
# Elastic Compliance Matrix: (Units=1/GPa)
#
#
# Indices 1 2 3 4 5 6 
#
# 1 0.020167 -0.012084 -0.003320 0.000000 -0.003644 0.000000
# 2 -0.012084 0.017340 0.000349 0.000000 0.001326 0.000000
# 3 -0.003320 0.000349 0.013019 0.000000 0.001585 0.000000
# 4 0.000000 0.000000 0.000000 0.058913 0.000000 -0.000706
# 5 -0.003644 0.001326 0.001585 0.000000 0.030189 0.000000
# 6 0.000000 0.000000 0.000000 -0.000706 0.000000 0.032887
#
#
# Mechanical properties :
#
#
# Convention : Reuss Voigt Hill
#
# Bulk Modulus (GPa) = 48.98294 52.29482 50.63888
# Shear Modulus (GPa) = 23.87438 28.16956 26.02197
#
# Velocity S-wave (km/s) = 3.35247 3.64158 3.50001
# Velocity P-wave (km/s) = 6.16803 6.50382 6.33815
#
# Compressibility (1/GPa) = 0.02041527
#
# Stress axis : x y z
#
# Youngs Moduli (GPa) = 49.58663 57.67064 76.81371
#
# Poissons Ratio (x) = 0.69688 0.25504
# Poissons Ratio (y) = 0.59919 -0.02682
# Poissons Ratio (z) = 0.16464 -0.02014
#
# Static dielectric constant tensor:
#      x y z
#    x 3.735650 0.000000 0.032950 
#    y 0.000000 3.570740 0.000000 
#    z 0.032950 0.000000 3.980380 
# 
# 
# High freq. dielectric constant tensor:
#      x y z
#    x 1.829370 0.000000 0.001770 
#    y 0.000000 1.814700 0.000000 
#    z 0.001770 0.000000 1.843470 
# 
# From -- ./inp_files/79142.got.cif
#   From: 2010.06.25/outbox.cif.g09.slc.cpg/sg12_40_cif.got.tgz:79142.got - 2010.06.28 00:19:55.
