data_PCOD8107383
_publ_section_title
;
Structure prediction by ZEFSAII (Michael W. Deem and Ramdas Pophale) SiO2 
 PCOD8107383
Probable space group: C 2/M
;
_chemical_formula_sum "Si O2"
_cell_formula_units_Z 40
_cell_length_a 19.538785
_cell_length_b 8.782599
_cell_length_c 11.292300
_cell_angle_alpha 90.000000
_cell_angle_beta 90.561129
_cell_angle_gamma 90.000000
_cell_volume 1937.680585
_symmetry_space_group_name_H-M "C 2/M"
_symmetry_group_IT_number 12
_symmetry_cell_setting 'monoclinic'
loop_
_space_group_symop_operation_xyz
x,y,z
-x,y,-z
-x,-y,-z
x,-y,z
1/2+x,1/2+y,z
1/2-x,1/2+y,-z
1/2-x,1/2-y,-z
1/2+x,1/2-y,z
loop_
_atom_site_type_symbol
_atom_site_label
_atom_site_fract_x
_atom_site_fract_y
_atom_site_fract_z
Si Si1 0.887356 0.674858 0.240339
Si Si2 0.144915 0.177609 0.244569
Si Si3 0.078345 0.179466 0.996070
Si Si4 0.525867 0.825663 0.373411
Si Si5 0.767468 0.820548 0.373865
O O1 0.863750 0.500000 0.242329
O O2 0.879968 0.740038 0.108236
O O3 0.966161 0.694066 0.277158
O O4 0.841953 0.767125 0.333066
O O5 0.213779 0.269230 0.272781
O O6 0.088392 0.217261 0.341535
O O7 0.161338 0.000000 0.250992
O O8 0.117171 0.227182 0.116087
O O9 0.079945 0.000000 0.974210
O O10 0.000000 0.237704 0.000000
O O11 0.500000 0.771116 0.500000
O O12 0.551898 0.000000 0.379342
O O13 0.750000 0.750000 0.500000
O O14 0.766570 0.000000 0.387476
#
# Coordination Sequence:
#
# PCOD8107383 Si02
#       5
#     8   8   8   8   8
#     4  11  23  39  64  95 128 168 214 262 318 377
#     4  11  23  40  65  93 125 167 213 260 316 377
#     4  10  21  40  64  93 130 169 212 264 317 372
#     4  10  21  37  59  89 124 162 207 262 318 376
#     4  12  26  45  67  92 129 168 210 262 319 380
#
# _framework density 20.643236999999999
#
# number of rings (size 3 to 8) (size 9 to 14) (size 15 to 20)
#    0.000    1.200    2.000    4.200    0.000    5.600 
#    0.000    0.000    0.000    0.000    0.000    0.000 
#    0.000    0.000    0.000    0.000    0.000    0.000 
#
# Total GULP energy -248144.570739 kJ/mol
# GULP energy per Si atom -12407.228537 kJ/mol
# Density = 2.059625 g / cm^3
# Si number density = 20.643237 Si / 1000 Ang^3
#
#
#
# Elastic Constant Matrix: (Units=GPa)
#
#
# Indices 1 2 3 4 5 6 
#
# 1 55.7429 24.3988 6.0513 0.0000 -3.9259 0.0000
# 2 24.3988 97.0791 31.0474 0.0000 -1.3894 0.0000
# 3 6.0513 31.0474 103.1740 0.0000 -5.7401 0.0000
# 4 0.0000 0.0000 0.0000 36.2625 0.0000 -4.6705
# 5 -3.9259 -1.3894 -5.7401 0.0000 37.3774 0.0000
# 6 0.0000 0.0000 0.0000 -4.6705 0.0000 36.0365
#
#
#
# Elastic Compliance Matrix: (Units=1/GPa)
#
#
# Indices 1 2 3 4 5 6 
#
# 1 0.020320 -0.005237 0.000496 0.000000 0.002016 0.000000
# 2 -0.005237 0.012748 -0.003564 0.000000 -0.000623 0.000000
# 3 0.000496 -0.003564 0.010824 0.000000 0.001582 0.000000
# 4 0.000000 0.000000 0.000000 0.028045 0.000000 0.003635
# 5 0.002016 -0.000623 0.001582 0.000000 0.027186 0.000000
# 6 0.000000 0.000000 0.000000 0.003635 0.000000 0.028221
#
#
# Mechanical properties :
#
#
# Convention : Reuss Voigt Hill
#
# Bulk Modulus (GPa) = 36.65313 42.11013 39.38163
# Shear Modulus (GPa) = 32.67009 34.90184 33.78597
#
# Velocity S-wave (km/s) = 3.98251 4.11629 4.04995
# Velocity P-wave (km/s) = 6.24029 6.56011 6.40220
#
# Compressibility (1/GPa) = 0.02728280
#
# Stress axis : x y z
#
# Youngs Moduli (GPa) = 49.21317 78.44466 92.39029
#
# Poissons Ratio (x) = 0.41080 -0.04585
# Poissons Ratio (y) = 0.25772 0.32925
# Poissons Ratio (z) = -0.02442 0.27955
#
# Static dielectric constant tensor:
#      x y z
#    x 3.731840 0.000000 0.102270 
#    y 0.000000 3.692600 0.000000 
#    z 0.102270 0.000000 3.819330 
# 
# 
# High freq. dielectric constant tensor:
#      x y z
#    x 1.808030 0.000000 0.001920 
#    y 0.000000 1.808150 0.000000 
#    z 0.001920 0.000000 1.820940 
# 
# From -- ./inp_files/151749.got.cif
#   From: 2010.06.25/outbox.cif.g09.slc.cpg/sg12_76_cif.got.tgz:151749.got - 2010.06.28 00:19:55.
