data_PCOD8107595
_publ_section_title
;
Structure prediction by ZEFSAII (Michael W. Deem and Ramdas Pophale) SiO2 
 PCOD8107595
Probable space group: C 2/M
;
_chemical_formula_sum "Si O2"
_cell_formula_units_Z 48
_cell_length_a 9.837038
_cell_length_b 9.509617
_cell_length_c 25.663274
_cell_angle_alpha 90.000000
_cell_angle_beta 96.228075
_cell_angle_gamma 90.000000
_cell_volume 2386.539370
_symmetry_space_group_name_H-M "C 2/M"
_symmetry_group_IT_number 12
_symmetry_cell_setting 'monoclinic'
loop_
_space_group_symop_operation_xyz
x,y,z
-x,y,-z
-x,-y,-z
x,-y,z
1/2+x,1/2+y,z
1/2-x,1/2+y,-z
1/2-x,1/2-y,-z
1/2+x,1/2-y,z
loop_
_atom_site_type_symbol
_atom_site_label
_atom_site_fract_x
_atom_site_fract_y
_atom_site_fract_z
Si Si1 0.683424 0.661563 0.148819
Si Si2 0.831878 0.500000 0.548225
Si Si3 0.652411 0.000000 0.566705
Si Si4 0.725790 0.236699 0.375123
Si Si5 0.044075 0.838577 0.690973
Si Si6 0.352079 0.660962 0.970425
Si Si7 0.023888 0.336691 0.793675
O O1 0.636763 0.500000 0.156164
O O2 0.649068 0.712568 0.089205
O O3 0.845224 0.677559 0.163632
O O4 0.605271 0.763027 0.185106
O O5 0.772602 0.500000 0.486682
O O6 0.778428 0.636284 0.575438
O O7 0.992909 0.500000 0.551847
O O8 0.691864 0.129967 0.603269
O O9 0.809851 0.165089 0.331795
O O10 0.574424 0.277715 0.350705
O O11 0.057175 0.740348 0.741464
O O12 0.011228 0.000000 0.705277
O O13 0.304452 0.500000 0.971319
O O14 0.500000 0.684213 0.000000
O O15 0.250000 0.750000 0.000000
O O16 0.988713 0.500000 0.781369
#
# Coordination Sequence:
#
# PCOD8107595 Si02
#       7
#     8   4   4   8   8   8   8
#     4  10  22  42  61  89 130 161 207 259 312 364
#     4  11  24  43  67  97 127 163 205 247 305 372
#     4  11  24  43  67  95 131 163 199 255 307 357
#     4  12  24  43  65  95 123 164 203 253 305 369
#     4  12  26  42  64  90 126 159 205 254 312 366
#     4  10  21  37  61  92 125 167 207 254 309 369
#     4  11  25  40  63  91 117 164 209 259 307 369
#
# _framework density 20.112804000000001
#
# number of rings (size 3 to 8) (size 9 to 14) (size 15 to 20)
#    0.000    1.000    3.333    3.000    2.333    5.000 
#    0.000    0.833    0.000    0.000    0.000    0.000 
#    0.000    0.000    0.000    0.000    0.000    0.000 
#
# Total GULP energy -297720.586122 kJ/mol
# GULP energy per Si atom -12405.024422 kJ/mol
# Density = 2.006703 g / cm^3
# Si number density = 20.112804 Si / 1000 Ang^3
#
#
#
# Elastic Constant Matrix: (Units=GPa)
#
#
# Indices 1 2 3 4 5 6 
#
# 1 72.1399 28.8866 10.0880 0.0000 -15.9490 0.0000
# 2 28.8866 108.1056 32.3183 0.0000 -11.1294 0.0000
# 3 10.0880 32.3183 92.5451 0.0000 -10.4819 0.0000
# 4 0.0000 0.0000 0.0000 1014.3103 0.0000 901.6285
# 5 -15.9490 -11.1294 -10.4819 0.0000 36.9045 0.0000
# 6 0.0000 0.0000 0.0000 901.6285 0.0000 880.6372
#
#
#
# Elastic Compliance Matrix: (Units=1/GPa)
#
#
# Indices 1 2 3 4 5 6 
#
# 1 0.016751 -0.003916 0.000235 0.000000 0.006125 0.000000
# 2 -0.003916 0.011413 -0.003472 0.000000 0.000763 0.000000
# 3 0.000235 -0.003472 0.012280 0.000000 0.002542 0.000000
# 4 0.000000 0.000000 0.000000 0.010966 0.000000 -0.011227
# 5 0.006125 0.000763 0.002542 0.000000 0.030696 0.000000
# 6 0.000000 0.000000 0.000000 -0.011227 0.000000 0.012631
#
#
# Mechanical properties :
#
#
# Convention : Reuss Voigt Hill
#
# Bulk Modulus (GPa) = 38.25691 46.15293 42.20492
# Shear Modulus (GPa) = 42.46035 399.80361 221.13198
#
# Velocity S-wave (km/s) = 4.59967 14.11425 10.49688
# Velocity P-wave (km/s) = 6.87544 16.98862 12.95926
#
# Compressibility (1/GPa) = 0.02613907
#
# Stress axis : x y z
#
# Youngs Moduli (GPa) = 59.69709 87.61791 81.43003
#
# Poissons Ratio (x) = 0.34309 -0.01915
# Poissons Ratio (y) = 0.23376 0.28276
# Poissons Ratio (z) = -0.01404 0.30424
#
# Static dielectric constant tensor:
#      x y z
#    x 3.625310 0.000000 0.032150 
#    y 0.000000 3.790910 0.000000 
#    z 0.032150 0.000000 3.913060 
# 
# 
# High freq. dielectric constant tensor:
#      x y z
#    x 1.788810 0.000000 0.000950 
#    y 0.000000 1.796080 0.000000 
#    z 0.000950 0.000000 1.798990 
# 
# From -- ./inp_files/334828.got.cif
#   From: 2010.06.25/outbox.cif.g09.slc.cpg/sg12_168_cif.got.tgz:334828.got - 2010.06.28 00:19:55.
