data_PCOD8107051
_publ_section_title
;
Structure prediction by ZEFSAII (Michael W. Deem and Ramdas Pophale) SiO2 
 PCOD8107051
Probable space group: C 2/M
;
_chemical_formula_sum "Si O2"
_cell_formula_units_Z 48
_cell_length_a 21.857065
_cell_length_b 14.069078
_cell_length_c 12.031153
_cell_angle_alpha 90.000000
_cell_angle_beta 41.272452
_cell_angle_gamma 90.000000
_cell_volume 2440.461524
_symmetry_space_group_name_H-M "C 2/M"
_symmetry_group_IT_number 12
_symmetry_cell_setting 'monoclinic'
loop_
_space_group_symop_operation_xyz
x,y,z
-x,y,-z
-x,-y,-z
x,-y,z
1/2+x,1/2+y,z
1/2-x,1/2+y,-z
1/2-x,1/2-y,-z
1/2+x,1/2-y,z
loop_
_atom_site_type_symbol
_atom_site_label
_atom_site_fract_x
_atom_site_fract_y
_atom_site_fract_z
Si Si1 0.602259 0.216611 0.848587
Si Si2 0.099279 0.607683 0.625630
Si Si3 0.608013 0.105563 0.062970
Si Si4 0.240982 0.890739 0.980824
Si Si5 0.719246 0.782874 0.294541
Si Si6 0.392509 0.609353 0.647094
O O1 0.619636 0.170630 0.705501
O O2 0.690354 0.283508 0.748904
O O3 0.500000 0.267281 0.000000
O O4 0.604178 0.138627 0.942134
O O5 0.131647 0.500000 0.605106
O O6 0.147604 0.646897 0.450012
O O7 0.991107 0.611727 0.743339
O O8 0.682829 0.157158 0.039581
O O9 0.646721 0.000000 0.001490
O O10 0.242634 0.826395 0.870738
O O11 0.264159 0.000000 0.916900
O O12 0.141669 0.884486 0.178225
O O13 0.669797 0.679830 0.344766
O O14 0.500000 0.641007 0.500000
O O15 0.381736 0.500000 0.617894
#
# Coordination Sequence:
#
# PCOD8107051 Si02
#       6
#     8   8   8   8   8   8
#     4  10  21  37  58  81 111 154 204 243 280 329
#     4  10  22  37  56  87 121 152 191 240 293 342
#     4   9  18  35  59  85 113 147 186 239 297 344
#     4  10  21  38  60  88 119 149 188 240 299 350
#     4  12  23  36  62  86 119 155 191 237 294 348
#     4  10  23  39  57  84 119 156 194 230 276 345
#
# _framework density 19.668413000000001
#
# number of rings (size 3 to 8) (size 9 to 14) (size 15 to 20)
#    0.000    1.833    1.667    2.000    2.333    4.000 
#    0.000    2.500    0.000    2.000    0.000    0.000 
#    0.000    0.000    0.000    0.000    0.000    0.000 
#
# Total GULP energy -297434.880041 kJ/mol
# GULP energy per Si atom -12393.120002 kJ/mol
# Density = 1.962365 g / cm^3
# Si number density = 19.668413 Si / 1000 Ang^3
#
#
#
# Elastic Constant Matrix: (Units=GPa)
#
#
# Indices 1 2 3 4 5 6 
#
# 1 84.3298 19.3861 33.5015 0.0000 -10.1045 0.0000
# 2 19.3861 56.3889 29.4402 0.0000 -6.1673 0.0000
# 3 33.5015 29.4402 110.2001 0.0000 -3.7781 0.0000
# 4 0.0000 0.0000 0.0000 24.3126 0.0000 1.3849
# 5 -10.1045 -6.1673 -3.7781 0.0000 30.8691 0.0000
# 6 0.0000 0.0000 0.0000 1.3849 0.0000 21.2560
#
#
#
# Elastic Compliance Matrix: (Units=1/GPa)
#
#
# Indices 1 2 3 4 5 6 
#
# 1 0.014314 -0.002683 -0.003507 0.000000 0.003720 0.000000
# 2 -0.002683 0.021486 -0.004827 0.000000 0.002823 0.000000
# 3 -0.003507 -0.004827 0.011406 0.000000 -0.000717 0.000000
# 4 0.000000 0.000000 0.000000 0.041284 0.000000 -0.002690
# 5 0.003720 0.002823 -0.000717 0.000000 0.034089 0.000000
# 6 0.000000 0.000000 0.000000 -0.002690 0.000000 0.047221
#
#
# Mechanical properties :
#
#
# Convention : Reuss Voigt Hill
#
# Bulk Modulus (GPa) = 39.73009 46.17494 42.95252
# Shear Modulus (GPa) = 24.97193 26.52694 25.74944
#
# Velocity S-wave (km/s) = 3.56708 3.67646 3.62218
# Velocity P-wave (km/s) = 6.09993 6.44589 6.27529
#
# Compressibility (1/GPa) = 0.02516984
#
# Stress axis : x y z
#
# Youngs Moduli (GPa) = 69.86133 46.54275 87.67529
#
# Poissons Ratio (x) = 0.12488 0.30750
# Poissons Ratio (y) = 0.18744 0.42325
# Poissons Ratio (z) = 0.24502 0.22468
#
# Static dielectric constant tensor:
#      x y z
#    x 3.640240 0.000000 -0.262610 
#    y 0.000000 3.540580 0.000000 
#    z -0.262610 0.000000 3.785820 
# 
# 
# High freq. dielectric constant tensor:
#      x y z
#    x 1.758000 0.000000 -0.009430 
#    y 0.000000 1.754470 0.000000 
#    z -0.009430 0.000000 1.781480 
# 
# From -- ./inp_files/142745.got.cif
#   From: 2010.06.25/outbox.cif.g09.slc.cpg/sg12_72_cif.got.tgz:142745.got - 2010.06.28 00:19:55.
