data_PCOD8107489
_publ_section_title
;
Structure prediction by ZEFSAII (Michael W. Deem and Ramdas Pophale) SiO2 
 PCOD8107489
Probable space group: C 2/M
;
_chemical_formula_sum "Si O2"
_cell_formula_units_Z 56
_cell_length_a 23.660818
_cell_length_b 8.785808
_cell_length_c 15.528459
_cell_angle_alpha 90.000000
_cell_angle_beta 120.590151
_cell_angle_gamma 90.000000
_cell_volume 2778.797971
_symmetry_space_group_name_H-M "C 2/M"
_symmetry_group_IT_number 12
_symmetry_cell_setting 'monoclinic'
loop_
_space_group_symop_operation_xyz
x,y,z
-x,y,-z
-x,-y,-z
x,-y,z
1/2+x,1/2+y,z
1/2-x,1/2+y,-z
1/2-x,1/2-y,-z
1/2+x,1/2-y,z
loop_
_atom_site_type_symbol
_atom_site_label
_atom_site_fract_x
_atom_site_fract_y
_atom_site_fract_z
Si Si1 0.207404 0.175221 0.892919
Si Si2 0.185205 0.326659 0.161984
Si Si3 0.347133 0.175447 0.524859
Si Si4 0.522492 0.322193 0.422983
Si Si5 0.948978 0.678639 0.029464
Si Si6 0.066620 0.319513 0.791733
Si Si7 0.703651 0.325196 0.351710
O O1 0.246303 0.193438 0.833856
O O2 0.138052 0.254978 0.826206
O O3 0.196313 0.000000 0.908180
O O4 0.250000 0.250000 0.000000
O O5 0.176966 0.500000 0.188335
O O6 0.125492 0.281063 0.053291
O O7 0.182512 0.212214 0.239130
O O8 0.401140 0.282084 0.523528
O O9 0.338473 0.219270 0.617897
O O10 0.280614 0.209275 0.421694
O O11 0.368630 0.000000 0.535792
O O12 0.500000 0.270589 0.500000
O O13 0.510545 0.500000 0.398878
O O14 0.483582 0.230893 0.320209
O O15 0.961194 0.500000 0.039596
O O16 0.959327 0.740524 0.134999
O O17 0.000000 0.753148 0.000000
O O18 0.072422 0.500000 0.797132
O O19 0.687913 0.500000 0.360993
#
# Coordination Sequence:
#
# PCOD8107489 Si02
#       7
#     8   8   8   8   8   8   8
#     4  11  22  39  61  88 123 162 205 254 308 364
#     4  10  21  37  60  89 121 161 206 247 305 372
#     4  10  22  42  65  89 120 163 208 254 311 372
#     4  11  26  45  64  90 126 166 208 261 320 373
#     4   9  19  37  60  89 124 161 203 246 298 367
#     4  11  23  41  65  92 122 163 211 259 311 374
#     4  10  22  39  62  94 125 156 201 258 313 367
#
# _framework density 20.1526
#
# number of rings (size 3 to 8) (size 9 to 14) (size 15 to 20)
#    0.000    1.714    1.429    2.143    4.000    4.000 
#    0.000    0.000    0.000    2.143    0.000    0.000 
#    0.000    0.000    0.000    0.000    0.000    0.000 
#
# Total GULP energy -347295.028676 kJ/mol
# GULP energy per Si atom -12403.393881 kJ/mol
# Density = 2.010673 g / cm^3
# Si number density = 20.152600 Si / 1000 Ang^3
#
#
#
# Elastic Constant Matrix: (Units=GPa)
#
#
# Indices 1 2 3 4 5 6 
#
# 1 121.9207 31.1114 43.7243 0.0000 -6.5770 0.0000
# 2 31.1114 61.3589 30.3420 0.0000 -4.6004 0.0000
# 3 43.7243 30.3420 104.8847 0.0000 -21.0130 0.0000
# 4 0.0000 0.0000 0.0000 34.3540 0.0000 1.9952
# 5 -6.5770 -4.6004 -21.0130 0.0000 26.1686 0.0000
# 6 0.0000 0.0000 0.0000 1.9952 0.0000 33.0022
#
#
#
# Elastic Compliance Matrix: (Units=1/GPa)
#
#
# Indices 1 2 3 4 5 6 
#
# 1 0.010300 -0.003595 -0.003411 0.000000 -0.000782 0.000000
# 2 -0.003595 0.020309 -0.004579 0.000000 -0.001010 0.000000
# 3 -0.003411 -0.004579 0.014238 0.000000 0.009771 0.000000
# 4 0.000000 0.000000 0.000000 0.029211 0.000000 -0.001766
# 5 -0.000782 -0.001010 0.009771 0.000000 0.045686 0.000000
# 6 0.000000 0.000000 0.000000 -0.001766 0.000000 0.030408
#
#
# Mechanical properties :
#
#
# Convention : Reuss Voigt Hill
#
# Bulk Modulus (GPa) = 46.12816 55.39109 50.75962
# Shear Modulus (GPa) = 27.69363 30.90406 29.29885
#
# Velocity S-wave (km/s) = 3.71104 3.92024 3.81707
# Velocity P-wave (km/s) = 6.42663 6.93084 6.68349
#
# Compressibility (1/GPa) = 0.02167873
#
# Stress axis : x y z
#
# Youngs Moduli (GPa) = 97.08411 49.23992 70.23296
#
# Poissons Ratio (x) = 0.17700 0.23955
# Poissons Ratio (y) = 0.34899 0.32159
# Poissons Ratio (z) = 0.33113 0.22546
#
# Static dielectric constant tensor:
#      x y z
#    x 3.818780 0.000000 -0.114220 
#    y 0.000000 3.569980 0.000000 
#    z -0.114220 0.000000 3.582710 
# 
# 
# High freq. dielectric constant tensor:
#      x y z
#    x 1.797950 0.000000 -0.002910 
#    y 0.000000 1.778130 0.000000 
#    z -0.002910 0.000000 1.790780 
# 
# From -- ./inp_files/238910.got.cif
#   From: 2010.06.25/outbox.cif.g09.slc.cpg/sg12_120_cif.got.tgz:238910.got - 2010.06.28 00:19:55.
