data_PCOD8107875
_publ_section_title
;
Structure prediction by ZEFSAII (Michael W. Deem and Ramdas Pophale) SiO2 
 PCOD8107875
Probable space group: C 2/M
;
_chemical_formula_sum "Si O2"
_cell_formula_units_Z 56
_cell_length_a 21.937854
_cell_length_b 9.045494
_cell_length_c 15.002575
_cell_angle_alpha 90.000000
_cell_angle_beta 113.951820
_cell_angle_gamma 90.000000
_cell_volume 2720.726042
_symmetry_space_group_name_H-M "C 2/M"
_symmetry_group_IT_number 12
_symmetry_cell_setting 'monoclinic'
loop_
_space_group_symop_operation_xyz
x,y,z
-x,y,-z
-x,-y,-z
x,-y,z
1/2+x,1/2+y,z
1/2-x,1/2+y,-z
1/2-x,1/2-y,-z
1/2+x,1/2-y,z
loop_
_atom_site_type_symbol
_atom_site_label
_atom_site_fract_x
_atom_site_fract_y
_atom_site_fract_z
Si Si1 0.666907 0.325844 0.765094
Si Si2 0.424392 0.326467 0.451367
Si Si3 0.339864 0.832957 0.051773
Si Si4 0.102595 0.829322 0.236469
Si Si5 0.705258 0.326611 0.147450
Si Si6 0.677580 0.676014 0.456412
Si Si7 0.508889 0.164375 0.909447
O O1 0.675612 0.500000 0.782074
O O2 0.605509 0.288444 0.663371
O O3 0.656381 0.248716 0.852773
O O4 0.734560 0.255333 0.764720
O O5 0.500000 0.258393 0.500000
O O6 0.430022 0.500000 0.470853
O O7 0.372628 0.265413 0.495539
O O8 0.414340 0.840309 0.063806
O O9 0.310643 0.000000 0.043104
O O10 0.297335 0.739679 0.954442
O O11 0.139344 0.794077 0.165039
O O12 0.144919 0.771096 0.344542
O O13 0.030615 0.752303 0.190539
O O14 0.088507 0.000000 0.241815
O O15 0.719871 0.500000 0.150074
O O16 0.687326 0.500000 0.468368
O O17 0.750000 0.750000 0.500000
O O18 0.477986 0.000000 0.894778
O O19 0.500000 0.243479 0.000000
#
# Coordination Sequence:
#
# PCOD8107875 Si02
#       7
#     8   8   8   8   8   8   8
#     4  11  23  38  61  87 113 153 198 241 291 343
#     4   9  20  39  62  88 118 156 201 247 296 354
#     4  11  23  39  59  84 118 155 194 238 289 349
#     4  10  22  36  59  90 118 152 193 241 292 343
#     4  11  22  38  58  86 122 155 190 236 290 348
#     4  10  21  39  63  91 121 155 199 249 300 354
#     4  10  21  38  58  83 116 154 192 237 290 349
#
# _framework density 20.582742
#
# number of rings (size 3 to 8) (size 9 to 14) (size 15 to 20)
#    0.000    1.714    1.429    2.571    2.000    2.571 
#    0.000    0.714    0.000    2.143    0.000    0.000 
#    0.000    0.000    0.000    0.000    0.000    0.000 
#
# Total GULP energy -347124.642233 kJ/mol
# GULP energy per Si atom -12397.308651 kJ/mol
# Density = 2.053590 g / cm^3
# Si number density = 20.582742 Si / 1000 Ang^3
#
#
#
# Elastic Constant Matrix: (Units=GPa)
#
#
# Indices 1 2 3 4 5 6 
#
# 1 87.9710 26.8736 34.9284 0.0000 7.1856 0.0000
# 2 26.8736 79.3531 51.2177 0.0000 5.8815 0.0000
# 3 34.9284 51.2177 126.7937 0.0000 10.2128 0.0000
# 4 0.0000 0.0000 0.0000 26.9403 0.0000 5.1798
# 5 7.1856 5.8815 10.2128 0.0000 38.8537 0.0000
# 6 0.0000 0.0000 0.0000 5.1798 0.0000 31.5342
#
#
#
# Elastic Compliance Matrix: (Units=1/GPa)
#
#
# Indices 1 2 3 4 5 6 
#
# 1 0.013306 -0.002853 -0.002400 0.000000 -0.001398 0.000000
# 2 -0.002853 0.017682 -0.006317 0.000000 -0.000488 0.000000
# 3 -0.002400 -0.006317 0.011225 0.000000 -0.001550 0.000000
# 4 0.000000 0.000000 0.000000 0.038330 0.000000 -0.006296
# 5 -0.001398 -0.000488 -0.001550 0.000000 0.026478 0.000000
# 6 0.000000 0.000000 0.000000 -0.006296 0.000000 0.032746
#
#
# Mechanical properties :
#
#
# Convention : Reuss Voigt Hill
#
# Bulk Modulus (GPa) = 52.43537 57.79524 55.11531
# Shear Modulus (GPa) = 29.53961 31.53885 30.53923
#
# Velocity S-wave (km/s) = 3.79247 3.91870 3.85610
# Velocity P-wave (km/s) = 6.68639 6.97247 6.83093
#
# Compressibility (1/GPa) = 0.01907110
#
# Stress axis : x y z
#
# Youngs Moduli (GPa) = 75.15253 56.55552 89.08944
#
# Poissons Ratio (x) = 0.16138 0.21384
# Poissons Ratio (y) = 0.21444 0.56278
# Poissons Ratio (z) = 0.18039 0.35727
#
# Static dielectric constant tensor:
#      x y z
#    x 4.092060 0.000000 0.068020 
#    y 0.000000 3.672880 0.000000 
#    z 0.068020 0.000000 3.837390 
# 
# 
# High freq. dielectric constant tensor:
#      x y z
#    x 1.819700 0.000000 0.005260 
#    y 0.000000 1.786460 0.000000 
#    z 0.005260 0.000000 1.812790 
# 
# From -- ./inp_files/238868.got.cif
#   From: 2010.06.25/outbox.cif.g09.slc.cpg/sg12_120_cif.got.tgz:238868.got - 2010.06.28 00:19:55.
