data_PCOD8107372
_publ_section_title
;
Structure prediction by ZEFSAII (Michael W. Deem and Ramdas Pophale) SiO2 
 PCOD8107372
Probable space group: C 2/M
;
_chemical_formula_sum "Si O2"
_cell_formula_units_Z 56
_cell_length_a 23.057325
_cell_length_b 8.863515
_cell_length_c 14.554208
_cell_angle_alpha 90.000000
_cell_angle_beta 68.459836
_cell_angle_gamma 90.000000
_cell_volume 2766.695349
_symmetry_space_group_name_H-M "C 2/M"
_symmetry_group_IT_number 12
_symmetry_cell_setting 'monoclinic'
loop_
_space_group_symop_operation_xyz
x,y,z
-x,y,-z
-x,-y,-z
x,-y,z
1/2+x,1/2+y,z
1/2-x,1/2+y,-z
1/2-x,1/2-y,-z
1/2+x,1/2-y,z
loop_
_atom_site_type_symbol
_atom_site_label
_atom_site_fract_x
_atom_site_fract_y
_atom_site_fract_z
Si Si1 0.442516 0.179416 0.475780
Si Si2 0.668760 0.176825 0.966944
Si Si3 0.582396 0.174581 0.711791
Si Si4 0.327745 0.178589 0.663231
Si Si5 0.937252 0.176738 0.089927
Si Si6 0.271748 0.825554 0.394161
Si Si7 0.812534 0.176286 0.856748
O O1 0.500000 0.247540 0.500000
O O2 0.446395 0.233664 0.367903
O O3 0.378889 0.234883 0.560117
O O4 0.443819 0.000000 0.477108
O O5 0.655064 0.261159 0.070369
O O6 0.658989 0.000000 0.987130
O O7 0.621510 0.234818 0.917361
O O8 0.739092 0.214036 0.895527
O O9 0.553393 0.273850 0.810003
O O10 0.655856 0.198526 0.663973
O O11 0.565654 0.000000 0.738931
O O12 0.261852 0.248616 0.672493
O O13 0.345900 0.240308 0.752786
O O14 0.322626 0.000000 0.669671
O O15 0.923540 0.000000 0.091917
O O16 0.000000 0.220928 0.000000
O O17 0.250000 0.750000 0.500000
O O18 0.253793 0.000000 0.408995
O O19 0.825690 0.000000 0.843049
#
# Coordination Sequence:
#
# PCOD8107372 Si02
#       7
#     8   8   8   8   8   8   8
#     4   9  19  37  58  81 113 151 193 241 283 333
#     4  10  21  39  62  87 115 154 199 243 295 356
#     4  10  21  39  61  87 116 151 199 248 294 353
#     4  11  21  35  56  87 119 154 198 239 289 355
#     4  11  25  42  60  86 120 157 198 250 306 357
#     4  11  21  35  57  87 120 153 192 243 299 353
#     4  10  21  37  59  89 123 154 189 243 300 354
#
# _framework density 20.240753000000002
#
# number of rings (size 3 to 8) (size 9 to 14) (size 15 to 20)
#    0.000    1.714    1.429    3.000    0.000    8.571 
#    0.000    1.429    0.000    3.000    0.000    0.000 
#    0.000    0.000    0.000    0.000    0.000    0.000 
#
# Total GULP energy -347311.972493 kJ/mol
# GULP energy per Si atom -12403.999018 kJ/mol
# Density = 2.019468 g / cm^3
# Si number density = 20.240753 Si / 1000 Ang^3
#
#
#
# Elastic Constant Matrix: (Units=GPa)
#
#
# Indices 1 2 3 4 5 6 
#
# 1 96.5017 30.8315 37.3012 0.0000 22.0517 0.0000
# 2 30.8315 81.1837 47.3690 0.0000 -1.1406 0.0000
# 3 37.3012 47.3690 138.6544 0.0000 21.4217 0.0000
# 4 0.0000 0.0000 0.0000 37.1622 0.0000 6.4032
# 5 22.0517 -1.1406 21.4217 0.0000 27.3620 0.0000
# 6 0.0000 0.0000 0.0000 6.4032 0.0000 25.7197
#
#
#
# Elastic Compliance Matrix: (Units=1/GPa)
#
#
# Indices 1 2 3 4 5 6 
#
# 1 0.015085 -0.005792 -0.000186 0.000000 -0.012253 0.000000
# 2 -0.005792 0.018346 -0.006312 0.000000 0.010375 0.000000
# 3 -0.000186 -0.006312 0.010735 0.000000 -0.008517 0.000000
# 4 0.000000 0.000000 0.000000 0.028115 0.000000 -0.007000
# 5 -0.012253 0.010375 -0.008517 0.000000 0.053523 0.000000
# 6 0.000000 0.000000 0.000000 -0.007000 0.000000 0.040623
#
#
# Mechanical properties :
#
#
# Convention : Reuss Voigt Hill
#
# Bulk Modulus (GPa) = 51.06180 60.81590 55.93885
# Shear Modulus (GPa) = 25.31169 31.43800 28.37485
#
# Velocity S-wave (km/s) = 3.54012 3.94535 3.74821
# Velocity P-wave (km/s) = 6.48012 7.13203 6.81387
#
# Compressibility (1/GPa) = 0.01958411
#
# Stress axis : x y z
#
# Youngs Moduli (GPa) = 66.29058 54.50655 93.15597
#
# Poissons Ratio (x) = 0.31572 0.01736
# Poissons Ratio (y) = 0.38398 0.58803
# Poissons Ratio (z) = 0.01235 0.34406
#
# Static dielectric constant tensor:
#      x y z
#    x 3.711690 0.000000 0.242390 
#    y 0.000000 3.561610 0.000000 
#    z 0.242390 0.000000 3.619560 
# 
# 
# High freq. dielectric constant tensor:
#      x y z
#    x 1.787200 0.000000 0.014230 
#    y 0.000000 1.781970 0.000000 
#    z 0.014230 0.000000 1.802180 
# 
# From -- ./inp_files/238371.got.cif
#   From: 2010.06.25/outbox.cif.g09.slc.cpg/sg12_120_cif.got.tgz:238371.got - 2010.06.28 00:19:55.
