data_PCOD8107469
_publ_section_title
;
Structure prediction by ZEFSAII (Michael W. Deem and Ramdas Pophale) SiO2 
 PCOD8107469
Probable space group: C 2/M
;
_chemical_formula_sum "Si O2"
_cell_formula_units_Z 40
_cell_length_a 16.245327
_cell_length_b 13.628296
_cell_length_c 27.712598
_cell_angle_alpha 90.000000
_cell_angle_beta 162.303340
_cell_angle_gamma 90.000000
_cell_volume 1865.042502
_symmetry_space_group_name_H-M "C 2/M"
_symmetry_group_IT_number 12
_symmetry_cell_setting 'monoclinic'
loop_
_space_group_symop_operation_xyz
x,y,z
-x,y,-z
-x,-y,-z
x,-y,z
1/2+x,1/2+y,z
1/2-x,1/2+y,-z
1/2-x,1/2-y,-z
1/2+x,1/2-y,z
loop_
_atom_site_type_symbol
_atom_site_label
_atom_site_fract_x
_atom_site_fract_y
_atom_site_fract_z
Si Si1 0.764828 0.754261 0.402236
Si Si2 0.348818 0.215913 0.299155
Si Si3 0.973533 0.111415 0.800930
Si Si4 0.692374 0.886764 0.818955
Si Si5 0.057688 0.610933 0.087073
O O1 0.675917 0.649696 0.330665
O O2 0.509258 0.827098 0.258839
O O3 0.000000 0.801738 0.500000
O O4 0.872502 0.733631 0.516294
O O5 0.108954 0.180570 0.200531
O O6 0.389598 0.131362 0.282251
O O7 0.279145 0.317264 0.233321
O O8 0.879275 0.000000 0.757643
O O9 0.293413 0.117405 0.972673
O O10 0.659276 0.000000 0.813770
O O11 0.000000 0.851138 0.000000
O O12 0.173832 0.500000 0.152253
O O13 0.000000 0.643902 0.000000
#
# Coordination Sequence:
#
# PCOD8107469 Si02
#       5
#     8   8   8   8   8
#     4  10  23  40  61  89 120 157 197 247 302 351
#     4  11  21  37  61  88 118 152 197 251 299 351
#     4  10  21  38  60  87 120 159 202 246 296 355
#     4  11  24  41  61  86 119 159 199 242 297 359
#     4  10  21  37  60  88 120 161 202 244 296 354
#
# _framework density 21.447233000000001
#
# number of rings (size 3 to 8) (size 9 to 14) (size 15 to 20)
#    0.000    1.600    0.000    4.800    0.000    7.200 
#    0.000    9.000    0.000    0.000    0.000    0.000 
#    0.000    0.000    0.000    0.000    0.000    0.000 
#
# Total GULP energy -248063.892850 kJ/mol
# GULP energy per Si atom -12403.194643 kJ/mol
# Density = 2.139842 g / cm^3
# Si number density = 21.447233 Si / 1000 Ang^3
#
#
#
# Elastic Constant Matrix: (Units=GPa)
#
#
# Indices 1 2 3 4 5 6 
#
# 1 69.7202 28.4686 17.2251 0.0217 -9.6991 0.0082
# 2 28.4686 112.2088 36.3337 0.0335 -4.1858 -0.0161
# 3 17.2251 36.3337 85.3355 0.1265 2.7126 -0.0322
# 4 0.0217 0.0335 0.1265 23.1461 -0.0047 -2.8267
# 5 -9.6991 -4.1858 2.7126 -0.0047 42.3596 0.0198
# 6 0.0082 -0.0161 -0.0322 -2.8267 0.0198 33.4507
#
#
#
# Elastic Compliance Matrix: (Units=1/GPa)
#
#
# Indices 1 2 3 4 5 6 
#
# 1 0.016761 -0.003462 -0.002025 0.000000 0.003625 -0.000010
# 2 -0.003462 0.011125 -0.004056 0.000010 0.000566 0.000003
# 3 -0.002025 -0.004056 0.013910 -0.000068 -0.001755 0.000007
# 4 0.000000 0.000010 -0.000068 0.043655 0.000008 0.003689
# 5 0.003625 0.000566 -0.001755 0.000008 0.024606 -0.000016
# 6 -0.000010 0.000003 0.000007 0.003689 -0.000016 0.030206
#
#
# Mechanical properties :
#
#
# Convention : Reuss Voigt Hill
#
# Bulk Modulus (GPa) = 44.03083 47.92438 45.97760
# Shear Modulus (GPa) = 29.95492 32.14041 31.04766
#
# Velocity S-wave (km/s) = 3.74127 3.87535 3.80890
# Velocity P-wave (km/s) = 6.26396 6.51293 6.38966
#
# Compressibility (1/GPa) = 0.02271136
#
# Stress axis : x y z
#
# Youngs Moduli (GPa) = 59.66204 89.89044 71.89119
#
# Poissons Ratio (x) = 0.31117 0.14555
# Poissons Ratio (y) = 0.20653 0.29158
# Poissons Ratio (z) = 0.12079 0.36458
#
# Static dielectric constant tensor:
#      x y z
#    x 3.972800 0.000040 0.107270 
#    y 0.000040 3.830020 -0.000200 
#    z 0.107270 -0.000200 3.812010 
# 
# 
# High freq. dielectric constant tensor:
#      x y z
#    x 1.850400 0.000000 0.007600 
#    y 0.000000 1.840500 -0.000020 
#    z 0.007600 -0.000020 1.837990 
# 
# From -- ./inp_files/361504.got.cif
#   From: 2010.06.25/outbox.cif.g09.slc.cpg/sg12_181_cif.got.tgz:361504.got - 2010.06.28 00:19:55.
