data_PCOD8107648
_publ_section_title
;
Structure prediction by ZEFSAII (Michael W. Deem and Ramdas Pophale) SiO2 
 PCOD8107648
Probable space group: C 2/M
;
_chemical_formula_sum "Si O2"
_cell_formula_units_Z 48
_cell_length_a 18.245752
_cell_length_b 14.209141
_cell_length_c 8.944818
_cell_angle_alpha 90.000000
_cell_angle_beta 92.677602
_cell_angle_gamma 90.000000
_cell_volume 2316.470020
_symmetry_space_group_name_H-M "C 2/M"
_symmetry_group_IT_number 12
_symmetry_cell_setting 'monoclinic'
loop_
_space_group_symop_operation_xyz
x,y,z
-x,y,-z
-x,-y,-z
x,-y,z
1/2+x,1/2+y,z
1/2-x,1/2+y,-z
1/2-x,1/2-y,-z
1/2+x,1/2-y,z
loop_
_atom_site_type_symbol
_atom_site_label
_atom_site_fract_x
_atom_site_fract_y
_atom_site_fract_z
Si Si1 0.633008 0.602547 0.352084
Si Si2 0.713492 0.168483 0.590039
Si Si3 0.674475 0.228585 0.915191
Si Si4 0.574154 0.200055 0.417945
Si Si5 0.926849 0.392966 0.898488
Si Si6 0.085141 0.105958 0.010731
O O1 0.599966 0.500000 0.396824
O O2 0.721147 0.593169 0.386003
O O3 0.595001 0.688739 0.437108
O O4 0.619033 0.620418 0.176771
O O5 0.750000 0.250000 0.500000
O O6 0.685409 0.200138 0.747350
O O7 0.640359 0.136026 0.493098
O O8 0.624598 0.321951 0.903759
O O9 0.750000 0.250000 0.000000
O O10 0.638760 0.143918 0.005050
O O11 0.500000 0.179008 0.500000
O O12 0.563712 0.172231 0.245410
O O13 0.909855 0.500000 0.849146
O O14 0.000000 0.385878 0.000000
O O15 0.097923 0.000000 0.952827
O O16 0.000000 0.131731 0.000000
#
# Coordination Sequence:
#
# PCOD8107648 Si02
#       6
#     8   8   8   8   8   8
#     4  10  21  40  62  91 129 168 208 254 315 382
#     4  10  22  40  60  90 129 170 208 250 320 379
#     4  12  21  39  67  92 124 164 213 267 309 374
#     4  11  23  41  66  96 129 167 209 266 325 383
#     4  11  25  44  66  93 122 165 220 267 317 378
#     4  10  21  37  62  93 125 161 207 259 311 367
#
# _framework density 20.721184000000001
#
# number of rings (size 3 to 8) (size 9 to 14) (size 15 to 20)
#    0.000    1.333    3.333    2.500    2.333    2.667 
#    0.000    3.333    0.000    0.000    0.000    0.000 
#    0.000    0.000    0.000    0.000    0.000    0.000 
#
# Total GULP energy -297512.812940 kJ/mol
# GULP energy per Si atom -12396.367206 kJ/mol
# Density = 2.067402 g / cm^3
# Si number density = 20.721184 Si / 1000 Ang^3
#
#
#
# Elastic Constant Matrix: (Units=GPa)
#
#
# Indices 1 2 3 4 5 6 
#
# 1 126.1863 34.7120 34.0196 0.0000 5.7908 0.0000
# 2 34.7120 103.5947 18.4800 0.0000 -3.9453 0.0000
# 3 34.0196 18.4800 103.9808 0.0000 -6.0023 0.0000
# 4 0.0000 0.0000 0.0000 -7.1725 0.0000 6.1784
# 5 5.7908 -3.9453 -6.0023 0.0000 40.7648 0.0000
# 6 0.0000 0.0000 0.0000 6.1784 0.0000 27.7017
#
#
#
# Elastic Compliance Matrix: (Units=1/GPa)
#
#
# Indices 1 2 3 4 5 6 
#
# 1 0.009520 -0.002779 -0.002738 0.000000 -0.002024 0.000000
# 2 -0.002779 0.010801 -0.000935 0.000000 0.001302 0.000000
# 3 -0.002738 -0.000935 0.010788 0.000000 0.001887 0.000000
# 4 0.000000 0.000000 0.000000 -0.116953 0.000000 0.026084
# 5 -0.002024 0.001302 0.001887 0.000000 0.025222 0.000000
# 6 0.000000 0.000000 0.000000 0.026084 0.000000 0.030281
#
#
# Mechanical properties :
#
#
# Convention : Reuss Voigt Hill
#
# Bulk Modulus (GPa) = 54.92898 56.46501 55.69699
# Shear Modulus (GPa) = -439.79727 28.69549 -205.55089
#
# Velocity S-wave (km/s) = -14.58444 3.72538 -9.97065
# Velocity P-wave (km/s) = 16.03252 6.76858 10.27687
#
# Compressibility (1/GPa) = 0.01820533
#
# Stress axis : x y z
#
# Youngs Moduli (GPa) = 105.04029 92.58829 92.69556
#
# Poissons Ratio (x) = 0.25727 0.25378
# Poissons Ratio (y) = 0.29187 0.08669
# Poissons Ratio (z) = 0.28757 0.08659
#
# Static dielectric constant tensor:
#      x y z
#    x 4.186320 0.000000 0.225660 
#    y 0.000000 3.897740 0.000000 
#    z 0.225660 0.000000 3.005000 
# 
# 
# High freq. dielectric constant tensor:
#      x y z
#    x 1.827530 0.000000 0.015990 
#    y 0.000000 1.806140 0.000000 
#    z 0.015990 0.000000 1.807590 
# 
# From -- ./inp_files/73582.got.cif
#   From: 2010.06.25/outbox.cif.g09.slc.cpg/sg12_37_cif.got.tgz:73582.got - 2010.06.28 00:19:55.
