data_PCOD8107545
_publ_section_title
;
Structure prediction by ZEFSAII (Michael W. Deem and Ramdas Pophale) SiO2 
 PCOD8107545
Probable space group: C 2/M
;
_chemical_formula_sum "Si O2"
_cell_formula_units_Z 48
_cell_length_a 19.671494
_cell_length_b 12.184714
_cell_length_c 10.576587
_cell_angle_alpha 90.000000
_cell_angle_beta 111.254489
_cell_angle_gamma 90.000000
_cell_volume 2362.678213
_symmetry_space_group_name_H-M "C 2/M"
_symmetry_group_IT_number 12
_symmetry_cell_setting 'monoclinic'
loop_
_space_group_symop_operation_xyz
x,y,z
-x,y,-z
-x,-y,-z
x,-y,z
1/2+x,1/2+y,z
1/2-x,1/2+y,-z
1/2-x,1/2-y,-z
1/2+x,1/2-y,z
loop_
_atom_site_type_symbol
_atom_site_label
_atom_site_fract_x
_atom_site_fract_y
_atom_site_fract_z
Si Si1 0.761165 0.760480 0.307475
Si Si2 0.943749 0.875887 0.064307
Si Si3 0.111791 0.624502 0.742295
Si Si4 0.006906 0.797022 0.361397
Si Si5 0.336302 0.371879 0.578613
Si Si6 0.320654 0.789822 0.978993
O O1 0.830520 0.699792 0.292354
O O2 0.712002 0.665215 0.335877
O O3 0.788519 0.852733 0.421593
O O4 0.709563 0.830442 0.176883
O O5 0.967304 0.869635 0.227573
O O6 0.929733 0.000000 0.017106
O O7 0.868299 0.817409 0.989430
O O8 0.000000 0.824339 0.000000
O O9 0.110564 0.500000 0.690642
O O10 0.030871 0.676225 0.668531
O O11 0.133933 0.622347 0.906855
O O12 0.000000 0.846138 0.500000
O O13 0.091939 0.794983 0.381504
O O14 0.357667 0.500000 0.605385
O O15 0.250000 0.750000 0.000000
#
# Coordination Sequence:
#
# PCOD8107545 Si02
#       6
#     8   8   8   8   8   8
#     4  10  21  41  59  88 121 152 200 244 288 354
#     4  10  21  37  61  87 114 153 195 239 298 356
#     4  10  21  40  63  85 114 158 201 243 297 350
#     4  11  22  40  56  92 121 152 195 250 297 350
#     4  11  23  38  61  87 120 159 193 240 300 354
#     4   9  20  36  56  85 117 145 190 244 286 342
#
# _framework density 20.315929000000001
#
# number of rings (size 3 to 8) (size 9 to 14) (size 15 to 20)
#    0.000    1.833    1.667    2.000    0.000    7.000 
#    0.000    0.833    0.000   17.000    0.000    0.000 
#    0.000    0.000    0.000    0.000    0.000    0.000 
#
# Total GULP energy -297379.544046 kJ/mol
# GULP energy per Si atom -12390.814335 kJ/mol
# Density = 2.026969 g / cm^3
# Si number density = 20.315929 Si / 1000 Ang^3
#
#
#
# Elastic Constant Matrix: (Units=GPa)
#
#
# Indices 1 2 3 4 5 6 
#
# 1 116.3495 34.4825 25.6786 0.0000 11.1190 0.0000
# 2 34.4825 54.1048 -2.5115 0.0000 -2.8308 0.0000
# 3 25.6786 -2.5115 99.0714 0.0000 -0.6831 0.0000
# 4 0.0000 0.0000 0.0000 9.9526 0.0000 -1.4313
# 5 11.1190 -2.8308 -0.6831 0.0000 29.7027 0.0000
# 6 0.0000 0.0000 0.0000 -1.4313 0.0000 20.9938
#
#
#
# Elastic Compliance Matrix: (Units=1/GPa)
#
#
# Indices 1 2 3 4 5 6 
#
# 1 0.012345 -0.008315 -0.003448 0.000000 -0.005493 0.000000
# 2 -0.008315 0.024200 0.002807 0.000000 0.005484 0.000000
# 3 -0.003448 0.002807 0.011071 0.000000 0.001813 0.000000
# 4 0.000000 0.000000 0.000000 0.101471 0.000000 0.006918
# 5 -0.005493 0.005484 0.001813 0.000000 0.036288 0.000000
# 6 0.000000 0.000000 0.000000 0.006918 0.000000 0.048105
#
#
# Mechanical properties :
#
#
# Convention : Reuss Voigt Hill
#
# Bulk Modulus (GPa) = 33.66862 42.75833 38.21347
# Shear Modulus (GPa) = 19.13548 26.25489 22.69519
#
# Velocity S-wave (km/s) = 3.07236 3.59880 3.34595
# Velocity P-wave (km/s) = 5.40318 6.19361 5.81185
#
# Compressibility (1/GPa) = 0.02970125
#
# Stress axis : x y z
#
# Youngs Moduli (GPa) = 81.00253 41.32315 90.32447
#
# Poissons Ratio (x) = 0.34362 0.31148
# Poissons Ratio (y) = 0.67357 -0.25350
# Poissons Ratio (z) = 0.27934 -0.11598
#
# Static dielectric constant tensor:
#      x y z
#    x 3.848010 0.000000 -0.064750 
#    y 0.000000 3.219320 0.000000 
#    z -0.064750 0.000000 4.658960 
# 
# 
# High freq. dielectric constant tensor:
#      x y z
#    x 1.803280 0.000000 0.002790 
#    y 0.000000 1.751470 0.000000 
#    z 0.002790 0.000000 1.820030 
# 
# From -- ./inp_files/165191.got.cif
#   From: 2010.06.25/outbox.cif.g09.slc.cpg/sg12_83_cif.got.tgz:165191.got - 2010.06.28 00:19:55.
