data_PCOD8107866
_publ_section_title
;
Structure prediction by ZEFSAII (Michael W. Deem and Ramdas Pophale) SiO2 
 PCOD8107866
Probable space group: C 2/M
;
_chemical_formula_sum "Si O2"
_cell_formula_units_Z 40
_cell_length_a 14.597921
_cell_length_b 8.346578
_cell_length_c 19.922165
_cell_angle_alpha 90.000000
_cell_angle_beta 57.446767
_cell_angle_gamma 90.000000
_cell_volume 2046.010551
_symmetry_space_group_name_H-M "C 2/M"
_symmetry_group_IT_number 12
_symmetry_cell_setting 'monoclinic'
loop_
_space_group_symop_operation_xyz
x,y,z
-x,y,-z
-x,-y,-z
x,-y,z
1/2+x,1/2+y,z
1/2-x,1/2+y,-z
1/2-x,1/2-y,-z
1/2+x,1/2-y,z
loop_
_atom_site_type_symbol
_atom_site_label
_atom_site_fract_x
_atom_site_fract_y
_atom_site_fract_z
Si Si1 0.224362 0.186625 0.204090
Si Si2 0.148909 0.311889 0.496330
Si Si3 0.082298 0.810714 0.381687
Si Si4 0.958522 0.313985 0.085834
Si Si5 0.666387 0.184999 0.087373
O O1 0.152965 0.260956 0.292261
O O2 0.345094 0.265001 0.154552
O O3 0.169255 0.215884 0.154356
O O4 0.232935 0.000000 0.215586
O O5 0.160993 0.500000 0.481211
O O6 0.250000 0.250000 0.500000
O O7 0.147217 0.227761 0.424319
O O8 0.034823 0.273916 0.577532
O O9 0.063236 0.000000 0.384243
O O10 0.936093 0.500000 0.079320
O O11 0.044882 0.288168 0.109851
O O12 0.000000 0.233212 0.000000
O O13 0.692331 0.000000 0.090750
O O14 0.750000 0.250000 0.000000
#
# Coordination Sequence:
#
# PCOD8107866 Si02
#       5
#     8   8   8   8   8
#     4  10  21  38  58  82 114 150 189 237 286 341
#     4  11  22  39  64  89 119 155 194 237 290 354
#     4  10  21  38  60  89 122 154 193 240 296 354
#     4   9  17  33  55  75 104 147 189 227 279 339
#     4  11  21  34  55  79 107 147 195 242 288 340
#
# _framework density 19.550241
#
# number of rings (size 3 to 8) (size 9 to 14) (size 15 to 20)
#    0.000    1.800    2.000    4.200    0.000    3.200 
#    0.000    5.000    0.000    0.000    0.000    0.000 
#    0.000    0.000    0.000    0.000    0.000    0.000 
#
# Total GULP energy -247984.119016 kJ/mol
# GULP energy per Si atom -12399.205951 kJ/mol
# Density = 1.950574 g / cm^3
# Si number density = 19.550241 Si / 1000 Ang^3
#
#
#
# Elastic Constant Matrix: (Units=GPa)
#
#
# Indices 1 2 3 4 5 6 
#
# 1 128.6636 5.7382 63.8523 0.0000 -7.7454 0.0000
# 2 5.7382 32.5373 1.6638 0.0000 -5.7838 0.0001
# 3 63.8523 1.6638 178.9200 0.0000 -12.8350 0.0000
# 4 0.0000 0.0000 0.0000 22.3415 0.0000 4.8227
# 5 -7.7454 -5.7838 -12.8350 0.0000 24.4400 0.0000
# 6 0.0000 0.0001 0.0000 4.8227 0.0000 31.0934
#
#
#
# Elastic Compliance Matrix: (Units=1/GPa)
#
#
# Indices 1 2 3 4 5 6 
#
# 1 0.009539 -0.001342 -0.003323 0.000000 0.000960 0.000000
# 2 -0.001342 0.032284 0.000723 0.000000 0.007595 0.000000
# 3 -0.003323 0.000723 0.006967 0.000000 0.002777 0.000000
# 4 0.000000 0.000000 0.000000 0.046310 0.000000 -0.007183
# 5 0.000960 0.007595 0.002777 0.000000 0.044477 0.000000
# 6 0.000000 0.000000 0.000000 -0.007183 0.000000 0.033275
#
#
# Mechanical properties :
#
#
# Convention : Reuss Voigt Hill
#
# Bulk Modulus (GPa) = 24.44519 53.62550 39.03534
# Shear Modulus (GPa) = 25.72411 33.49942 29.61176
#
# Velocity S-wave (km/s) = 3.63132 4.14394 3.89607
# Velocity P-wave (km/s) = 5.48753 7.09827 6.34423
#
# Compressibility (1/GPa) = 0.04090784
#
# Stress axis : x y z
#
# Youngs Moduli (GPa) = 104.83399 30.97545 143.52503
#
# Poissons Ratio (x) = 0.04156 0.47691
# Poissons Ratio (y) = 0.14065 -0.10383
# Poissons Ratio (z) = 0.34835 -0.02241
#
# Static dielectric constant tensor:
#      x y z
#    x 3.855220 0.000000 -0.231400 
#    y 0.000000 3.425250 0.000000 
#    z -0.231400 0.000000 3.839720 
# 
# 
# High freq. dielectric constant tensor:
#      x y z
#    x 1.770610 0.000000 -0.004780 
#    y 0.000000 1.745580 0.000000 
#    z -0.004780 0.000000 1.766720 
# 
# From -- ./inp_files/266936.got.cif
#   From: 2010.06.25/outbox.cif.g09.slc.cpg/sg12_134_cif.got.tgz:266936.got - 2010.06.28 00:19:55.
