data_PCOD8107894
_publ_section_title
;
Structure prediction by ZEFSAII (Michael W. Deem and Ramdas Pophale) SiO2 
 PCOD8107894
Probable space group: C 2/M
;
_chemical_formula_sum "Si O2"
_cell_formula_units_Z 48
_cell_length_a 17.131869
_cell_length_b 16.010542
_cell_length_c 9.027797
_cell_angle_alpha 90.000000
_cell_angle_beta 93.097424
_cell_angle_gamma 90.000000
_cell_volume 2472.621491
_symmetry_space_group_name_H-M "C 2/M"
_symmetry_group_IT_number 12
_symmetry_cell_setting 'monoclinic'
loop_
_space_group_symop_operation_xyz
x,y,z
-x,y,-z
-x,-y,-z
x,-y,z
1/2+x,1/2+y,z
1/2-x,1/2+y,-z
1/2-x,1/2-y,-z
1/2+x,1/2-y,z
loop_
_atom_site_type_symbol
_atom_site_label
_atom_site_fract_x
_atom_site_fract_y
_atom_site_fract_z
Si Si1 0.607915 0.000000 0.147283
Si Si2 0.007285 0.773065 0.668406
Si Si3 0.436209 0.594394 0.867892
Si Si4 0.641950 0.155466 0.671689
Si Si5 0.636892 0.837808 0.325009
Si Si6 0.284929 0.703971 0.861147
Si Si7 0.426283 0.000000 0.185534
O O1 0.647210 0.079205 0.229567
O O2 0.516297 0.000000 0.157098
O O3 0.624912 0.000000 0.972012
O O4 0.095723 0.741363 0.708953
O O5 0.000000 0.799084 0.500000
O O6 0.982767 0.857525 0.745613
O O7 0.951259 0.695382 0.701901
O O8 0.412517 0.500000 0.816123
O O9 0.359030 0.645678 0.910596
O O10 0.500000 0.589289 0.000000
O O11 0.659654 0.148324 0.498607
O O12 0.719952 0.147099 0.776345
O O13 0.588542 0.078881 0.712927
O O14 0.695462 0.771034 0.262369
O O15 0.250000 0.750000 0.000000
#
# Coordination Sequence:
#
# PCOD8107894 Si02
#       7
#     4   8   8   8   8   8   4
#     4  11  21  37  55  89 123 150 199 232 290 351
#     4   9  19  36  61  86 111 148 192 234 284 344
#     4  10  22  40  60  81 112 151 193 239 287 342
#     4  11  21  37  61  87 118 152 192 241 299 347
#     4  10  21  38  58  85 119 157 194 237 287 355
#     4  11  23  39  60  86 117 153 196 243 297 349
#     4  11  23  33  59  91 120 156 187 244 292 349
#
# _framework density 19.412596000000001
#
# number of rings (size 3 to 8) (size 9 to 14) (size 15 to 20)
#    0.000    1.667    1.667    3.000    1.167    2.333 
#    1.500    0.000    1.833    0.000    0.000    0.000 
#    0.000    0.000    0.000    0.000    0.000    0.000 
#
# Total GULP energy -297522.090863 kJ/mol
# GULP energy per Si atom -12396.753786 kJ/mol
# Density = 1.936841 g / cm^3
# Si number density = 19.412596 Si / 1000 Ang^3
#
#
#
# Elastic Constant Matrix: (Units=GPa)
#
#
# Indices 1 2 3 4 5 6 
#
# 1 77.3570 27.6149 26.5080 0.0000 3.3430 0.0000
# 2 27.6149 122.6643 45.7988 0.0000 -7.4434 0.0000
# 3 26.5080 45.7988 100.3556 0.0000 -13.3366 0.0000
# 4 0.0000 0.0000 0.0000 -55.0642 0.0000 38.9198
# 5 3.3430 -7.4434 -13.3366 0.0000 32.1639 0.0000
# 6 0.0000 0.0000 0.0000 38.9198 0.0000 5.2789
#
#
#
# Elastic Compliance Matrix: (Units=1/GPa)
#
#
# Indices 1 2 3 4 5 6 
#
# 1 0.015073 -0.002345 -0.003378 0.000000 -0.003510 0.000000
# 2 -0.002345 0.010197 -0.003903 0.000000 0.000985 0.000000
# 3 -0.003378 -0.003903 0.013297 0.000000 0.004961 0.000000
# 4 0.000000 0.000000 0.000000 -0.002924 0.000000 0.021557
# 5 -0.003510 0.000985 0.004961 0.000000 0.033741 0.000000
# 6 0.000000 0.000000 0.000000 0.021557 0.000000 0.030499
#
#
# Mechanical properties :
#
#
# Convention : Reuss Voigt Hill
#
# Bulk Modulus (GPa) = 51.77128 55.58005 53.67566
# Shear Modulus (GPa) = 39.81663 9.83940 24.82802
#
# Velocity S-wave (km/s) = 4.53379 2.25379 3.58014
# Velocity P-wave (km/s) = 7.35757 5.95532 6.69327
#
# Compressibility (1/GPa) = 0.01931573
#
# Stress axis : x y z
#
# Youngs Moduli (GPa) = 66.34197 98.06333 75.20239
#
# Poissons Ratio (x) = 0.22999 0.25401
# Poissons Ratio (y) = 0.15559 0.29354
# Poissons Ratio (z) = 0.22408 0.38278
#
# Static dielectric constant tensor:
#      x y z
#    x 3.396660 0.000000 0.049790 
#    y 0.000000 3.715440 0.000000 
#    z 0.049790 0.000000 3.455600 
# 
# 
# High freq. dielectric constant tensor:
#      x y z
#    x 1.751840 0.000000 -0.005110 
#    y 0.000000 1.755770 0.000000 
#    z -0.005110 0.000000 1.763690 
# 
# From -- ./inp_files/73673.got.cif
#   From: 2010.06.25/outbox.cif.g09.slc.cpg/sg12_37_cif.got.tgz:73673.got - 2010.06.28 00:19:55.
