data_PCOD8107863
_publ_section_title
;
Structure prediction by ZEFSAII (Michael W. Deem and Ramdas Pophale) SiO2 
 PCOD8107863
Probable space group: C 2/M
;
_chemical_formula_sum "Si O2"
_cell_formula_units_Z 48
_cell_length_a 15.103945
_cell_length_b 8.475874
_cell_length_c 26.794187
_cell_angle_alpha 90.000000
_cell_angle_beta 44.466726
_cell_angle_gamma 90.000000
_cell_volume 2402.815747
_symmetry_space_group_name_H-M "C 2/M"
_symmetry_group_IT_number 12
_symmetry_cell_setting 'monoclinic'
loop_
_space_group_symop_operation_xyz
x,y,z
-x,y,-z
-x,-y,-z
x,-y,z
1/2+x,1/2+y,z
1/2-x,1/2+y,-z
1/2-x,1/2-y,-z
1/2+x,1/2-y,z
loop_
_atom_site_type_symbol
_atom_site_label
_atom_site_fract_x
_atom_site_fract_y
_atom_site_fract_z
Si Si1 0.729459 0.814431 0.321964
Si Si2 0.222707 0.184505 0.584442
Si Si3 0.190685 0.184270 0.074203
Si Si4 0.626064 0.315526 0.919862
Si Si5 0.921254 0.317895 0.167309
Si Si6 0.947578 0.315222 0.426497
O O1 0.783058 0.778261 0.355083
O O2 0.810054 0.716508 0.250458
O O3 0.587411 0.745358 0.376951
O O4 0.735795 0.000000 0.306712
O O5 0.103462 0.271027 0.607663
O O6 0.352711 0.250557 0.507405
O O7 0.211644 0.000000 0.577665
O O8 0.251520 0.271110 0.097096
O O9 0.041180 0.212190 0.133847
O O10 0.219513 0.000000 0.066468
O O11 0.250000 0.250000 0.000000
O O12 0.627292 0.500000 0.907227
O O13 0.629991 0.220972 0.866917
O O14 0.500000 0.266388 0.000000
O O15 0.960829 0.500000 0.153853
O O16 0.959456 0.500000 0.428152
#
# Coordination Sequence:
#
# PCOD8107863 Si02
#       6
#     8   8   8   8   8   8
#     4  10  21  38  58  81 118 160 199 244 297 358
#     4   9  18  34  58  86 115 152 198 244 295 353
#     4  12  24  41  66  93 121 154 196 245 299 357
#     4  11  23  41  67  93 119 153 196 247 300 357
#     4  12  26  42  61  89 124 162 204 249 302 362
#     4   9  18  34  58  86 115 152 197 245 296 352
#
# _framework density 19.976562999999999
#
# number of rings (size 3 to 8) (size 9 to 14) (size 15 to 20)
#    0.000    1.500    1.667    4.000    0.000    5.333 
#    0.000    3.333    0.000    5.000    0.000    0.000 
#    0.000    0.000    0.000    0.000    0.000    0.000 
#
# Total GULP energy -297712.000011 kJ/mol
# GULP energy per Si atom -12404.666667 kJ/mol
# Density = 1.993110 g / cm^3
# Si number density = 19.976563 Si / 1000 Ang^3
#
#
#
# Elastic Constant Matrix: (Units=GPa)
#
#
# Indices 1 2 3 4 5 6 
#
# 1 93.2941 3.9712 30.0534 -0.0001 7.7342 -0.0011
# 2 3.9712 50.5527 20.5920 -0.0008 5.5602 -0.0024
# 3 30.0534 20.5920 87.4633 0.0000 15.6452 -0.0002
# 4 -0.0001 -0.0008 0.0000 26.4921 0.0002 1.1070
# 5 7.7342 5.5602 15.6452 0.0002 28.4558 0.0004
# 6 -0.0011 -0.0024 -0.0002 1.1070 0.0004 35.1959
#
#
#
# Elastic Compliance Matrix: (Units=1/GPa)
#
#
# Indices 1 2 3 4 5 6 
#
# 1 0.012119 0.000872 -0.004159 0.000000 -0.001178 0.000000
# 2 0.000872 0.022008 -0.005179 0.000001 -0.001690 0.000002
# 3 -0.004159 -0.005179 0.015193 0.000000 -0.006211 0.000000
# 4 0.000000 0.000001 0.000000 0.037797 0.000000 -0.001189
# 5 -0.001178 -0.001690 -0.006211 0.000000 0.039207 -0.000001
# 6 0.000000 0.000002 0.000000 -0.001189 -0.000001 0.028450
#
#
# Mechanical properties :
#
#
# Convention : Reuss Voigt Hill
#
# Bulk Modulus (GPa) = 30.87565 37.83813 34.35689
# Shear Modulus (GPa) = 27.39704 29.80832 28.60268
#
# Velocity S-wave (km/s) = 3.70734 3.86705 3.78803
# Velocity P-wave (km/s) = 5.81509 6.23868 6.03061
#
# Compressibility (1/GPa) = 0.03238798
#
# Stress axis : x y z
#
# Youngs Moduli (GPa) = 82.51496 45.43757 65.82165
#
# Poissons Ratio (x) = -0.03960 0.27374
# Poissons Ratio (y) = -0.07191 0.34087
# Poissons Ratio (z) = 0.34316 0.23531
#
# Static dielectric constant tensor:
#      x y z
#    x 3.889640 0.000000 -0.168920 
#    y 0.000000 3.580460 0.000000 
#    z -0.168920 0.000000 3.702140 
# 
# 
# High freq. dielectric constant tensor:
#      x y z
#    x 1.792620 0.000000 -0.000290 
#    y 0.000000 1.773780 0.000000 
#    z -0.000290 0.000000 1.776580 
# 
# From -- ./inp_files/360260.got.cif
#   From: 2010.06.25/outbox.cif.g09.slc.cpg/sg12_181_cif.got.tgz:360260.got - 2010.06.28 00:19:55.
