data_PCOD8107172
_publ_section_title
;
Structure prediction by ZEFSAII (Michael W. Deem and Ramdas Pophale) SiO2 
 PCOD8107172
Probable space group: C 2/M
;
_chemical_formula_sum "Si O2"
_cell_formula_units_Z 64
_cell_length_a 25.086711
_cell_length_b 8.923628
_cell_length_c 14.877906
_cell_angle_alpha 90.000000
_cell_angle_beta 71.665832
_cell_angle_gamma 90.000000
_cell_volume 3161.565170
_symmetry_space_group_name_H-M "C 2/M"
_symmetry_group_IT_number 12
_symmetry_cell_setting 'monoclinic'
loop_
_space_group_symop_operation_xyz
x,y,z
-x,y,-z
-x,-y,-z
x,-y,z
1/2+x,1/2+y,z
1/2-x,1/2+y,-z
1/2-x,1/2-y,-z
1/2+x,1/2-y,z
loop_
_atom_site_type_symbol
_atom_site_label
_atom_site_fract_x
_atom_site_fract_y
_atom_site_fract_z
Si Si1 0.611955 0.675022 0.086980
Si Si2 0.596270 0.176393 0.590867
Si Si3 0.998823 0.322805 0.103920
Si Si4 0.014564 0.832865 0.388687
Si Si5 0.110935 0.826309 0.757981
Si Si6 0.188344 0.172753 0.881935
Si Si7 0.803525 0.824708 0.799434
Si Si8 0.124360 0.676531 0.375176
O O1 0.598143 0.500000 0.092649
O O2 0.553642 0.763102 0.126823
O O3 0.651672 0.719085 0.148493
O O4 0.642741 0.724631 0.979084
O O5 0.532216 0.233081 0.635178
O O6 0.630887 0.257408 0.651749
O O7 0.622965 0.222508 0.480919
O O8 0.597322 0.000000 0.604235
O O9 0.997165 0.500000 0.112645
O O10 0.943921 0.258012 0.179143
O O11 0.000000 0.268745 0.000000
O O12 0.074470 0.754234 0.345414
O O13 0.000000 0.843725 0.500000
O O14 0.017047 0.000000 0.344764
O O15 0.162672 0.801133 0.797345
O O16 0.096294 0.000000 0.754920
O O17 0.242711 0.274973 0.865503
O O18 0.205254 0.000000 0.888767
O O19 0.818235 0.736141 0.699493
O O20 0.803255 0.000000 0.779141
O O21 0.118286 0.500000 0.368024
#
# Coordination Sequence:
#
# PCOD8107172 Si02
#       8
#     8   8   8   8   8   8   8   8
#     4  10  22  41  63  89 122 159 198 242 301 363
#     4  10  21  37  58  85 118 157 200 247 300 356
#     4  11  23  38  60  92 126 160 199 247 297 353
#     4   9  17  31  53  80 112 150 191 237 290 350
#     4  11  23  39  63  89 120 163 202 245 300 361
#     4  10  22  42  64  86 117 158 201 245 301 364
#     4  11  24  39  62  91 119 155 201 254 302 353
#     4  10  21  38  58  82 118 159 199 248 301 354
#
# _framework density 20.243137999999998
#
# number of rings (size 3 to 8) (size 9 to 14) (size 15 to 20)
#    0.000    1.750    1.250    2.625    1.750    6.000 
#    0.000    0.625    0.000    0.000    0.000    0.000 
#    0.000    0.000    0.000    0.000    0.000    0.000 
#
# Total GULP energy -396933.380375 kJ/mol
# GULP energy per Si atom -12404.168137 kJ/mol
# Density = 2.019706 g / cm^3
# Si number density = 20.243138 Si / 1000 Ang^3
#
#
#
# Elastic Constant Matrix: (Units=GPa)
#
#
# Indices 1 2 3 4 5 6 
#
# 1 76.7683 39.6276 19.3538 0.0000 2.4562 0.0000
# 2 39.6276 74.0359 29.5877 0.0000 8.4159 0.0000
# 3 19.3538 29.5877 70.1153 0.0000 12.4085 0.0000
# 4 0.0000 0.0000 0.0000 32.5519 0.0000 -1.2463
# 5 2.4562 8.4159 12.4085 0.0000 25.9217 0.0000
# 6 0.0000 0.0000 0.0000 -1.2463 0.0000 33.4848
#
#
#
# Elastic Compliance Matrix: (Units=1/GPa)
#
#
# Indices 1 2 3 4 5 6 
#
# 1 0.018162 -0.009387 -0.001406 0.000000 0.002000 0.000000
# 2 -0.009387 0.021211 -0.005789 0.000000 -0.003226 0.000000
# 3 -0.001406 -0.005789 0.018286 0.000000 -0.006741 0.000000
# 4 0.000000 0.000000 0.000000 0.030764 0.000000 0.001145
# 5 0.002000 -0.003226 -0.006741 0.000000 0.042662 0.000000
# 6 0.000000 0.000000 0.000000 0.001145 0.000000 0.029907
#
#
# Mechanical properties :
#
#
# Convention : Reuss Voigt Hill
#
# Bulk Modulus (GPa) = 40.82277 44.22863 42.52570
# Shear Modulus (GPa) = 24.71312 27.21504 25.96408
#
# Velocity S-wave (km/s) = 3.49781 3.67060 3.58524
# Velocity P-wave (km/s) = 6.04342 6.31352 6.17994
#
# Compressibility (1/GPa) = 0.02449613
#
# Stress axis : x y z
#
# Youngs Moduli (GPa) = 55.05983 47.14454 54.68619
#
# Poissons Ratio (x) = 0.44253 0.07689
# Poissons Ratio (y) = 0.51682 0.31658
# Poissons Ratio (z) = 0.07742 0.27292
#
# Static dielectric constant tensor:
#      x y z
#    x 3.537910 0.000000 0.149100 
#    y 0.000000 3.675430 0.000000 
#    z 0.149100 0.000000 3.857760 
# 
# 
# High freq. dielectric constant tensor:
#      x y z
#    x 1.775320 0.000000 0.005740 
#    y 0.000000 1.796480 0.000000 
#    z 0.005740 0.000000 1.800550 
# 
# From -- ./inp_files/243903.got.cif
#   From: 2010.06.25/outbox.cif.g09.slc.cpg/sg12_122_cif.got.tgz:243903.got - 2010.06.28 00:19:55.
