data_PCOD8107313
_publ_section_title
;
Structure prediction by ZEFSAII (Michael W. Deem and Ramdas Pophale) SiO2 
 PCOD8107313
Probable space group: C 2/M
;
_chemical_formula_sum "Si O2"
_cell_formula_units_Z 64
_cell_length_a 15.114282
_cell_length_b 18.038285
_cell_length_c 18.732001
_cell_angle_alpha 90.000000
_cell_angle_beta 38.972166
_cell_angle_gamma 90.000000
_cell_volume 3212.018780
_symmetry_space_group_name_H-M "C 2/M"
_symmetry_group_IT_number 12
_symmetry_cell_setting 'monoclinic'
loop_
_space_group_symop_operation_xyz
x,y,z
-x,y,-z
-x,-y,-z
x,-y,z
1/2+x,1/2+y,z
1/2-x,1/2+y,-z
1/2-x,1/2-y,-z
1/2+x,1/2-y,z
loop_
_atom_site_type_symbol
_atom_site_label
_atom_site_fract_x
_atom_site_fract_y
_atom_site_fract_z
Si Si1 0.211091 0.914854 0.061242
Si Si2 0.070521 0.083281 0.295891
Si Si3 0.298169 0.153222 0.667791
Si Si4 0.026062 0.318667 0.064925
Si Si5 0.429562 0.912717 0.447008
Si Si6 0.229327 0.174212 0.313494
Si Si7 0.777146 0.916532 0.542908
Si Si8 0.994062 0.145779 0.922311
O O1 0.109782 0.895043 0.190817
O O2 0.124831 0.901165 0.043129
O O3 0.261700 0.000000 0.031440
O O4 0.345545 0.861968 0.980324
O O5 0.142150 0.139818 0.304242
O O6 0.903053 0.089528 0.407079
O O7 0.122086 0.000000 0.281866
O O8 0.415477 0.122702 0.649052
O O9 0.327569 0.120044 0.571630
O O10 0.313642 0.240977 0.654522
O O11 0.144547 0.130523 0.791566
O O12 0.892998 0.338771 0.196516
O O13 0.054020 0.231176 0.049964
O O14 0.000000 0.345163 0.000000
O O15 0.364125 0.894033 0.410732
O O16 0.440257 0.000000 0.453332
O O17 0.189999 0.137284 0.412754
O O18 0.764973 0.000000 0.580768
O O19 0.000000 0.117968 0.000000
#
# Coordination Sequence:
#
# PCOD8107313 Si02
#       8
#     8   8   8   8   8   8   8   8
#     4  11  23  39  64  92 116 159 211 247 295 362
#     4  10  21  37  59  86 123 163 196 241 300 363
#     4  10  22  39  61  91 115 160 205 240 299 356
#     4  10  21  42  61  84 120 161 201 247 305 359
#     4  10  22  42  64  87 120 161 202 246 296 354
#     4  11  22  37  58  89 123 153 198 251 297 357
#     4  10  22  38  58  87 122 158 194 243 308 355
#     4  10  23  42  62  88 125 160 199 251 307 357
#
# _framework density 19.925163000000001
#
# number of rings (size 3 to 8) (size 9 to 14) (size 15 to 20)
#    0.000    1.750    1.250    2.625    3.500    6.000 
#    4.500    1.250    0.000    0.000    0.000    0.000 
#    0.000    0.000    0.000    0.000    0.000    0.000 
#
# Total GULP energy -396913.488341 kJ/mol
# GULP energy per Si atom -12403.546511 kJ/mol
# Density = 1.987981 g / cm^3
# Si number density = 19.925163 Si / 1000 Ang^3
#
#
#
# Elastic Constant Matrix: (Units=GPa)
#
#
# Indices 1 2 3 4 5 6 
#
# 1 126.4420 54.3748 38.3737 0.0008 0.8794 0.0003
# 2 54.3748 90.1438 43.7143 0.0011 -8.2128 0.0003
# 3 38.3737 43.7143 79.4377 0.0024 -4.4045 0.0008
# 4 0.0008 0.0011 0.0024 18.4834 -0.0008 -14.3578
# 5 0.8794 -8.2128 -4.4045 -0.0008 26.1590 0.0000
# 6 0.0003 0.0003 0.0008 -14.3578 0.0000 14.3646
#
#
#
# Elastic Compliance Matrix: (Units=1/GPa)
#
#
# Indices 1 2 3 4 5 6 
#
# 1 0.011137 -0.005832 -0.002315 0.000000 -0.002595 0.000000
# 2 -0.005832 0.018487 -0.007090 0.000002 0.004807 0.000002
# 3 -0.002315 -0.007090 0.017654 -0.000010 0.000824 -0.000011
# 4 0.000000 0.000002 -0.000010 0.241996 0.000007 0.241882
# 5 -0.002595 0.004807 0.000824 0.000007 0.039963 0.000007
# 6 0.000000 0.000002 -0.000011 0.241882 0.000007 0.311383
#
#
# Mechanical properties :
#
#
# Convention : Reuss Voigt Hill
#
# Bulk Modulus (GPa) = 59.50392 63.21657 61.36025
# Shear Modulus (GPa) = 7.38886 22.43879 14.91383
#
# Velocity S-wave (km/s) = 1.92779 3.35946 2.73883
# Velocity P-wave (km/s) = 5.90624 6.84426 6.39248
#
# Compressibility (1/GPa) = 0.01680561
#
# Stress axis : x y z
#
# Youngs Moduli (GPa) = 89.78892 54.09136 56.64522
#
# Poissons Ratio (x) = 0.31546 0.13111
# Poissons Ratio (y) = 0.52365 0.40160
# Poissons Ratio (z) = 0.20783 0.38349
#
# Static dielectric constant tensor:
#      x y z
#    x 3.576380 0.000000 -0.050390 
#    y 0.000000 3.644840 0.000000 
#    z -0.050390 0.000000 3.689980 
# 
# 
# High freq. dielectric constant tensor:
#      x y z
#    x 1.782690 0.000000 -0.003890 
#    y 0.000000 1.780590 0.000000 
#    z -0.003890 0.000000 1.779400 
# 
# From -- ./inp_files/271700.got.cif
#   From: 2010.06.25/outbox.cif.g09.slc.cpg/sg12_136_cif.got.tgz:271700.got - 2010.06.28 00:19:55.
