data_PCOD8107410
_publ_section_title
;
Structure prediction by ZEFSAII (Michael W. Deem and Ramdas Pophale) SiO2 
 PCOD8107410
Probable space group: C 2/M
;
_chemical_formula_sum "Si O2"
_cell_formula_units_Z 48
_cell_length_a 29.521779
_cell_length_b 13.276766
_cell_length_c 12.483115
_cell_angle_alpha 90.000000
_cell_angle_beta 27.927538
_cell_angle_gamma 90.000000
_cell_volume 2291.566772
_symmetry_space_group_name_H-M "C 2/M"
_symmetry_group_IT_number 12
_symmetry_cell_setting 'monoclinic'
loop_
_space_group_symop_operation_xyz
x,y,z
-x,y,-z
-x,-y,-z
x,-y,z
1/2+x,1/2+y,z
1/2-x,1/2+y,-z
1/2-x,1/2-y,-z
1/2+x,1/2-y,z
loop_
_atom_site_type_symbol
_atom_site_label
_atom_site_fract_x
_atom_site_fract_y
_atom_site_fract_z
Si Si1 0.604732 0.272154 0.738056
Si Si2 0.376341 0.306092 0.937933
Si Si3 0.421027 0.384330 0.427514
Si Si4 0.088440 0.386908 0.240150
Si Si5 0.298789 0.386944 0.883645
Si Si6 0.232557 0.880999 0.633647
O O1 0.598754 0.313786 0.631420
O O2 0.667540 0.170214 0.611742
O O3 0.649797 0.358852 0.719282
O O4 0.500000 0.242402 0.000000
O O5 0.468773 0.376121 0.763594
O O6 0.405945 0.187467 0.874877
O O7 0.331225 0.320037 0.914959
O O8 0.296839 0.330589 0.192638
O O9 0.400042 0.500000 0.440374
O O10 0.348988 0.346430 0.670647
O O11 0.073236 0.500000 0.226697
O O12 0.000000 0.353480 0.500000
O O13 0.183976 0.381857 0.113085
O O14 0.334965 0.500000 0.830021
O O15 0.247319 0.000000 0.615539
#
# Coordination Sequence:
#
# PCOD8107410 Si02
#       6
#     8   8   8   8   8   8
#     4  11  24  45  68  95 131 173 222 273 327 386
#     4  12  22  38  63  96 128 164 212 269 327 387
#     4  11  22  38  66  96 127 168 217 268 323 386
#     4  10  22  39  58  84 127 180 219 253 316 393
#     4  10  21  37  59  92 128 164 208 265 325 385
#     4  11  25  44  70 100 131 171 219 273 330 389
#
# _framework density 20.946366999999999
#
# number of rings (size 3 to 8) (size 9 to 14) (size 15 to 20)
#    0.000    1.167    1.667    5.000    0.000    3.667 
#    0.000    5.833    0.000    0.000    0.000    0.000 
#    0.000    0.000    0.000    0.000    0.000    0.000 
#
# Total GULP energy -297712.507647 kJ/mol
# GULP energy per Si atom -12404.687819 kJ/mol
# Density = 2.089869 g / cm^3
# Si number density = 20.946367 Si / 1000 Ang^3
#
#
#
# Elastic Constant Matrix: (Units=GPa)
#
#
# Indices 1 2 3 4 5 6 
#
# 1 92.3292 32.3050 53.2982 0.0000 13.1935 0.0000
# 2 32.3050 126.9619 43.4252 0.0000 16.2841 0.0000
# 3 53.2982 43.4252 141.3275 0.0000 1.6957 0.0000
# 4 0.0000 0.0000 0.0000 24.0312 0.0000 6.5631
# 5 13.1935 16.2841 1.6957 0.0000 34.3190 0.0000
# 6 0.0000 0.0000 0.0000 6.5631 0.0000 20.8391
#
#
#
# Elastic Compliance Matrix: (Units=1/GPa)
#
#
# Indices 1 2 3 4 5 6 
#
# 1 0.015001 -0.001433 -0.005159 0.000000 -0.004832 0.000000
# 2 -0.001433 0.009538 -0.002344 0.000000 -0.003859 0.000000
# 3 -0.005159 -0.002344 0.009710 0.000000 0.002616 0.000000
# 4 0.000000 0.000000 0.000000 0.045529 0.000000 -0.014339
# 5 -0.004832 -0.003859 0.002616 0.000000 0.032698 0.000000
# 6 0.000000 0.000000 0.000000 -0.014339 0.000000 0.052503
#
#
# Mechanical properties :
#
#
# Convention : Reuss Voigt Hill
#
# Bulk Modulus (GPa) = 61.06005 68.74171 64.90088
# Shear Modulus (GPa) = 26.55231 31.27722 28.91476
#
# Velocity S-wave (km/s) = 3.56425 3.86839 3.71943
# Velocity P-wave (km/s) = 6.79356 7.26924 7.03542
#
# Compressibility (1/GPa) = 0.01637732
#
# Stress axis : x y z
#
# Youngs Moduli (GPa) = 66.66384 104.84859 102.98451
#
# Poissons Ratio (x) = 0.15020 0.53129
# Poissons Ratio (y) = 0.09550 0.24140
# Poissons Ratio (z) = 0.34392 0.24577
#
# Static dielectric constant tensor:
#      x y z
#    x 3.669920 0.000000 -0.032060 
#    y 0.000000 3.917680 0.000000 
#    z -0.032060 0.000000 3.930920 
# 
# 
# High freq. dielectric constant tensor:
#      x y z
#    x 1.811670 0.000000 -0.004100 
#    y 0.000000 1.828180 0.000000 
#    z -0.004100 0.000000 1.833170 
# 
# From -- ./inp_files/183680.got.cif
#   From: 2010.06.25/outbox.cif.g09.slc.cpg/sg12_92_cif.got.tgz:183680.got - 2010.06.28 00:19:55.
