data_PCOD8107520
_publ_section_title
;
Structure prediction by ZEFSAII (Michael W. Deem and Ramdas Pophale) SiO2 
 PCOD8107520
Probable space group: C 2/M
;
_chemical_formula_sum "Si O2"
_cell_formula_units_Z 56
_cell_length_a 14.993594
_cell_length_b 8.556058
_cell_length_c 24.103817
_cell_angle_alpha 90.000000
_cell_angle_beta 62.107526
_cell_angle_gamma 90.000000
_cell_volume 2732.955721
_symmetry_space_group_name_H-M "C 2/M"
_symmetry_group_IT_number 12
_symmetry_cell_setting 'monoclinic'
loop_
_space_group_symop_operation_xyz
x,y,z
-x,y,-z
-x,-y,-z
x,-y,z
1/2+x,1/2+y,z
1/2-x,1/2+y,-z
1/2-x,1/2-y,-z
1/2+x,1/2-y,z
loop_
_atom_site_type_symbol
_atom_site_label
_atom_site_fract_x
_atom_site_fract_y
_atom_site_fract_z
Si Si1 0.105109 0.684672 0.495988
Si Si2 0.665989 0.678100 0.814874
Si Si3 0.186460 0.317645 0.590019
Si Si4 0.009243 0.680458 0.933432
Si Si5 0.577775 0.681014 0.724730
Si Si6 0.631082 0.823055 0.192923
Si Si7 0.823774 0.818783 0.932948
O O1 0.097289 0.500000 0.495996
O O2 0.124925 0.743661 0.553532
O O3 0.204205 0.737255 0.432901
O O4 0.000000 0.753668 0.500000
O O5 0.629355 0.500000 0.834549
O O6 0.620135 0.786859 0.876943
O O7 0.632822 0.739531 0.764358
O O8 0.787050 0.688648 0.781846
O O9 0.206285 0.500000 0.578134
O O10 0.117500 0.283629 0.662726
O O11 0.978717 0.500000 0.934090
O O12 0.937904 0.794143 0.919216
O O13 0.000000 0.727991 0.000000
O O14 0.599587 0.500000 0.706350
O O15 0.458741 0.706350 0.766458
O O16 0.690115 0.773203 0.120196
O O17 0.589961 0.000000 0.198698
O O18 0.799583 0.000000 0.930703
O O19 0.750000 0.750000 0.000000
#
# Coordination Sequence:
#
# PCOD8107520 Si02
#       7
#     8   8   8   8   8   8   8
#     4   9  19  38  63  90 124 164 205 249 299 357
#     4  10  23  41  61  85 116 156 199 247 305 367
#     4  10  21  37  60  91 124 161 204 253 302 353
#     4  11  23  38  59  87 116 149 194 249 306 364
#     4  11  23  41  62  87 123 166 206 249 303 367
#     4  11  23  41  63  88 117 154 200 253 308 363
#     4  12  24  39  59  85 117 153 195 246 308 370
#
# _framework density 20.490635000000001
#
# number of rings (size 3 to 8) (size 9 to 14) (size 15 to 20)
#    0.000    1.429    1.429    3.857    0.000    7.143 
#    0.000    5.714    0.000    0.000    0.000    0.000 
#    0.000    0.000    0.000    0.000    0.000    0.000 
#
# Total GULP energy -347263.403653 kJ/mol
# GULP energy per Si atom -12402.264416 kJ/mol
# Density = 2.044400 g / cm^3
# Si number density = 20.490635 Si / 1000 Ang^3
#
#
#
# Elastic Constant Matrix: (Units=GPa)
#
#
# Indices 1 2 3 4 5 6 
#
# 1 136.4995 20.7254 43.2455 0.0000 -0.7249 0.0000
# 2 20.7254 46.4521 10.6797 0.0000 5.7629 0.0001
# 3 43.2455 10.6797 114.9497 0.0000 2.9042 0.0000
# 4 0.0000 0.0000 0.0000 34.8400 0.0000 -4.5045
# 5 -0.7249 5.7629 2.9042 0.0000 23.8956 0.0000
# 6 0.0000 0.0001 0.0000 -4.5045 0.0000 30.6075
#
#
#
# Elastic Compliance Matrix: (Units=1/GPa)
#
#
# Indices 1 2 3 4 5 6 
#
# 1 0.008814 -0.003416 -0.003036 0.000000 0.001460 0.000000
# 2 -0.003416 0.023952 -0.000794 0.000000 -0.005784 0.000000
# 3 -0.003036 -0.000794 0.009943 0.000000 -0.001109 0.000000
# 4 0.000000 0.000000 0.000000 0.029259 0.000000 0.004306
# 5 0.001460 -0.005784 -0.001109 0.000000 0.043423 0.000000
# 6 0.000000 0.000000 0.000000 0.004306 0.000000 0.033306
#
#
# Mechanical properties :
#
#
# Convention : Reuss Voigt Hill
#
# Bulk Modulus (GPa) = 35.43819 49.68917 42.56368
# Shear Modulus (GPa) = 28.96980 32.75199 30.86090
#
# Velocity S-wave (km/s) = 3.76414 4.00232 3.88506
# Velocity P-wave (km/s) = 6.01864 6.75725 6.39861
#
# Compressibility (1/GPa) = 0.02821814
#
# Stress axis : x y z
#
# Youngs Moduli (GPa) = 113.45410 41.75077 100.57071
#
# Poissons Ratio (x) = 0.14261 0.30528
# Poissons Ratio (y) = 0.38754 0.07986
# Poissons Ratio (z) = 0.34439 0.03315
#
# Static dielectric constant tensor:
#      x y z
#    x 3.689400 0.000000 0.228500 
#    y 0.000000 3.608290 0.000000 
#    z 0.228500 0.000000 3.567600 
# 
# 
# High freq. dielectric constant tensor:
#      x y z
#    x 1.810220 0.000000 0.000470 
#    y 0.000000 1.799040 0.000000 
#    z 0.000470 0.000000 1.794180 
# 
# From -- ./inp_files/338562.got.cif
#   From: 2010.06.25/outbox.cif.g09.slc.cpg/sg12_170_cif.got.tgz:338562.got - 2010.06.28 00:19:55.
