data_PCOD8107256
_publ_section_title
;
Structure prediction by ZEFSAII (Michael W. Deem and Ramdas Pophale) SiO2 
 PCOD8107256
Probable space group: C 2/M
;
_chemical_formula_sum "Si O2"
_cell_formula_units_Z 56
_cell_length_a 19.017438
_cell_length_b 8.852517
_cell_length_c 18.596222
_cell_angle_alpha 90.000000
_cell_angle_beta 116.748563
_cell_angle_gamma 90.000000
_cell_volume 2795.697698
_symmetry_space_group_name_H-M "C 2/M"
_symmetry_group_IT_number 12
_symmetry_cell_setting 'monoclinic'
loop_
_space_group_symop_operation_xyz
x,y,z
-x,y,-z
-x,-y,-z
x,-y,z
1/2+x,1/2+y,z
1/2-x,1/2+y,-z
1/2-x,1/2-y,-z
1/2+x,1/2-y,z
loop_
_atom_site_type_symbol
_atom_site_label
_atom_site_fract_x
_atom_site_fract_y
_atom_site_fract_z
Si Si1 0.171802 0.824828 0.720299
Si Si2 0.152855 0.678476 0.241109
Si Si3 0.596977 0.669789 0.832255
Si Si4 0.082231 0.821351 0.073757
Si Si5 0.981220 0.676256 0.409654
Si Si6 0.171010 0.323253 0.991245
Si Si7 0.065745 0.173507 0.322844
O O1 0.258252 0.771288 0.736512
O O2 0.162981 0.797812 0.801905
O O3 0.107077 0.730329 0.647377
O O4 0.156822 0.000000 0.695359
O O5 0.142508 0.500000 0.231234
O O6 0.091070 0.756712 0.158167
O O7 0.134611 0.735769 0.313469
O O8 0.606830 0.500000 0.867570
O O9 0.604213 0.785927 0.901442
O O10 0.512362 0.692251 0.759546
O O11 0.090565 0.000000 0.080615
O O12 0.151599 0.749369 0.058802
O O13 0.000000 0.771589 0.000000
O O14 0.986511 0.500000 0.395587
O O15 0.048318 0.758035 0.393094
O O16 0.000000 0.716190 0.500000
O O17 0.180974 0.500000 0.006489
O O18 0.250000 0.250000 0.000000
O O19 0.091250 0.000000 0.343364
#
# Coordination Sequence:
#
# PCOD8107256 Si02
#       7
#     8   8   8   8   8   8   8
#     4   9  20  37  58  84 114 150 186 226 280 337
#     4  11  22  37  58  85 117 149 188 236 281 331
#     4   9  18  35  55  76 105 141 186 234 278 331
#     4  11  24  40  57  79 111 151 193 238 288 339
#     4  10  21  38  62  91 118 144 181 229 276 328
#     4  12  24  36  53  77 106 143 188 237 288 336
#     4  10  21  37  59  84 112 149 186 221 270 332
#
# _framework density 20.030777
#
# number of rings (size 3 to 8) (size 9 to 14) (size 15 to 20)
#    0.000    1.714    0.000    5.571    0.000   10.857 
#    0.000    0.714    0.000    0.000    0.000    0.000 
#    0.000    0.000    0.000    0.000    0.000    0.000 
#
# Total GULP energy -347304.980658 kJ/mol
# GULP energy per Si atom -12403.749309 kJ/mol
# Density = 1.998519 g / cm^3
# Si number density = 20.030777 Si / 1000 Ang^3
#
#
#
# Elastic Constant Matrix: (Units=GPa)
#
#
# Indices 1 2 3 4 5 6 
#
# 1 102.6107 34.8406 16.6244 0.0000 -24.3918 0.0000
# 2 34.8406 89.9247 32.2868 0.0000 -11.7126 0.0000
# 3 16.6244 32.2868 71.4257 0.0000 -18.0210 0.0000
# 4 0.0000 0.0000 0.0000 34.3471 0.0000 -3.5293
# 5 -24.3918 -11.7126 -18.0210 0.0000 26.3782 0.0000
# 6 0.0000 0.0000 0.0000 -3.5293 0.0000 33.0108
#
#
#
# Elastic Compliance Matrix: (Units=1/GPa)
#
#
# Indices 1 2 3 4 5 6 
#
# 1 0.013825 -0.004444 0.001835 0.000000 0.012064 0.000000
# 2 -0.004444 0.014807 -0.006086 0.000000 -0.001692 0.000000
# 3 0.001835 -0.006086 0.019418 0.000000 0.012260 0.000000
# 4 0.000000 0.000000 0.000000 0.029438 0.000000 0.003147
# 5 0.012064 -0.001692 0.012260 0.000000 0.056690 0.000000
# 6 0.000000 0.000000 0.000000 0.003147 0.000000 0.030630
#
#
# Mechanical properties :
#
#
# Convention : Reuss Voigt Hill
#
# Bulk Modulus (GPa) = 32.61579 47.94053 40.27816
# Shear Modulus (GPa) = 25.98520 30.76117 28.37319
#
# Velocity S-wave (km/s) = 3.60566 3.92305 3.76770
# Velocity P-wave (km/s) = 5.80109 6.67127 6.25133
#
# Compressibility (1/GPa) = 0.03065999
#
# Stress axis : x y z
#
# Youngs Moduli (GPa) = 72.33277 67.53655 51.49909
#
# Poissons Ratio (x) = 0.30012 -0.09449
# Poissons Ratio (y) = 0.32143 0.31342
# Poissons Ratio (z) = -0.13272 0.41102
#
# Static dielectric constant tensor:
#      x y z
#    x 3.829270 0.000000 -0.215850 
#    y 0.000000 3.688260 0.000000 
#    z -0.215850 0.000000 3.595800 
# 
# 
# High freq. dielectric constant tensor:
#      x y z
#    x 1.790780 0.000000 -0.014350 
#    y 0.000000 1.786410 0.000000 
#    z -0.014350 0.000000 1.767070 
# 
# From -- ./inp_files/275501.got.cif
#   From: 2010.06.25/outbox.cif.g09.slc.cpg/sg12_138_cif.got.tgz:275501.got - 2010.06.28 00:19:55.
