data_PCOD8107135
_publ_section_title
;
Structure prediction by ZEFSAII (Michael W. Deem and Ramdas Pophale) SiO2 
 PCOD8107135
Probable space group: C 2/M
;
_chemical_formula_sum "Si O2"
_cell_formula_units_Z 56
_cell_length_a 20.887118
_cell_length_b 8.861229
_cell_length_c 29.198563
_cell_angle_alpha 90.000000
_cell_angle_beta 149.108749
_cell_angle_gamma 90.000000
_cell_volume 2774.587777
_symmetry_space_group_name_H-M "C 2/M"
_symmetry_group_IT_number 12
_symmetry_cell_setting 'monoclinic'
loop_
_space_group_symop_operation_xyz
x,y,z
-x,y,-z
-x,-y,-z
x,-y,z
1/2+x,1/2+y,z
1/2-x,1/2+y,-z
1/2-x,1/2-y,-z
1/2+x,1/2-y,z
loop_
_atom_site_type_symbol
_atom_site_label
_atom_site_fract_x
_atom_site_fract_y
_atom_site_fract_z
Si Si1 0.992135 0.670020 0.786815
Si Si2 0.901641 0.828427 0.551977
Si Si3 0.357815 0.675908 0.783776
Si Si4 0.230626 0.827203 0.036477
Si Si5 0.349326 0.670121 0.621960
Si Si6 0.076280 0.676318 0.592336
Si Si7 0.005524 0.678535 0.950639
O O1 0.959727 0.500000 0.782071
O O2 0.964708 0.775618 0.813627
O O3 0.908627 0.713735 0.692911
O O4 0.134062 0.682857 0.856677
O O5 0.794269 0.713524 0.471445
O O6 0.922715 0.818360 0.619246
O O7 0.027042 0.773837 0.604565
O O8 0.868289 0.000000 0.517390
O O9 0.368046 0.500000 0.799440
O O10 0.222944 0.717378 0.679201
O O11 0.385788 0.757509 0.849380
O O12 0.186348 0.000000 0.003289
O O13 0.250000 0.750000 0.000000
O O14 0.133516 0.739297 0.008085
O O15 0.355109 0.500000 0.645256
O O16 0.057045 0.500000 0.590467
O O17 0.000000 0.724350 0.500000
O O18 0.004358 0.500000 0.945816
O O19 0.000000 0.731401 0.000000
#
# Coordination Sequence:
#
# PCOD8107135 Si02
#       7
#     8   8   8   8   8   8   8
#     4  11  23  38  61  92 122 154 200 253 304 365
#     4  10  21  37  58  84 116 156 200 248 302 356
#     4  11  23  39  63  91 122 162 205 256 312 372
#     4  11  23  40  65  93 123 159 203 256 312 373
#     4  10  21  37  58  85 118 156 198 246 301 363
#     4  10  22  39  59  86 120 159 201 245 302 369
#     4  11  25  44  65  91 127 170 214 263 319 379
#
# _framework density 20.183178999999999
#
# number of rings (size 3 to 8) (size 9 to 14) (size 15 to 20)
#    0.000    1.429    1.429    3.429    0.000    8.286 
#    0.000    5.714    0.000    0.000    0.000    0.000 
#    0.000    0.000    0.000    0.000    0.000    0.000 
#
# Total GULP energy -347275.399185 kJ/mol
# GULP energy per Si atom -12402.692828 kJ/mol
# Density = 2.013724 g / cm^3
# Si number density = 20.183179 Si / 1000 Ang^3
#
#
#
# Elastic Constant Matrix: (Units=GPa)
#
#
# Indices 1 2 3 4 5 6 
#
# 1 115.7155 48.9970 46.4404 0.0000 1.8086 0.0001
# 2 48.9970 85.3581 36.5097 0.0000 -2.3794 0.0001
# 3 46.4404 36.5097 103.4563 0.0001 -9.5534 0.0000
# 4 0.0000 0.0000 0.0001 32.9234 0.0000 -0.4415
# 5 1.8086 -2.3794 -9.5534 0.0000 30.1943 0.0000
# 6 0.0001 0.0001 0.0000 -0.4415 0.0000 33.2987
#
#
#
# Elastic Compliance Matrix: (Units=1/GPa)
#
#
# Indices 1 2 3 4 5 6 
#
# 1 0.012641 -0.005654 -0.003904 0.000000 -0.002438 0.000000
# 2 -0.005654 0.016334 -0.003168 0.000000 0.000623 0.000000
# 3 -0.003904 -0.003168 0.012912 0.000000 0.004070 0.000000
# 4 0.000000 0.000000 0.000000 0.030379 0.000000 0.000403
# 5 -0.002438 0.000623 0.004070 0.000000 0.034602 0.000000
# 6 0.000000 0.000000 0.000000 0.000403 0.000000 0.030037
#
#
# Mechanical properties :
#
#
# Convention : Reuss Voigt Hill
#
# Bulk Modulus (GPa) = 60.85199 63.15825 62.00512
# Shear Modulus (GPa) = 29.79110 30.78881 30.28995
#
# Velocity S-wave (km/s) = 3.84609 3.90996 3.87816
# Velocity P-wave (km/s) = 7.06672 7.19334 7.13031
#
# Compressibility (1/GPa) = 0.01643332
#
# Stress axis : x y z
#
# Youngs Moduli (GPa) = 79.10763 61.22369 77.44498
#
# Poissons Ratio (x) = 0.34617 0.30236
# Poissons Ratio (y) = 0.44729 0.24538
# Poissons Ratio (z) = 0.30885 0.19398
#
# Static dielectric constant tensor:
#      x y z
#    x 3.633230 0.000000 -0.023120 
#    y 0.000000 3.729520 0.000000 
#    z -0.023120 0.000000 3.757320 
# 
# 
# High freq. dielectric constant tensor:
#      x y z
#    x 1.784580 0.000000 0.000820 
#    y 0.000000 1.800380 0.000000 
#    z 0.000820 0.000000 1.792190 
# 
# From -- ./inp_files/380722.got.cif
#   From: 2010.06.25/outbox.cif.g09.slc.cpg/sg12_191_cif.got.tgz:380722.got - 2010.06.28 00:19:55.
