data_PCOD8107230
_publ_section_title
;
Structure prediction by ZEFSAII (Michael W. Deem and Ramdas Pophale) SiO2 
 PCOD8107230
Probable space group: C 2/M
;
_chemical_formula_sum "Si O2"
_cell_formula_units_Z 64
_cell_length_a 20.522398
_cell_length_b 13.942503
_cell_length_c 12.031000
_cell_angle_alpha 90.000000
_cell_angle_beta 110.502259
_cell_angle_gamma 90.000000
_cell_volume 3224.421458
_symmetry_space_group_name_H-M "C 2/M"
_symmetry_group_IT_number 12
_symmetry_cell_setting 'monoclinic'
loop_
_space_group_symop_operation_xyz
x,y,z
-x,y,-z
-x,-y,-z
x,-y,z
1/2+x,1/2+y,z
1/2-x,1/2+y,-z
1/2-x,1/2-y,-z
1/2+x,1/2-y,z
loop_
_atom_site_type_symbol
_atom_site_label
_atom_site_fract_x
_atom_site_fract_y
_atom_site_fract_z
Si Si1 0.742954 0.861035 0.477128
Si Si2 0.880721 0.103023 0.674039
Si Si3 0.417653 0.387861 0.944101
Si Si4 0.020365 0.766978 0.397494
Si Si5 0.323252 0.225202 0.991065
Si Si6 0.610644 0.106445 0.534071
Si Si7 0.373892 0.767141 0.244641
Si Si8 0.240968 0.889292 0.774287
O O1 0.750000 0.750000 0.500000
O O2 0.801804 0.910507 0.587450
O O3 0.670056 0.899812 0.476898
O O4 0.748247 0.886617 0.351017
O O5 0.887353 0.135394 0.804640
O O6 0.914899 0.180964 0.616652
O O7 0.918764 0.000000 0.683918
O O8 0.406337 0.500000 0.970117
O O9 0.370183 0.319200 0.991961
O O10 0.500000 0.361945 0.000000
O O11 0.044110 0.658829 0.441053
O O12 0.000000 0.820728 0.500000
O O13 0.953610 0.766681 0.279340
O O14 0.309858 0.154632 0.878141
O O15 0.250000 0.250000 0.000000
O O16 0.360479 0.176484 0.120527
O O17 0.638518 0.162980 0.658923
O O18 0.587982 0.000000 0.555621
O O19 0.326404 0.672463 0.231727
O O20 0.230635 0.000000 0.805309
#
# Coordination Sequence:
#
# PCOD8107230 Si02
#       8
#     8   8   8   8   8   8   8   8
#     4  12  20  38  61  85 119 149 197 254 302 357
#     4  11  22  35  59  91 120 157 202 251 305 363
#     4  10  22  41  66  95 128 168 212 260 316 375
#     4  10  21  37  58  88 124 158 199 245 307 369
#     4  10  23  40  61  91 126 167 211 258 313 366
#     4  11  23  38  61  88 117 156 197 248 306 361
#     4  10  22  40  60  87 119 158 201 245 297 360
#     4  11  23  40  61  87 120 159 200 247 306 363
#
# _framework density 19.848521999999999
#
# number of rings (size 3 to 8) (size 9 to 14) (size 15 to 20)
#    0.000    1.375    2.500    3.375    1.750    5.500 
#    0.000    0.000    0.000    0.375    0.000    0.000 
#    0.000    0.000    0.000    0.000    0.000    0.000 
#
# Total GULP energy -396536.181254 kJ/mol
# GULP energy per Si atom -12391.755664 kJ/mol
# Density = 1.980335 g / cm^3
# Si number density = 19.848522 Si / 1000 Ang^3
#
#
#
# Elastic Constant Matrix: (Units=GPa)
#
#
# Indices 1 2 3 4 5 6 
#
# 1 98.6222 28.3744 36.4289 0.0000 5.1895 0.0000
# 2 28.3744 126.7282 24.9218 0.0000 -2.3348 0.0000
# 3 36.4289 24.9218 147.8396 0.0000 15.4231 0.0000
# 4 0.0000 0.0000 0.0000 8.5888 0.0000 -2.5757
# 5 5.1895 -2.3348 15.4231 0.0000 29.8571 0.0000
# 6 0.0000 0.0000 0.0000 -2.5757 0.0000 8.8396
#
#
#
# Elastic Compliance Matrix: (Units=1/GPa)
#
#
# Indices 1 2 3 4 5 6 
#
# 1 0.011706 -0.002163 -0.002420 0.000000 -0.000953 0.000000
# 2 -0.002163 0.008619 -0.001088 0.000000 0.001612 0.000000
# 3 -0.002420 -0.001088 0.007937 0.000000 -0.003764 0.000000
# 4 0.000000 0.000000 0.000000 0.127579 0.000000 0.037175
# 5 -0.000953 0.001612 -0.003764 0.000000 0.035729 0.000000
# 6 0.000000 0.000000 0.000000 0.037175 0.000000 0.123959
#
#
# Mechanical properties :
#
#
# Convention : Reuss Voigt Hill
#
# Bulk Modulus (GPa) = 59.10474 61.40446 60.25460
# Shear Modulus (GPa) = 15.03710 28.35477 21.69593
#
# Velocity S-wave (km/s) = 2.75543 3.78373 3.30976
# Velocity P-wave (km/s) = 6.32184 7.07761 6.71037
#
# Compressibility (1/GPa) = 0.01691912
#
# Stress axis : x y z
#
# Youngs Moduli (GPa) = 85.42540 116.02546 125.99797
#
# Poissons Ratio (x) = 0.25091 0.30497
# Poissons Ratio (y) = 0.18474 0.13711
# Poissons Ratio (z) = 0.20677 0.12626
#
# Static dielectric constant tensor:
#      x y z
#    x 3.656180 0.000000 0.048300 
#    y 0.000000 3.672860 0.000000 
#    z 0.048300 0.000000 3.913410 
# 
# 
# High freq. dielectric constant tensor:
#      x y z
#    x 1.774670 0.000000 0.004160 
#    y 0.000000 1.764190 0.000000 
#    z 0.004160 0.000000 1.790110 
# 
# From -- ./inp_files/167298.got.cif
#   From: 2010.06.25/outbox.cif.g09.slc.cpg/sg12_84_cif.got.tgz:167298.got - 2010.06.28 00:19:55.
