data_PCOD8107944
_publ_section_title
;
Structure prediction by ZEFSAII (Michael W. Deem and Ramdas Pophale) SiO2 
 PCOD8107944
Probable space group: C 2/M
;
_chemical_formula_sum "Si O2"
_cell_formula_units_Z 40
_cell_length_a 14.503221
_cell_length_b 8.788300
_cell_length_c 15.927403
_cell_angle_alpha 90.000000
_cell_angle_beta 87.354793
_cell_angle_gamma 90.000000
_cell_volume 2027.922275
_symmetry_space_group_name_H-M "C 2/M"
_symmetry_group_IT_number 12
_symmetry_cell_setting 'monoclinic'
loop_
_space_group_symop_operation_xyz
x,y,z
-x,y,-z
-x,-y,-z
x,-y,z
1/2+x,1/2+y,z
1/2-x,1/2+y,-z
1/2-x,1/2-y,-z
1/2+x,1/2-y,z
loop_
_atom_site_type_symbol
_atom_site_label
_atom_site_fract_x
_atom_site_fract_y
_atom_site_fract_z
Si Si1 0.516598 0.178143 0.309454
Si Si2 0.493173 0.320665 0.133997
Si Si3 0.137760 0.822813 0.578913
Si Si4 0.321593 0.323432 0.613534
Si Si5 0.149696 0.177923 0.000520
O O1 0.484625 0.223814 0.218342
O O2 0.459824 0.271043 0.381294
O O3 0.622521 0.226159 0.320114
O O4 0.502626 0.000000 0.323282
O O5 0.494391 0.500000 0.154028
O O6 0.586795 0.271389 0.082000
O O7 0.403781 0.276988 0.082401
O O8 0.215725 0.727455 0.624068
O O9 0.138928 0.786618 0.480277
O O10 0.154562 0.000000 0.595095
O O11 0.329467 0.500000 0.636195
O O12 0.163833 0.000000 0.003094
O O13 0.250000 0.250000 0.000000
#
# Coordination Sequence:
#
# PCOD8107944 Si02
#       5
#     8   8   8   8   8
#     4  12  24  36  55  84 116 151 188 229 278 329
#     4   9  20  39  57  79 112 146 181 222 273 332
#     4  10  21  38  59  82 110 147 190 235 282 331
#     4  10  21  38  59  82 110 147 190 235 282 331
#     4   9  19  37  62  84 106 141 179 221 275 330
#
# _framework density 19.724622
#
# number of rings (size 3 to 8) (size 9 to 14) (size 15 to 20)
#    0.000    2.000    0.000    4.800    0.000    8.000 
#    0.000    6.000    0.000    0.000    0.000    0.000 
#    0.000    0.000    0.000    0.000    0.000    0.000 
#
# Total GULP energy -248066.133985 kJ/mol
# GULP energy per Si atom -12403.306699 kJ/mol
# Density = 1.967973 g / cm^3
# Si number density = 19.724622 Si / 1000 Ang^3
#
#
#
# Elastic Constant Matrix: (Units=GPa)
#
#
# Indices 1 2 3 4 5 6 
#
# 1 111.7525 26.6001 25.1163 0.0000 13.6855 0.0000
# 2 26.6001 66.5730 38.2329 0.0000 5.7586 0.0000
# 3 25.1163 38.2329 52.6241 0.0000 16.6634 0.0000
# 4 0.0000 0.0000 0.0000 30.0642 0.0000 1.1255
# 5 13.6855 5.7586 16.6634 0.0000 22.5589 0.0000
# 6 0.0000 0.0000 0.0000 1.1255 0.0000 41.4870
#
#
#
# Elastic Compliance Matrix: (Units=1/GPa)
#
#
# Indices 1 2 3 4 5 6 
#
# 1 0.010541 -0.003023 -0.001376 0.000000 -0.004607 0.000000
# 2 -0.003023 0.028291 -0.022719 0.000000 0.011394 0.000000
# 3 -0.001376 -0.022719 0.044465 0.000000 -0.026211 0.000000
# 4 0.000000 0.000000 0.000000 0.033296 0.000000 -0.000903
# 5 -0.004607 0.011394 -0.026211 0.000000 0.063575 0.000000
# 6 0.000000 0.000000 0.000000 -0.000903 0.000000 0.024128
#
#
# Mechanical properties :
#
#
# Convention : Reuss Voigt Hill
#
# Bulk Modulus (GPa) = 34.41066 45.64979 40.03023
# Shear Modulus (GPa) = 18.64127 28.22205 23.43166
#
# Velocity S-wave (km/s) = 3.07754 3.78670 3.45039
# Velocity P-wave (km/s) = 5.48742 6.50481 6.01766
#
# Compressibility (1/GPa) = 0.02906076
#
# Stress axis : x y z
#
# Youngs Moduli (GPa) = 94.86438 35.34657 22.48940
#
# Poissons Ratio (x) = 0.10686 0.03094
# Poissons Ratio (y) = 0.28680 0.51095
# Poissons Ratio (z) = 0.13052 0.80306
#
# Static dielectric constant tensor:
#      x y z
#    x 3.246190 0.000000 0.068450 
#    y 0.000000 3.474850 0.000000 
#    z 0.068450 0.000000 3.491930 
# 
# 
# High freq. dielectric constant tensor:
#      x y z
#    x 1.777520 0.000000 0.008380 
#    y 0.000000 1.768140 0.000000 
#    z 0.008380 0.000000 1.761430 
# 
# From -- ./inp_files/211350.got.cif
#   From: 2010.06.25/outbox.cif.g09.slc.cpg/sg12_106_cif.got.tgz:211350.got - 2010.06.28 00:19:55.
