data_PCOD8107618
_publ_section_title
;
Structure prediction by ZEFSAII (Michael W. Deem and Ramdas Pophale) SiO2 
 PCOD8107618
Probable space group: C 2/M
;
_chemical_formula_sum "Si O2"
_cell_formula_units_Z 40
_cell_length_a 13.321334
_cell_length_b 10.716475
_cell_length_c 22.899752
_cell_angle_alpha 90.000000
_cell_angle_beta 36.254820
_cell_angle_gamma 90.000000
_cell_volume 1933.282145
_symmetry_space_group_name_H-M "C 2/M"
_symmetry_group_IT_number 12
_symmetry_cell_setting 'monoclinic'
loop_
_space_group_symop_operation_xyz
x,y,z
-x,y,-z
-x,-y,-z
x,-y,z
1/2+x,1/2+y,z
1/2-x,1/2+y,-z
1/2-x,1/2-y,-z
1/2+x,1/2-y,z
loop_
_atom_site_type_symbol
_atom_site_label
_atom_site_fract_x
_atom_site_fract_y
_atom_site_fract_z
Si Si1 0.915832 0.760763 0.665277
Si Si2 0.960635 0.742870 0.179480
Si Si3 0.983591 0.000000 0.904299
Si Si4 0.856856 0.500000 0.879716
Si Si5 0.131140 0.864834 0.663645
Si Si6 0.376172 0.000000 0.737690
Si Si7 0.500000 0.211266 0.500000
O O1 0.716659 0.787582 0.770367
O O2 0.948758 0.616729 0.667390
O O3 0.037937 0.847567 0.645731
O O4 0.959307 0.791222 0.577297
O O5 0.926990 0.758783 0.264393
O O6 0.080340 0.623278 0.115150
O O7 0.046985 0.871120 0.116981
O O8 0.173712 0.000000 0.838019
O O9 0.848080 0.000000 0.020960
O O10 0.933322 0.500000 0.778454
O O11 0.334558 0.869022 0.561106
O O12 0.078936 0.000000 0.713316
#
# Coordination Sequence:
#
# PCOD8107618 Si02
#       7
#     8   8   4   4   8   4   4
#     4  10  22  39  59  84 120 151 196 239 294 349
#     4  10  22  38  61  88 119 160 192 238 301 348
#     4  10  21  40  60  89 117 157 198 242 287 358
#     4  12  21  38  62  89 121 149 200 250 293 339
#     4  11  21  38  61  83 119 154 198 240 291 354
#     4  10  21  37  62  84 112 156 196 235 291 352
#     4  10  23  38  59  88 110 159 202 239 290 351
#
# _framework density 20.690204000000001
#
# number of rings (size 3 to 8) (size 9 to 14) (size 15 to 20)
#    0.000    1.600    3.000    1.800    7.000    0.000 
#    0.000    0.500    0.000    1.200    0.000    0.000 
#    0.000    0.000    0.000    0.000    0.000    0.000 
#
# Total GULP energy -247855.487427 kJ/mol
# GULP energy per Si atom -12392.774371 kJ/mol
# Density = 2.064311 g / cm^3
# Si number density = 20.690204 Si / 1000 Ang^3
#
#
#
# Elastic Constant Matrix: (Units=GPa)
#
#
# Indices 1 2 3 4 5 6 
#
# 1 108.8023 24.6730 24.6199 0.0000 -6.8463 0.0000
# 2 24.6730 106.2423 22.2224 0.0000 -15.2492 0.0000
# 3 24.6199 22.2224 81.2039 -0.0006 -2.5702 0.0002
# 4 0.0000 0.0000 -0.0006 16.9282 0.0001 -2.7753
# 5 -6.8463 -15.2492 -2.5702 0.0001 25.8185 0.0000
# 6 0.0000 0.0000 0.0002 -2.7753 0.0000 -4.6019
#
#
#
# Elastic Compliance Matrix: (Units=1/GPa)
#
#
# Indices 1 2 3 4 5 6 
#
# 1 0.010244 -0.001616 -0.002616 0.000000 0.001501 0.000000
# 2 -0.001616 0.011132 -0.002369 0.000000 0.005910 0.000000
# 3 -0.002616 -0.002369 0.013733 0.000001 -0.000726 0.000000
# 4 0.000000 0.000000 0.000001 0.053758 0.000000 -0.032420
# 5 0.001501 0.005910 -0.000726 0.000000 0.042549 0.000000
# 6 0.000000 0.000000 0.000000 -0.032420 0.000000 -0.197749
#
#
# Mechanical properties :
#
#
# Convention : Reuss Voigt Hill
#
# Bulk Modulus (GPa) = 45.64995 48.80877 47.22936
# Shear Modulus (GPa) = -109.10111 22.61117 -43.24497
#
# Velocity S-wave (km/s) = -7.26948 3.30941 -4.57674
# Velocity P-wave (km/s) = 6.95334 6.18420 2.24772
#
# Compressibility (1/GPa) = 0.02190583
#
# Stress axis : x y z
#
# Youngs Moduli (GPa) = 97.61879 89.83370 72.81627
#
# Poissons Ratio (x) = 0.14520 0.19049
# Poissons Ratio (y) = 0.15778 0.17252
# Poissons Ratio (z) = 0.25537 0.21283
#
# Static dielectric constant tensor:
#      x y z
#    x 3.701050 0.000000 -0.064320 
#    y 0.000000 3.518690 0.000000 
#    z -0.064320 0.000000 3.560480 
# 
# 
# High freq. dielectric constant tensor:
#      x y z
#    x 1.809730 0.000000 -0.005350 
#    y 0.000000 1.796810 0.000000 
#    z -0.005350 0.000000 1.798100 
# 
# From -- ./inp_files/203327.got.cif
#   From: 2010.06.25/outbox.cif.g09.slc.cpg/sg12_102_cif.got.tgz:203327.got - 2010.06.28 00:19:55.
