data_PCOD8107997
_publ_section_title
;
Structure prediction by ZEFSAII (Michael W. Deem and Ramdas Pophale) SiO2 
 PCOD8107997
Probable space group: C 2/M
;
_chemical_formula_sum "Si O2"
_cell_formula_units_Z 64
_cell_length_a 11.121286
_cell_length_b 17.323609
_cell_length_c 24.887663
_cell_angle_alpha 90.000000
_cell_angle_beta 138.461778
_cell_angle_gamma 90.000000
_cell_volume 3179.576789
_symmetry_space_group_name_H-M "C 2/M"
_symmetry_group_IT_number 12
_symmetry_cell_setting 'monoclinic'
loop_
_space_group_symop_operation_xyz
x,y,z
-x,y,-z
-x,-y,-z
x,-y,z
1/2+x,1/2+y,z
1/2-x,1/2+y,-z
1/2-x,1/2-y,-z
1/2+x,1/2-y,z
loop_
_atom_site_type_symbol
_atom_site_label
_atom_site_fract_x
_atom_site_fract_y
_atom_site_fract_z
Si Si1 0.375481 0.086287 0.809292
Si Si2 0.624603 0.587117 0.491373
Si Si3 0.908540 0.725448 0.091634
Si Si4 0.985128 0.668905 0.632238
Si Si5 0.835282 0.409932 0.403937
Si Si6 0.343299 0.307733 0.903240
Si Si7 0.490776 0.346694 0.342494
Si Si8 0.426532 0.084910 0.232005
O O1 0.531790 0.135412 0.892375
O O2 0.416195 0.083359 0.759673
O O3 0.182376 0.128567 0.750898
O O4 0.371786 0.000000 0.832987
O O5 0.500000 0.602688 0.500000
O O6 0.706020 0.500000 0.519500
O O7 0.503941 0.597116 0.398116
O O8 0.783220 0.649987 0.544574
O O9 0.826321 0.739998 0.124775
O O10 0.085763 0.771278 0.129419
O O11 0.750000 0.750000 0.000000
O O12 0.121178 0.620764 0.640637
O O13 0.010294 0.644212 0.701927
O O14 0.025132 0.759372 0.641771
O O15 0.782363 0.500000 0.384166
O O16 0.667570 0.357781 0.365621
O O17 0.000000 0.395912 0.500000
O O18 0.263751 0.389990 0.858787
O O19 0.500000 0.319412 0.000000
O O20 0.399217 0.000000 0.247726
#
# Coordination Sequence:
#
# PCOD8107997 Si02
#       8
#     8   8   8   8   8   8   8   8
#     4  10  21  39  62  87 121 160 204 252 310 374
#     4  11  23  39  61  84 114 156 206 261 318 371
#     4   9  18  36  62  90 121 155 194 242 299 366
#     4  12  25  38  60  85 121 157 209 267 314 372
#     4  11  24  42  62  83 120 168 211 263 327 385
#     4   9  18  35  61  90 120 155 194 239 300 371
#     4  12  25  38  61  86 120 160 215 261 309 380
#     4  10  21  38  59  84 118 153 194 250 314 368
#
# _framework density 20.128464999999998
#
# number of rings (size 3 to 8) (size 9 to 14) (size 15 to 20)
#    0.000    1.500    1.250    4.125    3.500    2.250 
#    2.250    1.875    0.000    3.375    0.000    0.000 
#    0.000    0.000    0.000    0.000    0.000    0.000 
#
# Total GULP energy -396594.655946 kJ/mol
# GULP energy per Si atom -12393.582998 kJ/mol
# Density = 2.008265 g / cm^3
# Si number density = 20.128465 Si / 1000 Ang^3
#
#
#
# Elastic Constant Matrix: (Units=GPa)
#
#
# Indices 1 2 3 4 5 6 
#
# 1 92.9884 35.5625 19.3130 0.0000 8.9510 0.0000
# 2 35.5625 91.8828 33.6126 0.0000 15.4433 0.0000
# 3 19.3130 33.6126 73.1413 0.0000 11.8404 0.0000
# 4 0.0000 0.0000 0.0000 32.6507 0.0000 -1.1708
# 5 8.9510 15.4433 11.8404 0.0000 23.9090 0.0000
# 6 0.0000 0.0000 0.0000 -1.1708 0.0000 27.3706
#
#
#
# Elastic Compliance Matrix: (Units=1/GPa)
#
#
# Indices 1 2 3 4 5 6 
#
# 1 0.012770 -0.004270 -0.001176 0.000000 -0.001440 0.000000
# 2 -0.004270 0.015339 -0.004975 0.000000 -0.005845 0.000000
# 3 -0.001176 -0.004975 0.017044 0.000000 -0.004787 0.000000
# 4 0.000000 0.000000 0.000000 0.030674 0.000000 0.001312
# 5 -0.001440 -0.005845 -0.004787 0.000000 0.048510 0.000000
# 6 0.000000 0.000000 0.000000 0.001312 0.000000 0.036592
#
#
# Mechanical properties :
#
#
# Convention : Reuss Voigt Hill
#
# Bulk Modulus (GPa) = 41.13682 48.33209 44.73445
# Shear Modulus (GPa) = 26.33304 28.08770 27.21037
#
# Velocity S-wave (km/s) = 3.62090 3.73959 3.68072
# Velocity P-wave (km/s) = 6.16139 6.53529 6.35109
#
# Compressibility (1/GPa) = 0.02430913
#
# Stress axis : x y z
#
# Youngs Moduli (GPa) = 78.30816 65.19495 58.67135
#
# Poissons Ratio (x) = 0.27839 0.06902
# Poissons Ratio (y) = 0.33439 0.29190
# Poissons Ratio (z) = 0.09212 0.32436
#
# Static dielectric constant tensor:
#      x y z
#    x 4.092280 0.000000 0.140410 
#    y 0.000000 3.704030 0.000000 
#    z 0.140410 0.000000 3.737360 
# 
# 
# High freq. dielectric constant tensor:
#      x y z
#    x 1.798380 0.000000 0.009220 
#    y 0.000000 1.781080 0.000000 
#    z 0.009220 0.000000 1.772920 
# 
# From -- ./inp_files/358442.got.cif
#   From: 2010.06.25/outbox.cif.g09.slc.cpg/sg12_180_cif.got.tgz:358442.got - 2010.06.28 00:19:55.
