data_PCOD8107529
_publ_section_title
;
Structure prediction by ZEFSAII (Michael W. Deem and Ramdas Pophale) SiO2 
 PCOD8107529
Probable space group: C 2/M
;
_chemical_formula_sum "Si O2"
_cell_formula_units_Z 56
_cell_length_a 22.991540
_cell_length_b 15.090805
_cell_length_c 15.566160
_cell_angle_alpha 90.000000
_cell_angle_beta 31.897908
_cell_angle_gamma 90.000000
_cell_volume 2853.847735
_symmetry_space_group_name_H-M "C 2/M"
_symmetry_group_IT_number 12
_symmetry_cell_setting 'monoclinic'
loop_
_space_group_symop_operation_xyz
x,y,z
-x,y,-z
-x,-y,-z
x,-y,z
1/2+x,1/2+y,z
1/2-x,1/2+y,-z
1/2-x,1/2-y,-z
1/2+x,1/2-y,z
loop_
_atom_site_type_symbol
_atom_site_label
_atom_site_fract_x
_atom_site_fract_y
_atom_site_fract_z
Si Si1 0.885946 0.403473 0.190201
Si Si2 0.988400 0.156503 0.720481
Si Si3 0.628765 0.596687 0.838242
Si Si4 0.398957 0.241708 0.680570
Si Si5 0.666844 0.600391 0.363944
Si Si6 0.789081 0.900209 0.078462
Si Si7 0.135282 0.765890 0.684555
O O1 0.855634 0.500000 0.269005
O O2 0.785719 0.374039 0.253756
O O3 0.909580 0.329510 0.231243
O O4 0.000000 0.413760 0.000000
O O5 0.942217 0.235595 0.720732
O O6 0.073992 0.100789 0.555208
O O7 0.048862 0.193089 0.728238
O O8 0.884262 0.101375 0.886414
O O9 0.679565 0.500000 0.750488
O O10 0.663852 0.627081 0.888366
O O11 0.665035 0.670291 0.726018
O O12 0.500000 0.588567 0.000000
O O13 0.500000 0.198905 0.500000
O O14 0.357889 0.330278 0.681630
O O15 0.307130 0.169624 0.816783
O O16 0.668701 0.500000 0.323682
O O17 0.741136 0.000000 0.138935
O O18 0.250000 0.750000 0.500000
#
# Coordination Sequence:
#
# PCOD8107529 Si02
#       7
#     8   8   8   8   8   8   8
#     4  10  22  39  60  89 121 159 200 238 293 362
#     4  11  23  39  61  92 121 155 204 250 295 352
#     4  10  21  37  60  92 120 150 195 246 298 355
#     4  10  24  42  61  88 123 155 206 249 297 357
#     4  10  21  40  65  90 121 158 200 253 300 345
#     4  11  23  41  65  88 119 161 201 248 300 352
#     4  12  23  37  63  89 124 158 188 243 309 348
#
# _framework density 19.622630999999998
#
# number of rings (size 3 to 8) (size 9 to 14) (size 15 to 20)
#    0.000    1.429    2.857    2.143    4.000    4.571 
#    0.000    0.714    0.000    0.000    0.000    0.000 
#    0.000    0.000    0.000    0.000    0.000    0.000 
#
# Total GULP energy -347043.013114 kJ/mol
# GULP energy per Si atom -12394.393325 kJ/mol
# Density = 1.957797 g / cm^3
# Si number density = 19.622631 Si / 1000 Ang^3
#
#
#
# Elastic Constant Matrix: (Units=GPa)
#
#
# Indices 1 2 3 4 5 6 
#
# 1 47.7356 6.5981 26.5259 0.0000 -2.6749 0.0000
# 2 6.5981 89.1615 40.3370 0.0000 3.3263 0.0000
# 3 26.5259 40.3370 105.0545 0.0000 -5.5553 0.0000
# 4 0.0000 0.0000 0.0000 17.4440 0.0000 -15.3126
# 5 -2.6749 3.3263 -5.5553 0.0000 34.4471 0.0000
# 6 0.0000 0.0000 0.0000 -15.3126 0.0000 -21.3585
#
#
#
# Elastic Compliance Matrix: (Units=1/GPa)
#
#
# Indices 1 2 3 4 5 6 
#
# 1 0.024490 0.001138 -0.006582 0.000000 0.000730 0.000000
# 2 0.001138 0.013789 -0.005696 0.000000 -0.002162 0.000000
# 3 -0.006582 -0.005696 0.013485 0.000000 0.002214 0.000000
# 4 0.000000 0.000000 0.000000 0.035184 0.000000 -0.025224
# 5 0.000730 -0.002162 0.002214 0.000000 0.029652 0.000000
# 6 0.000000 0.000000 0.000000 -0.025224 0.000000 -0.028735
#
#
# Mechanical properties :
#
#
# Convention : Reuss Voigt Hill
#
# Bulk Modulus (GPa) = 33.91689 43.20820 38.56255
# Shear Modulus (GPa) = 41.67623 17.33923 29.50773
#
# Velocity S-wave (km/s) = 4.61356 2.97582 3.88204
# Velocity P-wave (km/s) = 6.76033 5.82020 6.30780
#
# Compressibility (1/GPa) = 0.02948384
#
# Stress axis : x y z
#
# Youngs Moduli (GPa) = 40.83327 72.52167 74.15660
#
# Poissons Ratio (x) = -0.08254 0.48810
# Poissons Ratio (y) = -0.04648 0.42241
# Poissons Ratio (z) = 0.26877 0.41310
#
# Static dielectric constant tensor:
#      x y z
#    x 3.188300 0.000000 -0.133530 
#    y 0.000000 3.183090 0.000000 
#    z -0.133530 0.000000 3.631360 
# 
# 
# High freq. dielectric constant tensor:
#      x y z
#    x 1.764360 0.000000 -0.005640 
#    y 0.000000 1.770620 0.000000 
#    z -0.005640 0.000000 1.766800 
# 
# From -- ./inp_files/225172.got.cif
#   From: 2010.06.25/outbox.cif.g09.slc.cpg/sg12_113_cif.got.tgz:225172.got - 2010.06.28 00:19:55.
