data_PCOD8107573
_publ_section_title
;
Structure prediction by ZEFSAII (Michael W. Deem and Ramdas Pophale) SiO2 
 PCOD8107573
Probable space group: C 2/M
;
_chemical_formula_sum "Si O2"
_cell_formula_units_Z 40
_cell_length_a 27.136544
_cell_length_b 8.805881
_cell_length_c 10.521061
_cell_angle_alpha 90.000000
_cell_angle_beta 131.658820
_cell_angle_gamma 90.000000
_cell_volume 1878.343377
_symmetry_space_group_name_H-M "C 2/M"
_symmetry_group_IT_number 12
_symmetry_cell_setting 'monoclinic'
loop_
_space_group_symop_operation_xyz
x,y,z
-x,y,-z
-x,-y,-z
x,-y,z
1/2+x,1/2+y,z
1/2-x,1/2+y,-z
1/2-x,1/2-y,-z
1/2+x,1/2-y,z
loop_
_atom_site_type_symbol
_atom_site_label
_atom_site_fract_x
_atom_site_fract_y
_atom_site_fract_z
Si Si1 0.015758 0.178366 0.169837
Si Si2 0.309300 0.175196 0.026795
Si Si3 0.650494 0.827225 0.400952
Si Si4 0.956252 0.674354 0.309900
Si Si5 0.289106 0.674260 0.735052
O O1 0.090046 0.221277 0.337096
O O2 0.967236 0.244725 0.193288
O O3 0.006532 0.000000 0.155047
O O4 0.000000 0.241461 0.000000
O O5 0.319255 0.270739 0.917143
O O6 0.291917 0.000000 0.968835
O O7 0.250000 0.250000 0.000000
O O8 0.379434 0.188831 0.219362
O O9 0.679075 0.782176 0.314235
O O10 0.709590 0.808390 0.603895
O O11 0.625393 0.000000 0.352273
O O12 0.976848 0.500000 0.325564
O O13 0.000000 0.745168 0.500000
O O14 0.309381 0.500000 0.742527
#
# Coordination Sequence:
#
# PCOD8107573 Si02
#       5
#     8   8   8   8   8
#     4  11  24  40  62  93 128 164 208 263 319 377
#     4  11  24  41  64  91 124 165 209 258 310 371
#     4  10  21  37  61  90 122 162 205 254 311 373
#     4  10  24  45  66  91 127 169 214 261 314 378
#     4  10  21  38  60  89 125 160 204 259 311 368
#
# _framework density 21.295359999999999
#
# number of rings (size 3 to 8) (size 9 to 14) (size 15 to 20)
#    0.000    1.600    0.000    3.600    2.800    9.200 
#    0.000    0.000    0.000    0.000    0.000    0.000 
#    0.000    0.000    0.000    0.000    0.000    0.000 
#
# Total GULP energy -248020.745306 kJ/mol
# GULP energy per Si atom -12401.037265 kJ/mol
# Density = 2.124689 g / cm^3
# Si number density = 21.295360 Si / 1000 Ang^3
#
#
#
# Elastic Constant Matrix: (Units=GPa)
#
#
# Indices 1 2 3 4 5 6 
#
# 1 95.5929 26.3597 38.5221 0.0000 9.4727 0.0000
# 2 26.3597 60.0248 35.8998 0.0000 -1.2396 0.0000
# 3 38.5221 35.8998 104.8540 0.0000 1.1428 0.0000
# 4 0.0000 0.0000 0.0000 30.3599 0.0000 2.3881
# 5 9.4727 -1.2396 1.1428 0.0000 36.6642 0.0000
# 6 0.0000 0.0000 0.0000 2.3881 0.0000 35.9608
#
#
#
# Elastic Compliance Matrix: (Units=1/GPa)
#
#
# Indices 1 2 3 4 5 6 
#
# 1 0.013273 -0.003780 -0.003545 0.000000 -0.003447 0.000000
# 2 -0.003780 0.022058 -0.006184 0.000000 0.001915 0.000000
# 3 -0.003545 -0.006184 0.012953 0.000000 0.000303 0.000000
# 4 0.000000 0.000000 0.000000 0.033111 0.000000 -0.002199
# 5 -0.003447 0.001915 0.000303 0.000000 0.028220 0.000000
# 6 0.000000 0.000000 0.000000 -0.002199 0.000000 0.027954
#
#
# Mechanical properties :
#
#
# Convention : Reuss Voigt Hill
#
# Bulk Modulus (GPa) = 47.02202 51.33722 49.17962
# Shear Modulus (GPa) = 29.12434 31.24299 30.18366
#
# Velocity S-wave (km/s) = 3.70217 3.83446 3.76890
# Velocity P-wave (km/s) = 6.35638 6.61542 6.48719
#
# Compressibility (1/GPa) = 0.02126663
#
# Stress axis : x y z
#
# Youngs Moduli (GPa) = 75.33872 45.33473 77.19964
#
# Poissons Ratio (x) = 0.17137 0.27365
# Poissons Ratio (y) = 0.28479 0.47743
# Poissons Ratio (z) = 0.26705 0.28037
#
# Static dielectric constant tensor:
#      x y z
#    x 3.533080 0.000000 0.164680 
#    y 0.000000 3.843240 0.000000 
#    z 0.164680 0.000000 4.105310 
# 
# 
# High freq. dielectric constant tensor:
#      x y z
#    x 1.832320 0.000000 0.012040 
#    y 0.000000 1.836410 0.000000 
#    z 0.012040 0.000000 1.843260 
# 
# From -- ./inp_files/187002.got.cif
#   From: 2010.06.25/outbox.cif.g09.slc.cpg/sg12_94_cif.got.tgz:187002.got - 2010.06.28 00:19:55.
