data_PCOD8107130
_publ_section_title
;
Structure prediction by ZEFSAII (Michael W. Deem and Ramdas Pophale) SiO2 
 PCOD8107130
Probable space group: C 2/M
;
_chemical_formula_sum "Si O2"
_cell_formula_units_Z 56
_cell_length_a 17.799376
_cell_length_b 8.659332
_cell_length_c 18.459834
_cell_angle_alpha 90.000000
_cell_angle_beta 103.832771
_cell_angle_gamma 90.000000
_cell_volume 2762.709085
_symmetry_space_group_name_H-M "C 2/M"
_symmetry_group_IT_number 12
_symmetry_cell_setting 'monoclinic'
loop_
_space_group_symop_operation_xyz
x,y,z
-x,y,-z
-x,-y,-z
x,-y,z
1/2+x,1/2+y,z
1/2-x,1/2+y,-z
1/2-x,1/2-y,-z
1/2+x,1/2-y,z
loop_
_atom_site_type_symbol
_atom_site_label
_atom_site_fract_x
_atom_site_fract_y
_atom_site_fract_z
Si Si1 0.233399 0.679508 0.277620
Si Si2 0.379856 0.679727 0.862482
Si Si3 0.089889 0.177641 0.718870
Si Si4 0.960145 0.319317 0.145854
Si Si5 0.519214 0.179055 0.421394
Si Si6 0.307644 0.818363 0.571356
Si Si7 0.667117 0.181135 0.997686
O O1 0.210844 0.500000 0.263179
O O2 0.184014 0.781158 0.211586
O O3 0.322372 0.710703 0.282050
O O4 0.215352 0.739185 0.354107
O O5 0.376210 0.500000 0.880030
O O6 0.463371 0.722646 0.851532
O O7 0.363306 0.773773 0.930989
O O8 0.067201 0.288678 0.779200
O O9 0.038049 0.216186 0.637933
O O10 0.077520 0.000000 0.738591
O O11 0.977924 0.500000 0.139738
O O12 0.893924 0.260282 0.076034
O O13 0.500000 0.208304 0.500000
O O14 0.605805 0.237078 0.425846
O O15 0.508685 0.000000 0.397486
O O16 0.250000 0.750000 0.500000
O O17 0.300713 0.000000 0.564222
O O18 0.675900 0.000000 0.995406
O O19 0.750000 0.250000 0.000000
#
# Coordination Sequence:
#
# PCOD8107130 Si02
#       7
#     8   8   8   8   8   8   8
#     4  10  22  40  60  85 121 161 200 246 300 357
#     4  12  25  40  63  93 122 157 201 248 298 353
#     4  11  23  38  60  89 118 154 201 251 301 353
#     4  11  24  42  63  87 119 159 199 243 300 361
#     4  10  21  37  58  85 118 158 202 247 299 359
#     4  10  21  37  58  84 115 154 196 243 301 357
#     4  11  24  42  65  92 123 161 202 246 298 354
#
# _framework density 20.269959
#
# number of rings (size 3 to 8) (size 9 to 14) (size 15 to 20)
#    0.000    1.286    0.000    5.571    0.000   10.000 
#    0.000    0.000    0.000    0.000    0.000    0.000 
#    0.000    0.000    0.000    0.000    0.000    0.000 
#
# Total GULP energy -347402.942075 kJ/mol
# GULP energy per Si atom -12407.247931 kJ/mol
# Density = 2.022382 g / cm^3
# Si number density = 20.269959 Si / 1000 Ang^3
#
#
#
# Elastic Constant Matrix: (Units=GPa)
#
#
# Indices 1 2 3 4 5 6 
#
# 1 142.2118 29.3193 57.3812 0.0000 6.9512 0.0000
# 2 29.3193 38.9496 24.0880 0.0000 14.4102 0.0000
# 3 57.3812 24.0880 132.8749 0.0000 9.5464 0.0000
# 4 0.0000 0.0000 0.0000 36.1809 0.0000 1.0821
# 5 6.9512 14.4102 9.5464 0.0000 46.2037 0.0000
# 6 0.0000 0.0000 0.0000 1.0821 0.0000 26.1547
#
#
#
# Elastic Compliance Matrix: (Units=1/GPa)
#
#
# Indices 1 2 3 4 5 6 
#
# 1 0.009375 -0.005473 -0.003124 0.000000 0.000942 0.000000
# 2 -0.005473 0.035401 -0.003370 0.000000 -0.009521 0.000000
# 3 -0.003124 -0.003370 0.009518 0.000000 -0.000446 0.000000
# 4 0.000000 0.000000 0.000000 0.027673 0.000000 -0.001145
# 5 0.000942 -0.009521 -0.000446 0.000000 0.024563 0.000000
# 6 0.000000 0.000000 0.000000 -0.001145 0.000000 0.038281
#
#
# Mechanical properties :
#
#
# Convention : Reuss Voigt Hill
#
# Bulk Modulus (GPa) = 32.93900 59.51258 46.22579
# Shear Modulus (GPa) = 27.95407 35.25772 31.60590
#
# Velocity S-wave (km/s) = 3.71764 4.17515 3.95302
# Velocity P-wave (km/s) = 5.89179 7.25715 6.60982
#
# Compressibility (1/GPa) = 0.03035915
#
# Stress axis : x y z
#
# Youngs Moduli (GPa) = 106.67164 28.24782 105.06640
#
# Poissons Ratio (x) = 0.15461 0.32821
# Poissons Ratio (y) = 0.58385 0.35406
# Poissons Ratio (z) = 0.33322 0.09519
#
# Static dielectric constant tensor:
#      x y z
#    x 3.960800 0.000000 -0.049920 
#    y 0.000000 3.630850 0.000000 
#    z -0.049920 0.000000 4.107760 
# 
# 
# High freq. dielectric constant tensor:
#      x y z
#    x 1.812490 0.000000 -0.000340 
#    y 0.000000 1.789670 0.000000 
#    z -0.000340 0.000000 1.809410 
# 
# From -- ./inp_files/275244.got.cif
#   From: 2010.06.25/outbox.cif.g09.slc.cpg/sg12_138_cif.got.tgz:275244.got - 2010.06.28 00:19:55.
