data_PCOD8107103
_publ_section_title
;
Structure prediction by ZEFSAII (Michael W. Deem and Ramdas Pophale) SiO2 
 PCOD8107103
Probable space group: C 2/M
;
_chemical_formula_sum "Si O2"
_cell_formula_units_Z 64
_cell_length_a 18.830002
_cell_length_b 8.911587
_cell_length_c 31.228945
_cell_angle_alpha 90.000000
_cell_angle_beta 40.384462
_cell_angle_gamma 90.000000
_cell_volume 3395.311801
_symmetry_space_group_name_H-M "C 2/M"
_symmetry_group_IT_number 12
_symmetry_cell_setting 'monoclinic'
loop_
_space_group_symop_operation_xyz
x,y,z
-x,y,-z
-x,-y,-z
x,-y,z
1/2+x,1/2+y,z
1/2-x,1/2+y,-z
1/2-x,1/2-y,-z
1/2+x,1/2-y,z
loop_
_atom_site_type_symbol
_atom_site_label
_atom_site_fract_x
_atom_site_fract_y
_atom_site_fract_z
Si Si1 0.871090 0.828927 0.561891
Si Si2 0.084446 0.676696 0.066267
Si Si3 0.743152 0.176486 0.068338
Si Si4 0.182741 0.323255 0.191264
Si Si5 0.955106 0.171352 0.299011
Si Si6 0.740410 0.673611 0.549687
Si Si7 0.716525 0.323430 0.695108
Si Si8 0.663713 0.178075 0.809109
O O1 0.828528 0.753005 0.538695
O O2 0.827531 0.741032 0.623478
O O3 0.000000 0.818704 0.500000
O O4 0.829853 0.000000 0.583408
O O5 0.091127 0.500000 0.057829
O O6 0.144979 0.729429 0.082055
O O7 0.959746 0.732839 0.124836
O O8 0.142658 0.749524 0.998411
O O9 0.715119 0.230120 0.128845
O O10 0.758416 0.000000 0.059140
O O11 0.198433 0.500000 0.190444
O O12 0.259217 0.235302 0.188702
O O13 0.056647 0.282503 0.257167
O O14 0.881112 0.193252 0.375144
O O15 0.885969 0.215167 0.288544
O O16 0.996537 0.000000 0.276599
O O17 0.771537 0.500000 0.531802
O O18 0.750000 0.750000 0.500000
O O19 0.730364 0.500000 0.694673
O O20 0.701865 0.246809 0.747187
O O21 0.671142 0.000000 0.802548
#
# Coordination Sequence:
#
# PCOD8107103 Si02
#       8
#     8   8   8   8   8   8   8   8
#     4  10  21  37  58  84 114 148 184 225 275 328
#     4   9  19  36  58  82 106 140 184 224 269 326
#     4   9  19  36  57  81 108 139 179 226 272 323
#     4  11  23  37  55  81 112 146 185 227 275 328
#     4   9  20  38  58  81 109 142 182 227 274 326
#     4  10  21  37  58  84 113 146 186 230 277 330
#     4  10  21  38  60  84 110 143 185 229 274 328
#     4  11  23  38  56  80 113 148 184 228 275 325
#
# _framework density 18.849520999999999
#
# number of rings (size 3 to 8) (size 9 to 14) (size 15 to 20)
#    0.000    2.125    0.000    3.375    0.000    8.500 
#    0.000    6.250    0.000    0.000    0.000    0.000 
#    0.000    0.000    0.000    0.000    0.000    0.000 
#
# Total GULP energy -396906.197084 kJ/mol
# GULP energy per Si atom -12403.318659 kJ/mol
# Density = 1.880662 g / cm^3
# Si number density = 18.849521 Si / 1000 Ang^3
#
#
#
# Elastic Constant Matrix: (Units=GPa)
#
#
# Indices 1 2 3 4 5 6 
#
# 1 101.7430 56.5278 77.7506 -0.0001 8.3614 0.0045
# 2 56.5278 83.2326 57.8691 0.0007 -3.4140 0.0039
# 3 77.7506 57.8691 125.4737 -0.0006 8.9955 0.0000
# 4 -0.0001 0.0007 -0.0006 35.3338 0.0001 -0.0908
# 5 8.3614 -3.4140 8.9955 0.0001 27.5664 0.0002
# 6 0.0045 0.0039 0.0000 -0.0908 0.0002 31.0846
#
#
#
# Elastic Compliance Matrix: (Units=1/GPa)
#
#
# Indices 1 2 3 4 5 6 
#
# 1 0.022312 -0.008795 -0.009426 0.000000 -0.004781 -0.000002
# 2 -0.008795 0.021843 -0.005129 -0.000001 0.007047 -0.000002
# 3 -0.009426 -0.005129 0.016401 0.000000 -0.003128 0.000002
# 4 0.000000 -0.000001 0.000000 0.028302 0.000000 0.000083
# 5 -0.004781 0.007047 -0.003128 0.000000 0.039620 0.000000
# 6 -0.000002 -0.000002 0.000002 0.000083 0.000000 0.032171
#
#
# Mechanical properties :
#
#
# Convention : Reuss Voigt Hill
#
# Bulk Modulus (GPa) = 72.18295 77.19383 74.68839
# Shear Modulus (GPa) = 23.58848 26.68373 25.13610
#
# Velocity S-wave (km/s) = 3.54136 3.76655 3.65569
# Velocity P-wave (km/s) = 7.42288 7.74322 7.58474
#
# Compressibility (1/GPa) = 0.01385369
#
# Stress axis : x y z
#
# Youngs Moduli (GPa) = 44.81932 45.78077 60.97239
#
# Poissons Ratio (x) = 0.40266 0.57475
# Poissons Ratio (y) = 0.39420 0.31275
# Poissons Ratio (z) = 0.42249 0.23482
#
# Static dielectric constant tensor:
#      x y z
#    x 3.444020 0.000000 0.039900 
#    y 0.000000 3.541160 0.000000 
#    z 0.039900 0.000000 3.555260 
# 
# 
# High freq. dielectric constant tensor:
#      x y z
#    x 1.728870 0.000000 0.003210 
#    y 0.000000 1.741200 0.000000 
#    z 0.003210 0.000000 1.742730 
# 
# From -- ./inp_files/378021.got.cif
#   From: 2010.06.25/outbox.cif.g09.slc.cpg/sg12_190_cif.got.tgz:378021.got - 2010.06.28 00:19:55.
