data_PCOD8107483
_publ_section_title
;
Structure prediction by ZEFSAII (Michael W. Deem and Ramdas Pophale) SiO2 
 PCOD8107483
Probable space group: C 2/M
;
_chemical_formula_sum "Si O2"
_cell_formula_units_Z 64
_cell_length_a 30.345826
_cell_length_b 8.901987
_cell_length_c 14.459868
_cell_angle_alpha 90.000000
_cell_angle_beta 126.443009
_cell_angle_gamma 90.000000
_cell_volume 3142.304659
_symmetry_space_group_name_H-M "C 2/M"
_symmetry_group_IT_number 12
_symmetry_cell_setting 'monoclinic'
loop_
_space_group_symop_operation_xyz
x,y,z
-x,y,-z
-x,-y,-z
x,-y,z
1/2+x,1/2+y,z
1/2-x,1/2+y,-z
1/2-x,1/2-y,-z
1/2+x,1/2-y,z
loop_
_atom_site_type_symbol
_atom_site_label
_atom_site_fract_x
_atom_site_fract_y
_atom_site_fract_z
Si Si1 0.997059 0.677310 0.600584
Si Si2 0.053904 0.675340 0.116548
Si Si3 0.792335 0.828404 0.119818
Si Si4 0.756648 0.675134 0.250687
Si Si5 0.408972 0.330078 0.170910
Si Si6 0.708417 0.677484 0.519359
Si Si7 0.869780 0.825668 0.925316
Si Si8 0.908629 0.323872 0.636462
O O1 0.997629 0.500000 0.594995
O O2 0.942370 0.729152 0.587511
O O3 0.000000 0.746330 0.500000
O O4 0.049475 0.724744 0.723990
O O5 0.055325 0.500000 0.099926
O O6 0.108086 0.741734 0.137061
O O7 0.054731 0.711969 0.226889
O O8 0.000000 0.745741 0.000000
O O9 0.795437 0.732481 0.217293
O O10 0.851682 0.824328 0.150524
O O11 0.773760 0.000000 0.115211
O O12 0.750000 0.750000 0.000000
O O13 0.767945 0.500000 0.285274
O O14 0.771851 0.775632 0.355929
O O15 0.694379 0.706289 0.143876
O O16 0.431730 0.500000 0.198201
O O17 0.400731 0.269096 0.056251
O O18 0.710276 0.500000 0.509712
O O19 0.750000 0.750000 0.500000
O O20 0.646908 0.731763 0.425030
O O21 0.880549 0.000000 0.923916
O O22 0.894441 0.500000 0.613667
#
# Coordination Sequence:
#
# PCOD8107483 Si02
#       8
#     8   8   8   8   8   8   8   8
#     4  10  23  42  64  92 121 161 215 263 313 376
#     4  10  21  37  60  89 120 155 197 248 305 366
#     4  11  22  39  61  92 129 168 211 259 316 380
#     4  11  23  41  63  90 126 164 206 257 316 378
#     4  10  22  40  60  87 125 162 203 257 316 372
#     4  12  26  44  66  95 128 168 216 262 318 380
#     4  10  21  38  59  87 121 156 195 247 305 368
#     4  10  22  42  64  90 129 167 207 261 319 378
#
# _framework density 20.367215999999999
#
# number of rings (size 3 to 8) (size 9 to 14) (size 15 to 20)
#    0.000    1.500    1.250    3.375    1.750    7.000 
#    0.000    0.000    0.000    0.000    0.000    0.000 
#    0.000    0.000    0.000    0.000    0.000    0.000 
#
# Total GULP energy -396882.166290 kJ/mol
# GULP energy per Si atom -12402.567697 kJ/mol
# Density = 2.032086 g / cm^3
# Si number density = 20.367216 Si / 1000 Ang^3
#
#
#
# Elastic Constant Matrix: (Units=GPa)
#
#
# Indices 1 2 3 4 5 6 
#
# 1 109.6618 47.6953 46.6353 0.0000 -13.5054 0.0000
# 2 47.6953 68.6183 41.5807 0.0000 0.7849 0.0000
# 3 46.6353 41.5807 122.0616 0.0000 -9.4128 0.0000
# 4 0.0000 0.0000 0.0000 34.4406 0.0000 2.1478
# 5 -13.5054 0.7849 -9.4128 0.0000 37.1437 0.0000
# 6 0.0000 0.0000 0.0000 2.1478 0.0000 33.7220
#
#
#
# Elastic Compliance Matrix: (Units=1/GPa)
#
#
# Indices 1 2 3 4 5 6 
#
# 1 0.014469 -0.008811 -0.002148 0.000000 0.004902 0.000000
# 2 -0.008811 0.023879 -0.005155 0.000000 -0.005015 0.000000
# 3 -0.002148 -0.005155 0.010931 0.000000 0.002098 0.000000
# 4 0.000000 0.000000 0.000000 0.029151 0.000000 -0.001857
# 5 0.004902 -0.005015 0.002098 0.000000 0.029343 0.000000
# 6 0.000000 0.000000 0.000000 -0.001857 0.000000 0.029772
#
#
# Mechanical properties :
#
#
# Convention : Reuss Voigt Hill
#
# Bulk Modulus (GPa) = 58.65017 63.57380 61.11199
# Shear Modulus (GPa) = 28.49714 32.02329 30.26021
#
# Velocity S-wave (km/s) = 3.74460 3.96952 3.85870
# Velocity P-wave (km/s) = 6.89601 7.23125 7.06562
#
# Compressibility (1/GPa) = 0.01705025
#
# Stress axis : x y z
#
# Youngs Moduli (GPa) = 69.11559 41.87829 91.48190
#
# Poissons Ratio (x) = 0.36899 0.19653
# Poissons Ratio (y) = 0.60898 0.47156
# Poissons Ratio (z) = 0.14848 0.21587
#
# Static dielectric constant tensor:
#      x y z
#    x 3.766550 0.000000 -0.330180 
#    y 0.000000 3.135080 0.000000 
#    z -0.330180 0.000000 0.865550 
# 
# 
# High freq. dielectric constant tensor:
#      x y z
#    x 1.808730 0.000000 -0.007900 
#    y 0.000000 1.789530 0.000000 
#    z -0.007900 0.000000 1.805740 
# 
# From -- ./inp_files/249977.got.cif
#   From: 2010.06.25/outbox.cif.g09.slc.cpg/sg12_125_cif.got.tgz:249977.got - 2010.06.28 00:19:55.
