data_PCOD8107884
_publ_section_title
;
Structure prediction by ZEFSAII (Michael W. Deem and Ramdas Pophale) SiO2 
 PCOD8107884
Probable space group: C 2/M
;
_chemical_formula_sum "Si O2"
_cell_formula_units_Z 56
_cell_length_a 8.962742
_cell_length_b 28.182656
_cell_length_c 11.943567
_cell_angle_alpha 90.000000
_cell_angle_beta 117.089878
_cell_angle_gamma 90.000000
_cell_volume 2685.900713
_symmetry_space_group_name_H-M "C 2/M"
_symmetry_group_IT_number 12
_symmetry_cell_setting 'monoclinic'
loop_
_space_group_symop_operation_xyz
x,y,z
-x,y,-z
-x,-y,-z
x,-y,z
1/2+x,1/2+y,z
1/2-x,1/2+y,-z
1/2-x,1/2-y,-z
1/2+x,1/2-y,z
loop_
_atom_site_type_symbol
_atom_site_label
_atom_site_fract_x
_atom_site_fract_y
_atom_site_fract_z
Si Si1 0.886612 0.051211 0.213520
Si Si2 0.771537 0.854854 0.094467
Si Si3 0.920738 0.806110 0.697504
Si Si4 0.987349 0.644354 0.179311
Si Si5 0.434284 0.785228 0.357393
Si Si6 0.885204 0.553022 0.687037
Si Si7 0.632948 0.599419 0.446645
O O1 0.825339 0.090008 0.103243
O O2 0.759389 0.047638 0.272243
O O3 0.066548 0.065128 0.325886
O O4 0.899874 0.000000 0.157712
O O5 0.652705 0.848273 0.161321
O O6 0.935449 0.822565 0.166324
O O7 0.677920 0.841923 0.947719
O O8 0.767909 0.784527 0.716861
O O9 0.843934 0.848363 0.596762
O O10 0.996925 0.767197 0.640981
O O11 0.006351 0.679072 0.289811
O O12 0.974672 0.589524 0.217451
O O13 0.500000 0.802366 0.500000
O O14 0.959436 0.500000 0.687358
O O15 0.807312 0.577083 0.548740
O O16 0.500000 0.603957 0.500000
#
# Coordination Sequence:
#
# PCOD8107884 Si02
#       7
#     8   8   8   8   8   8   8
#     4   8  14  25  47  81 114 145 187 238 288 335
#     4   9  20  38  59  84 116 157 196 241 287 334
#     4  11  23  39  60  85 114 151 194 240 292 349
#     4  10  21  38  58  84 120 155 197 241 285 339
#     4  12  25  40  62  88 116 149 190 241 296 351
#     4   9  16  28  51  83 116 152 191 234 283 333
#     4   9  16  29  51  80 117 152 188 235 288 344
#
# _framework density 20.849616000000001
#
# number of rings (size 3 to 8) (size 9 to 14) (size 15 to 20)
#    0.000    2.286    0.000    3.857    0.000    3.429 
#    0.000    2.857    0.000    7.286    0.000    5.000 
#    0.000    0.000    0.000    0.000    0.000    0.000 
#
# Total GULP energy -347096.790670 kJ/mol
# GULP energy per Si atom -12396.313953 kJ/mol
# Density = 2.080216 g / cm^3
# Si number density = 20.849616 Si / 1000 Ang^3
#
#
#
# Elastic Constant Matrix: (Units=GPa)
#
#
# Indices 1 2 3 4 5 6 
#
# 1 65.4055 32.1294 26.0911 0.0000 15.2205 0.0000
# 2 32.1294 132.5074 50.1661 0.0000 -0.4371 0.0000
# 3 26.0911 50.1661 107.1343 0.0000 14.8254 0.0000
# 4 0.0000 0.0000 0.0000 18.0535 0.0000 5.4760
# 5 15.2205 -0.4371 14.8254 0.0000 22.5442 0.0000
# 6 0.0000 0.0000 0.0000 5.4760 0.0000 18.6625
#
#
#
# Elastic Compliance Matrix: (Units=1/GPa)
#
#
# Indices 1 2 3 4 5 6 
#
# 1 0.021269 -0.004818 -0.001016 0.000000 -0.013785 0.000000
# 2 -0.004818 0.010493 -0.004641 0.000000 0.006508 0.000000
# 3 -0.001016 -0.004641 0.012841 0.000000 -0.007848 0.000000
# 4 0.000000 0.000000 0.000000 0.060802 0.000000 -0.017841
# 5 -0.013785 0.006508 -0.007848 0.000000 0.058951 0.000000
# 6 0.000000 0.000000 0.000000 -0.017841 0.000000 0.058818
#
#
# Mechanical properties :
#
#
# Convention : Reuss Voigt Hill
#
# Bulk Modulus (GPa) = 42.27750 57.98005 50.12877
# Shear Modulus (GPa) = 19.84053 24.96276 22.40164
#
# Velocity S-wave (km/s) = 3.08815 3.46392 3.28142
# Velocity P-wave (km/s) = 5.74778 6.62325 6.20098
#
# Compressibility (1/GPa) = 0.02365324
#
# Stress axis : x y z
#
# Youngs Moduli (GPa) = 47.01635 95.29796 77.87746
#
# Poissons Ratio (x) = 0.45914 0.07914
# Poissons Ratio (y) = 0.22652 0.36142
# Poissons Ratio (z) = 0.04778 0.44226
#
# Static dielectric constant tensor:
#      x y z
#    x 3.429140 0.000000 0.216390 
#    y 0.000000 4.049350 0.000000 
#    z 0.216390 0.000000 3.658330 
# 
# 
# High freq. dielectric constant tensor:
#      x y z
#    x 1.780090 0.000000 0.019420 
#    y 0.000000 1.827630 0.000000 
#    z 0.019420 0.000000 1.805970 
# 
# From -- ./inp_files/124362.got.cif
#   From: 2010.06.25/outbox.cif.g09.slc.cpg/sg12_63_cif.got.tgz:124362.got - 2010.06.28 00:19:55.
