data_PCOD8107269
_publ_section_title
;
Structure prediction by ZEFSAII (Michael W. Deem and Ramdas Pophale) SiO2 
 PCOD8107269
Probable space group: C 2/M
;
_chemical_formula_sum "Si O2"
_cell_formula_units_Z 52
_cell_length_a 16.361455
_cell_length_b 14.951098
_cell_length_c 10.839859
_cell_angle_alpha 90.000000
_cell_angle_beta 114.407524
_cell_angle_gamma 90.000000
_cell_volume 2414.684049
_symmetry_space_group_name_H-M "C 2/M"
_symmetry_group_IT_number 12
_symmetry_cell_setting 'monoclinic'
loop_
_space_group_symop_operation_xyz
x,y,z
-x,y,-z
-x,-y,-z
x,-y,z
1/2+x,1/2+y,z
1/2-x,1/2+y,-z
1/2-x,1/2-y,-z
1/2+x,1/2-y,z
loop_
_atom_site_type_symbol
_atom_site_label
_atom_site_fract_x
_atom_site_fract_y
_atom_site_fract_z
Si Si1 0.232087 0.400125 0.147322
Si Si2 0.843071 0.778115 0.842515
Si Si3 0.956172 0.791901 0.676162
Si Si4 0.000000 0.659641 0.500000
Si Si5 0.597335 0.600553 0.911365
Si Si6 0.801312 0.399315 0.367710
Si Si7 0.807228 0.898990 0.462301
O O1 0.186290 0.500000 0.120043
O O2 0.166210 0.315493 0.087129
O O3 0.303475 0.397784 0.083164
O O4 0.274265 0.378222 0.305719
O O5 0.897282 0.755694 0.752766
O O6 0.748179 0.828174 0.753354
O O7 0.903970 0.842700 0.963993
O O8 0.893347 0.838505 0.536509
O O9 0.002690 0.712837 0.630482
O O10 0.029779 0.861413 0.768318
O O11 0.090936 0.602437 0.566903
O O12 0.567773 0.500000 0.925307
O O13 0.771208 0.500000 0.310468
O O14 0.771207 0.377155 0.488730
O O15 0.839812 0.000000 0.496647
#
# Coordination Sequence:
#
# PCOD8107269 Si02
#       7
#     8   8   8   4   8   8   8
#     4  10  21  37  59  85 112 146 188 234 282 336
#     4  11  22  39  60  82 114 153 191 229 278 339
#     4  11  22  35  57  85 116 151 186 231 283 332
#     4  12  23  36  55  84 118 150 189 234 279 332
#     4  11  23  38  59  86 114 147 189 237 285 333
#     4  10  21  37  59  85 115 152 190 231 277 329
#     4   9  18  35  58  84 113 145 184 230 283 336
#
# _framework density 21.534908000000001
#
# number of rings (size 3 to 8) (size 9 to 14) (size 15 to 20)
#    0.000    1.538    0.000    5.769    0.000    4.923 
#    0.000    3.846    0.000    2.769    0.000    0.000 
#    0.000    0.000    0.000    0.000    0.000    0.000 
#
# Total GULP energy -322369.698789 kJ/mol
# GULP energy per Si atom -12398.834569 kJ/mol
# Density = 2.148589 g / cm^3
# Si number density = 21.534908 Si / 1000 Ang^3
#
#
#
# Elastic Constant Matrix: (Units=GPa)
#
#
# Indices 1 2 3 4 5 6 
#
# 1 58.4149 23.2327 11.6653 0.0000 -3.1102 0.0000
# 2 23.2327 121.0137 20.1126 0.0000 3.8234 0.0000
# 3 11.6653 20.1126 61.7239 0.0000 -4.5869 0.0000
# 4 0.0000 0.0000 0.0000 29.5371 0.0000 -4.7713
# 5 -3.1102 3.8234 -4.5869 0.0000 23.8708 0.0000
# 6 0.0000 0.0000 0.0000 -4.7713 0.0000 21.9331
#
#
#
# Elastic Compliance Matrix: (Units=1/GPa)
#
#
# Indices 1 2 3 4 5 6 
#
# 1 0.019053 -0.003354 -0.002317 0.000000 0.002575 0.000000
# 2 -0.003354 0.009420 -0.002618 0.000000 -0.002449 0.000000
# 3 -0.002317 -0.002618 0.017754 0.000000 0.003529 0.000000
# 4 0.000000 0.000000 0.000000 0.035089 0.000000 0.007633
# 5 0.002575 -0.002449 0.003529 0.000000 0.043298 0.000000
# 6 0.000000 0.000000 0.000000 0.007633 0.000000 0.047254
#
#
# Mechanical properties :
#
#
# Convention : Reuss Voigt Hill
#
# Bulk Modulus (GPa) = 33.72648 39.01929 36.37288
# Shear Modulus (GPa) = 25.21093 27.47767 26.34430
#
# Velocity S-wave (km/s) = 3.42526 3.57593 3.50141
# Velocity P-wave (km/s) = 5.59808 5.93365 5.76830
#
# Compressibility (1/GPa) = 0.02965029
#
# Stress axis : x y z
#
# Youngs Moduli (GPa) = 52.48625 106.15858 56.32486
#
# Poissons Ratio (x) = 0.35607 0.13048
# Poissons Ratio (y) = 0.17605 0.14743
# Poissons Ratio (z) = 0.12159 0.27787
#
# Static dielectric constant tensor:
#      x y z
#    x 3.809800 0.000000 -0.145230 
#    y 0.000000 4.208640 0.000000 
#    z -0.145230 0.000000 3.728890 
# 
# 
# High freq. dielectric constant tensor:
#      x y z
#    x 1.840780 0.000000 -0.015960 
#    y 0.000000 1.855150 0.000000 
#    z -0.015960 0.000000 1.835810 
# 
# From -- ./inp_files/143818.got.cif
#   From: 2010.06.25/outbox.cif.g09.slc.cpg/sg12_72_cif.got.tgz:143818.got - 2010.06.28 00:19:55.
