data_PCOD8107630
_publ_section_title
;
Structure prediction by ZEFSAII (Michael W. Deem and Ramdas Pophale) SiO2 
 PCOD8107630
Probable space group: C 2/M
;
_chemical_formula_sum "Si O2"
_cell_formula_units_Z 56
_cell_length_a 15.416456
_cell_length_b 18.533281
_cell_length_c 19.507116
_cell_angle_alpha 90.000000
_cell_angle_beta 30.508196
_cell_angle_gamma 90.000000
_cell_volume 2829.464496
_symmetry_space_group_name_H-M "C 2/M"
_symmetry_group_IT_number 12
_symmetry_cell_setting 'monoclinic'
loop_
_space_group_symop_operation_xyz
x,y,z
-x,y,-z
-x,-y,-z
x,-y,z
1/2+x,1/2+y,z
1/2-x,1/2+y,-z
1/2-x,1/2-y,-z
1/2+x,1/2-y,z
loop_
_atom_site_type_symbol
_atom_site_label
_atom_site_fract_x
_atom_site_fract_y
_atom_site_fract_z
Si Si1 0.668085 0.581340 0.587606
Si Si2 0.958461 0.081791 0.601821
Si Si3 0.858995 0.830330 0.149335
Si Si4 0.451134 0.084903 0.699196
Si Si5 0.044242 0.172497 0.163981
Si Si6 0.581695 0.839460 0.134882
Si Si7 0.369656 0.837351 0.145713
O O1 0.635959 0.500000 0.636326
O O2 0.624777 0.586679 0.536396
O O3 0.544550 0.634919 0.711664
O O4 0.866518 0.602224 0.459888
O O5 0.806789 0.121941 0.743885
O O6 0.000000 0.118337 0.500000
O O7 0.898964 0.000000 0.629889
O O8 0.685675 0.873793 0.254388
O O9 0.828458 0.745902 0.158792
O O10 0.922967 0.843613 0.182289
O O11 0.000000 0.859120 0.000000
O O12 0.452191 0.111034 0.776752
O O13 0.411721 0.000000 0.725260
O O14 0.068191 0.256224 0.166411
O O15 0.231708 0.140789 0.021735
O O16 0.442313 0.854407 0.171479
O O17 0.500000 0.866703 0.000000
#
# Coordination Sequence:
#
# PCOD8107630 Si02
#       7
#     8   8   8   8   8   8   8
#     4  10  23  40  59  88 121 160 200 246 305 356
#     4  10  21  39  60  85 123 161 195 241 300 363
#     4  10  21  41  61  89 121 157 204 249 304 358
#     4  11  24  41  62  88 122 163 207 249 298 366
#     4  10  21  39  63  87 122 156 197 254 303 352
#     4  10  21  38  62  91 115 159 204 245 301 356
#     4  10  21  37  62  89 120 155 198 251 299 357
#
# _framework density 19.791732
#
# number of rings (size 3 to 8) (size 9 to 14) (size 15 to 20)
#    0.000    1.857    1.429    1.714    4.000    4.571 
#    5.143    1.429    0.000    0.000    0.000    0.000 
#    0.000    0.000    0.000    0.000    0.000    0.000 
#
# Total GULP energy -347273.365739 kJ/mol
# GULP energy per Si atom -12402.620205 kJ/mol
# Density = 1.974668 g / cm^3
# Si number density = 19.791732 Si / 1000 Ang^3
#
#
#
# Elastic Constant Matrix: (Units=GPa)
#
#
# Indices 1 2 3 4 5 6 
#
# 1 84.3208 39.3875 39.4474 -0.0088 -9.9761 0.0235
# 2 39.3875 64.2551 53.6216 -0.0040 -7.9601 0.0411
# 3 39.4474 53.6216 124.3925 0.0016 -9.7382 0.0510
# 4 -0.0088 -0.0040 0.0016 37.7499 -0.0058 -8.7377
# 5 -9.9761 -7.9601 -9.7382 -0.0058 36.5563 -0.0168
# 6 0.0235 0.0411 0.0510 -8.7377 -0.0168 42.9855
#
#
#
# Elastic Compliance Matrix: (Units=1/GPa)
#
#
# Indices 1 2 3 4 5 6 
#
# 1 0.016957 -0.009014 -0.001311 0.000004 0.002316 0.000003
# 2 -0.009014 0.029334 -0.009681 -0.000001 0.001349 -0.000011
# 3 -0.001311 -0.009681 0.012700 -0.000003 0.000917 -0.000005
# 4 0.000004 -0.000001 -0.000003 0.027798 0.000007 0.005651
# 5 0.002316 0.001349 0.000917 0.000007 0.028525 0.000009
# 6 0.000003 -0.000011 -0.000005 0.005651 0.000009 0.024412
#
#
# Mechanical properties :
#
#
# Convention : Reuss Voigt Hill
#
# Bulk Modulus (GPa) = 52.68661 59.76460 56.22560
# Shear Modulus (GPa) = 26.87246 32.82582 29.84914
#
# Velocity S-wave (km/s) = 3.68878 4.07696 3.88772
# Velocity P-wave (km/s) = 6.69486 7.24047 6.97300
#
# Compressibility (1/GPa) = 0.01898016
#
# Stress axis : x y z
#
# Youngs Moduli (GPa) = 58.97244 34.08972 78.74235
#
# Poissons Ratio (x) = 0.30728 0.10319
# Poissons Ratio (y) = 0.53157 0.76230
# Poissons Ratio (z) = 0.07729 0.33002
#
# Static dielectric constant tensor:
#      x y z
#    x 3.650000 0.000000 -0.063150 
#    y 0.000000 3.469070 0.000020 
#    z -0.063150 0.000020 3.567570 
# 
# 
# High freq. dielectric constant tensor:
#      x y z
#    x 1.784860 0.000000 -0.005050 
#    y 0.000000 1.759300 0.000000 
#    z -0.005050 0.000000 1.774900 
# 
# From -- ./inp_files/272365.got.cif
#   From: 2010.06.25/outbox.cif.g09.slc.cpg/sg12_137_cif.got.tgz:272365.got - 2010.06.28 00:19:55.
