data_PCOD8107142
_publ_section_title
;
Structure prediction by ZEFSAII (Michael W. Deem and Ramdas Pophale) SiO2 
 PCOD8107142
Probable space group: C 2/M
;
_chemical_formula_sum "Si O2"
_cell_formula_units_Z 64
_cell_length_a 30.173962
_cell_length_b 9.208244
_cell_length_c 11.147209
_cell_angle_alpha 90.000000
_cell_angle_beta 92.773796
_cell_angle_gamma 90.000000
_cell_volume 3093.614343
_symmetry_space_group_name_H-M "C 2/M"
_symmetry_group_IT_number 12
_symmetry_cell_setting 'monoclinic'
loop_
_space_group_symop_operation_xyz
x,y,z
-x,y,-z
-x,-y,-z
x,-y,z
1/2+x,1/2+y,z
1/2-x,1/2+y,-z
1/2-x,1/2-y,-z
1/2+x,1/2-y,z
loop_
_atom_site_type_symbol
_atom_site_label
_atom_site_fract_x
_atom_site_fract_y
_atom_site_fract_z
Si Si1 0.385433 0.167641 0.121750
Si Si2 0.186272 0.839337 0.747814
Si Si3 0.616569 0.332377 0.362031
Si Si4 0.360182 0.660782 0.894287
Si Si5 0.794812 0.839859 0.516282
Si Si6 0.529545 0.827469 0.388513
Si Si7 0.987848 0.668695 0.131421
Si Si8 0.758436 0.165135 0.880264
O O1 0.357718 0.263367 0.209813
O O2 0.436643 0.197999 0.151620
O O3 0.373184 0.000000 0.137850
O O4 0.373177 0.212162 0.985545
O O5 0.180849 0.855361 0.606937
O O6 0.229860 0.742831 0.774587
O O7 0.191271 0.000000 0.808519
O O8 0.613522 0.500000 0.403962
O O9 0.609615 0.319075 0.218466
O O10 0.665983 0.269505 0.398083
O O11 0.578054 0.239506 0.419689
O O12 0.368158 0.500000 0.951798
O O13 0.309170 0.674947 0.848105
O O14 0.750000 0.750000 0.500000
O O15 0.781888 0.000000 0.564555
O O16 0.500000 0.779277 0.500000
O O17 0.512104 0.768934 0.255102
O O18 0.533093 0.000000 0.385634
O O19 0.999522 0.500000 0.123942
O O20 0.000000 0.737857 0.000000
O O21 0.742229 0.000000 0.893352
O O22 0.750000 0.250000 0.000000
#
# Coordination Sequence:
#
# PCOD8107142 Si02
#       8
#     8   8   8   8   8   8   8   8
#     4  11  22  35  59  88 115 154 198 241 299 365
#     4  11  23  38  56  83 120 156 196 247 301 356
#     4  10  22  41  63  89 121 160 202 246 304 363
#     4  10  21  37  58  84 120 155 192 247 302 354
#     4  10  23  42  63  88 120 160 204 253 302 360
#     4  10  22  40  63  91 122 157 203 258 309 363
#     4   9  19  37  59  85 118 152 192 246 305 362
#     4  11  21  35  56  83 117 159 199 242 295 353
#
# _framework density 20.687775999999999
#
# number of rings (size 3 to 8) (size 9 to 14) (size 15 to 20)
#    0.000    1.750    1.250    2.625    1.750    4.750 
#    0.000    1.250    0.000    3.375    0.000    0.000 
#    0.000    0.000    0.000    0.000    0.000    0.000 
#
# Total GULP energy -396643.097238 kJ/mol
# GULP energy per Si atom -12395.096789 kJ/mol
# Density = 2.064069 g / cm^3
# Si number density = 20.687776 Si / 1000 Ang^3
#
#
#
# Elastic Constant Matrix: (Units=GPa)
#
#
# Indices 1 2 3 4 5 6 
#
# 1 113.4897 52.1905 37.8122 0.0000 4.6224 0.0000
# 2 52.1905 92.9051 24.4917 0.0000 -4.2542 0.0000
# 3 37.8122 24.4917 97.1600 0.0000 -3.5086 0.0000
# 4 0.0000 0.0000 0.0000 19.6694 0.0000 0.0475
# 5 4.6224 -4.2542 -3.5086 0.0000 28.5691 0.0000
# 6 0.0000 0.0000 0.0000 0.0475 0.0000 30.5400
#
#
#
# Elastic Compliance Matrix: (Units=1/GPa)
#
#
# Indices 1 2 3 4 5 6 
#
# 1 0.013205 -0.006634 -0.003596 0.000000 -0.003566 0.000000
# 2 -0.006634 0.014916 -0.001064 0.000000 0.003164 0.000000
# 3 -0.003596 -0.001064 0.012029 0.000000 0.001901 0.000000
# 4 0.000000 0.000000 0.000000 0.050840 0.000000 -0.000079
# 5 -0.003566 0.003164 0.001901 0.000000 0.036284 0.000000
# 6 0.000000 0.000000 0.000000 -0.000079 0.000000 0.032744
#
#
# Mechanical properties :
#
#
# Convention : Reuss Voigt Hill
#
# Bulk Modulus (GPa) = 56.93899 59.17151 58.05525
# Shear Modulus (GPa) = 26.53100 28.35974 27.44537
#
# Velocity S-wave (km/s) = 3.58501 3.70651 3.64627
# Velocity P-wave (km/s) = 6.68724 6.85433 6.77130
#
# Compressibility (1/GPa) = 0.01756266
#
# Stress axis : x y z
#
# Youngs Moduli (GPa) = 75.72775 67.04434 83.13579
#
# Poissons Ratio (x) = 0.44474 0.29893
# Poissons Ratio (y) = 0.50234 0.08846
# Poissons Ratio (z) = 0.27230 0.07133
#
# Static dielectric constant tensor:
#      x y z
#    x 4.906670 0.000000 0.613090 
#    y 0.000000 3.147220 0.000000 
#    z 0.613090 0.000000 4.184910 
# 
# 
# High freq. dielectric constant tensor:
#      x y z
#    x 1.813510 0.000000 -0.004170 
#    y 0.000000 1.792170 0.000000 
#    z -0.004170 0.000000 1.819010 
# 
# From -- ./inp_files/187472.got.cif
#   From: 2010.06.25/outbox.cif.g09.slc.cpg/sg12_94_cif.got.tgz:187472.got - 2010.06.28 00:19:55.
