data_PCOD8107961
_publ_section_title
;
Structure prediction by ZEFSAII (Michael W. Deem and Ramdas Pophale) SiO2 
 PCOD8107961
Probable space group: C 2/M
;
_chemical_formula_sum "Si O2"
_cell_formula_units_Z 56
_cell_length_a 25.958490
_cell_length_b 14.159160
_cell_length_c 17.412088
_cell_angle_alpha 90.000000
_cell_angle_beta 26.373239
_cell_angle_gamma 90.000000
_cell_volume 2842.907449
_symmetry_space_group_name_H-M "C 2/M"
_symmetry_group_IT_number 12
_symmetry_cell_setting 'monoclinic'
loop_
_space_group_symop_operation_xyz
x,y,z
-x,y,-z
-x,-y,-z
x,-y,z
1/2+x,1/2+y,z
1/2-x,1/2+y,-z
1/2-x,1/2-y,-z
1/2+x,1/2-y,z
loop_
_atom_site_type_symbol
_atom_site_label
_atom_site_fract_x
_atom_site_fract_y
_atom_site_fract_z
Si Si1 0.977293 0.743686 0.943838
Si Si2 0.367801 0.609440 0.339779
Si Si3 0.434726 0.610844 0.424858
Si Si4 0.891612 0.608299 0.340073
Si Si5 0.291213 0.744292 0.720417
Si Si6 0.359640 0.259771 0.799885
Si Si7 0.953520 0.609302 0.433571
O O1 0.048969 0.838630 0.831395
O O2 0.015271 0.661623 0.835678
O O3 0.843176 0.764242 0.110407
O O4 0.000000 0.710114 0.000000
O O5 0.373877 0.500000 0.310266
O O6 0.409820 0.630844 0.369311
O O7 0.236984 0.647585 0.504732
O O8 0.437020 0.500000 0.440621
O O9 0.333095 0.659608 0.609482
O O10 0.558318 0.656317 0.279710
O O11 0.900223 0.500000 0.304544
O O12 0.921116 0.625124 0.388779
O O13 0.319218 0.712443 0.769126
O O14 0.355035 0.842612 0.616789
O O15 0.424375 0.159178 0.712597
O O16 0.250000 0.250000 0.000000
O O17 0.963243 0.500000 0.443222
#
# Coordination Sequence:
#
# PCOD8107961 Si02
#       7
#     8   8   8   8   8   8   8
#     4  12  23  36  59  86 115 150 184 226 282 336
#     4  10  21  38  59  83 113 148 188 233 277 328
#     4  10  21  39  61  82 110 150 189 228 279 331
#     4  10  21  38  59  83 113 148 188 233 277 328
#     4  11  23  37  57  85 115 145 184 236 276 325
#     4  11  23  39  57  83 117 145 184 234 276 329
#     4  10  21  39  61  82 110 150 189 228 279 331
#
# _framework density 19.698143000000002
#
# number of rings (size 3 to 8) (size 9 to 14) (size 15 to 20)
#    0.000    1.429    0.000    7.286    0.000    4.571 
#    0.000    0.000    0.000    0.000    0.000    0.000 
#    0.000    0.000    0.000    0.000    0.000    0.000 
#
# Total GULP energy -347352.787128 kJ/mol
# GULP energy per Si atom -12405.456683 kJ/mol
# Density = 1.965331 g / cm^3
# Si number density = 19.698143 Si / 1000 Ang^3
#
#
#
# Elastic Constant Matrix: (Units=GPa)
#
#
# Indices 1 2 3 4 5 6 
#
# 1 80.1971 4.9052 22.0077 0.0000 -4.2316 0.0000
# 2 4.9052 87.8545 36.6236 0.0000 -1.5066 0.0000
# 3 22.0077 36.6236 139.5987 0.0000 -13.6553 0.0000
# 4 0.0000 0.0000 0.0000 15.1268 0.0000 -3.5518
# 5 -4.2316 -1.5066 -13.6553 0.0000 37.6544 0.0000
# 6 0.0000 0.0000 0.0000 -3.5518 0.0000 21.2632
#
#
#
# Elastic Compliance Matrix: (Units=1/GPa)
#
#
# Indices 1 2 3 4 5 6 
#
# 1 0.013055 0.000125 -0.002019 0.000000 0.000740 0.000000
# 2 0.000125 0.012801 -0.003449 0.000000 -0.000724 0.000000
# 3 -0.002019 -0.003449 0.008658 0.000000 0.002775 0.000000
# 4 0.000000 0.000000 0.000000 0.068806 0.000000 0.011493
# 5 0.000740 -0.000724 0.002775 0.000000 0.027618 0.000000
# 6 0.000000 0.000000 0.000000 0.011493 0.000000 0.048949
#
#
# Mechanical properties :
#
#
# Convention : Reuss Voigt Hill
#
# Bulk Modulus (GPa) = 41.96581 48.30261 45.13421
# Shear Modulus (GPa) = 25.18711 31.08313 28.13512
#
# Velocity S-wave (km/s) = 3.57971 3.97668 3.78340
# Velocity P-wave (km/s) = 6.19971 6.75721 6.48446
#
# Compressibility (1/GPa) = 0.02382892
#
# Stress axis : x y z
#
# Youngs Moduli (GPa) = 76.60140 78.12038 115.50201
#
# Poissons Ratio (x) = -0.00979 0.23314
# Poissons Ratio (y) = -0.00960 0.39835
# Poissons Ratio (z) = 0.15462 0.26943
#
# Static dielectric constant tensor:
#      x y z
#    x 3.765200 0.000000 -0.007380 
#    y 0.000000 3.638790 0.000000 
#    z -0.007380 0.000000 3.598950 
# 
# 
# High freq. dielectric constant tensor:
#      x y z
#    x 1.786830 0.000000 0.000700 
#    y 0.000000 1.772630 0.000000 
#    z 0.000700 0.000000 1.772430 
# 
# From -- ./inp_files/189639.got.cif
#   From: 2010.06.25/outbox.cif.g09.slc.cpg/sg12_95_cif.got.tgz:189639.got - 2010.06.28 00:19:55.
