data_PCOD8107390
_publ_section_title
;
Structure prediction by ZEFSAII (Michael W. Deem and Ramdas Pophale) SiO2 
 PCOD8107390
Probable space group: C 2/M
;
_chemical_formula_sum "Si O2"
_cell_formula_units_Z 40
_cell_length_a 15.009394
_cell_length_b 24.787607
_cell_length_c 14.734384
_cell_angle_alpha 90.000000
_cell_angle_beta 160.054007
_cell_angle_gamma 90.000000
_cell_volume 1870.057898
_symmetry_space_group_name_H-M "C 2/M"
_symmetry_group_IT_number 12
_symmetry_cell_setting 'monoclinic'
loop_
_space_group_symop_operation_xyz
x,y,z
-x,y,-z
-x,-y,-z
x,-y,z
1/2+x,1/2+y,z
1/2-x,1/2+y,-z
1/2-x,1/2-y,-z
1/2+x,1/2-y,z
loop_
_atom_site_type_symbol
_atom_site_label
_atom_site_fract_x
_atom_site_fract_y
_atom_site_fract_z
Si Si1 0.966195 0.939035 0.714921
Si Si2 0.023161 0.725787 0.917269
Si Si3 0.998348 0.373648 0.232960
Si Si4 0.266528 0.439086 0.724213
Si Si5 0.521749 0.794889 0.415528
O O1 0.763747 0.905650 0.457578
O O2 0.811751 0.939254 0.661363
O O3 0.001077 0.000000 0.711615
O O4 0.250734 0.913258 0.996769
O O5 0.057582 0.671205 0.895146
O O6 0.774294 0.757850 0.641829
O O7 0.274111 0.762648 0.141162
O O8 0.000000 0.709763 0.000000
O O9 0.046794 0.348654 0.379475
O O10 0.255353 0.500000 0.752887
O O11 0.000000 0.409675 0.500000
O O12 0.500000 0.407647 0.000000
O O13 0.500000 0.811117 0.500000
#
# Coordination Sequence:
#
# PCOD8107390 Si02
#       5
#     8   8   8   8   8
#     4  11  24  38  54  81 117 158 201 244 282 325
#     4  10  21  39  62  88 117 147 187 241 300 357
#     4  12  22  37  62  85 115 157 197 236 288 349
#     4   9  17  31  49  68  97 141 188 229 270 318
#     4  10  21  37  59  90 122 147 181 235 293 356
#
# _framework density 21.389711999999999
#
# number of rings (size 3 to 8) (size 9 to 14) (size 15 to 20)
#    0.000    1.600    0.000    5.400    0.000    5.600 
#    0.000    0.000    0.000    4.200    0.000    0.000 
#    0.000    0.000    0.000    0.000    0.000    0.000 
#
# Total GULP energy -248002.116976 kJ/mol
# GULP energy per Si atom -12400.105849 kJ/mol
# Density = 2.134103 g / cm^3
# Si number density = 21.389712 Si / 1000 Ang^3
#
#
#
# Elastic Constant Matrix: (Units=GPa)
#
#
# Indices 1 2 3 4 5 6 
#
# 1 158.6612 -194.1633 -374.7423 -0.0060 65.8877 0.0011
# 2 -194.1633 585.3347 839.0538 0.0076 -128.8928 -0.0030
# 3 -374.7423 839.0538 1530.8419 0.0364 -204.4474 -0.0118
# 4 -0.0060 0.0076 0.0364 34.0673 0.0009 -0.2633
# 5 65.8877 -128.8928 -204.4474 0.0009 64.2039 -0.0010
# 6 0.0011 -0.0030 -0.0118 -0.2633 -0.0010 13.6012
#
#
#
# Elastic Compliance Matrix: (Units=1/GPa)
#
#
# Indices 1 2 3 4 5 6 
#
# 1 0.017472 -0.002739 0.004610 -0.000001 -0.008750 0.000001
# 2 -0.002739 0.008921 -0.004859 0.000003 0.005246 -0.000002
# 3 0.004610 -0.004859 0.004368 -0.000003 -0.000576 0.000002
# 4 -0.000001 0.000003 -0.000003 0.029358 -0.000003 0.000568
# 5 -0.008750 0.005246 -0.000576 -0.000003 0.033250 0.000004
# 6 0.000001 -0.000002 0.000002 0.000568 0.000004 0.073534
#
#
# Mechanical properties :
#
#
# Convention : Reuss Voigt Hill
#
# Bulk Modulus (GPa) = 40.34789 312.79270 176.57030
# Shear Modulus (GPa) = 27.60283 156.02047 91.81165
#
# Velocity S-wave (km/s) = 3.59621 8.54986 6.55869
# Velocity P-wave (km/s) = 6.01231 15.62112 11.83569
#
# Compressibility (1/GPa) = 0.02478444
#
# Stress axis : x y z
#
# Youngs Moduli (GPa) = 57.23302 112.10121 228.93803
#
# Poissons Ratio (x) = 0.30701 -1.05533
# Poissons Ratio (y) = 0.15675 1.11245
# Poissons Ratio (z) = -0.26383 0.54472
#
# Static dielectric constant tensor:
#      x y z
#    x 3.565780 0.000000 0.179490 
#    y 0.000000 3.905570 -0.000010 
#    z 0.179490 -0.000010 4.391900 
# 
# 
# High freq. dielectric constant tensor:
#      x y z
#    x 1.803500 0.000000 0.009030 
#    y 0.000000 1.844730 0.000000 
#    z 0.009030 0.000000 1.867960 
# 
# From -- ./inp_files/219037.got.cif
#   From: 2010.06.25/outbox.cif.g09.slc.cpg/sg12_110_cif.got.tgz:219037.got - 2010.06.28 00:19:55.
