data_PCOD8107873
_publ_section_title
;
Structure prediction by ZEFSAII (Michael W. Deem and Ramdas Pophale) SiO2 
 PCOD8107873
Probable space group: C 2/M
;
_chemical_formula_sum "Si O2"
_cell_formula_units_Z 56
_cell_length_a 20.276474
_cell_length_b 18.035025
_cell_length_c 14.393228
_cell_angle_alpha 90.000000
_cell_angle_beta 147.319493
_cell_angle_gamma 90.000000
_cell_volume 2842.000473
_symmetry_space_group_name_H-M "C 2/M"
_symmetry_group_IT_number 12
_symmetry_cell_setting 'monoclinic'
loop_
_space_group_symop_operation_xyz
x,y,z
-x,y,-z
-x,-y,-z
x,-y,z
1/2+x,1/2+y,z
1/2-x,1/2+y,-z
1/2-x,1/2-y,-z
1/2+x,1/2-y,z
loop_
_atom_site_type_symbol
_atom_site_label
_atom_site_fract_x
_atom_site_fract_y
_atom_site_fract_z
Si Si1 0.744377 0.176102 0.656766
Si Si2 0.944648 0.665092 0.725848
Si Si3 0.311523 0.913147 0.033727
Si Si4 0.236239 0.153986 0.619438
Si Si5 0.452553 0.334777 0.763413
Si Si6 0.204935 0.087634 0.101248
Si Si7 0.633337 0.413895 0.671038
O O1 0.634544 0.151057 0.460213
O O2 0.732171 0.263779 0.658045
O O3 0.873852 0.157465 0.763645
O O4 0.737107 0.131739 0.744183
O O5 0.865231 0.640865 0.721218
O O6 0.988363 0.749559 0.789229
O O7 0.063188 0.615890 0.859257
O O8 0.199587 0.879416 0.840285
O O9 0.313766 0.000000 0.021544
O O10 0.293036 0.892854 0.119418
O O11 0.126541 0.138393 0.417753
O O12 0.219978 0.097517 0.684519
O O13 0.569477 0.386249 0.914550
O O14 0.202095 0.000000 0.119372
O O15 0.500000 0.375353 0.500000
O O16 0.612839 0.500000 0.663270
#
# Coordination Sequence:
#
# PCOD8107873 Si02
#       7
#     8   8   8   8   8   8   8
#     4   9  20  38  57  85 116 147 191 236 285 350
#     4   9  20  39  59  81 117 153 187 237 287 343
#     4  10  23  39  55  82 117 153 193 234 283 347
#     4   9  19  38  60  84 114 150 189 236 292 343
#     4   9  19  37  60  84 113 147 190 240 289 341
#     4  11  23  38  57  84 119 156 195 242 291 340
#     4  10  21  38  58  83 115 148 189 241 290 340
#
# _framework density 19.704429999999999
#
# number of rings (size 3 to 8) (size 9 to 14) (size 15 to 20)
#    0.000    2.429    0.000    3.000    2.000    5.714 
#    5.143    5.714    0.000    0.000    0.000    0.000 
#    0.000    0.000    0.000    0.000    0.000    0.000 
#
# Total GULP energy -347158.509769 kJ/mol
# GULP energy per Si atom -12398.518206 kJ/mol
# Density = 1.965958 g / cm^3
# Si number density = 19.704430 Si / 1000 Ang^3
#
#
#
# Elastic Constant Matrix: (Units=GPa)
#
#
# Indices 1 2 3 4 5 6 
#
# 1 118.5357 39.8986 64.7584 0.0000 -9.2548 0.0000
# 2 39.8986 29.7692 43.1260 0.0000 -4.3482 0.0000
# 3 64.7584 43.1260 111.1137 0.0000 -0.0323 0.0000
# 4 0.0000 0.0000 0.0000 27.6039 0.0000 -1.5822
# 5 -9.2548 -4.3482 -0.0323 0.0000 34.1435 0.0000
# 6 0.0000 0.0000 0.0000 -1.5822 0.0000 36.1332
#
#
#
# Elastic Compliance Matrix: (Units=1/GPa)
#
#
# Indices 1 2 3 4 5 6 
#
# 1 0.015750 -0.017152 -0.002521 0.000000 0.002082 0.000000
# 2 -0.017152 0.098804 -0.028350 0.000000 0.007907 0.000000
# 3 -0.002521 -0.028350 0.021471 0.000000 -0.004274 0.000000
# 4 0.000000 0.000000 0.000000 0.036318 0.000000 0.001590
# 5 0.002082 0.007907 -0.004274 0.000000 0.030856 0.000000
# 6 0.000000 0.000000 0.000000 0.001590 0.000000 0.027745
#
#
# Mechanical properties :
#
#
# Convention : Reuss Voigt Hill
#
# Bulk Modulus (GPa) = 25.01302 61.66496 43.33899
# Shear Modulus (GPa) = 14.69224 27.01849 20.85536
#
# Velocity S-wave (km/s) = 2.73359 3.70697 3.25685
# Velocity P-wave (km/s) = 4.76288 7.04877 6.01540
#
# Compressibility (1/GPa) = 0.03997918
#
# Stress axis : x y z
#
# Youngs Moduli (GPa) = 63.49393 10.12104 46.57359
#
# Poissons Ratio (x) = 0.17359 0.11743
# Poissons Ratio (y) = 1.08902 1.32036
# Poissons Ratio (z) = 0.16010 0.28693
#
# Static dielectric constant tensor:
#      x y z
#    x 3.619190 0.000000 -0.086370 
#    y 0.000000 3.349760 0.000000 
#    z -0.086370 0.000000 3.671080 
# 
# 
# High freq. dielectric constant tensor:
#      x y z
#    x 1.774560 0.000000 -0.004390 
#    y 0.000000 1.749720 0.000000 
#    z -0.004390 0.000000 1.774730 
# 
# From -- ./inp_files/217728.got.cif
#   From: 2010.06.25/outbox.cif.g09.slc.cpg/sg12_109_cif.got.tgz:217728.got - 2010.06.28 00:19:55.
