data_PCOD8107695
_publ_section_title
;
Structure prediction by ZEFSAII (Michael W. Deem and Ramdas Pophale) SiO2 
 PCOD8107695
Probable space group: C 2/M
;
_chemical_formula_sum "Si O2"
_cell_formula_units_Z 40
_cell_length_a 5.042752
_cell_length_b 25.289051
_cell_length_c 12.984621
_cell_angle_alpha 90.000000
_cell_angle_beta 79.266042
_cell_angle_gamma 90.000000
_cell_volume 1626.908474
_symmetry_space_group_name_H-M "C 2/M"
_symmetry_group_IT_number 12
_symmetry_cell_setting 'monoclinic'
loop_
_space_group_symop_operation_xyz
x,y,z
-x,y,-z
-x,-y,-z
x,-y,z
1/2+x,1/2+y,z
1/2-x,1/2+y,-z
1/2-x,1/2-y,-z
1/2+x,1/2-y,z
loop_
_atom_site_type_symbol
_atom_site_label
_atom_site_fract_x
_atom_site_fract_y
_atom_site_fract_z
Si Si1 0.272917 0.720365 0.613493
Si Si2 0.727832 0.603257 0.067925
Si Si3 0.431133 0.103789 0.392757
Si Si4 0.027147 0.940071 0.714516
Si Si5 0.311190 0.220111 0.138578
O O1 0.593645 0.732547 0.571252
O O2 0.241912 0.725018 0.737198
O O3 0.168262 0.663651 0.585734
O O4 0.621073 0.565834 0.165843
O O5 0.804434 0.659432 0.109421
O O6 0.500000 0.609591 0.000000
O O7 0.000000 0.577908 0.000000
O O8 0.500000 0.079905 0.500000
O O9 0.185586 0.071842 0.360455
O O10 0.709824 0.098462 0.307223
O O11 0.129418 0.000000 0.695321
O O12 0.602819 0.243560 0.090313
#
# Coordination Sequence:
#
# PCOD8107695 Si02
#       5
#     8   8   8   8   8
#     4  10  21  38  67 100 141 185 223 270 335 413
#     4  12  26  43  70 101 136 182 232 282 343 415
#     4  12  26  46  75 107 140 182 232 283 350 419
#     4  12  28  50  73 100 139 181 234 301 354 400
#     4  10  21  37  63  96 137 182 222 270 334 407
#
# _framework density 24.586509
#
# number of rings (size 3 to 8) (size 9 to 14) (size 15 to 20)
#    0.000    0.800    2.000    4.800    5.600    6.400 
#    0.000    0.000    0.000    0.000    0.000    0.000 
#    0.000    0.000    0.000    0.000    0.000    0.000 
#
# Total GULP energy -248097.628956 kJ/mol
# GULP energy per Si atom -12404.881448 kJ/mol
# Density = 2.453055 g / cm^3
# Si number density = 24.586509 Si / 1000 Ang^3
#
#
#
# Elastic Constant Matrix: (Units=GPa)
#
#
# Indices 1 2 3 4 5 6 
#
# 1 159.7502 35.9956 73.6881 0.0000 -14.3933 0.0000
# 2 35.9956 107.9404 40.8811 0.0000 -1.6882 0.0000
# 3 73.6881 40.8811 69.7889 0.0000 7.3754 0.0000
# 4 0.0000 0.0000 0.0000 10.6252 0.0000 2.0135
# 5 -14.3933 -1.6882 7.3754 0.0000 49.8239 0.0000
# 6 0.0000 0.0000 0.0000 2.0135 0.0000 42.0499
#
#
#
# Elastic Compliance Matrix: (Units=1/GPa)
#
#
# Indices 1 2 3 4 5 6 
#
# 1 0.014136 0.001679 -0.016607 0.000000 0.006599 0.000000
# 2 0.001679 0.012210 -0.009163 0.000000 0.002255 0.000000
# 3 -0.016607 -0.009163 0.038372 0.000000 -0.010788 0.000000
# 4 0.000000 0.000000 0.000000 0.094977 0.000000 -0.004548
# 5 0.006599 0.002255 -0.010788 0.000000 0.023650 0.000000
# 6 0.000000 0.000000 0.000000 -0.004548 0.000000 0.023999
#
#
# Mechanical properties :
#
#
# Convention : Reuss Voigt Hill
#
# Bulk Modulus (GPa) = 60.47780 70.95656 65.71718
# Shear Modulus (GPa) = 19.15415 32.96080 26.05748
#
# Velocity S-wave (km/s) = 2.79418 3.66540 3.25903
# Velocity P-wave (km/s) = 5.92126 6.84369 6.39912
#
# Compressibility (1/GPa) = 0.01653499
#
# Stress axis : x y z
#
# Youngs Moduli (GPa) = 70.73960 81.89763 26.06098
#
# Poissons Ratio (x) = -0.13748 0.43279
# Poissons Ratio (y) = -0.11875 0.23881
# Poissons Ratio (z) = 1.17477 0.75046
#
# Static dielectric constant tensor:
#      x y z
#    x 4.993910 0.000000 0.003410 
#    y 0.000000 4.108180 0.000000 
#    z 0.003410 0.000000 4.931980 
# 
# 
# High freq. dielectric constant tensor:
#      x y z
#    x 2.005750 0.000000 0.003970 
#    y 0.000000 1.952990 0.000000 
#    z 0.003970 0.000000 2.018650 
# 
# From -- ./inp_files/191778.got.cif
#   From: 2010.06.25/outbox.cif.g09.slc.cpg/sg12_96_cif.got.tgz:191778.got - 2010.06.28 00:19:55.
