data_PCOD8107243
_publ_section_title
;
Structure prediction by ZEFSAII (Michael W. Deem and Ramdas Pophale) SiO2 
 PCOD8107243
Probable space group: C 2/M
;
_chemical_formula_sum "Si O2"
_cell_formula_units_Z 64
_cell_length_a 22.377270
_cell_length_b 17.079570
_cell_length_c 22.812030
_cell_angle_alpha 90.000000
_cell_angle_beta 158.005926
_cell_angle_gamma 90.000000
_cell_volume 3265.218079
_symmetry_space_group_name_H-M "C 2/M"
_symmetry_group_IT_number 12
_symmetry_cell_setting 'monoclinic'
loop_
_space_group_symop_operation_xyz
x,y,z
-x,y,-z
-x,-y,-z
x,-y,z
1/2+x,1/2+y,z
1/2-x,1/2+y,-z
1/2-x,1/2-y,-z
1/2+x,1/2-y,z
loop_
_atom_site_type_symbol
_atom_site_label
_atom_site_fract_x
_atom_site_fract_y
_atom_site_fract_z
Si Si1 0.895283 0.910006 0.134477
Si Si2 0.762457 0.089140 0.139586
Si Si3 0.269733 0.790995 0.093092
Si Si4 0.760845 0.908558 0.602637
Si Si5 0.491113 0.172868 0.843309
Si Si6 0.368503 0.261973 0.300243
Si Si7 0.391125 0.188214 0.630016
Si Si8 0.216997 0.272206 0.646908
O O1 0.864074 0.888641 0.174013
O O2 0.075158 0.888463 0.281146
O O3 0.859588 0.000000 0.092831
O O4 0.773654 0.871901 0.977468
O O5 0.816135 0.147873 0.240347
O O6 0.790688 0.000000 0.185983
O O7 0.572918 0.100782 0.952576
O O8 0.282825 0.795777 0.175746
O O9 0.444966 0.763766 0.230806
O O10 0.137993 0.727551 0.955584
O O11 0.625261 0.878800 0.434386
O O12 0.752740 0.860145 0.656126
O O13 0.738277 0.000000 0.596531
O O14 0.397854 0.146130 0.699901
O O15 0.368455 0.217338 0.773532
O O16 0.309418 0.228258 0.308005
O O17 0.560686 0.259894 0.471227
O O18 0.250000 0.250000 0.500000
#
# Coordination Sequence:
#
# PCOD8107243 Si02
#       8
#     8   8   8   8   8   8   8   8
#     4  10  21  37  58  90 129 159 187 245 317 368
#     4  10  23  41  61  92 128 155 192 253 320 369
#     4  11  20  36  58  89 117 157 201 249 296 357
#     4  11  24  39  61  91 130 164 199 256 311 351
#     4  11  22  34  64  86 122 155 203 249 300 362
#     4  10  24  39  65  85 116 164 212 251 298 359
#     4  12  21  33  60  91 121 157 206 247 303 367
#     4  11  22  44  59  88 118 160 216 251 291 363
#
# _framework density 19.600529000000002
#
# number of rings (size 3 to 8) (size 9 to 14) (size 15 to 20)
#    0.000    1.250    5.000    0.375    7.000    3.000 
#    0.000    5.000    0.000    1.500    0.000    0.000 
#    0.000    0.000    0.000    0.000    0.000    0.000 
#
# Total GULP energy -396640.881669 kJ/mol
# GULP energy per Si atom -12395.027552 kJ/mol
# Density = 1.955592 g / cm^3
# Si number density = 19.600529 Si / 1000 Ang^3
#
#
#
# Elastic Constant Matrix: (Units=GPa)
#
#
# Indices 1 2 3 4 5 6 
#
# 1 92.2727 48.7557 39.8358 0.0029 -7.2284 0.0016
# 2 48.7557 75.3498 28.5455 -0.0127 -0.7294 0.0007
# 3 39.8358 28.5455 86.8746 -0.0376 -0.0984 -0.0090
# 4 0.0029 -0.0127 -0.0376 26.1470 -0.0014 -3.6254
# 5 -7.2284 -0.7294 -0.0984 -0.0014 40.7080 0.0012
# 6 0.0016 0.0007 -0.0090 -3.6254 0.0012 27.0749
#
#
#
# Elastic Compliance Matrix: (Units=1/GPa)
#
#
# Indices 1 2 3 4 5 6 
#
# 1 0.018662 -0.010056 -0.005249 -0.000015 0.003121 -0.000005
# 2 -0.010056 0.020580 -0.002153 0.000008 -0.001422 0.000000
# 3 -0.005249 -0.002153 0.014624 0.000022 -0.000935 0.000008
# 4 -0.000015 0.000008 0.000022 0.038969 -0.000001 0.005218
# 5 0.003121 -0.001422 -0.000935 -0.000001 0.025092 -0.000002
# 6 -0.000005 0.000000 0.000008 0.005218 -0.000002 0.037633
#
#
# Mechanical properties :
#
#
# Convention : Reuss Voigt Hill
#
# Bulk Modulus (GPa) = 52.77199 54.30791 53.53995
# Shear Modulus (GPa) = 25.40736 27.94332 26.67534
#
# Velocity S-wave (km/s) = 3.60427 3.77986 3.69311
# Velocity P-wave (km/s) = 6.65606 6.84232 6.74983
#
# Compressibility (1/GPa) = 0.01894945
#
# Stress axis : x y z
#
# Youngs Moduli (GPa) = 53.58521 48.59023 68.37985
#
# Poissons Ratio (x) = 0.48864 0.35895
# Poissons Ratio (y) = 0.53888 0.14720
# Poissons Ratio (z) = 0.28129 0.10460
#
# Static dielectric constant tensor:
#      x y z
#    x 3.537520 -0.000030 0.049580 
#    y -0.000030 3.466780 -0.000080 
#    z 0.049580 -0.000080 4.000150 
# 
# 
# High freq. dielectric constant tensor:
#      x y z
#    x 1.758060 0.000000 0.001430 
#    y 0.000000 1.743340 -0.000010 
#    z 0.001430 -0.000010 1.780230 
# 
# From -- ./inp_files/350027.got.cif
#   From: 2010.06.25/outbox.cif.g09.slc.cpg/sg12_176_cif.got.tgz:350027.got - 2010.06.28 00:19:55.
