data_PCOD8107245
_publ_section_title
;
Structure prediction by ZEFSAII (Michael W. Deem and Ramdas Pophale) SiO2 
 PCOD8107245
Probable space group: C 2/M
;
_chemical_formula_sum "Si O2"
_cell_formula_units_Z 48
_cell_length_a 14.069274
_cell_length_b 17.508349
_cell_length_c 19.931054
_cell_angle_alpha 90.000000
_cell_angle_beta 30.885450
_cell_angle_gamma 90.000000
_cell_volume 2520.218264
_symmetry_space_group_name_H-M "C 2/M"
_symmetry_group_IT_number 12
_symmetry_cell_setting 'monoclinic'
loop_
_space_group_symop_operation_xyz
x,y,z
-x,y,-z
-x,-y,-z
x,-y,z
1/2+x,1/2+y,z
1/2-x,1/2+y,-z
1/2-x,1/2-y,-z
1/2+x,1/2-y,z
loop_
_atom_site_type_symbol
_atom_site_label
_atom_site_fract_x
_atom_site_fract_y
_atom_site_fract_z
Si Si1 0.134905 0.412326 0.196033
Si Si2 0.357117 0.703675 0.145689
Si Si3 0.198043 0.585734 0.903171
Si Si4 0.273226 0.411872 0.591265
Si Si5 0.679561 0.665179 0.039108
Si Si6 0.147916 0.144847 0.316642
O O1 0.193162 0.500000 0.170177
O O2 0.227860 0.364223 0.198352
O O3 0.914634 0.401584 0.336246
O O4 0.198043 0.385595 0.084561
O O5 0.467111 0.669071 0.142723
O O6 0.224292 0.772319 0.248871
O O7 0.500000 0.729112 0.000000
O O8 0.169008 0.500000 0.946898
O O9 0.301520 0.632659 0.897978
O O10 0.329506 0.587152 0.758918
O O11 0.000000 0.621343 0.000000
O O12 0.340757 0.500000 0.548692
O O13 0.235724 0.386684 0.690778
O O14 0.429231 0.355598 0.466332
O O15 0.750000 0.750000 0.000000
#
# Coordination Sequence:
#
# PCOD8107245 Si02
#       6
#     8   8   8   8   8   8
#     4  10  21  38  58  81 110 146 188 225 264 322
#     4  10  22  37  57  82 109 145 184 225 271 319
#     4  11  21  32  52  81 110 140 175 220 276 328
#     4  10  21  37  59  82 108 145 184 225 271 324
#     4  11  21  35  55  80 112 144 177 223 275 322
#     4  11  20  35  55  80 112 141 178 225 273 323
#
# _framework density 19.045968999999999
#
# number of rings (size 3 to 8) (size 9 to 14) (size 15 to 20)
#    0.000    1.500    0.000    8.000    0.000    7.000 
#    0.000    1.667    0.000    0.000    0.000    5.833 
#    0.000    0.000    0.000    0.000    0.000    0.000 
#
# Total GULP energy -297573.798893 kJ/mol
# GULP energy per Si atom -12398.908287 kJ/mol
# Density = 1.900262 g / cm^3
# Si number density = 19.045969 Si / 1000 Ang^3
#
#
#
# Elastic Constant Matrix: (Units=GPa)
#
#
# Indices 1 2 3 4 5 6 
#
# 1 150.2503 64.6268 59.9814 0.0082 -6.2554 0.0085
# 2 64.6268 136.1229 60.6421 0.0084 -9.6849 -0.0019
# 3 59.9814 60.6421 93.1121 0.0113 -5.0824 0.0115
# 4 0.0082 0.0084 0.0113 29.0576 -0.0144 -0.4890
# 5 -6.2554 -9.6849 -5.0824 -0.0144 30.3271 -0.0113
# 6 0.0085 -0.0019 0.0115 -0.4890 -0.0113 35.1957
#
#
#
# Elastic Compliance Matrix: (Units=1/GPa)
#
#
# Indices 1 2 3 4 5 6 
#
# 1 0.009543 -0.002497 -0.004498 0.000000 0.000417 -0.000001
# 2 -0.002497 0.011149 -0.005537 0.000001 0.002118 0.000004
# 3 -0.004498 -0.005537 0.017254 -0.000004 0.000195 -0.000005
# 4 0.000000 0.000001 -0.000004 0.034422 0.000016 0.000478
# 5 0.000417 0.002118 0.000195 0.000016 0.033769 0.000011
# 6 -0.000001 0.000004 -0.000005 0.000478 0.000011 0.028419
#
#
# Mechanical properties :
#
#
# Convention : Reuss Voigt Hill
#
# Bulk Modulus (GPa) = 77.63084 83.33176 80.48130
# Shear Modulus (GPa) = 30.50353 31.86509 31.18431
#
# Velocity S-wave (km/s) = 4.00631 4.09475 4.05077
# Velocity P-wave (km/s) = 7.88980 8.13658 8.01414
#
# Compressibility (1/GPa) = 0.01288148
#
# Stress axis : x y z
#
# Youngs Moduli (GPa) = 104.79240 89.69236 57.95615
#
# Poissons Ratio (x) = 0.22395 0.26070
# Poissons Ratio (y) = 0.26166 0.32092
# Poissons Ratio (z) = 0.47139 0.49665
#
# Static dielectric constant tensor:
#      x y z
#    x 3.872750 0.000250 -0.172300 
#    y 0.000250 3.472340 0.000030 
#    z -0.172300 0.000030 3.384240 
# 
# 
# High freq. dielectric constant tensor:
#      x y z
#    x 1.748660 0.000000 -0.007200 
#    y 0.000000 1.747250 0.000000 
#    z -0.007200 0.000000 1.724300 
# 
# From -- ./inp_files/311312.got.cif
#   From: 2010.06.25/outbox.cif.g09.slc.cpg/sg12_156_cif.got.tgz:311312.got - 2010.06.28 00:19:55.
