data_PCOD8107236
_publ_section_title
;
Structure prediction by ZEFSAII (Michael W. Deem and Ramdas Pophale) SiO2 
 PCOD8107236
Probable space group: C 2/M
;
_chemical_formula_sum "Si O2"
_cell_formula_units_Z 56
_cell_length_a 12.945495
_cell_length_b 21.397699
_cell_length_c 11.655774
_cell_angle_alpha 90.000000
_cell_angle_beta 62.153322
_cell_angle_gamma 90.000000
_cell_volume 2854.813353
_symmetry_space_group_name_H-M "C 2/M"
_symmetry_group_IT_number 12
_symmetry_cell_setting 'monoclinic'
loop_
_space_group_symop_operation_xyz
x,y,z
-x,y,-z
-x,-y,-z
x,-y,z
1/2+x,1/2+y,z
1/2-x,1/2+y,-z
1/2-x,1/2-y,-z
1/2+x,1/2-y,z
loop_
_atom_site_type_symbol
_atom_site_label
_atom_site_fract_x
_atom_site_fract_y
_atom_site_fract_z
Si Si1 0.390693 0.344246 0.987787
Si Si2 0.243819 0.573579 0.900621
Si Si3 0.939252 0.430624 0.816995
Si Si4 0.168072 0.636985 0.717580
Si Si5 0.214448 0.182291 0.556369
Si Si6 0.677756 0.827909 0.259247
Si Si7 0.506355 0.255437 0.756790
O O1 0.345122 0.400273 0.931080
O O2 0.431585 0.282478 0.899588
O O3 0.500000 0.373207 0.000000
O O4 0.294559 0.317268 0.125263
O O5 0.267137 0.500000 0.859371
O O6 0.243160 0.619958 0.791299
O O7 0.119845 0.582388 0.028817
O O8 0.914911 0.500000 0.789686
O O9 0.883537 0.391307 0.744804
O O10 0.076777 0.419349 0.754639
O O11 0.258134 0.635594 0.563227
O O12 0.096625 0.702788 0.759476
O O13 0.250000 0.250000 0.500000
O O14 0.293976 0.163646 0.622541
O O15 0.077417 0.186941 0.661188
O O16 0.584976 0.772014 0.288163
#
# Coordination Sequence:
#
# PCOD8107236 Si02
#       7
#     8   8   8   8   8   8   8
#     4  11  22  37  62  90 118 151 201 257 304 354
#     4  10  22  40  62  89 120 159 202 251 308 356
#     4   9  19  37  63  89 116 151 196 255 307 347
#     4  10  21  37  58  89 121 157 199 242 299 361
#     4  10  22  38  53  82 122 165 194 231 299 364
#     4  10  21  39  58  89 120 156 198 242 301 363
#     4  10  22  36  59  89 124 154 195 247 305 357
#
# _framework density 19.615994000000001
#
# number of rings (size 3 to 8) (size 9 to 14) (size 15 to 20)
#    0.000    2.000    1.429    1.286    4.000   10.000 
#    0.000    2.143    0.000    2.571    0.000    0.000 
#    0.000    0.000    0.000    0.000    0.000    0.000 
#
# Total GULP energy -347086.935758 kJ/mol
# GULP energy per Si atom -12395.961991 kJ/mol
# Density = 1.957135 g / cm^3
# Si number density = 19.615994 Si / 1000 Ang^3
#
#
#
# Elastic Constant Matrix: (Units=GPa)
#
#
# Indices 1 2 3 4 5 6 
#
# 1 118.0649 37.5127 55.3279 0.0000 8.6011 0.0000
# 2 37.5127 66.6668 46.7038 0.0000 10.7337 0.0000
# 3 55.3279 46.7038 114.0847 0.0000 19.1918 0.0000
# 4 0.0000 0.0000 0.0000 21.2733 0.0000 -4.2836
# 5 8.6011 10.7337 19.1918 0.0000 26.9980 0.0000
# 6 0.0000 0.0000 0.0000 -4.2836 0.0000 17.5024
#
#
#
# Elastic Compliance Matrix: (Units=1/GPa)
#
#
# Indices 1 2 3 4 5 6 
#
# 1 0.011564 -0.003662 -0.004241 0.000000 0.000787 0.000000
# 2 -0.003662 0.022347 -0.006899 0.000000 -0.002814 0.000000
# 3 -0.004241 -0.006899 0.014718 0.000000 -0.006368 0.000000
# 4 0.000000 0.000000 0.000000 0.049444 0.000000 0.012101
# 5 0.000787 -0.002814 -0.006368 0.000000 0.042435 0.000000
# 6 0.000000 0.000000 0.000000 0.012101 0.000000 0.060097
#
#
# Mechanical properties :
#
#
# Convention : Reuss Voigt Hill
#
# Bulk Modulus (GPa) = 52.56624 64.21170 58.38897
# Shear Modulus (GPa) = 21.13722 23.77288 22.45505
#
# Velocity S-wave (km/s) = 3.28617 3.48503 3.38706
# Velocity P-wave (km/s) = 6.42295 6.99995 6.71765
#
# Compressibility (1/GPa) = 0.01902362
#
# Stress axis : x y z
#
# Youngs Moduli (GPa) = 86.47719 44.74929 67.94478
#
# Poissons Ratio (x) = 0.16389 0.28817
# Poissons Ratio (y) = 0.31670 0.46874
# Poissons Ratio (z) = 0.36677 0.30872
#
# Static dielectric constant tensor:
#      x y z
#    x 3.716960 0.000000 -0.377700 
#    y 0.000000 3.258960 0.000000 
#    z -0.377700 0.000000 4.169790 
# 
# 
# High freq. dielectric constant tensor:
#      x y z
#    x 1.768900 0.000000 -0.000930 
#    y 0.000000 1.742490 0.000000 
#    z -0.000930 0.000000 1.765300 
# 
# From -- ./inp_files/133852.got.cif
#   From: 2010.06.25/outbox.cif.g09.slc.cpg/sg12_67_cif.got.tgz:133852.got - 2010.06.28 00:19:55.
