data_PCOD8107136
_publ_section_title
;
Structure prediction by ZEFSAII (Michael W. Deem and Ramdas Pophale) SiO2 
 PCOD8107136
Probable space group: C 2/M
;
_chemical_formula_sum "Si O2"
_cell_formula_units_Z 48
_cell_length_a 14.966863
_cell_length_b 8.863868
_cell_length_c 20.414945
_cell_angle_alpha 90.000000
_cell_angle_beta 68.327786
_cell_angle_gamma 90.000000
_cell_volume 2516.886996
_symmetry_space_group_name_H-M "C 2/M"
_symmetry_group_IT_number 12
_symmetry_cell_setting 'monoclinic'
loop_
_space_group_symop_operation_xyz
x,y,z
-x,y,-z
-x,-y,-z
x,-y,z
1/2+x,1/2+y,z
1/2-x,1/2+y,-z
1/2-x,1/2-y,-z
1/2+x,1/2-y,z
loop_
_atom_site_type_symbol
_atom_site_label
_atom_site_fract_x
_atom_site_fract_y
_atom_site_fract_z
Si Si1 0.259115 0.676696 0.828077
Si Si2 0.020217 0.676496 0.420953
Si Si3 0.452131 0.821835 0.078241
Si Si4 0.425927 0.325133 0.327866
Si Si5 0.550943 0.178738 0.182020
Si Si6 0.770623 0.673928 0.686867
O O1 0.280338 0.500000 0.826837
O O2 0.159700 0.721042 0.890103
O O3 0.339610 0.767356 0.845451
O O4 0.253954 0.721078 0.753649
O O5 0.000246 0.500000 0.417571
O O6 0.129830 0.718437 0.374304
O O7 0.000000 0.729920 0.500000
O O8 0.945983 0.765732 0.395189
O O9 0.503782 0.754707 0.128693
O O10 0.466710 0.000000 0.074755
O O11 0.500000 0.751296 0.000000
O O12 0.452294 0.500000 0.315920
O O13 0.494895 0.237478 0.260013
O O14 0.314420 0.295359 0.341748
O O15 0.547036 0.000000 0.184865
O O16 0.771480 0.500000 0.709779
#
# Coordination Sequence:
#
# PCOD8107136 Si02
#       6
#     8   8   8   8   8   8
#     4  11  21  35  59  88 114 149 196 238 281 340
#     4  10  22  40  60  84 117 157 194 233 288 347
#     4   9  20  38  58  83 118 155 191 234 287 345
#     4  11  22  36  58  87 116 149 194 242 287 336
#     4  11  21  36  59  85 114 152 193 237 291 342
#     4  10  21  37  58  84 117 152 189 237 286 336
#
# _framework density 19.071178
#
# number of rings (size 3 to 8) (size 9 to 14) (size 15 to 20)
#    0.000    1.667    3.333    1.500    0.000    2.333 
#    0.000    0.000    0.000    7.000    0.000    0.000 
#    0.000    0.000    0.000    0.000    0.000    0.000 
#
# Total GULP energy -297697.970722 kJ/mol
# GULP energy per Si atom -12404.082113 kJ/mol
# Density = 1.902777 g / cm^3
# Si number density = 19.071178 Si / 1000 Ang^3
#
#
#
# Elastic Constant Matrix: (Units=GPa)
#
#
# Indices 1 2 3 4 5 6 
#
# 1 87.9272 23.1150 14.0385 0.0000 11.4389 0.0000
# 2 23.1150 55.9911 19.3268 0.0000 3.8822 0.0000
# 3 14.0385 19.3268 94.4449 0.0000 2.4073 0.0000
# 4 0.0000 0.0000 0.0000 15.1784 0.0000 -0.6993
# 5 11.4389 3.8822 2.4073 0.0000 32.2659 0.0000
# 6 0.0000 0.0000 0.0000 -0.6993 0.0000 28.8152
#
#
#
# Elastic Compliance Matrix: (Units=1/GPa)
#
#
# Indices 1 2 3 4 5 6 
#
# 1 0.013336 -0.004923 -0.000871 0.000000 -0.004071 0.000000
# 2 -0.004923 0.021167 -0.003586 0.000000 -0.000534 0.000000
# 3 -0.000871 -0.003586 0.011454 0.000000 -0.000114 0.000000
# 4 0.000000 0.000000 0.000000 0.065957 0.000000 0.001601
# 5 -0.004071 -0.000534 -0.000114 0.000000 0.032508 0.000000
# 6 0.000000 0.000000 0.000000 0.001601 0.000000 0.034743
#
#
# Mechanical properties :
#
#
# Convention : Reuss Voigt Hill
#
# Bulk Modulus (GPa) = 36.76817 39.03600 37.90209
# Shear Modulus (GPa) = 24.15568 27.37744 25.76656
#
# Velocity S-wave (km/s) = 3.56280 3.79296 3.67968
# Velocity P-wave (km/s) = 6.02047 6.30041 6.16203
#
# Compressibility (1/GPa) = 0.02719743
#
# Stress axis : x y z
#
# Youngs Moduli (GPa) = 74.98634 47.24320 87.30217
#
# Poissons Ratio (x) = 0.23255 0.07606
# Poissons Ratio (y) = 0.36912 0.31309
# Poissons Ratio (z) = 0.06533 0.16943
#
# Static dielectric constant tensor:
#      x y z
#    x 3.796460 0.000000 0.027920 
#    y 0.000000 3.366020 0.000000 
#    z 0.027920 0.000000 3.570690 
# 
# 
# High freq. dielectric constant tensor:
#      x y z
#    x 1.759350 0.000000 0.000960 
#    y 0.000000 1.729620 0.000000 
#    z 0.000960 0.000000 1.737660 
# 
# From -- ./inp_files/308282.got.cif
#   From: 2010.06.25/outbox.cif.g09.slc.cpg/sg12_155_cif.got.tgz:308282.got - 2010.06.28 00:19:55.
