data_PCOD8107024
_publ_section_title
;
Structure prediction by ZEFSAII (Michael W. Deem and Ramdas Pophale) SiO2 
 PCOD8107024
Probable space group: C 2/M
;
_chemical_formula_sum "Si O2"
_cell_formula_units_Z 64
_cell_length_a 14.788492
_cell_length_b 8.552234
_cell_length_c 29.678188
_cell_angle_alpha 90.000000
_cell_angle_beta 119.246260
_cell_angle_gamma 90.000000
_cell_volume 3275.066860
_symmetry_space_group_name_H-M "C 2/M"
_symmetry_group_IT_number 12
_symmetry_cell_setting 'monoclinic'
loop_
_space_group_symop_operation_xyz
x,y,z
-x,y,-z
-x,-y,-z
x,-y,z
1/2+x,1/2+y,z
1/2-x,1/2+y,-z
1/2-x,1/2-y,-z
1/2+x,1/2-y,z
loop_
_atom_site_type_symbol
_atom_site_label
_atom_site_fract_x
_atom_site_fract_y
_atom_site_fract_z
Si Si1 0.882327 0.180991 0.760929
Si Si2 0.470658 0.183218 0.130566
Si Si3 0.228920 0.684566 0.864455
Si Si4 0.672360 0.682590 0.424870
Si Si5 0.400828 0.184748 0.503432
Si Si6 0.946570 0.681539 0.684793
Si Si7 0.827791 0.682553 0.246281
Si Si8 0.456633 0.314626 0.941422
O O1 0.942722 0.220355 0.821353
O O2 0.917432 0.293499 0.729627
O O3 0.761255 0.216355 0.739327
O O4 0.900340 0.000000 0.752731
O O5 0.357681 0.233062 0.120662
O O6 0.473853 0.230895 0.079309
O O7 0.490925 0.000000 0.142391
O O8 0.237668 0.500000 0.861627
O O9 0.199486 0.760064 0.808766
O O10 0.339223 0.748754 0.908243
O O11 0.670633 0.500000 0.433914
O O12 0.598323 0.762595 0.444185
O O13 0.791492 0.744331 0.455734
O O14 0.628955 0.719365 0.365089
O O15 0.500000 0.255061 0.500000
O O16 0.408371 0.000000 0.503403
O O17 0.935468 0.500000 0.669561
O O18 0.063916 0.745835 0.707230
O O19 0.843013 0.500000 0.240974
O O20 0.464693 0.500000 0.937149
O O21 0.500000 0.260794 0.000000
#
# Coordination Sequence:
#
# PCOD8107024 Si02
#       8
#     8   8   8   8   8   8   8   8
#     4  11  21  36  58  82 108 143 188 232 272 322
#     4  11  21  35  57  81 109 143 179 221 276 336
#     4   9  17  34  56  78 107 143 178 216 274 336
#     4  10  21  37  57  86 119 148 186 238 283 320
#     4   9  19  38  63  85 111 153 197 229 274 338
#     4  11  22  38  57  81 115 152 188 226 278 337
#     4   9  18  34  56  77 105 147 185 218 270 335
#     4  10  21  38  59  81 107 142 184 229 276 329
#
# _framework density 19.541587
#
# number of rings (size 3 to 8) (size 9 to 14) (size 15 to 20)
#    0.000    2.000    2.500    1.500    0.000    2.500 
#    0.000   10.000    0.000    0.000    0.000    0.000 
#    0.000    0.000    0.000    0.000    0.000    0.000 
#
# Total GULP energy -396824.824078 kJ/mol
# GULP energy per Si atom -12400.775752 kJ/mol
# Density = 1.949711 g / cm^3
# Si number density = 19.541587 Si / 1000 Ang^3
#
#
#
# Elastic Constant Matrix: (Units=GPa)
#
#
# Indices 1 2 3 4 5 6 
#
# 1 117.8191 23.4824 26.6990 0.0000 5.9617 0.0000
# 2 23.4824 25.0485 8.5856 0.0000 3.4093 0.0000
# 3 26.6990 8.5856 89.4373 0.0000 7.6603 0.0000
# 4 0.0000 0.0000 0.0000 27.8165 0.0000 -7.5652
# 5 5.9617 3.4093 7.6603 0.0000 28.4874 0.0000
# 6 0.0000 0.0000 0.0000 -7.5652 0.0000 24.9492
#
#
#
# Elastic Compliance Matrix: (Units=1/GPa)
#
#
# Indices 1 2 3 4 5 6 
#
# 1 0.010903 -0.009356 -0.002310 0.000000 -0.000541 0.000000
# 2 -0.009356 0.049752 -0.001679 0.000000 -0.003545 0.000000
# 3 -0.002310 -0.001679 0.012256 0.000000 -0.002611 0.000000
# 4 0.000000 0.000000 0.000000 0.039181 0.000000 0.011881
# 5 -0.000541 -0.003545 -0.002611 0.000000 0.036343 0.000000
# 6 0.000000 0.000000 0.000000 0.011881 0.000000 0.043684
#
#
# Mechanical properties :
#
#
# Convention : Reuss Voigt Hill
#
# Bulk Modulus (GPa) = 21.63618 38.87098 30.25358
# Shear Modulus (GPa) = 21.34781 27.81982 24.58382
#
# Velocity S-wave (km/s) = 3.30878 3.77718 3.55071
# Velocity P-wave (km/s) = 5.06885 6.24159 5.68554
#
# Compressibility (1/GPa) = 0.04621888
#
# Stress axis : x y z
#
# Youngs Moduli (GPa) = 91.71579 20.09983 81.59553
#
# Poissons Ratio (x) = 0.18805 0.18852
# Poissons Ratio (y) = 0.85809 0.13703
# Poissons Ratio (z) = 0.21190 0.03376
#
# Static dielectric constant tensor:
#      x y z
#    x 3.795400 0.000000 0.187350 
#    y 0.000000 3.244670 0.000000 
#    z 0.187350 0.000000 3.576900 
# 
# 
# High freq. dielectric constant tensor:
#      x y z
#    x 1.773160 0.000000 0.003080 
#    y 0.000000 1.735820 0.000000 
#    z 0.003080 0.000000 1.757700 
# 
# From -- ./inp_files/375094.got.cif
#   From: 2010.06.25/outbox.cif.g09.slc.cpg/sg12_188_cif.got.tgz:375094.got - 2010.06.28 00:19:55.
