data_PCOD8107790
_publ_section_title
;
Structure prediction by ZEFSAII (Michael W. Deem and Ramdas Pophale) SiO2 
 PCOD8107790
Probable space group: C 2/M
;
_chemical_formula_sum "Si O2"
_cell_formula_units_Z 48
_cell_length_a 25.058828
_cell_length_b 8.399624
_cell_length_c 19.857633
_cell_angle_alpha 90.000000
_cell_angle_beta 146.562888
_cell_angle_gamma 90.000000
_cell_volume 2303.119802
_symmetry_space_group_name_H-M "C 2/M"
_symmetry_group_IT_number 12
_symmetry_cell_setting 'monoclinic'
loop_
_space_group_symop_operation_xyz
x,y,z
-x,y,-z
-x,-y,-z
x,-y,z
1/2+x,1/2+y,z
1/2-x,1/2+y,-z
1/2-x,1/2-y,-z
1/2+x,1/2-y,z
loop_
_atom_site_type_symbol
_atom_site_label
_atom_site_fract_x
_atom_site_fract_y
_atom_site_fract_z
Si Si1 0.296828 0.310331 0.347160
Si Si2 0.507773 0.684785 0.195019
Si Si3 0.126618 0.818876 0.709579
Si Si4 0.453398 0.311155 0.615633
Si Si5 0.802501 0.681509 0.991051
Si Si6 0.918327 0.313304 0.863859
O O1 0.291211 0.500000 0.335147
O O2 0.358906 0.241436 0.349276
O O3 0.352585 0.261044 0.474356
O O4 0.187895 0.239325 0.232575
O O5 0.532732 0.500000 0.212546
O O6 0.545249 0.753680 0.306432
O O7 0.558982 0.781725 0.189983
O O8 0.393157 0.708739 0.069309
O O9 0.231048 0.808043 0.853295
O O10 0.043156 0.735817 0.667053
O O11 0.092891 0.000000 0.664370
O O12 0.467376 0.500000 0.634282
O O13 0.835616 0.500000 0.038656
O O14 0.750000 0.750000 0.000000
O O15 0.915048 0.500000 0.873134
O O16 0.000000 0.238122 0.000000
#
# Coordination Sequence:
#
# PCOD8107790 Si02
#       6
#     8   8   8   8   8   8
#     4   9  17  30  52  78 106 143 183 225 273 320
#     4  11  22  36  54  81 113 145 180 225 274 328
#     4   9  16  29  51  79 109 139 176 225 273 317
#     4   9  17  30  49  79 112 139 178 226 271 324
#     4  11  20  33  54  82 113 144 179 223 272 322
#     4  10  21  38  57  80 108 141 185 233 274 322
#
# _framework density 20.841296
#
# number of rings (size 3 to 8) (size 9 to 14) (size 15 to 20)
#    0.000    2.167    1.667    2.500    0.000    5.667 
#    0.000    0.000    0.000    1.000    0.000    1.167 
#    0.000    0.000    0.000    0.000    0.000    0.000 
#
# Total GULP energy -297508.828004 kJ/mol
# GULP energy per Si atom -12396.201167 kJ/mol
# Density = 2.079386 g / cm^3
# Si number density = 20.841296 Si / 1000 Ang^3
#
#
#
# Elastic Constant Matrix: (Units=GPa)
#
#
# Indices 1 2 3 4 5 6 
#
# 1 145.8159 -5.6095 67.4131 0.0000 -11.3884 0.0000
# 2 -5.6095 10.5598 9.8876 0.0000 -4.3578 0.0000
# 3 67.4131 9.8876 140.2827 0.0000 -5.4185 0.0000
# 4 0.0000 0.0000 0.0000 15.3415 0.0000 -1.2029
# 5 -11.3884 -4.3578 -5.4185 0.0000 35.7196 0.0000
# 6 0.0000 0.0000 0.0000 -1.2029 0.0000 25.5621
#
#
#
# Elastic Compliance Matrix: (Units=1/GPa)
#
#
# Indices 1 2 3 4 5 6 
#
# 1 0.010248 0.012345 -0.005643 0.000000 0.003917 0.000000
# 2 0.012345 0.121053 -0.013823 0.000000 0.016608 0.000000
# 3 -0.005643 -0.013823 0.010743 0.000000 -0.001856 0.000000
# 4 0.000000 0.000000 0.000000 0.065424 0.000000 0.003079
# 5 0.003917 0.016608 -0.001856 0.000000 0.030989 0.000000
# 6 0.000000 0.000000 0.000000 0.003079 0.000000 0.039265
#
#
# Mechanical properties :
#
#
# Convention : Reuss Voigt Hill
#
# Bulk Modulus (GPa) = 7.82469 48.89343 28.35906
# Shear Modulus (GPa) = 14.94469 30.32243 22.63356
#
# Velocity S-wave (km/s) = 2.68072 3.81848 3.29902
# Velocity P-wave (km/s) = 3.65298 6.55377 5.30548
#
# Compressibility (1/GPa) = 0.12780057
#
# Stress axis : x y z
#
# Youngs Moduli (GPa) = 97.58156 8.26082 93.08377
#
# Poissons Ratio (x) = -0.10198 0.52531
# Poissons Ratio (y) = -1.20460 1.28670
# Poissons Ratio (z) = 0.55069 0.11419
#
# Static dielectric constant tensor:
#      x y z
#    x 3.955330 0.000000 0.107440 
#    y 0.000000 3.181080 0.000000 
#    z 0.107440 0.000000 4.401150 
# 
# 
# High freq. dielectric constant tensor:
#      x y z
#    x 1.827200 0.000000 -0.006210 
#    y 0.000000 1.751880 0.000000 
#    z -0.006210 0.000000 1.827290 
# 
# From -- ./inp_files/327157.got.cif
#   From: 2010.06.25/outbox.cif.g09.slc.cpg/sg12_164_cif.got.tgz:327157.got - 2010.06.28 00:19:55.
