data_PCOD8107770
_publ_section_title
;
Structure prediction by ZEFSAII (Michael W. Deem and Ramdas Pophale) SiO2 
 PCOD8107770
Probable space group: C 2/M
;
_chemical_formula_sum "Si O2"
_cell_formula_units_Z 44
_cell_length_a 17.427010
_cell_length_b 26.667224
_cell_length_c 5.567709
_cell_angle_alpha 90.000000
_cell_angle_beta 56.974623
_cell_angle_gamma 90.000000
_cell_volume 2169.420018
_symmetry_space_group_name_H-M "C 2/M"
_symmetry_group_IT_number 12
_symmetry_cell_setting 'monoclinic'
loop_
_space_group_symop_operation_xyz
x,y,z
-x,y,-z
-x,-y,-z
x,-y,z
1/2+x,1/2+y,z
1/2-x,1/2+y,-z
1/2-x,1/2-y,-z
1/2+x,1/2-y,z
loop_
_atom_site_type_symbol
_atom_site_label
_atom_site_fract_x
_atom_site_fract_y
_atom_site_fract_z
Si Si1 0.624227 0.368043 0.146473
Si Si2 0.000000 0.909933 0.000000
Si Si3 0.809036 0.779243 0.701289
Si Si4 0.723549 0.857201 0.501482
Si Si5 0.056042 0.694621 0.657834
Si Si6 0.174178 0.056801 0.445051
O O1 0.618292 0.320526 0.329348
O O2 0.641664 0.421080 0.247487
O O3 0.527963 0.373736 0.172589
O O4 0.708109 0.354234 0.834494
O O5 0.088583 0.942569 0.777386
O O6 0.740206 0.808539 0.641711
O O7 0.874010 0.740673 0.455571
O O8 0.750000 0.750000 0.000000
O O9 0.619581 0.855250 0.577982
O O10 0.740424 0.909774 0.609848
O O11 0.000000 0.691595 0.500000
O O12 0.000000 0.699594 0.000000
O O13 0.207857 0.000000 0.353975
#
# Coordination Sequence:
#
# PCOD8107770 Si02
#       6
#     8   4   8   8   8   8
#     4  10  22  37  61  87 131 168 211 257 322 385
#     4  10  21  38  56  96 130 160 206 270 319 392
#     4  11  22  42  64  88 131 177 221 258 321 390
#     4  10  23  43  63  88 128 166 211 269 321 384
#     4  12  27  41  66  99 131 175 226 273 324 383
#     4  10  22  40  65  88 122 166 212 262 331 399
#
# _framework density 20.28192
#
# number of rings (size 3 to 8) (size 9 to 14) (size 15 to 20)
#    0.000    1.455    1.818    2.455    5.091    8.727 
#    6.545    0.000    0.000    1.091    0.000    0.000 
#    0.000    0.000    0.000    0.000    0.000    0.000 
#
# Total GULP energy -272646.694487 kJ/mol
# GULP energy per Si atom -12393.031568 kJ/mol
# Density = 2.023576 g / cm^3
# Si number density = 20.281920 Si / 1000 Ang^3
#
#
#
# Elastic Constant Matrix: (Units=GPa)
#
#
# Indices 1 2 3 4 5 6 
#
# 1 128.9566 74.4076 27.6307 0.0000 15.1727 0.0000
# 2 74.4076 136.4153 41.5827 0.0000 -2.9292 0.0000
# 3 27.6307 41.5827 87.6088 0.0000 5.7055 0.0000
# 4 0.0000 0.0000 0.0000 25.7711 0.0000 1.5036
# 5 15.1727 -2.9292 5.7055 0.0000 31.5000 0.0000
# 6 0.0000 0.0000 0.0000 1.5036 0.0000 10.0190
#
#
#
# Elastic Compliance Matrix: (Units=1/GPa)
#
#
# Indices 1 2 3 4 5 6 
#
# 1 0.012595 -0.006938 -0.000245 0.000000 -0.006668 0.000000
# 2 -0.006938 0.012469 -0.004071 0.000000 0.005239 0.000000
# 3 -0.000245 -0.004071 0.013601 0.000000 -0.002724 0.000000
# 4 0.000000 0.000000 0.000000 0.039146 0.000000 -0.005875
# 5 -0.006668 0.005239 -0.002724 0.000000 0.035938 0.000000
# 6 0.000000 0.000000 0.000000 -0.005875 0.000000 0.100692
#
#
# Mechanical properties :
#
#
# Convention : Reuss Voigt Hill
#
# Bulk Modulus (GPa) = 61.89531 71.13586 66.51559
# Shear Modulus (GPa) = 20.63259 27.41533 24.02396
#
# Velocity S-wave (km/s) = 3.19296 3.68055 3.44539
# Velocity P-wave (km/s) = 6.64658 7.29463 6.97813
#
# Compressibility (1/GPa) = 0.01615631
#
# Stress axis : x y z
#
# Youngs Moduli (GPa) = 79.39685 80.20172 73.52277
#
# Poissons Ratio (x) = 0.55648 0.01800
# Poissons Ratio (y) = 0.55089 0.29931
# Poissons Ratio (z) = 0.01944 0.32650
#
# Static dielectric constant tensor:
#      x y z
#    x 4.345920 0.000000 0.130590 
#    y 0.000000 3.592160 0.000000 
#    z 0.130590 0.000000 3.755810 
# 
# 
# High freq. dielectric constant tensor:
#      x y z
#    x 1.796340 0.000000 0.019760 
#    y 0.000000 1.774090 0.000000 
#    z 0.019760 0.000000 1.796970 
# 
# From -- ./inp_files/12124.got.cif
#   From: 2010.06.25/outbox.cif.g09.slc.cpg/sg12_7_cif.got.tgz:12124.got - 2010.06.28 00:19:55.
