data_PCOD8107257
_publ_section_title
;
Structure prediction by ZEFSAII (Michael W. Deem and Ramdas Pophale) SiO2 
 PCOD8107257
Probable space group: C 2/M
;
_chemical_formula_sum "Si O2"
_cell_formula_units_Z 56
_cell_length_a 24.779148
_cell_length_b 8.834864
_cell_length_c 15.935635
_cell_angle_alpha 90.000000
_cell_angle_beta 56.383880
_cell_angle_gamma 90.000000
_cell_volume 2905.215439
_symmetry_space_group_name_H-M "C 2/M"
_symmetry_group_IT_number 12
_symmetry_cell_setting 'monoclinic'
loop_
_space_group_symop_operation_xyz
x,y,z
-x,y,-z
-x,-y,-z
x,-y,z
1/2+x,1/2+y,z
1/2-x,1/2+y,-z
1/2-x,1/2-y,-z
1/2+x,1/2-y,z
loop_
_atom_site_type_symbol
_atom_site_label
_atom_site_fract_x
_atom_site_fract_y
_atom_site_fract_z
Si Si1 0.605283 0.325200 0.410753
Si Si2 0.501784 0.675150 0.361748
Si Si3 0.264773 0.177375 0.738723
Si Si4 0.409779 0.674416 0.990979
Si Si5 0.519532 0.176673 0.794412
Si Si6 0.720219 0.178226 0.943981
Si Si7 0.871340 0.827424 0.212014
O O1 0.626006 0.500000 0.392487
O O2 0.561359 0.288590 0.528807
O O3 0.565958 0.286461 0.359883
O O4 0.668821 0.221847 0.364210
O O5 0.502198 0.500000 0.334013
O O6 0.501475 0.780916 0.281185
O O7 0.260923 0.265410 0.829342
O O8 0.203869 0.221893 0.732121
O O9 0.262009 0.000000 0.760964
O O10 0.398956 0.500000 0.975424
O O11 0.478069 0.731369 0.897991
O O12 0.354360 0.773882 0.995869
O O13 0.408006 0.694548 0.092244
O O14 0.594339 0.222263 0.747814
O O15 0.509318 0.000000 0.816540
O O16 0.725666 0.000000 0.944630
O O17 0.750000 0.250000 0.000000
O O18 0.876302 0.000000 0.238641
#
# Coordination Sequence:
#
# PCOD8107257 Si02
#       7
#     8   8   8   8   8   8   8
#     4   9  19  38  63  86 109 145 189 233 284 340
#     4   9  20  39  60  83 113 147 187 233 283 340
#     4  10  21  37  59  84 113 149 185 229 287 341
#     4  10  21  38  58  80 111 152 191 231 283 335
#     4  12  24  35  55  86 116 148 190 238 283 331
#     4  11  22  36  54  80 115 150 189 233 275 329
#     4   9  20  39  58  79 110 152 193 229 279 339
#
# _framework density 19.275679
#
# number of rings (size 3 to 8) (size 9 to 14) (size 15 to 20)
#    0.000    2.000    0.000    5.571    2.000    6.286 
#    0.000    2.143    0.000    0.000    0.000    0.000 
#    0.000    0.000    0.000    0.000    0.000    0.000 
#
# Total GULP energy -347292.304913 kJ/mol
# GULP energy per Si atom -12403.296604 kJ/mol
# Density = 1.923181 g / cm^3
# Si number density = 19.275679 Si / 1000 Ang^3
#
#
#
# Elastic Constant Matrix: (Units=GPa)
#
#
# Indices 1 2 3 4 5 6 
#
# 1 76.2685 26.2636 36.2577 0.0000 -11.8677 0.0000
# 2 26.2636 95.6852 27.8036 0.0000 -3.7279 0.0002
# 3 36.2577 27.8036 52.2902 0.0000 -13.9216 0.0000
# 4 0.0000 0.0000 0.0000 31.5088 0.0000 -3.8268
# 5 -11.8677 -3.7279 -13.9216 0.0000 28.2715 0.0000
# 6 0.0000 0.0002 0.0000 -3.8268 0.0000 31.4917
#
#
#
# Elastic Compliance Matrix: (Units=1/GPa)
#
#
# Indices 1 2 3 4 5 6 
#
# 1 0.019896 -0.001812 -0.012283 0.000000 0.002065 0.000000
# 2 -0.001812 0.012610 -0.005995 0.000000 -0.002050 0.000000
# 3 -0.012283 -0.005995 0.033658 0.000000 0.010627 0.000000
# 4 0.000000 0.000000 0.000000 0.032213 0.000000 0.003914
# 5 0.002065 -0.002050 0.010627 0.000000 0.041201 0.000000
# 6 0.000000 0.000000 0.000000 0.003914 0.000000 0.032230
#
#
# Mechanical properties :
#
#
# Convention : Reuss Voigt Hill
#
# Bulk Modulus (GPa) = 38.48237 44.98817 41.73527
# Shear Modulus (GPa) = 22.66063 27.18232 24.92147
#
# Velocity S-wave (km/s) = 3.43243 3.75932 3.59959
# Velocity P-wave (km/s) = 5.97632 6.49872 6.24298
#
# Compressibility (1/GPa) = 0.02598592
#
# Stress axis : x y z
#
# Youngs Moduli (GPa) = 50.26187 79.30090 29.71093
#
# Poissons Ratio (x) = 0.14365 0.36493
# Poissons Ratio (y) = 0.09105 0.17811
# Poissons Ratio (z) = 0.61735 0.47538
#
# Static dielectric constant tensor:
#      x y z
#    x 2.964860 0.000000 0.133640 
#    y 0.000000 3.543460 0.000000 
#    z 0.133640 0.000000 3.229670 
# 
# 
# High freq. dielectric constant tensor:
#      x y z
#    x 1.759800 0.000000 -0.006000 
#    y 0.000000 1.750740 0.000000 
#    z -0.006000 0.000000 1.733710 
# 
# From -- ./inp_files/238375.got.cif
#   From: 2010.06.25/outbox.cif.g09.slc.cpg/sg12_120_cif.got.tgz:238375.got - 2010.06.28 00:19:55.
