data_PCOD8107964
_publ_section_title
;
Structure prediction by ZEFSAII (Michael W. Deem and Ramdas Pophale) SiO2 
 PCOD8107964
Probable space group: C 2/M
;
_chemical_formula_sum "Si O2"
_cell_formula_units_Z 48
_cell_length_a 15.146328
_cell_length_b 8.593139
_cell_length_c 19.100346
_cell_angle_alpha 90.000000
_cell_angle_beta 89.235824
_cell_angle_gamma 90.000000
_cell_volume 2485.774910
_symmetry_space_group_name_H-M "C 2/M"
_symmetry_group_IT_number 12
_symmetry_cell_setting 'monoclinic'
loop_
_space_group_symop_operation_xyz
x,y,z
-x,y,-z
-x,-y,-z
x,-y,z
1/2+x,1/2+y,z
1/2-x,1/2+y,-z
1/2-x,1/2-y,-z
1/2+x,1/2-y,z
loop_
_atom_site_type_symbol
_atom_site_label
_atom_site_fract_x
_atom_site_fract_y
_atom_site_fract_z
Si Si1 0.590755 0.184293 0.327245
Si Si2 0.391763 0.817809 0.326021
Si Si3 0.653006 0.317175 0.822122
Si Si4 0.992525 0.316381 0.080645
Si Si5 0.743435 0.817579 0.423486
Si Si6 0.147998 0.683798 0.177028
O O1 0.490909 0.231387 0.346424
O O2 0.656135 0.250814 0.386184
O O3 0.619327 0.256333 0.252073
O O4 0.600649 0.000000 0.322653
O O5 0.377092 0.777249 0.245457
O O6 0.328684 0.721998 0.377055
O O7 0.375570 0.000000 0.337529
O O8 0.648179 0.500000 0.805530
O O9 0.591443 0.273037 0.887540
O O10 0.752241 0.265657 0.841837
O O11 0.978383 0.500000 0.090973
O O12 0.081362 0.255781 0.117960
O O13 0.000000 0.269558 0.000000
O O14 0.750000 0.750000 0.500000
O O15 0.735441 0.000000 0.430679
O O16 0.140652 0.500000 0.181178
#
# Coordination Sequence:
#
# PCOD8107964 Si02
#       6
#     8   8   8   8   8   8
#     4   9  18  35  60  82 111 152 190 224 279 348
#     4  11  21  37  62  88 112 148 195 237 275 333
#     4  11  21  35  58  85 115 151 189 234 285 339
#     4  10  21  38  59  83 114 151 192 236 281 335
#     4  11  23  41  60  85 118 152 187 232 287 338
#     4   9  17  34  57  82 112 151 187 225 284 345
#
# _framework density 19.309873
#
# number of rings (size 3 to 8) (size 9 to 14) (size 15 to 20)
#    0.000    1.833    3.333    1.500    0.000    1.667 
#    0.000   10.000    0.000    0.000    0.000    0.000 
#    0.000    0.000    0.000    0.000    0.000    0.000 
#
# Total GULP energy -297626.632659 kJ/mol
# GULP energy per Si atom -12401.109694 kJ/mol
# Density = 1.926592 g / cm^3
# Si number density = 19.309873 Si / 1000 Ang^3
#
#
#
# Elastic Constant Matrix: (Units=GPa)
#
#
# Indices 1 2 3 4 5 6 
#
# 1 153.4850 19.7400 61.2462 0.0000 19.0525 0.0000
# 2 19.7400 30.2462 13.6743 0.0000 5.1552 0.0000
# 3 61.2462 13.6743 133.7309 0.0000 18.6350 0.0000
# 4 0.0000 0.0000 0.0000 28.4459 0.0000 -7.0621
# 5 19.0525 5.1552 18.6350 0.0000 34.0607 0.0000
# 6 0.0000 0.0000 0.0000 -7.0621 0.0000 27.0691
#
#
#
# Elastic Compliance Matrix: (Units=1/GPa)
#
#
# Indices 1 2 3 4 5 6 
#
# 1 0.008581 -0.003729 -0.003203 0.000000 -0.002483 0.000000
# 2 -0.003729 0.036693 -0.001690 0.000000 -0.002543 0.000000
# 3 -0.003203 -0.001690 0.009561 0.000000 -0.003184 0.000000
# 4 0.000000 0.000000 0.000000 0.037589 0.000000 0.009807
# 5 -0.002483 -0.002543 -0.003184 0.000000 0.032875 0.000000
# 6 0.000000 0.000000 0.000000 0.009807 0.000000 0.039501
#
#
# Mechanical properties :
#
#
# Convention : Reuss Voigt Hill
#
# Bulk Modulus (GPa) = 26.60130 56.30925 41.45528
# Shear Modulus (GPa) = 25.69711 32.76857 29.23284
#
# Velocity S-wave (km/s) = 3.65194 4.12392 3.89508
# Velocity P-wave (km/s) = 5.62033 7.20415 6.46095
#
# Compressibility (1/GPa) = 0.03759214
#
# Stress axis : x y z
#
# Youngs Moduli (GPa) = 116.53436 27.25300 104.59316
#
# Poissons Ratio (x) = 0.10163 0.33497
# Poissons Ratio (y) = 0.43458 0.17673
# Poissons Ratio (z) = 0.37322 0.04605
#
# Static dielectric constant tensor:
#      x y z
#    x 3.630970 0.000000 0.294580 
#    y 0.000000 3.253980 0.000000 
#    z 0.294580 0.000000 3.583250 
# 
# 
# High freq. dielectric constant tensor:
#      x y z
#    x 1.770620 0.000000 0.003200 
#    y 0.000000 1.723890 0.000000 
#    z 0.003200 0.000000 1.751100 
# 
# From -- ./inp_files/267604.got.cif
#   From: 2010.06.25/outbox.cif.g09.slc.cpg/sg12_134_cif.got.tgz:267604.got - 2010.06.28 00:19:55.
