data_PCOD8107035
_publ_section_title
;
Structure prediction by ZEFSAII (Michael W. Deem and Ramdas Pophale) SiO2 
 PCOD8107035
Probable space group: C 2/M
;
_chemical_formula_sum "Si O2"
_cell_formula_units_Z 64
_cell_length_a 10.044427
_cell_length_b 17.356467
_cell_length_c 31.031317
_cell_angle_alpha 90.000000
_cell_angle_beta 144.663017
_cell_angle_gamma 90.000000
_cell_volume 3128.982957
_symmetry_space_group_name_H-M "C 2/M"
_symmetry_group_IT_number 12
_symmetry_cell_setting 'monoclinic'
loop_
_space_group_symop_operation_xyz
x,y,z
-x,y,-z
-x,-y,-z
x,-y,z
1/2+x,1/2+y,z
1/2-x,1/2+y,-z
1/2-x,1/2-y,-z
1/2+x,1/2-y,z
loop_
_atom_site_type_symbol
_atom_site_label
_atom_site_fract_x
_atom_site_fract_y
_atom_site_fract_z
Si Si1 0.514091 0.301012 0.633889
Si Si2 0.893393 0.408832 0.273491
Si Si3 0.595487 0.686521 0.249766
Si Si4 0.985518 0.585882 0.133924
Si Si5 0.011865 0.086121 0.705965
Si Si6 0.640374 0.322488 0.993175
Si Si7 0.681502 0.679586 0.581679
Si Si8 0.814154 0.674083 0.167236
O O1 0.720649 0.253401 0.709128
O O2 0.532494 0.384757 0.662144
O O3 0.545976 0.308050 0.590980
O O4 0.276317 0.259194 0.585291
O O5 0.885636 0.500000 0.268565
O O6 0.648082 0.377964 0.227363
O O7 0.930827 0.371772 0.236837
O O8 0.110180 0.381525 0.359262
O O9 0.643909 0.646941 0.308997
O O10 0.350423 0.732303 0.181651
O O11 0.895479 0.500000 0.121787
O O12 0.841086 0.613958 0.053794
O O13 0.945530 0.648230 0.159712
O O14 0.261262 0.583833 0.203082
O O15 0.906809 0.000000 0.676288
O O16 0.500000 0.302424 0.000000
O O17 0.750000 0.250000 0.000000
O O18 0.453156 0.350107 0.908336
O O19 0.500000 0.644027 0.500000
#
# Coordination Sequence:
#
# PCOD8107035 Si02
#       8
#     8   8   8   8   8   8   8   8
#     4  11  20  39  63  92 119 157 203 248 295 357
#     4  11  24  39  61  91 124 156 198 252 306 355
#     4  11  20  37  61  89 120 157 203 249 298 355
#     4  10  21  37  57  87 121 155 198 253 310 354
#     4  11  21  36  62  89 123 161 202 250 301 360
#     4  10  23  36  58  85 115 156 199 247 296 353
#     4  11  23  39  64  92 123 160 201 247 301 363
#     4  11  21  36  63  84 116 153 206 248 293 356
#
# _framework density 20.453931999999998
#
# number of rings (size 3 to 8) (size 9 to 14) (size 15 to 20)
#    0.000    1.250    3.750    2.625    3.500    4.500 
#    0.000    0.000    0.000    0.750    0.000    0.000 
#    0.000    0.000    0.000    0.000    0.000    0.000 
#
# Total GULP energy -396486.691945 kJ/mol
# GULP energy per Si atom -12390.209123 kJ/mol
# Density = 2.040738 g / cm^3
# Si number density = 20.453932 Si / 1000 Ang^3
#
#
#
# Elastic Constant Matrix: (Units=GPa)
#
#
# Indices 1 2 3 4 5 6 
#
# 1 68.5718 40.0309 15.3611 0.0001 -14.3936 0.0000
# 2 40.0309 135.7415 31.9272 0.0001 -9.6248 0.0000
# 3 15.3611 31.9272 107.1413 0.0002 -7.9330 0.0001
# 4 0.0001 0.0001 0.0002 21.8006 0.0001 -2.9925
# 5 -14.3936 -9.6248 -7.9330 0.0001 14.3057 0.0000
# 6 0.0000 0.0000 0.0001 -2.9925 0.0000 26.0342
#
#
#
# Elastic Compliance Matrix: (Units=1/GPa)
#
#
# Indices 1 2 3 4 5 6 
#
# 1 0.021298 -0.004949 -0.000249 0.000000 0.017962 0.000000
# 2 -0.004949 0.009321 -0.002057 0.000000 0.000151 0.000000
# 3 -0.000249 -0.002057 0.010283 0.000000 0.004068 0.000000
# 4 0.000000 0.000000 0.000000 0.046606 -0.000001 0.005357
# 5 0.017962 0.000151 0.004068 -0.000001 0.090332 0.000000
# 6 0.000000 0.000000 0.000000 0.005357 0.000000 0.039027
#
#
# Mechanical properties :
#
#
# Convention : Reuss Voigt Hill
#
# Bulk Modulus (GPa) = 37.88851 54.01032 45.94942
# Shear Modulus (GPa) = 20.81826 27.37045 24.09436
#
# Velocity S-wave (km/s) = 3.19378 3.66204 3.43590
# Velocity P-wave (km/s) = 5.67136 6.65912 6.18499
#
# Compressibility (1/GPa) = 0.02639323
#
# Stress axis : x y z
#
# Youngs Moduli (GPa) = 46.95217 107.28601 97.24508
#
# Poissons Ratio (x) = 0.53094 0.02421
# Poissons Ratio (y) = 0.23236 0.20002
# Poissons Ratio (z) = 0.01169 0.22067
#
# Static dielectric constant tensor:
#      x y z
#    x 3.724590 0.000000 0.147710 
#    y 0.000000 3.809280 0.000010 
#    z 0.147710 0.000010 4.183700 
# 
# 
# High freq. dielectric constant tensor:
#      x y z
#    x 1.795760 0.000000 -0.000120 
#    y 0.000000 1.792920 0.000000 
#    z -0.000120 0.000000 1.788240 
# 
# From -- ./inp_files/372985.got.cif
#   From: 2010.06.25/outbox.cif.g09.slc.cpg/sg12_187_cif.got.tgz:372985.got - 2010.06.28 00:19:55.
