data_PCOD8107932
_publ_section_title
;
Structure prediction by ZEFSAII (Michael W. Deem and Ramdas Pophale) SiO2 
 PCOD8107932
Probable space group: C 2/M
;
_chemical_formula_sum "Si O2"
_cell_formula_units_Z 64
_cell_length_a 9.823664
_cell_length_b 26.741728
_cell_length_c 14.906967
_cell_angle_alpha 90.000000
_cell_angle_beta 67.881959
_cell_angle_gamma 90.000000
_cell_volume 3627.902010
_symmetry_space_group_name_H-M "C 2/M"
_symmetry_group_IT_number 12
_symmetry_cell_setting 'monoclinic'
loop_
_space_group_symop_operation_xyz
x,y,z
-x,y,-z
-x,-y,-z
x,-y,z
1/2+x,1/2+y,z
1/2-x,1/2+y,-z
1/2-x,1/2-y,-z
1/2+x,1/2-y,z
loop_
_atom_site_type_symbol
_atom_site_label
_atom_site_fract_x
_atom_site_fract_y
_atom_site_fract_z
Si Si1 0.349475 0.058058 0.500406
Si Si2 0.307310 0.941044 0.313007
Si Si3 0.910245 0.702775 0.886475
Si Si4 0.174089 0.058678 0.717458
Si Si5 0.846160 0.557764 0.005584
Si Si6 0.223923 0.297315 0.889506
Si Si7 0.614618 0.900998 0.186797
Si Si8 0.638380 0.399135 0.200389
O O1 0.500000 0.083089 0.500000
O O2 0.306958 0.081168 0.414322
O O3 0.217486 0.066078 0.602831
O O4 0.382482 0.000000 0.475335
O O5 0.456022 0.927063 0.224268
O O6 0.173536 0.915559 0.293236
O O7 0.282604 0.000000 0.317585
O O8 0.831827 0.750220 0.862085
O O9 0.901527 0.658912 0.814749
O O10 0.080230 0.715166 0.865950
O O11 0.824435 0.686985 0.998329
O O12 0.304583 0.080990 0.744363
O O13 0.033056 0.091999 0.774038
O O14 0.149215 0.000000 0.745228
O O15 0.871615 0.500000 0.982149
O O16 0.796908 0.581681 0.923492
O O17 0.722405 0.565532 0.110020
O O18 0.000000 0.583034 0.000000
O O19 0.318533 0.341792 0.823835
#
# Coordination Sequence:
#
# PCOD8107932 Si02
#       8
#     8   8   8   8   8   8   8   8
#     4   9  18  35  57  81 110 149 193 238 278 328
#     4  11  20  34  60  85 111 151 195 230 275 341
#     4  10  21  38  59  81 107 146 195 241 281 329
#     4  11  24  38  54  84 123 152 189 239 284 330
#     4  11  20  32  52  77 113 155 190 218 263 336
#     4  10  21  39  58  80 110 146 191 243 282 328
#     4  12  21  35  57  83 111 154 195 227 276 341
#     4  12  23  37  54  83 119 152 187 235 284 333
#
# _framework density 17.641051000000001
#
# number of rings (size 3 to 8) (size 9 to 14) (size 15 to 20)
#    0.000    1.250    5.000    2.250    1.750    1.000 
#    0.000    3.125    0.000    0.000    0.000    5.250 
#    0.000    0.000    0.000    0.000    0.000    0.000 
#
# Total GULP energy -396873.734523 kJ/mol
# GULP energy per Si atom -12402.304204 kJ/mol
# Density = 1.760090 g / cm^3
# Si number density = 17.641051 Si / 1000 Ang^3
#
#
#
# Elastic Constant Matrix: (Units=GPa)
#
#
# Indices 1 2 3 4 5 6 
#
# 1 68.9884 36.6810 13.9963 0.0000 -2.9894 0.0000
# 2 36.6810 95.0990 29.8289 0.0000 6.7067 0.0000
# 3 13.9963 29.8289 76.3232 0.0000 12.7826 0.0000
# 4 0.0000 0.0000 0.0000 12.3530 0.0000 3.9676
# 5 -2.9894 6.7067 12.7826 0.0000 27.0032 0.0000
# 6 0.0000 0.0000 0.0000 3.9676 0.0000 28.6814
#
#
#
# Elastic Compliance Matrix: (Units=1/GPa)
#
#
# Indices 1 2 3 4 5 6 
#
# 1 0.018758 -0.007109 -0.001417 0.000000 0.004513 0.000000
# 2 -0.007109 0.014696 -0.004015 0.000000 -0.002536 0.000000
# 3 -0.001417 -0.004015 0.016064 0.000000 -0.006764 0.000000
# 4 0.000000 0.000000 0.000000 0.084716 0.000000 -0.011719
# 5 0.004513 -0.002536 -0.006764 0.000000 0.041364 0.000000
# 6 0.000000 0.000000 0.000000 -0.011719 0.000000 0.036487
#
#
# Mechanical properties :
#
#
# Convention : Reuss Voigt Hill
#
# Bulk Modulus (GPa) = 40.92468 44.60258 42.76363
# Shear Modulus (GPa) = 20.38218 24.26781 22.32500
#
# Velocity S-wave (km/s) = 3.40278 3.71299 3.56127
# Velocity P-wave (km/s) = 6.21993 6.61211 6.41902
#
# Compressibility (1/GPa) = 0.02443513
#
# Stress axis : x y z
#
# Youngs Moduli (GPa) = 53.31018 68.04765 62.25062
#
# Poissons Ratio (x) = 0.48375 0.08824
# Poissons Ratio (y) = 0.37898 0.24993
# Poissons Ratio (z) = 0.07556 0.27321
#
# Static dielectric constant tensor:
#      x y z
#    x 3.295440 0.000000 0.141970 
#    y 0.000000 3.083880 0.000000 
#    z 0.141970 0.000000 3.267590 
# 
# 
# High freq. dielectric constant tensor:
#      x y z
#    x 1.683750 0.000000 0.009070 
#    y 0.000000 1.661580 0.000000 
#    z 0.009070 0.000000 1.674230 
# 
# From -- ./inp_files/199817.got.cif
#   From: 2010.06.25/outbox.cif.g09.slc.cpg/sg12_100_cif.got.tgz:199817.got - 2010.06.28 00:19:55.
