data_PCOD8107509
_publ_section_title
;
Structure prediction by ZEFSAII (Michael W. Deem and Ramdas Pophale) SiO2 
 PCOD8107509
Probable space group: C 2/M
;
_chemical_formula_sum "Si O2"
_cell_formula_units_Z 60
_cell_length_a 17.920444
_cell_length_b 19.710911
_cell_length_c 12.437544
_cell_angle_alpha 90.000000
_cell_angle_beta 39.980033
_cell_angle_gamma 90.000000
_cell_volume 2822.780815
_symmetry_space_group_name_H-M "C 2/M"
_symmetry_group_IT_number 12
_symmetry_cell_setting 'monoclinic'
loop_
_space_group_symop_operation_xyz
x,y,z
-x,y,-z
-x,-y,-z
x,-y,z
1/2+x,1/2+y,z
1/2-x,1/2+y,-z
1/2-x,1/2-y,-z
1/2+x,1/2-y,z
loop_
_atom_site_type_symbol
_atom_site_label
_atom_site_fract_x
_atom_site_fract_y
_atom_site_fract_z
Si Si1 0.397916 0.076446 0.447843
Si Si2 0.776664 0.352184 0.415333
Si Si3 0.235911 0.077575 0.813053
Si Si4 0.000000 0.208204 0.500000
Si Si5 0.640304 0.077514 0.103192
Si Si6 0.401609 0.291790 0.025145
Si Si7 0.248213 0.664620 0.794789
Si Si8 0.561976 0.738002 0.661982
O O1 0.300853 0.080912 0.459834
O O2 0.342686 0.103567 0.620202
O O3 0.519016 0.111605 0.277111
O O4 0.434715 0.000000 0.428923
O O5 0.798204 0.366812 0.266206
O O6 0.645839 0.327285 0.576095
O O7 0.870653 0.300833 0.362401
O O8 0.269358 0.080718 0.900044
O O9 0.130668 0.130226 0.913745
O O10 0.199481 0.000000 0.821493
O O11 0.111947 0.160819 0.350744
O O12 0.028024 0.253348 0.575015
O O13 0.624502 0.000000 0.080095
O O14 0.688327 0.122462 0.954007
O O15 0.289204 0.243801 0.162287
O O16 0.500000 0.268448 0.000000
O O17 0.447011 0.281852 0.853992
#
# Coordination Sequence:
#
# PCOD8107509 Si02
#       8
#     8   8   8   4   8   8   8   8
#     4  10  21  37  60  90 123 161 207 251 307 377
#     4  10  21  39  59  84 124 163 198 251 312 364
#     4  10  23  41  60  89 128 167 209 256 313 374
#     4  10  24  40  59  88 125 158 210 250 310 374
#     4  10  22  41  65  92 126 164 208 262 314 366
#     4  12  23  39  64  92 125 164 211 263 311 367
#     4  11  24  42  62  94 127 163 209 264 307 375
#     4  10  21  38  59  86 120 159 204 251 303 369
#
# _framework density 21.255635999999999
#
# number of rings (size 3 to 8) (size 9 to 14) (size 15 to 20)
#    0.000    1.600    1.333    2.800    3.733    5.600 
#    0.000    2.333    0.000    1.600    0.000    0.000 
#    0.000    0.000    0.000    0.000    0.000    0.000 
#
# Total GULP energy -371894.229047 kJ/mol
# GULP energy per Si atom -12396.474302 kJ/mol
# Density = 2.120726 g / cm^3
# Si number density = 21.255636 Si / 1000 Ang^3
#
#
#
# Elastic Constant Matrix: (Units=GPa)
#
#
# Indices 1 2 3 4 5 6 
#
# 1 100.4845 22.5364 42.1319 0.0001 11.1577 -0.0001
# 2 22.5364 60.6587 33.3445 0.0000 0.4150 0.0000
# 3 42.1319 33.3445 119.1069 0.0001 12.4367 -0.0001
# 4 0.0001 0.0000 0.0001 30.5686 -0.0001 0.6723
# 5 11.1577 0.4150 12.4367 -0.0001 40.0889 0.0001
# 6 -0.0001 0.0000 -0.0001 0.6723 0.0001 28.6622
#
#
#
# Elastic Compliance Matrix: (Units=1/GPa)
#
#
# Indices 1 2 3 4 5 6 
#
# 1 0.012208 -0.002695 -0.003320 0.000000 -0.002340 0.000000
# 2 -0.002695 0.020171 -0.004909 0.000000 0.002064 0.000000
# 3 -0.003320 -0.004909 0.011206 0.000000 -0.002502 0.000000
# 4 0.000000 0.000000 0.000000 0.032730 0.000000 -0.000768
# 5 -0.002340 0.002064 -0.002502 0.000000 0.026351 0.000000
# 6 0.000000 0.000000 0.000000 -0.000768 0.000000 0.034907
#
#
# Mechanical properties :
#
#
# Convention : Reuss Voigt Hill
#
# Bulk Modulus (GPa) = 46.00340 52.91953 49.46146
# Shear Modulus (GPa) = 30.00010 32.01311 31.00661
#
# Velocity S-wave (km/s) = 3.76093 3.88506 3.82350
# Velocity P-wave (km/s) = 6.36784 6.71384 6.54313
#
# Compressibility (1/GPa) = 0.02173753
#
# Stress axis : x y z
#
# Youngs Moduli (GPa) = 81.91466 49.57492 89.24060
#
# Poissons Ratio (x) = 0.13359 0.29624
# Poissons Ratio (y) = 0.22074 0.43812
# Poissons Ratio (z) = 0.27192 0.24338
#
# Static dielectric constant tensor:
#      x y z
#    x 3.943340 0.000000 0.108130 
#    y 0.000000 3.742680 0.000000 
#    z 0.108130 0.000000 4.018240 
# 
# 
# High freq. dielectric constant tensor:
#      x y z
#    x 1.835920 0.000000 0.009630 
#    y 0.000000 1.809710 0.000000 
#    z 0.009630 0.000000 1.847920 
# 
# From -- ./inp_files/159730.got.cif
#   From: 2010.06.25/outbox.cif.g09.slc.cpg/sg12_80_cif.got.tgz:159730.got - 2010.06.28 00:19:55.
