data_PCOD8107904
_publ_section_title
;
Structure prediction by ZEFSAII (Michael W. Deem and Ramdas Pophale) SiO2 
 PCOD8107904
Probable space group: C 2/M
;
_chemical_formula_sum "Si O2"
_cell_formula_units_Z 56
_cell_length_a 17.810627
_cell_length_b 18.282367
_cell_length_c 8.811720
_cell_angle_alpha 90.000000
_cell_angle_beta 124.923301
_cell_angle_gamma 90.000000
_cell_volume 2352.574245
_symmetry_space_group_name_H-M "C 2/M"
_symmetry_group_IT_number 12
_symmetry_cell_setting 'monoclinic'
loop_
_space_group_symop_operation_xyz
x,y,z
-x,y,-z
-x,-y,-z
x,-y,z
1/2+x,1/2+y,z
1/2-x,1/2+y,-z
1/2-x,1/2-y,-z
1/2+x,1/2-y,z
loop_
_atom_site_type_symbol
_atom_site_label
_atom_site_fract_x
_atom_site_fract_y
_atom_site_fract_z
Si Si1 0.591558 0.913643 0.701877
Si Si2 0.448834 0.683570 0.592867
Si Si3 0.629696 0.581759 0.262037
Si Si4 0.681633 0.082471 0.344742
Si Si5 0.268406 0.680854 0.215523
Si Si6 0.508935 0.171642 0.188382
Si Si7 0.782123 0.840626 0.896234
O O1 0.500000 0.894378 0.500000
O O2 0.574603 0.879383 0.849677
O O3 0.682320 0.874762 0.740613
O O4 0.609432 0.000000 0.729373
O O5 0.500000 0.656625 0.500000
O O6 0.444272 0.619705 0.713403
O O7 0.346242 0.703160 0.424801
O O8 0.496659 0.753392 0.723607
O O9 0.594123 0.500000 0.193823
O O10 0.730451 0.582830 0.447865
O O11 0.637583 0.622213 0.109073
O O12 0.704145 0.117931 0.208753
O O13 0.602664 0.128886 0.335086
O O14 0.645899 0.000000 0.277326
O O15 0.209883 0.754164 0.125412
O O16 0.307433 0.648574 0.102597
O O17 0.500000 0.186748 0.000000
#
# Coordination Sequence:
#
# PCOD8107904 Si02
#       7
#     8   8   8   8   8   8   8
#     4  11  23  38  60  93 135 177 206 239 299 367
#     4  11  24  43  64  85 118 157 203 258 318 377
#     4  10  22  40  64  90 117 156 203 252 306 360
#     4  10  21  38  58  86 126 165 201 242 293 360
#     4  10  22  38  61  89 119 165 208 250 307 362
#     4  12  24  37  60  92 125 163 206 252 304 365
#     4  11  21  37  61  91 125 158 208 258 295 354
#
# _framework density 23.803712999999998
#
# number of rings (size 3 to 8) (size 9 to 14) (size 15 to 20)
#    0.000    1.286    0.000    6.429    0.000   11.714 
#    0.000    0.000    0.000    3.000    0.000    0.000 
#    0.000    0.000    0.000    0.000    0.000    0.000 
#
# Total GULP energy -347242.435937 kJ/mol
# GULP energy per Si atom -12401.515569 kJ/mol
# Density = 2.374953 g / cm^3
# Si number density = 23.803713 Si / 1000 Ang^3
#
#
#
# Elastic Constant Matrix: (Units=GPa)
#
#
# Indices 1 2 3 4 5 6 
#
# 1 98.5275 45.3684 15.8412 0.0000 -42.2139 0.0000
# 2 45.3684 140.2116 33.3089 0.0000 -33.0279 0.0000
# 3 15.8412 33.3089 72.6232 0.0000 -20.2762 0.0000
# 4 0.0000 0.0000 0.0000 16.9696 0.0000 -11.0093
# 5 -42.2139 -33.0279 -20.2762 0.0000 51.1030 0.0000
# 6 0.0000 0.0000 0.0000 -11.0093 0.0000 27.6086
#
#
#
# Elastic Compliance Matrix: (Units=1/GPa)
#
#
# Indices 1 2 3 4 5 6 
#
# 1 0.016489 -0.002691 0.001074 0.000000 0.012308 0.000000
# 2 -0.002691 0.009325 -0.002955 0.000000 0.002631 0.000000
# 3 0.001074 -0.002955 0.016425 0.000000 0.005494 0.000000
# 4 0.000000 0.000000 0.000000 0.079495 0.000000 0.031700
# 5 0.012308 0.002631 0.005494 0.000000 0.033615 0.000000
# 6 0.000000 0.000000 0.000000 0.031700 0.000000 0.048861
#
#
# Mechanical properties :
#
#
# Convention : Reuss Voigt Hill
#
# Bulk Modulus (GPa) = 30.21757 55.59992 42.90875
# Shear Modulus (GPa) = 22.28298 33.59250 27.93774
#
# Velocity S-wave (km/s) = 3.06292 3.76071 3.42961
# Velocity P-wave (km/s) = 5.02301 6.50120 5.80931
#
# Compressibility (1/GPa) = 0.03309333
#
# Stress axis : x y z
#
# Youngs Moduli (GPa) = 60.64548 107.24230 60.88355
#
# Poissons Ratio (x) = 0.28863 -0.06538
# Poissons Ratio (y) = 0.16322 0.17992
# Poissons Ratio (z) = -0.06513 0.31693
#
# Static dielectric constant tensor:
#      x y z
#    x 4.320140 0.000000 -0.177210 
#    y 0.000000 4.289070 0.000000 
#    z -0.177210 0.000000 4.275380 
# 
# 
# High freq. dielectric constant tensor:
#      x y z
#    x 1.944950 0.000000 -0.012810 
#    y 0.000000 1.938360 0.000000 
#    z -0.012810 0.000000 1.949030 
# 
# From -- ./inp_files/75997.got.cif
#   From: 2010.06.25/outbox.cif.g09.slc.cpg/sg12_38_cif.got.tgz:75997.got - 2010.06.28 00:19:55.
