data_PCOD8107789
_publ_section_title
;
Structure prediction by ZEFSAII (Michael W. Deem and Ramdas Pophale) SiO2 
 PCOD8107789
Probable space group: C 2/M
;
_chemical_formula_sum "Si O2"
_cell_formula_units_Z 64
_cell_length_a 20.062071
_cell_length_b 9.256427
_cell_length_c 18.827707
_cell_angle_alpha 90.000000
_cell_angle_beta 89.984120
_cell_angle_gamma 90.000000
_cell_volume 3496.363340
_symmetry_space_group_name_H-M "C 2/M"
_symmetry_group_IT_number 12
_symmetry_cell_setting 'monoclinic'
loop_
_space_group_symop_operation_xyz
x,y,z
-x,y,-z
-x,-y,-z
x,-y,z
1/2+x,1/2+y,z
1/2-x,1/2+y,-z
1/2-x,1/2-y,-z
1/2+x,1/2-y,z
loop_
_atom_site_type_symbol
_atom_site_label
_atom_site_fract_x
_atom_site_fract_y
_atom_site_fract_z
Si Si1 0.949465 0.330865 0.716396
Si Si2 0.051702 0.328334 0.442844
Si Si3 0.392607 0.830825 0.075812
Si Si4 0.738297 0.166922 0.838761
Si Si5 0.798920 0.669167 0.551943
Si Si6 0.295521 0.833669 0.713406
Si Si7 0.992094 0.833935 0.848305
Si Si8 0.141056 0.165631 0.064717
O O1 0.963141 0.500000 0.728988
O O2 0.970307 0.283356 0.636690
O O3 0.872120 0.293255 0.728278
O O4 0.994109 0.239717 0.770900
O O5 0.053103 0.500000 0.446646
O O6 0.125944 0.271844 0.460271
O O7 0.000000 0.262330 0.500000
O O8 0.335517 0.801062 0.133526
O O9 0.458572 0.747301 0.098679
O O10 0.408396 0.000000 0.068485
O O11 0.369097 0.772106 0.000445
O O12 0.746449 0.245654 0.763875
O O13 0.791985 0.220440 0.896649
O O14 0.750929 0.000000 0.824058
O O15 0.795442 0.500000 0.535879
O O16 0.750000 0.750000 0.500000
O O17 0.776773 0.702541 0.632391
O O18 0.283492 0.000000 0.730023
O O19 0.918667 0.819490 0.879809
O O20 0.014336 0.000000 0.841184
O O21 0.147487 0.000000 0.037871
#
# Coordination Sequence:
#
# PCOD8107789 Si02
#       8
#     8   8   8   8   8   8   8   8
#     4   9  17  32  56  82 106 137 182 226 259 308
#     4   8  15  31  55  80 106 138 177 218 260 309
#     4  11  24  38  54  80 111 140 176 223 269 317
#     4  10  21  38  57  80 108 139 179 223 267 318
#     4   9  18  33  53  80 110 141 177 217 263 312
#     4   9  18  33  55  80 107 142 182 222 263 312
#     4  11  22  37  57  79 109 145 177 217 270 320
#     4  10  21  38  59  80 104 138 180 220 266 322
#
# _framework density 18.304734
#
# number of rings (size 3 to 8) (size 9 to 14) (size 15 to 20)
#    0.000    2.375    1.250    3.000    0.000    4.500 
#    2.250    1.875    0.000    0.750    0.000    0.000 
#    0.000    0.000    0.000    0.000    0.000    0.000 
#
# Total GULP energy -396837.655833 kJ/mol
# GULP energy per Si atom -12401.176745 kJ/mol
# Density = 1.826307 g / cm^3
# Si number density = 18.304734 Si / 1000 Ang^3
#
#
#
# Elastic Constant Matrix: (Units=GPa)
#
#
# Indices 1 2 3 4 5 6 
#
# 1 42.9890 25.2507 16.6671 0.0000 2.6484 0.0000
# 2 25.2507 68.6346 44.0795 0.0000 1.8545 0.0000
# 3 16.6671 44.0795 97.6007 0.0000 -2.8618 0.0000
# 4 0.0000 0.0000 0.0000 35.6576 0.0000 5.7542
# 5 2.6484 1.8545 -2.8618 0.0000 29.9573 0.0000
# 6 0.0000 0.0000 0.0000 5.7542 0.0000 25.9027
#
#
#
# Elastic Compliance Matrix: (Units=1/GPa)
#
#
# Indices 1 2 3 4 5 6 
#
# 1 0.029795 -0.010708 -0.000311 0.000000 -0.002001 0.000000
# 2 -0.010708 0.024511 -0.009284 0.000000 -0.001458 0.000000
# 3 -0.000311 -0.009284 0.014550 0.000000 0.001992 0.000000
# 4 0.000000 0.000000 0.000000 0.029087 0.000000 -0.006462
# 5 -0.002001 -0.001458 0.001992 0.000000 0.033838 0.000000
# 6 0.000000 0.000000 0.000000 -0.006462 0.000000 0.040041
#
#
# Mechanical properties :
#
#
# Convention : Reuss Voigt Hill
#
# Bulk Modulus (GPa) = 35.39700 42.35767 38.87733
# Shear Modulus (GPa) = 22.53806 26.51867 24.52837
#
# Velocity S-wave (km/s) = 3.51275 3.81035 3.66457
# Velocity P-wave (km/s) = 5.98600 6.52295 6.26023
#
# Compressibility (1/GPa) = 0.02825098
#
# Stress axis : x y z
#
# Youngs Moduli (GPa) = 33.56249 40.79718 68.72681
#
# Poissons Ratio (x) = 0.43686 0.02135
# Poissons Ratio (y) = 0.35939 0.63808
# Poissons Ratio (z) = 0.01043 0.37877
#
# Static dielectric constant tensor:
#      x y z
#    x 3.408560 0.000000 -0.103900 
#    y 0.000000 3.231850 0.000000 
#    z -0.103900 0.000000 3.428730 
# 
# 
# High freq. dielectric constant tensor:
#      x y z
#    x 1.702910 0.000000 0.000500 
#    y 0.000000 1.696110 0.000000 
#    z 0.000500 0.000000 1.716930 
# 
# From -- ./inp_files/281241.got.cif
#   From: 2010.06.25/outbox.cif.g09.slc.cpg/sg12_141_cif.got.tgz:281241.got - 2010.06.28 00:19:55.
