data_PCOD8107537
_publ_section_title
;
Structure prediction by ZEFSAII (Michael W. Deem and Ramdas Pophale) SiO2 
 PCOD8107537
Probable space group: C 2/M
;
_chemical_formula_sum "Si O2"
_cell_formula_units_Z 56
_cell_length_a 20.677694
_cell_length_b 17.616399
_cell_length_c 19.850574
_cell_angle_alpha 90.000000
_cell_angle_beta 158.555338
_cell_angle_gamma 90.000000
_cell_volume 2643.634348
_symmetry_space_group_name_H-M "C 2/M"
_symmetry_group_IT_number 12
_symmetry_cell_setting 'monoclinic'
loop_
_space_group_symop_operation_xyz
x,y,z
-x,y,-z
-x,-y,-z
x,-y,z
1/2+x,1/2+y,z
1/2-x,1/2+y,-z
1/2-x,1/2-y,-z
1/2+x,1/2-y,z
loop_
_atom_site_type_symbol
_atom_site_label
_atom_site_fract_x
_atom_site_fract_y
_atom_site_fract_z
Si Si1 0.329533 0.184981 0.529561
Si Si2 0.028824 0.762944 0.600902
Si Si3 0.666368 0.415508 0.875558
Si Si4 0.128276 0.914686 0.514094
Si Si5 0.428841 0.724689 0.004373
Si Si6 0.482221 0.152637 0.811407
Si Si7 0.982757 0.089287 0.829119
O O1 0.250000 0.250000 0.500000
O O2 0.416681 0.221315 0.548813
O O3 0.470360 0.149639 0.718525
O O4 0.201644 0.118789 0.379859
O O5 0.959817 0.850016 0.524616
O O6 0.000000 0.723491 0.500000
O O7 0.230743 0.754364 0.817605
O O8 0.737409 0.500000 0.939427
O O9 0.473268 0.405989 0.655268
O O10 0.638255 0.393264 0.926115
O O11 0.813921 0.369175 0.977645
O O12 0.337284 0.903007 0.703994
O O13 0.101635 0.000000 0.518534
O O14 0.500000 0.746773 0.000000
O O15 0.542307 0.766250 0.174113
O O16 0.456949 0.634910 0.045290
O O17 0.965097 0.000000 0.828778
#
# Coordination Sequence:
#
# PCOD8107537 Si02
#       7
#     8   8   8   8   8   8   8
#     4  12  22  40  68 101 131 174 224 275 338 407
#     4  12  25  45  68  95 137 180 230 288 340 412
#     4  10  21  37  60  96 132 169 214 272 339 401
#     4  11  22  39  63  97 138 176 219 279 341 400
#     4  12  26  44  67  96 132 182 237 283 340 409
#     4  12  22  39  68  96 134 176 228 279 332 408
#     4  11  23  42  67  99 139 174 220 286 349 405
#
# _framework density 21.182960000000001
#
# number of rings (size 3 to 8) (size 9 to 14) (size 15 to 20)
#    0.000    0.571    5.714    3.000    0.000    2.286 
#    0.000    0.714    0.000    3.857    0.000    0.000 
#    0.000    0.000    0.000    0.000    0.000    0.000 
#
# Total GULP energy -346987.034577 kJ/mol
# GULP energy per Si atom -12392.394092 kJ/mol
# Density = 2.113475 g / cm^3
# Si number density = 21.182960 Si / 1000 Ang^3
#
#
#
# Elastic Constant Matrix: (Units=GPa)
#
#
# Indices 1 2 3 4 5 6 
#
# 1 129.9839 48.4107 42.5569 0.0093 0.2535 0.0030
# 2 48.4107 112.7348 50.3868 0.0400 11.0188 0.0041
# 3 42.5569 50.3868 104.1376 0.0191 14.9771 -0.0018
# 4 0.0093 0.0400 0.0191 28.1444 -0.0070 0.9580
# 5 0.2535 11.0188 14.9771 -0.0070 33.0684 -0.0021
# 6 0.0030 0.0041 -0.0018 0.9580 -0.0021 18.5831
#
#
#
# Elastic Compliance Matrix: (Units=1/GPa)
#
#
# Indices 1 2 3 4 5 6 
#
# 1 0.009783 -0.003176 -0.002784 0.000004 0.002244 -0.000001
# 2 -0.003176 0.012408 -0.004401 -0.000014 -0.002117 -0.000002
# 3 -0.002784 -0.004401 0.013538 -0.000003 -0.004644 0.000002
# 4 0.000004 -0.000014 -0.000003 0.035594 0.000013 -0.001835
# 5 0.002244 -0.002117 -0.004644 0.000013 0.033032 0.000003
# 6 -0.000001 -0.000002 0.000002 -0.001835 0.000003 0.053907
#
#
# Mechanical properties :
#
#
# Convention : Reuss Voigt Hill
#
# Bulk Modulus (GPa) = 66.63830 69.95170 68.29500
# Shear Modulus (GPa) = 27.17586 29.65930 28.41758
#
# Velocity S-wave (km/s) = 3.58566 3.74592 3.66666
# Velocity P-wave (km/s) = 6.97634 7.19746 7.08777
#
# Compressibility (1/GPa) = 0.01500639
#
# Stress axis : x y z
#
# Youngs Moduli (GPa) = 102.21490 80.59063 73.86713
#
# Poissons Ratio (x) = 0.25597 0.20565
# Poissons Ratio (y) = 0.32465 0.32511
# Poissons Ratio (z) = 0.28457 0.35471
#
# Static dielectric constant tensor:
#      x y z
#    x 3.363430 0.000360 0.198830 
#    y 0.000360 3.933870 -0.000210 
#    z 0.198830 -0.000210 3.977340 
# 
# 
# High freq. dielectric constant tensor:
#      x y z
#    x 1.823790 0.000000 0.003220 
#    y 0.000000 1.823090 -0.000010 
#    z 0.003220 -0.000010 1.839700 
# 
# From -- ./inp_files/322723.got.cif
#   From: 2010.06.25/outbox.cif.g09.slc.cpg/sg12_162_cif.got.tgz:322723.got - 2010.06.28 00:19:55.
