data_PCOD8107227
_publ_section_title
;
Structure prediction by ZEFSAII (Michael W. Deem and Ramdas Pophale) SiO2 
 PCOD8107227
Probable space group: C 2/M
;
_chemical_formula_sum "Si O2"
_cell_formula_units_Z 56
_cell_length_a 14.665363
_cell_length_b 9.018312
_cell_length_c 24.097362
_cell_angle_alpha 90.000000
_cell_angle_beta 115.514537
_cell_angle_gamma 90.000000
_cell_volume 2876.227600
_symmetry_space_group_name_H-M "C 2/M"
_symmetry_group_IT_number 12
_symmetry_cell_setting 'monoclinic'
loop_
_space_group_symop_operation_xyz
x,y,z
-x,y,-z
-x,-y,-z
x,-y,z
1/2+x,1/2+y,z
1/2-x,1/2+y,-z
1/2-x,1/2-y,-z
1/2+x,1/2-y,z
loop_
_atom_site_type_symbol
_atom_site_label
_atom_site_fract_x
_atom_site_fract_y
_atom_site_fract_z
Si Si1 0.414706 0.326775 0.721185
Si Si2 0.132498 0.829054 0.817554
Si Si3 0.610172 0.826126 0.507617
Si Si4 0.689655 0.826162 0.408053
Si Si5 0.729500 0.171243 0.937083
Si Si6 0.094154 0.333328 0.063575
Si Si7 0.665010 0.166332 0.196258
O O1 0.399299 0.500000 0.705930
O O2 0.531666 0.282390 0.758784
O O3 0.375344 0.235647 0.659058
O O4 0.354076 0.283804 0.760643
O O5 0.137517 0.738686 0.876946
O O6 0.226835 0.795142 0.802441
O O7 0.128779 0.000000 0.833748
O O8 0.500000 0.770030 0.500000
O O9 0.626791 0.787274 0.447246
O O10 0.698851 0.745347 0.564772
O O11 0.620844 0.000000 0.521828
O O12 0.704533 0.000000 0.405260
O O13 0.829503 0.200631 0.928065
O O14 0.707817 0.000000 0.941894
O O15 0.750000 0.250000 0.000000
O O16 0.137340 0.500000 0.061871
O O17 0.076724 0.323491 0.125523
O O18 0.000000 0.302580 0.000000
O O19 0.666461 0.000000 0.221719
#
# Coordination Sequence:
#
# PCOD8107227 Si02
#       7
#     8   8   8   8   8   8   8
#     4  11  23  38  59  84 116 154 195 241 288 337
#     4   9  21  41  58  78 110 149 189 237 294 351
#     4   9  19  38  63  90 122 156 191 236 284 327
#     4  10  21  37  58  88 122 155 195 234 278 341
#     4  11  22  35  54  79 107 140 183 234 289 350
#     4   9  19  36  56  79 107 139 177 228 294 355
#     4   9  19  37  57  79 111 146 187 234 289 353
#
# _framework density 19.469947999999999
#
# number of rings (size 3 to 8) (size 9 to 14) (size 15 to 20)
#    0.000    2.286    0.000    3.000    2.000    5.714 
#    0.000    2.857    0.000    0.000    0.000    0.000 
#    0.000    0.000    0.000    0.000    0.000    0.000 
#
# Total GULP energy -347054.793286 kJ/mol
# GULP energy per Si atom -12394.814046 kJ/mol
# Density = 1.942563 g / cm^3
# Si number density = 19.469948 Si / 1000 Ang^3
#
#
#
# Elastic Constant Matrix: (Units=GPa)
#
#
# Indices 1 2 3 4 5 6 
#
# 1 99.2683 36.6711 57.6857 0.0000 11.7162 0.0000
# 2 36.6711 68.8218 49.5259 0.0000 7.0136 0.0000
# 3 57.6857 49.5259 149.9809 0.0000 16.9375 0.0000
# 4 0.0000 0.0000 0.0000 33.3912 0.0000 -0.2920
# 5 11.7162 7.0136 16.9375 0.0000 27.7181 0.0000
# 6 0.0000 0.0000 0.0000 -0.2920 0.0000 28.5838
#
#
#
# Elastic Compliance Matrix: (Units=1/GPa)
#
#
# Indices 1 2 3 4 5 6 
#
# 1 0.014226 -0.004707 -0.003622 0.000000 -0.002608 0.000000
# 2 -0.004707 0.020646 -0.004986 0.000000 -0.000188 0.000000
# 3 -0.003622 -0.004986 0.010088 0.000000 -0.003372 0.000000
# 4 0.000000 0.000000 0.000000 0.029951 0.000000 0.000306
# 5 -0.002608 -0.000188 -0.003372 0.000000 0.039288 0.000000
# 6 0.000000 0.000000 0.000000 0.000306 0.000000 0.034988
#
#
# Mechanical properties :
#
#
# Convention : Reuss Voigt Hill
#
# Bulk Modulus (GPa) = 54.56144 67.31514 60.93829
# Shear Modulus (GPa) = 27.48375 29.55118 28.51747
#
# Velocity S-wave (km/s) = 3.76120 3.90010 3.83128
# Velocity P-wave (km/s) = 6.85175 7.41148 7.13710
#
# Compressibility (1/GPa) = 0.01832796
#
# Stress axis : x y z
#
# Youngs Moduli (GPa) = 70.29605 48.43664 99.12874
#
# Poissons Ratio (x) = 0.22801 0.35909
# Poissons Ratio (y) = 0.33091 0.49423
# Poissons Ratio (z) = 0.25464 0.24149
#
# Static dielectric constant tensor:
#      x y z
#    x 3.522050 0.000000 0.075670 
#    y 0.000000 -1.070280 0.000000 
#    z 0.075670 0.000000 3.730820 
# 
# 
# High freq. dielectric constant tensor:
#      x y z
#    x 1.747810 0.000000 0.004010 
#    y 0.000000 1.755900 0.000000 
#    z 0.004010 0.000000 1.766400 
# 
# From -- ./inp_files/339051.got.cif
#   From: 2010.06.25/outbox.cif.g09.slc.cpg/sg12_170_cif.got.tgz:339051.got - 2010.06.28 00:19:55.
