data_PCOD8107938
_publ_section_title
;
Structure prediction by ZEFSAII (Michael W. Deem and Ramdas Pophale) SiO2 
 PCOD8107938
Probable space group: C 2/M
;
_chemical_formula_sum "Si O2"
_cell_formula_units_Z 32
_cell_length_a 10.531240
_cell_length_b 18.218775
_cell_length_c 11.343454
_cell_angle_alpha 90.000000
_cell_angle_beta 39.388177
_cell_angle_gamma 90.000000
_cell_volume 1381.097214
_symmetry_space_group_name_H-M "C 2/M"
_symmetry_group_IT_number 12
_symmetry_cell_setting 'monoclinic'
loop_
_space_group_symop_operation_xyz
x,y,z
-x,y,-z
-x,-y,-z
x,-y,z
1/2+x,1/2+y,z
1/2-x,1/2+y,-z
1/2-x,1/2-y,-z
1/2+x,1/2-y,z
loop_
_atom_site_type_symbol
_atom_site_label
_atom_site_fract_x
_atom_site_fract_y
_atom_site_fract_z
Si Si1 0.750735 0.000000 0.465252
Si Si2 0.256561 0.352200 0.578456
Si Si3 0.335448 0.697029 0.776458
Si Si4 0.295478 0.149172 0.881739
Si Si5 0.276802 0.000000 0.778719
O O1 0.832648 0.931561 0.480398
O O2 0.513098 0.000000 0.619821
O O3 0.825498 0.000000 0.276424
O O4 0.420322 0.295451 0.406236
O O5 0.254852 0.346342 0.721127
O O6 0.033337 0.343251 0.693053
O O7 0.226209 0.776848 0.862740
O O8 0.272702 0.649583 0.934416
O O9 0.201836 0.075321 0.894047
#
# Coordination Sequence:
#
# PCOD8107938 Si02
#       5
#     4   8   8   8   4
#     4   9  20  37  58  86 112 148 195 227 277 342
#     4  10  21  38  59  81 114 151 183 234 282 325
#     4  10  22  36  59  88 112 146 190 230 278 339
#     4  10  21  39  58  84 115 147 189 231 278 333
#     4   9  20  38  60  81 113 153 187 232 279 331
#
# _framework density 23.169983999999999
#
# number of rings (size 3 to 8) (size 9 to 14) (size 15 to 20)
#    0.000    2.250    0.000    1.500    0.000   14.000 
#    0.000    8.750    0.000    0.000    0.000    0.000 
#    0.000    0.000    0.000    0.000    0.000    0.000 
#
# Total GULP energy -198260.205478 kJ/mol
# GULP energy per Si atom -12391.262842 kJ/mol
# Density = 2.311725 g / cm^3
# Si number density = 23.169984 Si / 1000 Ang^3
#
#
#
# Elastic Constant Matrix: (Units=GPa)
#
#
# Indices 1 2 3 4 5 6 
#
# 1 63.1959 63.5368 17.6842 -0.0023 24.7314 0.0001
# 2 63.5368 169.7221 66.7933 0.0024 67.6129 -0.0008
# 3 17.6842 66.7933 85.5150 -0.0029 24.2132 0.0007
# 4 -0.0023 0.0024 -0.0029 35.1113 0.0001 16.1728
# 5 24.7314 67.6129 24.2132 0.0001 52.2656 0.0004
# 6 0.0001 -0.0008 0.0007 16.1728 0.0004 11.7768
#
#
#
# Elastic Compliance Matrix: (Units=1/GPa)
#
#
# Indices 1 2 3 4 5 6 
#
# 1 0.025991 -0.011368 0.003249 0.000009 0.000902 -0.000013
# 2 -0.011368 0.020281 -0.008729 -0.000011 -0.016813 0.000017
# 3 0.003249 -0.008729 0.017355 0.000008 0.001716 -0.000013
# 4 0.000009 -0.000011 0.000008 0.077510 0.000007 -0.106443
# 5 0.000902 -0.016813 0.001716 0.000007 0.039661 -0.000012
# 6 -0.000013 0.000017 -0.000013 -0.106443 -0.000012 0.231089
#
#
# Mechanical properties :
#
#
# Convention : Reuss Voigt Hill
#
# Bulk Modulus (GPa) = 33.41217 68.27349 50.84283
# Shear Modulus (GPa) = 10.97549 31.19198 21.08373
#
# Velocity S-wave (km/s) = 2.17881 3.67307 3.01983
# Velocity P-wave (km/s) = 4.55866 6.89340 5.84381
#
# Compressibility (1/GPa) = 0.02992921
#
# Stress axis : x y z
#
# Youngs Moduli (GPa) = 38.47521 49.30742 57.62167
#
# Poissons Ratio (x) = 0.56052 -0.18720
# Poissons Ratio (y) = 0.43738 0.50301
# Poissons Ratio (z) = -0.12500 0.43043
#
# Static dielectric constant tensor:
#      x y z
#    x 3.835880 0.000000 0.023880 
#    y 0.000000 4.418830 0.000000 
#    z 0.023880 0.000000 4.235790 
# 
# 
# High freq. dielectric constant tensor:
#      x y z
#    x 1.897700 0.000000 0.001780 
#    y 0.000000 1.919360 0.000000 
#    z 0.001780 0.000000 1.926710 
# 
# From -- ./inp_files/46459.got.cif
#   From: 2010.06.25/outbox.cif.g09.slc.cpg/sg12_24_cif.got.tgz:46459.got - 2010.06.28 00:19:55.
