data_PCOD8107830
_publ_section_title
;
Structure prediction by ZEFSAII (Michael W. Deem and Ramdas Pophale) SiO2 
 PCOD8107830
Probable space group: C 2/M
;
_chemical_formula_sum "Si O2"
_cell_formula_units_Z 48
_cell_length_a 20.243312
_cell_length_b 13.831491
_cell_length_c 11.685195
_cell_angle_alpha 90.000000
_cell_angle_beta 40.837349
_cell_angle_gamma 90.000000
_cell_volume 2139.474503
_symmetry_space_group_name_H-M "C 2/M"
_symmetry_group_IT_number 12
_symmetry_cell_setting 'monoclinic'
loop_
_space_group_symop_operation_xyz
x,y,z
-x,y,-z
-x,-y,-z
x,-y,z
1/2+x,1/2+y,z
1/2-x,1/2+y,-z
1/2-x,1/2-y,-z
1/2+x,1/2-y,z
loop_
_atom_site_type_symbol
_atom_site_label
_atom_site_fract_x
_atom_site_fract_y
_atom_site_fract_z
Si Si1 0.391500 0.889403 0.360700
Si Si2 0.889616 0.389075 0.622077
Si Si3 0.945197 0.255264 0.958944
Si Si4 0.281537 0.111873 0.282825
Si Si5 0.889326 0.886612 0.650548
Si Si6 0.190087 0.114885 0.001816
O O1 0.352738 0.874252 0.540194
O O2 0.479362 0.813006 0.222684
O O3 0.296798 0.870475 0.398743
O O4 0.431296 0.000000 0.292045
O O5 0.899918 0.500000 0.642874
O O6 0.801064 0.344992 0.818292
O O7 0.000000 0.340368 0.500000
O O8 0.863921 0.333709 0.101511
O O9 0.897697 0.163976 0.957432
O O10 0.000000 0.213991 0.000000
O O11 0.171011 0.147314 0.384638
O O12 0.294482 0.000000 0.233989
O O13 0.000000 0.837276 0.500000
O O14 0.903957 0.000000 0.633131
O O15 0.826415 0.855132 0.844976
O O16 0.181435 0.000000 0.992616
#
# Coordination Sequence:
#
# PCOD8107830 Si02
#       6
#     8   8   8   8   8   8
#     4   9  18  36  62  91 118 148 193 246 304 352
#     4   9  19  37  61  88 120 157 195 242 295 349
#     4  10  21  38  57  89 119 153 198 245 293 350
#     4   9  18  35  61  87 116 152 192 249 301 342
#     4   9  19  38  61  86 117 156 201 243 289 348
#     4  10  22  41  60  83 119 160 200 239 288 351
#
# _framework density 22.435416
#
# number of rings (size 3 to 8) (size 9 to 14) (size 15 to 20)
#    0.000    2.667    0.000    0.500    2.333    3.000 
#    6.000    1.667    0.000    0.000    0.000    0.000 
#    0.000    0.000    0.000    0.000    0.000    0.000 
#
# Total GULP energy -297466.061353 kJ/mol
# GULP energy per Si atom -12394.419223 kJ/mol
# Density = 2.238435 g / cm^3
# Si number density = 22.435416 Si / 1000 Ang^3
#
#
#
# Elastic Constant Matrix: (Units=GPa)
#
#
# Indices 1 2 3 4 5 6 
#
# 1 185.8079 33.2474 85.6409 0.0000 -13.1641 0.0000
# 2 33.2474 66.0437 17.2548 0.0000 -3.1872 0.0000
# 3 85.6409 17.2548 152.3053 0.0000 -10.5328 0.0000
# 4 0.0000 0.0000 0.0000 -7.1380 0.0000 4.6641
# 5 -13.1641 -3.1872 -10.5328 0.0000 30.3676 0.0000
# 6 0.0000 0.0000 0.0000 4.6641 0.0000 22.9161
#
#
#
# Elastic Compliance Matrix: (Units=1/GPa)
#
#
# Indices 1 2 3 4 5 6 
#
# 1 0.007839 -0.002826 -0.003968 0.000000 0.001725 0.000000
# 2 -0.002826 0.016655 -0.000268 0.000000 0.000430 0.000000
# 3 -0.003968 -0.000268 0.008921 0.000000 0.001346 0.000000
# 4 0.000000 0.000000 0.000000 -0.123652 0.000000 0.025167
# 5 0.001725 0.000430 0.001346 0.000000 0.034189 0.000000
# 6 0.000000 0.000000 0.000000 0.025167 0.000000 0.038515
#
#
# Mechanical properties :
#
#
# Convention : Reuss Voigt Hill
#
# Bulk Modulus (GPa) = 51.84166 75.16035 63.50100
# Shear Modulus (GPa) = 1654.53051 27.09675 840.81363
#
# Velocity S-wave (km/s) = 27.18574 3.47906 19.38000
# Velocity P-wave (km/s) = 31.75810 7.05067 23.00314
#
# Compressibility (1/GPa) = 0.01928951
#
# Stress axis : x y z
#
# Youngs Moduli (GPa) = 127.56968 60.04206 112.10085
#
# Poissons Ratio (x) = 0.16969 0.44485
# Poissons Ratio (y) = 0.36054 0.03004
# Poissons Ratio (z) = 0.50623 0.01609
#
# Static dielectric constant tensor:
#      x y z
#    x 4.441110 0.000000 -0.084640 
#    y 0.000000 3.839730 0.000000 
#    z -0.084640 0.000000 4.081130 
# 
# 
# High freq. dielectric constant tensor:
#      x y z
#    x 1.894540 0.000000 0.001530 
#    y 0.000000 1.882030 0.000000 
#    z 0.001530 0.000000 1.870590 
# 
# From -- ./inp_files/143878.got.cif
#   From: 2010.06.25/outbox.cif.g09.slc.cpg/sg12_72_cif.got.tgz:143878.got - 2010.06.28 00:19:55.
