data_PCOD8107364
_publ_section_title
;
Structure prediction by ZEFSAII (Michael W. Deem and Ramdas Pophale) SiO2 
 PCOD8107364
Probable space group: C 2/M
;
_chemical_formula_sum "Si O2"
_cell_formula_units_Z 56
_cell_length_a 14.811778
_cell_length_b 8.742670
_cell_length_c 22.970009
_cell_angle_alpha 90.000000
_cell_angle_beta 69.133858
_cell_angle_gamma 90.000000
_cell_volume 2779.407995
_symmetry_space_group_name_H-M "C 2/M"
_symmetry_group_IT_number 12
_symmetry_cell_setting 'monoclinic'
loop_
_space_group_symop_operation_xyz
x,y,z
-x,y,-z
-x,-y,-z
x,-y,z
1/2+x,1/2+y,z
1/2-x,1/2+y,-z
1/2-x,1/2-y,-z
1/2+x,1/2-y,z
loop_
_atom_site_type_symbol
_atom_site_label
_atom_site_fract_x
_atom_site_fract_y
_atom_site_fract_z
Si Si1 0.106222 0.819186 0.994504
Si Si2 0.921395 0.676230 0.435718
Si Si3 0.735356 0.323404 0.700260
Si Si4 0.362729 0.824707 0.570597
Si Si5 0.796502 0.820586 0.908655
Si Si6 0.042747 0.175007 0.688625
Si Si7 0.643972 0.821406 0.222302
O O1 0.134921 0.767354 0.053446
O O2 0.105360 0.000000 0.988215
O O3 0.190349 0.755748 0.933221
O O4 0.000000 0.754796 0.000000
O O5 0.894497 0.500000 0.428725
O O6 0.861363 0.744410 0.505021
O O7 0.902375 0.780242 0.383664
O O8 0.033330 0.690851 0.424810
O O9 0.768079 0.500000 0.691367
O O10 0.787746 0.243009 0.632398
O O11 0.620496 0.304714 0.722633
O O12 0.771656 0.259323 0.754002
O O13 0.334261 0.000000 0.568377
O O14 0.852000 0.773808 0.837738
O O15 0.780823 0.000000 0.914714
O O16 0.956559 0.290115 0.722073
O O17 0.006375 0.000000 0.693698
O O18 0.653582 0.000000 0.205435
#
# Coordination Sequence:
#
# PCOD8107364 Si02
#       7
#     8   8   8   8   8   8   8
#     4   9  19  38  63  89 119 156 191 217 255 323
#     4   9  16  30  55  78  99 135 182 225 271 337
#     4   9  19  35  55  76 102 143 187 223 271 336
#     4   8  14  29  54  77  97 134 185 224 264 334
#     4  10  21  37  59  89 121 147 181 232 277 307
#     4  11  22  35  53  79 109 138 177 234 287 326
#     4  11  22  40  61  77 106 152 195 223 260 332
#
# _framework density 20.148174000000001
#
# number of rings (size 3 to 8) (size 9 to 14) (size 15 to 20)
#    0.000    2.429    1.429    2.143    0.000    2.571 
#    0.000   10.000    0.000    0.000    0.000    0.000 
#    0.000    0.000    0.000    0.000    0.000    0.000 
#
# Total GULP energy -347037.844169 kJ/mol
# GULP energy per Si atom -12394.208720 kJ/mol
# Density = 2.010232 g / cm^3
# Si number density = 20.148174 Si / 1000 Ang^3
#
#
#
# Elastic Constant Matrix: (Units=GPa)
#
#
# Indices 1 2 3 4 5 6 
#
# 1 99.0630 23.0390 28.4532 0.0000 15.3658 0.0000
# 2 23.0390 27.5964 13.4412 0.0000 4.1636 0.0000
# 3 28.4532 13.4412 100.5019 0.0000 16.1076 0.0000
# 4 0.0000 0.0000 0.0000 30.4436 0.0000 -2.0486
# 5 15.3658 4.1636 16.1076 0.0000 17.4456 0.0000
# 6 0.0000 0.0000 0.0000 -2.0486 0.0000 21.6124
#
#
#
# Elastic Compliance Matrix: (Units=1/GPa)
#
#
# Indices 1 2 3 4 5 6 
#
# 1 0.014129 -0.009837 -0.001251 0.000000 -0.008941 0.000000
# 2 -0.009837 0.046023 -0.003519 0.000000 0.000929 0.000000
# 3 -0.001251 -0.003519 0.012281 0.000000 -0.009397 0.000000
# 4 0.000000 0.000000 0.000000 0.033058 0.000000 0.003134
# 5 -0.008941 0.000929 -0.009397 0.000000 0.073651 0.000000
# 6 0.000000 0.000000 0.000000 0.003134 0.000000 0.046567
#
#
# Mechanical properties :
#
#
# Convention : Reuss Voigt Hill
#
# Bulk Modulus (GPa) = 23.13866 39.66978 31.40422
# Shear Modulus (GPa) = 18.56465 24.71551 21.64008
#
# Velocity S-wave (km/s) = 3.03876 3.50621 3.28082
# Velocity P-wave (km/s) = 4.88070 6.01025 5.47469
#
# Compressibility (1/GPa) = 0.04321772
#
# Stress axis : x y z
#
# Youngs Moduli (GPa) = 70.77833 21.72842 81.42609
#
# Poissons Ratio (x) = 0.21374 0.10190
# Poissons Ratio (y) = 0.69623 0.28655
# Poissons Ratio (z) = 0.08857 0.07647
#
# Static dielectric constant tensor:
#      x y z
#    x 3.667860 0.000000 0.178640 
#    y 0.000000 3.285290 0.000000 
#    z 0.178640 0.000000 3.799440 
# 
# 
# High freq. dielectric constant tensor:
#      x y z
#    x 1.785730 0.000000 0.006430 
#    y 0.000000 1.751410 0.000000 
#    z 0.006430 0.000000 1.790030 
# 
# From -- ./inp_files/337904.got.cif
#   From: 2010.06.25/outbox.cif.g09.slc.cpg/sg12_169_cif.got.tgz:337904.got - 2010.06.28 00:19:55.
