data_PCOD8107013
_publ_section_title
;
Structure prediction by ZEFSAII (Michael W. Deem and Ramdas Pophale) SiO2 
 PCOD8107013
Probable space group: C 2/M
;
_chemical_formula_sum "Si O2"
_cell_formula_units_Z 56
_cell_length_a 15.084019
_cell_length_b 24.672128
_cell_length_c 8.928510
_cell_angle_alpha 90.000000
_cell_angle_beta 58.127801
_cell_angle_gamma 90.000000
_cell_volume 2821.804830
_symmetry_space_group_name_H-M "C 2/M"
_symmetry_group_IT_number 12
_symmetry_cell_setting 'monoclinic'
loop_
_space_group_symop_operation_xyz
x,y,z
-x,y,-z
-x,-y,-z
x,-y,z
1/2+x,1/2+y,z
1/2-x,1/2+y,-z
1/2-x,1/2-y,-z
1/2+x,1/2-y,z
loop_
_atom_site_type_symbol
_atom_site_label
_atom_site_fract_x
_atom_site_fract_y
_atom_site_fract_z
Si Si1 0.958125 0.632169 0.379920
Si Si2 0.399432 0.129047 0.009279
Si Si3 0.499941 0.336698 0.179489
Si Si4 0.408501 0.255981 0.472996
Si Si5 0.808318 0.561759 0.335568
Si Si6 0.067275 0.937660 0.585949
Si Si7 0.792188 0.793456 0.848722
O O1 0.922833 0.694690 0.405425
O O2 0.857456 0.597941 0.423308
O O3 0.000000 0.613124 0.500000
O O4 0.061624 0.618184 0.192063
O O5 0.500000 0.157261 0.000000
O O6 0.366912 0.074416 0.126536
O O7 0.298469 0.165146 0.103801
O O8 0.411960 0.295677 0.325618
O O9 0.469167 0.398529 0.247251
O O10 0.610749 0.322724 0.156819
O O11 0.500000 0.330395 0.000000
O O12 0.500000 0.274653 0.500000
O O13 0.309366 0.265459 0.669735
O O14 0.829006 0.500000 0.358495
O O15 0.686097 0.574698 0.434346
O O16 0.000000 0.924366 0.500000
O O17 0.052136 0.000000 0.651752
O O18 0.750000 0.750000 0.000000
#
# Coordination Sequence:
#
# PCOD8107013 Si02
#       7
#     8   8   8   8   8   8   8
#     4  10  21  37  57  85 120 151 183 233 291 343
#     4  10  21  37  58  81 112 150 195 234 275 339
#     4  11  23  37  59  90 122 153 192 239 296 353
#     4   9  19  37  58  82 118 156 193 234 285 349
#     4  10  22  40  62  85 109 146 196 241 286 344
#     4  10  21  41  65  85 111 150 197 247 296 347
#     4  11  22  38  60  86 118 155 195 238 286 347
#
# _framework density 19.845455000000001
#
# number of rings (size 3 to 8) (size 9 to 14) (size 15 to 20)
#    0.000    1.857    0.000    5.571    0.000   10.000 
#    0.000    4.286    0.000    3.429    0.000    0.000 
#    0.000    0.000    0.000    0.000    0.000    0.000 
#
# Total GULP energy -347002.693584 kJ/mol
# GULP energy per Si atom -12392.953342 kJ/mol
# Density = 1.980029 g / cm^3
# Si number density = 19.845455 Si / 1000 Ang^3
#
#
#
# Elastic Constant Matrix: (Units=GPa)
#
#
# Indices 1 2 3 4 5 6 
#
# 1 102.7892 54.3116 66.6496 0.0000 -5.9322 0.0000
# 2 54.3116 115.3249 69.6609 0.0000 5.3408 0.0000
# 3 66.6496 69.6609 159.1661 0.0000 13.0279 0.0000
# 4 0.0000 0.0000 0.0000 43.1790 0.0000 -0.2700
# 5 -5.9322 5.3408 13.0279 0.0000 33.5168 0.0000
# 6 0.0000 0.0000 0.0000 -0.2700 0.0000 31.2210
#
#
#
# Elastic Compliance Matrix: (Units=1/GPa)
#
#
# Indices 1 2 3 4 5 6 
#
# 1 0.015746 -0.004643 -0.005009 0.000000 0.005474 0.000000
# 2 -0.004643 0.013157 -0.003693 0.000000 -0.001483 0.000000
# 3 -0.005009 -0.003693 0.010350 0.000000 -0.004321 0.000000
# 4 0.000000 0.000000 0.000000 0.023161 0.000000 0.000200
# 5 0.005474 -0.001483 -0.004321 0.000000 0.032721 0.000000
# 6 0.000000 0.000000 0.000000 0.000200 0.000000 0.032031
#
#
# Mechanical properties :
#
#
# Convention : Reuss Voigt Hill
#
# Bulk Modulus (GPa) = 79.59983 84.28048 81.94016
# Shear Modulus (GPa) = 31.63672 34.02724 32.83198
#
# Velocity S-wave (km/s) = 3.99702 4.14528 4.07182
# Velocity P-wave (km/s) = 7.84210 8.09146 7.96775
#
# Compressibility (1/GPa) = 0.01256284
#
# Stress axis : x y z
#
# Youngs Moduli (GPa) = 63.50790 76.00520 96.61576
#
# Poissons Ratio (x) = 0.35290 0.48400
# Poissons Ratio (y) = 0.29487 0.35677
# Poissons Ratio (z) = 0.31814 0.28066
#
# Static dielectric constant tensor:
#      x y z
#    x 3.665520 0.000000 -0.176570 
#    y 0.000000 3.524020 0.000000 
#    z -0.176570 0.000000 4.112270 
# 
# 
# High freq. dielectric constant tensor:
#      x y z
#    x 1.776270 0.000000 -0.007580 
#    y 0.000000 1.769930 0.000000 
#    z -0.007580 0.000000 1.784020 
# 
# From -- ./inp_files/65778.got.cif
#   From: 2010.06.25/outbox.cif.g09.slc.cpg/sg12_33_cif.got.tgz:65778.got - 2010.06.28 00:19:55.
