data_PCOD8107840
_publ_section_title
;
Structure prediction by ZEFSAII (Michael W. Deem and Ramdas Pophale) SiO2 
 PCOD8107840
Probable space group: C 2/M
;
_chemical_formula_sum "Si O2"
_cell_formula_units_Z 56
_cell_length_a 17.981194
_cell_length_b 9.147040
_cell_length_c 22.538860
_cell_angle_alpha 90.000000
_cell_angle_beta 126.524635
_cell_angle_gamma 90.000000
_cell_volume 2979.007101
_symmetry_space_group_name_H-M "C 2/M"
_symmetry_group_IT_number 12
_symmetry_cell_setting 'monoclinic'
loop_
_space_group_symop_operation_xyz
x,y,z
-x,y,-z
-x,-y,-z
x,-y,z
1/2+x,1/2+y,z
1/2-x,1/2+y,-z
1/2-x,1/2-y,-z
1/2+x,1/2-y,z
loop_
_atom_site_type_symbol
_atom_site_label
_atom_site_fract_x
_atom_site_fract_y
_atom_site_fract_z
Si Si1 0.370129 0.330017 0.712445
Si Si2 0.518699 0.834970 0.143034
Si Si3 0.199985 0.669334 0.713710
Si Si4 0.657340 0.672445 0.435891
Si Si5 0.411503 0.334738 0.000364
Si Si6 0.304744 0.164921 0.857758
Si Si7 0.500021 0.831742 0.569614
O O1 0.393190 0.500000 0.731010
O O2 0.453839 0.240666 0.782053
O O3 0.272417 0.290617 0.696372
O O4 0.364505 0.282323 0.641768
O O5 0.605758 0.832015 0.141009
O O6 0.486136 0.000000 0.140200
O O7 0.434463 0.747627 0.072677
O O8 0.208046 0.500000 0.734461
O O9 0.219759 0.760784 0.782655
O O10 0.099481 0.711542 0.642531
O O11 0.670829 0.500000 0.448639
O O12 0.750000 0.750000 0.500000
O O13 0.573961 0.724579 0.437109
O O14 0.381549 0.500000 0.000697
O O15 0.325995 0.253151 0.928062
O O16 0.500000 0.333079 0.000000
O O17 0.277037 0.000000 0.861427
O O18 0.500000 0.804018 0.500000
O O19 0.474918 0.000000 0.572013
#
# Coordination Sequence:
#
# PCOD8107840 Si02
#       7
#     8   8   8   8   8   8   8
#     4   9  18  33  51  72 100 135 172 209 253 305
#     4   9  16  25  40  65  96 129 165 208 255 297
#     4   9  17  31  51  72  98 134 172 208 252 307
#     4  11  23  38  57  80 106 136 172 214 259 309
#     4   9  15  23  37  59  91 131 170 205 246 298
#     4   9  16  25  39  63  96 129 164 209 255 296
#     4  10  21  38  58  79 105 137 172 212 259 310
#
# _framework density 18.798210000000001
#
# number of rings (size 3 to 8) (size 9 to 14) (size 15 to 20)
#    0.000    2.571    0.000    2.571    0.000    9.429 
#    0.000    2.857    0.000    0.000    0.000    1.000 
#    0.000    0.000    0.000    0.000    0.000    0.000 
#
# Total GULP energy -347242.214978 kJ/mol
# GULP energy per Si atom -12401.507678 kJ/mol
# Density = 1.875542 g / cm^3
# Si number density = 18.798210 Si / 1000 Ang^3
#
#
#
# Elastic Constant Matrix: (Units=GPa)
#
#
# Indices 1 2 3 4 5 6 
#
# 1 47.2959 32.5530 44.2007 0.0000 -1.6151 0.0000
# 2 32.5530 128.0574 97.7083 0.0000 -5.2053 0.0000
# 3 44.2007 97.7083 192.7514 0.0000 -4.3647 0.0000
# 4 0.0000 0.0000 0.0000 35.6657 0.0000 2.2216
# 5 -1.6151 -5.2053 -4.3647 0.0000 19.1639 0.0000
# 6 0.0000 0.0000 0.0000 2.2216 0.0000 17.8830
#
#
#
# Elastic Compliance Matrix: (Units=1/GPa)
#
#
# Indices 1 2 3 4 5 6 
#
# 1 0.027897 -0.003592 -0.004569 0.000000 0.000335 0.000000
# 2 -0.003592 0.013273 -0.005860 0.000000 0.001968 0.000000
# 3 -0.004569 -0.005860 0.009209 0.000000 0.000121 0.000000
# 4 0.000000 0.000000 0.000000 0.028257 0.000000 -0.003510
# 5 0.000335 0.001968 0.000121 0.000000 0.052772 0.000000
# 6 0.000000 0.000000 0.000000 -0.003510 0.000000 0.056355
#
#
# Mechanical properties :
#
#
# Convention : Reuss Voigt Hill
#
# Bulk Modulus (GPa) = 44.76765 79.66986 62.21876
# Shear Modulus (GPa) = 22.39630 27.45202 24.92416
#
# Velocity S-wave (km/s) = 3.45542 3.82560 3.64521
# Velocity P-wave (km/s) = 6.30765 7.87320 7.13350
#
# Compressibility (1/GPa) = 0.02233756
#
# Stress axis : x y z
#
# Youngs Moduli (GPa) = 35.84610 75.33811 108.58832
#
# Poissons Ratio (x) = 0.27061 0.49612
# Poissons Ratio (y) = 0.12876 0.63636
# Poissons Ratio (z) = 0.16377 0.44150
#
# Static dielectric constant tensor:
#      x y z
#    x 2.977730 0.000000 -0.034380 
#    y 0.000000 3.559490 0.000000 
#    z -0.034380 0.000000 3.676460 
# 
# 
# High freq. dielectric constant tensor:
#      x y z
#    x 1.675490 0.000000 -0.003480 
#    y 0.000000 1.737320 0.000000 
#    z -0.003480 0.000000 1.750020 
# 
# From -- ./inp_files/275195.got.cif
#   From: 2010.06.25/outbox.cif.g09.slc.cpg/sg12_138_cif.got.tgz:275195.got - 2010.06.28 00:19:55.
