data_PCOD8107213
_publ_section_title
;
Structure prediction by ZEFSAII (Michael W. Deem and Ramdas Pophale) SiO2 
 PCOD8107213
Probable space group: C 2/M
;
_chemical_formula_sum "Si O2"
_cell_formula_units_Z 64
_cell_length_a 15.418215
_cell_length_b 8.921409
_cell_length_c 30.313956
_cell_angle_alpha 90.000000
_cell_angle_beta 51.172564
_cell_angle_gamma 90.000000
_cell_volume 3248.394072
_symmetry_space_group_name_H-M "C 2/M"
_symmetry_group_IT_number 12
_symmetry_cell_setting 'monoclinic'
loop_
_space_group_symop_operation_xyz
x,y,z
-x,y,-z
-x,-y,-z
x,-y,z
1/2+x,1/2+y,z
1/2-x,1/2+y,-z
1/2-x,1/2-y,-z
1/2+x,1/2-y,z
loop_
_atom_site_type_symbol
_atom_site_label
_atom_site_fract_x
_atom_site_fract_y
_atom_site_fract_z
Si Si1 0.672127 0.324876 0.828942
Si Si2 0.929420 0.324534 0.754843
Si Si3 0.092090 0.822268 0.635358
Si Si4 0.299857 0.672420 0.941557
Si Si5 0.397399 0.828074 0.062274
Si Si6 0.534200 0.677453 0.557084
Si Si7 0.998290 0.676660 0.830490
Si Si8 0.324445 0.677572 0.570208
O O1 0.654874 0.500000 0.827424
O O2 0.800823 0.281420 0.791288
O O3 0.607358 0.275432 0.893475
O O4 0.621088 0.237247 0.803284
O O5 0.950796 0.500000 0.740095
O O6 0.994317 0.228734 0.698372
O O7 0.970523 0.273751 0.789802
O O8 0.208087 0.757950 0.616138
O O9 0.064331 0.757010 0.595451
O O10 0.098998 0.000000 0.632484
O O11 0.323224 0.500000 0.945198
O O12 0.216351 0.690965 0.927725
O O13 0.414270 0.751057 0.892191
O O14 0.250000 0.750000 0.000000
O O15 0.416724 0.000000 0.070780
O O16 0.500000 0.771530 0.000000
O O17 0.535273 0.500000 0.557536
O O18 0.410910 0.728830 0.580873
O O19 0.626621 0.731951 0.492498
O O20 0.991815 0.500000 0.837815
O O21 0.305859 0.500000 0.577048
#
# Coordination Sequence:
#
# PCOD8107213 Si02
#       8
#     8   8   8   8   8   8   8   8
#     4  11  23  41  64  89 115 149 196 246 297 354
#     4  10  24  44  61  81 115 159 201 243 295 358
#     4  11  22  35  56  87 119 150 196 249 297 345
#     4  11  22  36  59  90 124 156 192 238 291 352
#     4  10  21  37  58  87 121 154 189 234 289 353
#     4   8  17  34  57  85 117 157 198 239 290 353
#     4  11  23  42  64  85 115 154 196 242 298 358
#     4   9  17  35  60  83 116 159 200 238 288 353
#
# _framework density 19.702043
#
# number of rings (size 3 to 8) (size 9 to 14) (size 15 to 20)
#    0.000    1.875    1.250    3.375    0.000    4.750 
#    0.000    6.875    0.000    0.000    0.000    0.000 
#    0.000    0.000    0.000    0.000    0.000    0.000 
#
# Total GULP energy -396910.739430 kJ/mol
# GULP energy per Si atom -12403.460607 kJ/mol
# Density = 1.965720 g / cm^3
# Si number density = 19.702043 Si / 1000 Ang^3
#
#
#
# Elastic Constant Matrix: (Units=GPa)
#
#
# Indices 1 2 3 4 5 6 
#
# 1 119.2663 39.4807 42.7212 0.0001 -5.6577 0.0003
# 2 39.4807 68.2988 35.1189 0.0001 -0.4828 0.0005
# 3 42.7212 35.1189 94.5831 0.0000 -6.4806 0.0001
# 4 0.0001 0.0001 0.0000 32.9998 0.0000 -0.8680
# 5 -5.6577 -0.4828 -6.4806 0.0000 26.2499 0.0001
# 6 0.0003 0.0005 0.0001 -0.8680 0.0001 30.2259
#
#
#
# Elastic Compliance Matrix: (Units=1/GPa)
#
#
# Indices 1 2 3 4 5 6 
#
# 1 0.011188 -0.004835 -0.003152 0.000000 0.001544 0.000000
# 2 -0.004835 0.020234 -0.005467 0.000000 -0.002020 0.000000
# 3 -0.003152 -0.005467 0.014213 0.000000 0.002729 0.000000
# 4 0.000000 0.000000 0.000000 0.030326 0.000000 0.000871
# 5 0.001544 -0.002020 0.002729 0.000000 0.039065 0.000000
# 6 0.000000 0.000000 0.000000 0.000871 0.000000 0.033109
#
#
# Mechanical properties :
#
#
# Convention : Reuss Voigt Hill
#
# Bulk Modulus (GPa) = 53.40319 57.42109 55.41214
# Shear Modulus (GPa) = 27.58083 28.88363 28.23223
#
# Velocity S-wave (km/s) = 3.74558 3.83302 3.78955
# Velocity P-wave (km/s) = 6.77274 6.98551 6.87995
#
# Compressibility (1/GPa) = 0.01872547
#
# Stress axis : x y z
#
# Youngs Moduli (GPa) = 89.38514 49.42285 70.35652
#
# Poissons Ratio (x) = 0.23898 0.22176
# Poissons Ratio (y) = 0.43221 0.38465
# Poissons Ratio (z) = 0.28174 0.27020
#
# Static dielectric constant tensor:
#      x y z
#    x 4.002770 0.000000 0.084420 
#    y 0.000000 3.433410 0.000000 
#    z 0.084420 0.000000 3.534640 
# 
# 
# High freq. dielectric constant tensor:
#      x y z
#    x 1.786360 0.000000 -0.002530 
#    y 0.000000 1.756160 0.000000 
#    z -0.002530 0.000000 1.763260 
# 
# From -- ./inp_files/375488.got.cif
#   From: 2010.06.25/outbox.cif.g09.slc.cpg/sg12_188_cif.got.tgz:375488.got - 2010.06.28 00:19:55.
