data_PCOD8107382
_publ_section_title
;
Structure prediction by ZEFSAII (Michael W. Deem and Ramdas Pophale) SiO2 
 PCOD8107382
Probable space group: C 2/M
;
_chemical_formula_sum "Si O2"
_cell_formula_units_Z 36
_cell_length_a 19.174688
_cell_length_b 13.309597
_cell_length_c 6.842129
_cell_angle_alpha 90.000000
_cell_angle_beta 74.012924
_cell_angle_gamma 90.000000
_cell_volume 1678.626926
_symmetry_space_group_name_H-M "C 2/M"
_symmetry_group_IT_number 12
_symmetry_cell_setting 'monoclinic'
loop_
_space_group_symop_operation_xyz
x,y,z
-x,y,-z
-x,-y,-z
x,-y,z
1/2+x,1/2+y,z
1/2-x,1/2+y,-z
1/2-x,1/2-y,-z
1/2+x,1/2-y,z
loop_
_atom_site_type_symbol
_atom_site_label
_atom_site_fract_x
_atom_site_fract_y
_atom_site_fract_z
Si Si1 0.433488 0.381188 0.701796
Si Si2 0.722129 0.714632 0.227865
Si Si3 0.790114 0.392948 0.494200
Si Si4 0.044244 0.388463 0.653553
Si Si5 0.000000 0.767581 0.000000
O O1 0.500000 0.361129 0.500000
O O2 0.416617 0.500000 0.726594
O O3 0.361892 0.319800 0.691138
O O4 0.450871 0.340517 0.905533
O O5 0.771998 0.626327 0.278542
O O6 0.743540 0.809633 0.342845
O O7 0.750000 0.750000 0.000000
O O8 0.754514 0.500000 0.577295
O O9 0.874193 0.399442 0.475044
O O10 0.014595 0.500000 0.739548
O O11 0.000000 0.347684 0.500000
O O12 0.044399 0.307093 0.825922
#
# Coordination Sequence:
#
# PCOD8107382 Si02
#       5
#     8   8   8   8   4
#     4  11  25  43  63  90 126 167 210 258 311 369
#     4  11  23  41  64  90 122 163 208 259 313 368
#     4  10  22  39  59  87 122 159 201 253 313 372
#     4  10  21  37  59  89 124 160 200 251 310 371
#     4  12  20  36  62  90 120 158 208 254 300 360
#
# _framework density 21.446100000000001
#
# number of rings (size 3 to 8) (size 9 to 14) (size 15 to 20)
#    0.000    1.333    0.000    6.000    0.000    3.556 
#    0.000    5.556    0.000    0.000    0.000    0.000 
#    0.000    0.000    0.000    0.000    0.000    0.000 
#
# Total GULP energy -223032.087422 kJ/mol
# GULP energy per Si atom -12390.671523 kJ/mol
# Density = 2.139729 g / cm^3
# Si number density = 21.446100 Si / 1000 Ang^3
#
#
#
# Elastic Constant Matrix: (Units=GPa)
#
#
# Indices 1 2 3 4 5 6 
#
# 1 110.1882 31.4395 38.9059 0.0000 16.7479 0.0000
# 2 31.4395 144.9095 56.0179 0.0000 7.9464 0.0000
# 3 38.9059 56.0179 122.7377 0.0000 15.5278 0.0000
# 4 0.0000 0.0000 0.0000 23.2940 0.0000 -4.1988
# 5 16.7479 7.9464 15.5278 0.0000 37.3297 0.0000
# 6 0.0000 0.0000 0.0000 -4.1988 0.0000 24.4651
#
#
#
# Elastic Compliance Matrix: (Units=1/GPa)
#
#
# Indices 1 2 3 4 5 6 
#
# 1 0.010823 -0.001215 -0.002422 0.000000 -0.003590 0.000000
# 2 -0.001215 0.008517 -0.003527 0.000000 0.000199 0.000000
# 3 -0.002422 -0.003527 0.010864 0.000000 -0.002682 0.000000
# 4 0.000000 0.000000 0.000000 0.044300 0.000000 0.007603
# 5 -0.003590 0.000199 -0.002682 0.000000 0.029472 0.000000
# 6 0.000000 0.000000 0.000000 0.007603 0.000000 0.042179
#
#
# Mechanical properties :
#
#
# Convention : Reuss Voigt Hill
#
# Bulk Modulus (GPa) = 62.98971 70.06244 66.52607
# Shear Modulus (GPa) = 30.16121 33.78258 31.97189
#
# Velocity S-wave (km/s) = 3.75423 3.97322 3.86528
# Velocity P-wave (km/s) = 6.94459 7.33408 7.14199
#
# Compressibility (1/GPa) = 0.01587561
#
# Stress axis : x y z
#
# Youngs Moduli (GPa) = 92.39743 117.41104 92.04432
#
# Poissons Ratio (x) = 0.14265 0.22293
# Poissons Ratio (y) = 0.11226 0.32467
# Poissons Ratio (z) = 0.22379 0.41414
#
# Static dielectric constant tensor:
#      x y z
#    x 3.902210 0.000000 0.387300 
#    y 0.000000 4.593800 0.000000 
#    z 0.387300 0.000000 3.817590 
# 
# 
# High freq. dielectric constant tensor:
#      x y z
#    x 1.838100 0.000000 0.024380 
#    y 0.000000 1.872610 0.000000 
#    z 0.024380 0.000000 1.828350 
# 
# From -- ./inp_files/19663.got.cif
#   From: 2010.06.25/outbox.cif.g09.slc.cpg/sg12_10_cif.got.tgz:19663.got - 2010.06.28 00:19:55.
