data_PCOD8107058
_publ_section_title
;
Structure prediction by ZEFSAII (Michael W. Deem and Ramdas Pophale) SiO2 
 PCOD8107058
Probable space group: C 2/M
;
_chemical_formula_sum "Si O2"
_cell_formula_units_Z 64
_cell_length_a 30.697992
_cell_length_b 9.036867
_cell_length_c 16.901907
_cell_angle_alpha 90.000000
_cell_angle_beta 43.349766
_cell_angle_gamma 90.000000
_cell_volume 3218.641582
_symmetry_space_group_name_H-M "C 2/M"
_symmetry_group_IT_number 12
_symmetry_cell_setting 'monoclinic'
loop_
_space_group_symop_operation_xyz
x,y,z
-x,y,-z
-x,-y,-z
x,-y,z
1/2+x,1/2+y,z
1/2-x,1/2+y,-z
1/2-x,1/2-y,-z
1/2+x,1/2-y,z
loop_
_atom_site_type_symbol
_atom_site_label
_atom_site_fract_x
_atom_site_fract_y
_atom_site_fract_z
Si Si1 0.438675 0.173207 0.845419
Si Si2 0.852928 0.172849 0.339883
Si Si3 0.501497 0.327686 0.368163
Si Si4 0.274339 0.672855 0.755780
Si Si5 0.739035 0.326607 0.402330
Si Si6 0.906374 0.826469 0.622305
Si Si7 0.018117 0.674087 0.887923
Si Si8 0.700943 0.173468 0.004237
O O1 0.494993 0.242111 0.718927
O O2 0.457231 0.209967 0.911972
O O3 0.371121 0.236931 0.901596
O O4 0.436622 0.000000 0.836080
O O5 0.796855 0.234519 0.360346
O O6 0.828043 0.200153 0.463160
O O7 0.919190 0.250886 0.231407
O O8 0.862321 0.000000 0.311030
O O9 0.511543 0.500000 0.337138
O O10 0.434315 0.296053 0.498015
O O11 0.553889 0.257021 0.358507
O O12 0.287576 0.500000 0.727002
O O13 0.264766 0.738569 0.681464
O O14 0.336503 0.743066 0.715311
O O15 0.217612 0.705248 0.890468
O O16 0.756946 0.500000 0.381071
O O17 0.908695 0.000000 0.636019
O O18 0.032221 0.500000 0.872129
O O19 0.000000 0.732269 0.000000
O O20 0.704459 0.000000 0.018685
O O21 0.750000 0.250000 0.000000
#
# Coordination Sequence:
#
# PCOD8107058 Si02
#       8
#     8   8   8   8   8   8   8   8
#     4  10  22  37  54  82 112 142 184 231 275 327
#     4  10  21  37  58  87 118 143 179 236 291 333
#     4   9  17  31  54  79 107 143 178 218 267 324
#     4   9  17  30  54  80 104 140 187 228 264 324
#     4   9  19  35  59  85 111 150 189 225 278 344
#     4   8  15  28  49  81 110 135 178 224 261 315
#     4  10  23  41  62  82 109 153 198 232 275 343
#     4  10  21  37  58  82 111 145 187 234 277 324
#
# _framework density 19.884163000000001
#
# number of rings (size 3 to 8) (size 9 to 14) (size 15 to 20)
#    0.000    2.625    0.000    1.875    3.500    2.750 
#    0.000    1.875    0.000    1.500    0.000    0.000 
#    0.000    0.000    0.000    0.000    0.000    0.000 
#
# Total GULP energy -396449.547505 kJ/mol
# GULP energy per Si atom -12389.048360 kJ/mol
# Density = 1.983891 g / cm^3
# Si number density = 19.884163 Si / 1000 Ang^3
#
#
#
# Elastic Constant Matrix: (Units=GPa)
#
#
# Indices 1 2 3 4 5 6 
#
# 1 77.3646 28.6250 37.1057 0.0000 11.0543 0.0000
# 2 28.6250 33.4970 27.2808 0.0003 -0.2335 0.0000
# 3 37.1057 27.2808 93.8717 0.0006 3.7788 0.0000
# 4 0.0000 0.0003 0.0006 28.6482 -0.0001 -0.1285
# 5 11.0543 -0.2335 3.7788 -0.0001 38.0901 0.0000
# 6 0.0000 0.0000 0.0000 -0.1285 0.0000 23.5435
#
#
#
# Elastic Compliance Matrix: (Units=1/GPa)
#
#
# Indices 1 2 3 4 5 6 
#
# 1 0.021123 -0.015044 -0.003742 0.000000 -0.005851 0.000000
# 2 -0.015044 0.049896 -0.008777 0.000000 0.005543 0.000000
# 3 -0.003742 -0.008777 0.014700 0.000000 -0.000426 0.000000
# 4 0.000000 0.000000 0.000000 0.034907 0.000000 0.000191
# 5 -0.005851 0.005543 -0.000426 0.000000 0.028028 0.000000
# 6 0.000000 0.000000 0.000000 0.000191 0.000000 0.042476
#
#
# Mechanical properties :
#
#
# Convention : Reuss Voigt Hill
#
# Bulk Modulus (GPa) = 32.68732 43.41735 38.05234
# Shear Modulus (GPa) = 19.49674 25.50448 22.50061
#
# Velocity S-wave (km/s) = 3.13472 3.58530 3.36755
# Velocity P-wave (km/s) = 5.43843 6.24674 5.85654
#
# Compressibility (1/GPa) = 0.03059290
#
# Stress axis : x y z
#
# Youngs Moduli (GPa) = 47.34225 20.04159 68.02747
#
# Poissons Ratio (x) = 0.30150 0.25455
# Poissons Ratio (y) = 0.71221 0.59710
# Poissons Ratio (z) = 0.17715 0.17591
#
# Static dielectric constant tensor:
#      x y z
#    x 3.855030 0.000000 0.015290 
#    y 0.000000 3.237940 0.000000 
#    z 0.015290 0.000000 3.787110 
# 
# 
# High freq. dielectric constant tensor:
#      x y z
#    x 1.783160 0.000000 0.003500 
#    y 0.000000 1.733340 0.000000 
#    z 0.003500 0.000000 1.786050 
# 
# From -- ./inp_files/295665.got.cif
#   From: 2010.06.25/outbox.cif.g09.slc.cpg/sg12_148_cif.got.tgz:295665.got - 2010.06.28 00:19:55.
