data_PCOD8107675
_publ_section_title
;
Structure prediction by ZEFSAII (Michael W. Deem and Ramdas Pophale) SiO2 
 PCOD8107675
Probable space group: C 2/M
;
_chemical_formula_sum "Si O2"
_cell_formula_units_Z 48
_cell_length_a 19.570234
_cell_length_b 14.740639
_cell_length_c 8.476880
_cell_angle_alpha 90.000000
_cell_angle_beta 70.790996
_cell_angle_gamma 90.000000
_cell_volume 2309.243358
_symmetry_space_group_name_H-M "C 2/M"
_symmetry_group_IT_number 12
_symmetry_cell_setting 'monoclinic'
loop_
_space_group_symop_operation_xyz
x,y,z
-x,y,-z
-x,-y,-z
x,-y,z
1/2+x,1/2+y,z
1/2-x,1/2+y,-z
1/2-x,1/2-y,-z
1/2+x,1/2-y,z
loop_
_atom_site_type_symbol
_atom_site_label
_atom_site_fract_x
_atom_site_fract_y
_atom_site_fract_z
Si Si1 0.902664 0.244642 0.767618
Si Si2 0.232258 0.100862 0.638530
Si Si3 0.963716 0.313487 0.182634
Si Si4 0.317660 0.766060 0.138500
Si Si5 0.396538 0.100256 0.518682
Si Si6 0.809762 0.105805 0.673051
O O1 0.911954 0.327739 0.641986
O O2 0.881342 0.152544 0.692653
O O3 0.979951 0.235497 0.798242
O O4 0.838178 0.266442 0.939091
O O5 0.220003 0.171105 0.788735
O O6 0.314866 0.109201 0.518330
O O7 0.184617 0.121144 0.519398
O O8 0.215424 0.000000 0.716745
O O9 0.887902 0.268654 0.195962
O O10 0.950166 0.386645 0.329658
O O11 0.000000 0.360532 0.000000
O O12 0.263827 0.849667 0.206102
O O13 0.411108 0.000000 0.576870
O O14 0.808941 0.000000 0.718646
#
# Coordination Sequence:
#
# PCOD8107675 Si02
#       6
#     8   8   8   8   8   8
#     4  11  24  39  59  94 126 163 200 255 311 363
#     4  10  21  37  63  93 120 159 206 256 309 362
#     4  10  23  40  62  87 125 166 208 247 304 369
#     4  11  21  41  63  89 122 164 205 254 306 365
#     4  11  22  39  62  91 125 162 205 253 309 367
#     4  11  22  38  62  90 121 159 207 255 302 357
#
# _framework density 20.786028999999999
#
# number of rings (size 3 to 8) (size 9 to 14) (size 15 to 20)
#    0.000    1.333    3.333    2.500    0.000    3.000 
#    0.000    4.167    0.000    7.000    0.000    0.000 
#    0.000    0.000    0.000    0.000    0.000    0.000 
#
# Total GULP energy -297546.396923 kJ/mol
# GULP energy per Si atom -12397.766538 kJ/mol
# Density = 2.073872 g / cm^3
# Si number density = 20.786029 Si / 1000 Ang^3
#
#
#
# Elastic Constant Matrix: (Units=GPa)
#
#
# Indices 1 2 3 4 5 6 
#
# 1 98.5531 46.1158 23.2655 0.0000 5.6085 0.0000
# 2 46.1158 142.5943 64.0039 0.0000 1.9227 0.0000
# 3 23.2655 64.0039 130.5240 0.0000 -4.0886 0.0000
# 4 0.0000 0.0000 0.0000 12.1907 0.0000 0.7877
# 5 5.6085 1.9227 -4.0886 0.0000 29.7925 0.0000
# 6 0.0000 0.0000 0.0000 0.7877 0.0000 16.9587
#
#
#
# Elastic Compliance Matrix: (Units=1/GPa)
#
#
# Indices 1 2 3 4 5 6 
#
# 1 0.012093 -0.003700 -0.000407 0.000000 -0.002094 0.000000
# 2 -0.003700 0.010167 -0.004343 0.000000 -0.000556 0.000000
# 3 -0.000407 -0.004343 0.009917 0.000000 0.001718 0.000000
# 4 0.000000 0.000000 0.000000 0.082277 0.000000 -0.003821
# 5 -0.002094 -0.000556 0.001718 0.000000 0.034231 0.000000
# 6 0.000000 0.000000 0.000000 -0.003821 0.000000 0.059144
#
#
# Mechanical properties :
#
#
# Convention : Reuss Voigt Hill
#
# Bulk Modulus (GPa) = 65.45724 70.93797 68.19761
# Shear Modulus (GPa) = 21.75592 27.67411 24.71502
#
# Velocity S-wave (km/s) = 3.23872 3.65277 3.45196
# Velocity P-wave (km/s) = 6.74871 7.21055 6.98345
#
# Compressibility (1/GPa) = 0.01527715
#
# Stress axis : x y z
#
# Youngs Moduli (GPa) = 82.68936 98.36217 100.83269
#
# Poissons Ratio (x) = 0.36397 0.04101
# Poissons Ratio (y) = 0.30598 0.43793
# Poissons Ratio (z) = 0.03363 0.42720
#
# Static dielectric constant tensor:
#      x y z
#    x 4.054400 0.000000 0.058520 
#    y 0.000000 3.575310 0.000000 
#    z 0.058520 0.000000 3.814510 
# 
# 
# High freq. dielectric constant tensor:
#      x y z
#    x 1.826960 0.000000 0.007710 
#    y 0.000000 1.789340 0.000000 
#    z 0.007710 0.000000 1.818560 
# 
# From -- ./inp_files/85670.got.cif
#   From: 2010.06.25/outbox.cif.g09.slc.cpg/sg12_43_cif.got.tgz:85670.got - 2010.06.28 00:19:55.
