data_PCOD8107623
_publ_section_title
;
Structure prediction by ZEFSAII (Michael W. Deem and Ramdas Pophale) SiO2 
 PCOD8107623
Probable space group: C 2/M
;
_chemical_formula_sum "Si O2"
_cell_formula_units_Z 40
_cell_length_a 31.386496
_cell_length_b 14.615243
_cell_length_c 14.103305
_cell_angle_alpha 90.000000
_cell_angle_beta 18.090167
_cell_angle_gamma 90.000000
_cell_volume 2008.861419
_symmetry_space_group_name_H-M "C 2/M"
_symmetry_group_IT_number 12
_symmetry_cell_setting 'monoclinic'
loop_
_space_group_symop_operation_xyz
x,y,z
-x,y,-z
-x,-y,-z
x,-y,z
1/2+x,1/2+y,z
1/2-x,1/2+y,-z
1/2-x,1/2-y,-z
1/2+x,1/2-y,z
loop_
_atom_site_type_symbol
_atom_site_label
_atom_site_fract_x
_atom_site_fract_y
_atom_site_fract_z
Si Si1 0.576944 0.000000 0.935353
Si Si2 0.353992 0.659367 0.532186
Si Si3 0.379655 0.359876 0.691151
Si Si4 0.537583 0.164273 0.157576
Si Si5 0.616726 0.500000 0.675248
Si Si6 0.398288 0.857154 0.639407
O O1 0.739362 0.000000 0.573888
O O2 0.500000 0.000000 0.000000
O O3 0.535819 0.907673 0.076562
O O4 0.376825 0.610659 0.586465
O O5 0.455684 0.744770 0.300836
O O6 0.396417 0.588907 0.361867
O O7 0.193264 0.688848 0.861902
O O8 0.500000 0.403248 0.500000
O O9 0.390938 0.251387 0.665352
O O10 0.249512 0.397893 0.024043
O O11 0.453146 0.115346 0.420358
O O12 0.500000 0.500000 0.000000
O O13 0.500000 0.900824 0.500000
#
# Coordination Sequence:
#
# PCOD8107623 Si02
#       6
#     4   8   8   8   4   8
#     4  10  24  46  62  85 116 146 192 253 299 342
#     4  10  21  38  61  88 118 154 195 235 285 346
#     4   9  17  28  50  83 120 155 188 229 274 333
#     4  10  21  37  62  88 118 154 194 235 285 346
#     4  10  24  46  64  82 114 152 192 246 303 348
#     4   9  15  28  50  82 117 153 190 222 276 336
#
# _framework density 19.911777000000001
#
# number of rings (size 3 to 8) (size 9 to 14) (size 15 to 20)
#    0.000    2.400    2.000    0.000    8.400    2.400 
#    0.000    6.000    0.000    0.000    0.000    0.000 
#    0.000    0.000    0.000    0.000    0.000    0.000 
#
# Total GULP energy -247853.091248 kJ/mol
# GULP energy per Si atom -12392.654562 kJ/mol
# Density = 1.986646 g / cm^3
# Si number density = 19.911777 Si / 1000 Ang^3
#
#
#
# Elastic Constant Matrix: (Units=GPa)
#
#
# Indices 1 2 3 4 5 6 
#
# 1 182.1973 50.1894 97.4946 -0.0001 -6.3251 0.0000
# 2 50.1894 76.3853 51.7351 -0.0002 0.1491 -0.0002
# 3 97.4946 51.7351 190.6396 -0.0006 0.6524 -0.0005
# 4 -0.0001 -0.0002 -0.0006 30.9218 0.0000 16.8584
# 5 -6.3251 0.1491 0.6524 0.0000 33.7390 0.0001
# 6 0.0000 -0.0002 -0.0005 16.8584 0.0001 32.2126
#
#
#
# Elastic Compliance Matrix: (Units=1/GPa)
#
#
# Indices 1 2 3 4 5 6 
#
# 1 0.008197 -0.003119 -0.003351 0.000000 0.001615 0.000000
# 2 -0.003119 0.017227 -0.003078 0.000000 -0.000601 0.000000
# 3 -0.003351 -0.003078 0.007797 0.000000 -0.000765 0.000000
# 4 0.000000 0.000000 0.000000 0.045251 0.000000 -0.023682
# 5 0.001615 -0.000601 -0.000765 0.000000 0.029960 0.000000
# 6 0.000000 0.000000 0.000000 -0.023682 0.000000 0.043438
#
#
# Mechanical properties :
#
#
# Convention : Reuss Voigt Hill
#
# Bulk Modulus (GPa) = 70.79761 94.22894 82.51328
# Shear Modulus (GPa) = 28.46186 36.02821 32.24503
#
# Velocity S-wave (km/s) = 3.78484 4.25831 4.02854
# Velocity P-wave (km/s) = 7.39817 8.46189 7.94784
#
# Compressibility (1/GPa) = 0.01412477
#
# Stress axis : x y z
#
# Youngs Moduli (GPa) = 121.99430 58.04920 128.25375
#
# Poissons Ratio (x) = 0.18108 0.42978
# Poissons Ratio (y) = 0.38056 0.39471
# Poissons Ratio (z) = 0.40881 0.17865
#
# Static dielectric constant tensor:
#      x y z
#    x 3.789430 0.000000 -0.176510 
#    y 0.000000 3.293660 0.000000 
#    z -0.176510 0.000000 3.855140 
# 
# 
# High freq. dielectric constant tensor:
#      x y z
#    x 1.779290 0.000000 -0.008870 
#    y 0.000000 1.760670 0.000000 
#    z -0.008870 0.000000 1.786530 
# 
# From -- ./inp_files/189908.got.cif
#   From: 2010.06.25/outbox.cif.g09.slc.cpg/sg12_95_cif.got.tgz:189908.got - 2010.06.28 00:19:55.
