data_PCOD8107798
_publ_section_title
;
Structure prediction by ZEFSAII (Michael W. Deem and Ramdas Pophale) SiO2 
 PCOD8107798
Probable space group: C 2/M
;
_chemical_formula_sum "Si O2"
_cell_formula_units_Z 56
_cell_length_a 21.420256
_cell_length_b 8.905576
_cell_length_c 15.074220
_cell_angle_alpha 90.000000
_cell_angle_beta 87.169727
_cell_angle_gamma 90.000000
_cell_volume 2872.046316
_symmetry_space_group_name_H-M "C 2/M"
_symmetry_group_IT_number 12
_symmetry_cell_setting 'monoclinic'
loop_
_space_group_symop_operation_xyz
x,y,z
-x,y,-z
-x,-y,-z
x,-y,z
1/2+x,1/2+y,z
1/2-x,1/2+y,-z
1/2-x,1/2-y,-z
1/2+x,1/2-y,z
loop_
_atom_site_type_symbol
_atom_site_label
_atom_site_fract_x
_atom_site_fract_y
_atom_site_fract_z
Si Si1 0.789616 0.174687 0.878835
Si Si2 0.169748 0.176940 0.932548
Si Si3 0.138433 0.823534 0.301563
Si Si4 0.557372 0.174393 0.553328
Si Si5 0.687513 0.821324 0.466204
Si Si6 0.487578 0.174745 0.729966
Si Si7 0.531391 0.677281 0.905304
O O1 0.723318 0.255090 0.866173
O O2 0.837064 0.214092 0.797974
O O3 0.775240 0.000000 0.885389
O O4 0.820963 0.234544 0.967278
O O5 0.102940 0.231206 0.902097
O O6 0.173625 0.000000 0.928805
O O7 0.182730 0.735018 0.365859
O O8 0.068848 0.760739 0.313487
O O9 0.139679 0.000000 0.322316
O O10 0.500000 0.246588 0.500000
O O11 0.625603 0.240308 0.522739
O O12 0.546283 0.200358 0.659508
O O13 0.559420 0.000000 0.528714
O O14 0.750000 0.750000 0.500000
O O15 0.693191 0.000000 0.470330
O O16 0.499000 0.239712 0.826324
O O17 0.470880 0.000000 0.739371
O O18 0.523725 0.500000 0.891117
O O19 0.500000 0.725712 0.000000
#
# Coordination Sequence:
#
# PCOD8107798 Si02
#       7
#     8   8   8   8   8   8   8
#     4   9  19  35  56  79 109 149 189 231 286 349
#     4   9  18  34  55  79 108 148 193 235 282 339
#     4  11  22  38  59  85 116 151 192 235 292 355
#     4   9  18  38  63  84 114 156 194 238 299 356
#     4  11  23  41  63  88 121 155 194 242 297 355
#     4  11  22  37  61  89 113 149 200 247 292 346
#     4  10  21  38  57  80 118 158 189 233 294 351
#
# _framework density 19.498293
#
# number of rings (size 3 to 8) (size 9 to 14) (size 15 to 20)
#    0.000    2.000    1.429    2.143    0.000    5.429 
#    0.000   10.714    0.000    0.000    0.000    0.000 
#    0.000    0.000    0.000    0.000    0.000    0.000 
#
# Total GULP energy -347201.786790 kJ/mol
# GULP energy per Si atom -12400.063814 kJ/mol
# Density = 1.945391 g / cm^3
# Si number density = 19.498293 Si / 1000 Ang^3
#
#
#
# Elastic Constant Matrix: (Units=GPa)
#
#
# Indices 1 2 3 4 5 6 
#
# 1 130.5136 40.7557 37.8530 0.0000 8.2087 0.0000
# 2 40.7557 53.9017 33.9984 0.0000 1.0114 0.0000
# 3 37.8530 33.9984 87.4240 0.0000 7.9934 0.0000
# 4 0.0000 0.0000 0.0000 29.9231 0.0000 1.7532
# 5 8.2087 1.0114 7.9934 0.0000 32.2365 0.0000
# 6 0.0000 0.0000 0.0000 1.7532 0.0000 33.2917
#
#
#
# Elastic Compliance Matrix: (Units=1/GPa)
#
#
# Indices 1 2 3 4 5 6 
#
# 1 0.010386 -0.006751 -0.001687 0.000000 -0.002015 0.000000
# 2 -0.006751 0.029055 -0.008646 0.000000 0.002951 0.000000
# 3 -0.001687 -0.008646 0.015826 0.000000 -0.003223 0.000000
# 4 0.000000 0.000000 0.000000 0.033522 0.000000 -0.001765
# 5 -0.002015 0.002951 -0.003223 0.000000 0.032240 0.000000
# 6 0.000000 0.000000 0.000000 -0.001765 0.000000 0.030130
#
#
# Mechanical properties :
#
#
# Convention : Reuss Voigt Hill
#
# Bulk Modulus (GPa) = 47.39685 55.22818 51.31252
# Shear Modulus (GPa) = 25.99260 29.70573 27.84916
#
# Velocity S-wave (km/s) = 3.65508 3.90744 3.78337
# Velocity P-wave (km/s) = 6.49414 6.98166 6.74231
#
# Compressibility (1/GPa) = 0.02109845
#
# Stress axis : x y z
#
# Youngs Moduli (GPa) = 96.28048 34.41765 63.18633
#
# Poissons Ratio (x) = 0.23236 0.10663
# Poissons Ratio (y) = 0.64999 0.54631
# Poissons Ratio (z) = 0.16247 0.29757
#
# Static dielectric constant tensor:
#      x y z
#    x 3.783220 0.000000 -0.014830 
#    y 0.000000 3.389480 0.000000 
#    z -0.014830 0.000000 3.616710 
# 
# 
# High freq. dielectric constant tensor:
#      x y z
#    x 1.766720 0.000000 -0.005610 
#    y 0.000000 1.743730 0.000000 
#    z -0.005610 0.000000 1.762340 
# 
# From -- ./inp_files/230993.got.cif
#   From: 2010.06.25/outbox.cif.g09.slc.cpg/sg12_116_cif.got.tgz:230993.got - 2010.06.28 00:19:55.
