data_PCOD8107015
_publ_section_title
;
Structure prediction by ZEFSAII (Michael W. Deem and Ramdas Pophale) SiO2 
 PCOD8107015
Probable space group: C 2/M
;
_chemical_formula_sum "Si O2"
_cell_formula_units_Z 56
_cell_length_a 25.256008
_cell_length_b 8.698078
_cell_length_c 17.664190
_cell_angle_alpha 90.000000
_cell_angle_beta 134.638472
_cell_angle_gamma 90.000000
_cell_volume 2761.149043
_symmetry_space_group_name_H-M "C 2/M"
_symmetry_group_IT_number 12
_symmetry_cell_setting 'monoclinic'
loop_
_space_group_symop_operation_xyz
x,y,z
-x,y,-z
-x,-y,-z
x,-y,z
1/2+x,1/2+y,z
1/2-x,1/2+y,-z
1/2-x,1/2-y,-z
1/2+x,1/2-y,z
loop_
_atom_site_type_symbol
_atom_site_label
_atom_site_fract_x
_atom_site_fract_y
_atom_site_fract_z
Si Si1 0.693968 0.182512 0.879801
Si Si2 0.539803 0.678861 0.205022
Si Si3 0.065454 0.332749 0.007732
Si Si4 0.521364 0.178161 0.717415
Si Si5 0.334318 0.322900 0.781747
Si Si6 0.799218 0.819702 0.278577
Si Si7 0.443721 0.333650 0.506949
O O1 0.607897 0.233063 0.808713
O O2 0.716312 0.238372 0.817846
O O3 0.701360 0.000000 0.889432
O O4 0.750000 0.250000 0.000000
O O5 0.529518 0.500000 0.178156
O O6 0.467558 0.769968 0.102987
O O7 0.535636 0.721568 0.288426
O O8 0.617082 0.731509 0.242510
O O9 0.104843 0.500000 0.033302
O O10 0.119840 0.203680 0.094962
O O11 0.000000 0.359234 0.000000
O O12 0.484767 0.207962 0.599670
O O13 0.515582 0.000000 0.732749
O O14 0.311314 0.500000 0.751745
O O15 0.262523 0.217342 0.719576
O O16 0.872726 0.757651 0.394172
O O17 0.803863 0.000000 0.267197
O O18 0.500000 0.380562 0.500000
O O19 0.423732 0.500000 0.527017
#
# Coordination Sequence:
#
# PCOD8107015 Si02
#       7
#     8   8   8   8   8   8   8
#     4  11  25  42  61  90 127 164 201 246 304 363
#     4  10  21  37  58  84 119 161 203 246 298 359
#     4   9  17  31  53  80 113 154 199 244 289 347
#     4  11  24  40  63  92 122 158 202 253 303 354
#     4  10  21  37  57  85 120 159 202 247 298 358
#     4  11  23  40  65  92 121 159 201 250 304 361
#     4  10  21  41  66  90 117 154 202 250 300 359
#
# _framework density 20.281412
#
# number of rings (size 3 to 8) (size 9 to 14) (size 15 to 20)
#    0.000    1.714    1.429    2.571    2.000    6.571 
#    0.000    0.714    0.000    0.000    0.000    0.000 
#    0.000    0.000    0.000    0.000    0.000    0.000 
#
# Total GULP energy -346932.844768 kJ/mol
# GULP energy per Si atom -12390.458742 kJ/mol
# Density = 2.023525 g / cm^3
# Si number density = 20.281412 Si / 1000 Ang^3
#
#
#
# Elastic Constant Matrix: (Units=GPa)
#
#
# Indices 1 2 3 4 5 6 
#
# 1 115.5813 34.3203 46.5237 0.0000 5.8365 0.0000
# 2 34.3203 70.9738 31.8873 0.0000 -0.8919 -0.0001
# 3 46.5237 31.8873 128.3058 0.0000 8.9824 0.0000
# 4 0.0000 0.0000 0.0000 -24.2897 0.0000 109.1424
# 5 5.8365 -0.8919 8.9824 0.0000 24.4969 0.0000
# 6 0.0000 -0.0001 0.0000 109.1424 0.0000 -154.8377
#
#
#
# Elastic Compliance Matrix: (Units=1/GPa)
#
#
# Indices 1 2 3 4 5 6 
#
# 1 0.011121 -0.004100 -0.002892 0.000000 -0.001739 0.000000
# 2 -0.004100 0.017476 -0.003048 0.000000 0.002731 0.000000
# 3 -0.002892 -0.003048 0.009811 0.000000 -0.003020 0.000000
# 4 0.000000 0.000000 0.000000 0.018996 0.000000 0.013390
# 5 -0.001739 0.002731 -0.003020 0.000000 0.042442 0.000000
# 6 0.000000 0.000000 0.000000 0.013390 0.000000 0.002980
#
#
# Mechanical properties :
#
#
# Convention : Reuss Voigt Hill
#
# Bulk Modulus (GPa) = 54.55863 60.03594 57.29729
# Shear Modulus (GPa) = 38.75486 -17.45078 10.65204
#
# Velocity S-wave (km/s) = 4.37608 -2.93649 2.29424
# Velocity P-wave (km/s) = 7.24518 4.26244 5.94395
#
# Compressibility (1/GPa) = 0.01832891
#
# Stress axis : x y z
#
# Youngs Moduli (GPa) = 89.91764 57.22102 101.92387
#
# Poissons Ratio (x) = 0.23463 0.29474
# Poissons Ratio (y) = 0.36870 0.31062
# Poissons Ratio (z) = 0.26002 0.17439
#
# Static dielectric constant tensor:
#      x y z
#    x 3.748170 0.000000 0.176720 
#    y 0.000000 3.621070 0.000000 
#    z 0.176720 0.000000 3.661490 
# 
# 
# High freq. dielectric constant tensor:
#      x y z
#    x 1.790540 0.000000 0.002740 
#    y 0.000000 1.797770 0.000000 
#    z 0.002740 0.000000 1.778970 
# 
# From -- ./inp_files/292515.got.cif
#   From: 2010.06.25/outbox.cif.g09.slc.cpg/sg12_147_cif.got.tgz:292515.got - 2010.06.28 00:19:55.
