data_PCOD8107722
_publ_section_title
;
Structure prediction by ZEFSAII (Michael W. Deem and Ramdas Pophale) SiO2 
 PCOD8107722
Probable space group: C 2/M
;
_chemical_formula_sum "Si O2"
_cell_formula_units_Z 56
_cell_length_a 9.200224
_cell_length_b 16.830842
_cell_length_c 29.924028
_cell_angle_alpha 90.000000
_cell_angle_beta 143.831206
_cell_angle_gamma 90.000000
_cell_volume 2734.629755
_symmetry_space_group_name_H-M "C 2/M"
_symmetry_group_IT_number 12
_symmetry_cell_setting 'monoclinic'
loop_
_space_group_symop_operation_xyz
x,y,z
-x,y,-z
-x,-y,-z
x,-y,z
1/2+x,1/2+y,z
1/2-x,1/2+y,-z
1/2-x,1/2-y,-z
1/2+x,1/2-y,z
loop_
_atom_site_type_symbol
_atom_site_label
_atom_site_fract_x
_atom_site_fract_y
_atom_site_fract_z
Si Si1 0.184858 0.321633 0.136216
Si Si2 0.926716 0.349761 0.277945
Si Si3 0.705505 0.408921 0.018549
Si Si4 0.813918 0.785875 0.698818
Si Si5 0.455112 0.338557 0.111360
Si Si6 0.686422 0.000000 0.378564
Si Si7 0.575000 0.824727 0.469501
Si Si8 0.280062 0.500000 0.505380
O O1 0.422320 0.329524 0.227739
O O2 0.261131 0.325175 0.103146
O O3 0.988056 0.388446 0.100704
O O4 0.033871 0.241755 0.106756
O O5 0.834009 0.285300 0.291407
O O6 0.702098 0.380182 0.191705
O O7 0.137571 0.306380 0.301363
O O8 0.028835 0.423291 0.329788
O O9 0.679204 0.500000 0.021504
O O10 0.500000 0.366532 0.000000
O O11 0.663973 0.392939 0.955859
O O12 0.659543 0.828843 0.621647
O O13 0.750346 0.000000 0.445639
O O14 0.932565 0.000000 0.410075
O O15 0.500000 0.799495 0.500000
O O16 0.750000 0.750000 0.500000
O O17 0.678241 0.915408 0.498161
#
# Coordination Sequence:
#
# PCOD8107722 Si02
#       8
#     8   8   8   8   8   4   8   4
#     4  10  21  39  62  91 120 161 201 256 308 371
#     4  10  21  39  65  92 126 165 210 267 315 381
#     4  11  24  41  59  86 125 163 205 256 313 372
#     4  10  21  40  61  96 122 164 211 259 315 384
#     4  10  21  37  65  90 121 156 209 253 309 370
#     4  11  22  40  64  94 129 167 214 262 330 375
#     4  12  25  42  69  96 132 173 219 272 328 385
#     4  11  25  42  62  94 133 172 217 269 321 397
#
# _framework density 20.478092
#
# number of rings (size 3 to 8) (size 9 to 14) (size 15 to 20)
#    0.000    1.429    1.429    3.643    3.000    2.286 
#    5.143    0.000    0.000    0.000    0.000    0.000 
#    0.000    0.000    0.000    0.000    0.000    0.000 
#
# Total GULP energy -346997.484847 kJ/mol
# GULP energy per Si atom -12392.767316 kJ/mol
# Density = 2.043148 g / cm^3
# Si number density = 20.478092 Si / 1000 Ang^3
#
#
#
# Elastic Constant Matrix: (Units=GPa)
#
#
# Indices 1 2 3 4 5 6 
#
# 1 140.2870 52.3408 51.4997 -0.0004 -0.6265 0.0000
# 2 52.3408 101.7709 29.2932 0.0002 8.7190 0.0001
# 3 51.4997 29.2932 107.0098 0.0008 -3.6774 0.0001
# 4 -0.0004 0.0002 0.0008 28.2825 0.0005 -0.1524
# 5 -0.6265 8.7190 -3.6774 0.0005 32.4972 -0.0002
# 6 0.0000 0.0001 0.0001 -0.1524 -0.0002 29.7159
#
#
#
# Elastic Compliance Matrix: (Units=1/GPa)
#
#
# Indices 1 2 3 4 5 6 
#
# 1 0.010035 -0.004187 -0.003652 0.000000 0.000904 0.000000
# 2 -0.004187 0.012757 -0.001604 0.000000 -0.003685 0.000000
# 3 -0.003652 -0.001604 0.011599 0.000000 0.001672 0.000000
# 4 0.000000 0.000000 0.000000 0.035358 -0.000001 0.000181
# 5 0.000904 -0.003685 0.001672 -0.000001 0.031967 0.000000
# 6 0.000000 0.000000 0.000000 0.000181 0.000000 0.033653
#
#
# Mechanical properties :
#
#
# Convention : Reuss Voigt Hill
#
# Bulk Modulus (GPa) = 64.49579 68.37054 66.43316
# Shear Modulus (GPa) = 31.36284 32.49474 31.92879
#
# Velocity S-wave (km/s) = 3.91772 3.98779 3.95291
# Velocity P-wave (km/s) = 7.21305 7.39344 7.30380
#
# Compressibility (1/GPa) = 0.01550489
#
# Stress axis : x y z
#
# Youngs Moduli (GPa) = 99.64794 78.38977 86.21377
#
# Poissons Ratio (x) = 0.32824 0.31488
# Poissons Ratio (y) = 0.41726 0.13824
# Poissons Ratio (z) = 0.36395 0.12570
#
# Static dielectric constant tensor:
#      x y z
#    x 4.047270 0.000000 0.329200 
#    y 0.000000 3.511850 0.000000 
#    z 0.329200 0.000000 4.249580 
# 
# 
# High freq. dielectric constant tensor:
#      x y z
#    x 1.810820 0.000000 0.004420 
#    y 0.000000 1.783220 0.000000 
#    z 0.004420 0.000000 1.815380 
# 
# From -- ./inp_files/356771.got.cif
#   From: 2010.06.25/outbox.cif.g09.slc.cpg/sg12_179_cif.got.tgz:356771.got - 2010.06.28 00:19:55.
