data_PCOD8107690
_publ_section_title
;
Structure prediction by ZEFSAII (Michael W. Deem and Ramdas Pophale) SiO2 
 PCOD8107690
Probable space group: C 2/M
;
_chemical_formula_sum "Si O2"
_cell_formula_units_Z 48
_cell_length_a 17.075859
_cell_length_b 17.054539
_cell_length_c 14.698141
_cell_angle_alpha 90.000000
_cell_angle_beta 146.474289
_cell_angle_gamma 90.000000
_cell_volume 2364.115814
_symmetry_space_group_name_H-M "C 2/M"
_symmetry_group_IT_number 12
_symmetry_cell_setting 'monoclinic'
loop_
_space_group_symop_operation_xyz
x,y,z
-x,y,-z
-x,-y,-z
x,-y,z
1/2+x,1/2+y,z
1/2-x,1/2+y,-z
1/2-x,1/2-y,-z
1/2+x,1/2-y,z
loop_
_atom_site_type_symbol
_atom_site_label
_atom_site_fract_x
_atom_site_fract_y
_atom_site_fract_z
Si Si1 0.811661 0.684544 0.496713
Si Si2 0.854894 0.410097 0.911630
Si Si3 0.100919 0.912138 0.206514
Si Si4 0.080009 0.588910 0.818715
Si Si5 0.835223 0.774478 0.334352
Si Si6 0.699376 0.363357 0.111332
O O1 0.750000 0.750000 0.500000
O O2 0.704550 0.610750 0.389671
O O3 0.799555 0.725027 0.387939
O O4 0.964411 0.652061 0.673157
O O5 0.806164 0.500000 0.855494
O O6 0.738585 0.358502 0.746723
O O7 0.869715 0.386330 0.031869
O O8 0.000000 0.394582 0.000000
O O9 0.190071 0.908955 0.198503
O O10 0.045002 0.000000 0.167167
O O11 0.964741 0.854058 0.078767
O O12 0.017927 0.500000 0.760731
O O13 0.212451 0.588505 0.878079
O O14 0.777912 0.720837 0.195686
O O15 0.000000 0.791730 0.500000
#
# Coordination Sequence:
#
# PCOD8107690 Si02
#       6
#     8   8   8   8   8   8
#     4  11  24  39  59  92 124 164 210 261 307 368
#     4  10  24  43  65  89 121 168 215 259 310 366
#     4  10  21  38  61  90 129 166 200 253 322 379
#     4  11  22  40  66  94 125 162 209 260 312 375
#     4  11  23  41  60  91 125 162 203 254 318 367
#     4  10  21  37  63  95 125 158 203 256 314 385
#
# _framework density 20.303574000000001
#
# number of rings (size 3 to 8) (size 9 to 14) (size 15 to 20)
#    0.000    1.500    1.667    3.500    7.000    2.333 
#    0.000    3.333    0.000    0.000    0.000    0.000 
#    0.000    0.000    0.000    0.000    0.000    0.000 
#
# Total GULP energy -297452.297064 kJ/mol
# GULP energy per Si atom -12393.845711 kJ/mol
# Density = 2.025736 g / cm^3
# Si number density = 20.303574 Si / 1000 Ang^3
#
#
#
# Elastic Constant Matrix: (Units=GPa)
#
#
# Indices 1 2 3 4 5 6 
#
# 1 91.3285 38.4700 40.6798 0.0001 10.3187 0.0000
# 2 38.4700 111.4783 67.0743 0.0000 6.6149 0.0000
# 3 40.6798 67.0743 113.9690 0.0000 17.6308 0.0000
# 4 0.0001 0.0000 0.0000 35.0372 0.0002 12.7965
# 5 10.3187 6.6149 17.6308 0.0002 24.3236 0.0000
# 6 0.0000 0.0000 0.0000 12.7965 0.0000 12.8715
#
#
#
# Elastic Compliance Matrix: (Units=1/GPa)
#
#
# Indices 1 2 3 4 5 6 
#
# 1 0.013735 -0.002932 -0.002702 0.000000 -0.003071 0.000000
# 2 -0.002932 0.014642 -0.008050 0.000000 0.003097 0.000000
# 3 -0.002702 -0.008050 0.015723 0.000000 -0.008062 0.000000
# 4 0.000000 0.000000 0.000000 0.044812 0.000000 -0.044551
# 5 -0.003071 0.003097 -0.008062 0.000000 0.047416 0.000000
# 6 0.000000 0.000000 0.000000 -0.044551 0.000000 0.121983
#
#
# Mechanical properties :
#
#
# Convention : Reuss Voigt Hill
#
# Bulk Modulus (GPa) = 59.76206 67.69158 63.72682
# Shear Modulus (GPa) = 17.16704 25.81658 21.49181
#
# Velocity S-wave (km/s) = 2.91093 3.56972 3.25703
# Velocity P-wave (km/s) = 6.38719 7.09948 6.75273
#
# Compressibility (1/GPa) = 0.01673302
#
# Stress axis : x y z
#
# Youngs Moduli (GPa) = 72.80708 68.29824 63.59972
#
# Poissons Ratio (x) = 0.20024 0.17185
# Poissons Ratio (y) = 0.21346 0.51196
# Poissons Ratio (z) = 0.19672 0.54978
#
# Static dielectric constant tensor:
#      x y z
#    x 3.707150 0.000000 -0.145060 
#    y 0.000000 3.667940 0.000000 
#    z -0.145060 0.000000 3.990160 
# 
# 
# High freq. dielectric constant tensor:
#      x y z
#    x 1.787080 0.000000 0.002910 
#    y 0.000000 1.796310 0.000000 
#    z 0.002910 0.000000 1.794670 
# 
# From -- ./inp_files/75442.got.cif
#   From: 2010.06.25/outbox.cif.g09.slc.cpg/sg12_38_cif.got.tgz:75442.got - 2010.06.28 00:19:55.
