data_PCOD8107232
_publ_section_title
;
Structure prediction by ZEFSAII (Michael W. Deem and Ramdas Pophale) SiO2 
 PCOD8107232
Probable space group: C 2/M
;
_chemical_formula_sum "Si O2"
_cell_formula_units_Z 44
_cell_length_a 5.194142
_cell_length_b 20.630820
_cell_length_c 24.977908
_cell_angle_alpha 90.000000
_cell_angle_beta 122.556591
_cell_angle_gamma 90.000000
_cell_volume 2256.015043
_symmetry_space_group_name_H-M "C 2/M"
_symmetry_group_IT_number 12
_symmetry_cell_setting 'monoclinic'
loop_
_space_group_symop_operation_xyz
x,y,z
-x,y,-z
-x,-y,-z
x,-y,z
1/2+x,1/2+y,z
1/2-x,1/2+y,-z
1/2-x,1/2-y,-z
1/2+x,1/2-y,z
loop_
_atom_site_type_symbol
_atom_site_label
_atom_site_fract_x
_atom_site_fract_y
_atom_site_fract_z
Si Si1 0.308932 0.928629 0.430667
Si Si2 0.059302 0.792725 0.119477
Si Si3 0.500000 0.290737 0.500000
Si Si4 0.062237 0.289905 0.732224
Si Si5 0.679420 0.120797 0.379919
Si Si6 0.360554 0.426508 0.042721
O O1 0.500000 0.891458 0.500000
O O2 0.387100 0.902129 0.380667
O O3 0.944088 0.931626 0.397624
O O4 0.444724 0.000000 0.445967
O O5 0.257107 0.750028 0.099270
O O6 0.252998 0.807474 0.193952
O O7 0.984707 0.865391 0.090712
O O8 0.250000 0.250000 0.500000
O O9 0.646819 0.327361 0.565698
O O10 0.771227 0.246500 0.712903
O O11 0.943456 0.354835 0.690902
O O12 0.442525 0.500000 0.074401
O O13 0.500000 0.419365 0.000000
O O14 0.000000 0.419369 0.000000
#
# Coordination Sequence:
#
# PCOD8107232 Si02
#       6
#     8   8   4   8   8   8
#     4  11  22  38  55  75 102 136 179 227 281 339
#     4  10  21  37  60  87 117 158 204 239 282 341
#     4  12  22  32  49  78 103 126 168 216 268 332
#     4  10  21  38  57  80 112 149 182 229 285 338
#     4  12  21  37  56  78 105 141 176 225 286 335
#     4  10  21  37  58  88 125 159 190 237 298 341
#
# _framework density 19.503416000000001
#
# number of rings (size 3 to 8) (size 9 to 14) (size 15 to 20)
#    0.000    1.273    1.818    4.909    0.000    3.636 
#    0.000    1.818    0.000    2.182    0.000    0.000 
#    0.000    0.000    0.000    0.000    0.000    0.000 
#
# Total GULP energy -272573.905413 kJ/mol
# GULP energy per Si atom -12389.722973 kJ/mol
# Density = 1.945902 g / cm^3
# Si number density = 19.503416 Si / 1000 Ang^3
#
#
#
# Elastic Constant Matrix: (Units=GPa)
#
#
# Indices 1 2 3 4 5 6 
#
# 1 160.3625 40.6605 26.7037 0.0000 -7.5085 0.0000
# 2 40.6605 122.7559 52.4468 0.0000 -3.7910 0.0000
# 3 26.7037 52.4468 74.3656 0.0000 0.8853 0.0000
# 4 0.0000 0.0000 0.0000 -19.0500 0.0000 42.5246
# 5 -7.5085 -3.7910 0.8853 0.0000 31.6554 0.0000
# 6 0.0000 0.0000 0.0000 42.5246 0.0000 7.3725
#
#
#
# Elastic Compliance Matrix: (Units=1/GPa)
#
#
# Indices 1 2 3 4 5 6 
#
# 1 0.006955 -0.001694 -0.001321 0.000000 0.001484 0.000000
# 2 -0.001694 0.012156 -0.007980 0.000000 0.001277 0.000000
# 3 -0.001321 -0.007980 0.019571 0.000000 -0.001816 0.000000
# 4 0.000000 0.000000 0.000000 -0.003783 0.000000 0.021821
# 5 0.001484 0.001277 -0.001816 0.000000 0.032146 0.000000
# 6 0.000000 0.000000 0.000000 0.021821 0.000000 0.009775
#
#
# Mechanical properties :
#
#
# Convention : Reuss Voigt Hill
#
# Bulk Modulus (GPa) = 59.90534 66.34512 63.12523
# Shear Modulus (GPa) = 47.90507 19.84047 33.87277
#
# Velocity S-wave (km/s) = 4.96142 3.19295 4.17197
# Velocity P-wave (km/s) = 7.97515 6.90538 7.45946
#
# Compressibility (1/GPa) = 0.01669300
#
# Stress axis : x y z
#
# Youngs Moduli (GPa) = 143.78860 82.26268 51.09589
#
# Poissons Ratio (x) = 0.13932 0.06748
# Poissons Ratio (y) = 0.24351 0.40776
# Poissons Ratio (z) = 0.18989 0.65648
#
# Static dielectric constant tensor:
#      x y z
#    x 3.985840 0.000000 -0.051610 
#    y 0.000000 3.681600 0.000000 
#    z -0.051610 0.000000 3.381020 
# 
# 
# High freq. dielectric constant tensor:
#      x y z
#    x 1.790950 0.000000 -0.000780 
#    y 0.000000 1.758060 0.000000 
#    z -0.000780 0.000000 1.738550 
# 
# From -- ./inp_files/354977.got.cif
#   From: 2010.06.25/outbox.cif.g09.slc.cpg/sg12_178_cif.got.tgz:354977.got - 2010.06.28 00:19:55.
