data_PCOD8107039
_publ_section_title
;
Structure prediction by ZEFSAII (Michael W. Deem and Ramdas Pophale) SiO2 
 PCOD8107039
Probable space group: C 2/M
;
_chemical_formula_sum "Si O2"
_cell_formula_units_Z 48
_cell_length_a 19.872060
_cell_length_b 22.669687
_cell_length_c 5.103251
_cell_angle_alpha 90.000000
_cell_angle_beta 95.406351
_cell_angle_gamma 90.000000
_cell_volume 2288.753839
_symmetry_space_group_name_H-M "C 2/M"
_symmetry_group_IT_number 12
_symmetry_cell_setting 'monoclinic'
loop_
_space_group_symop_operation_xyz
x,y,z
-x,y,-z
-x,-y,-z
x,-y,z
1/2+x,1/2+y,z
1/2-x,1/2+y,-z
1/2-x,1/2-y,-z
1/2+x,1/2-y,z
loop_
_atom_site_type_symbol
_atom_site_label
_atom_site_fract_x
_atom_site_fract_y
_atom_site_fract_z
Si Si1 0.113938 0.432107 0.080517
Si Si2 0.323628 0.770749 0.623149
Si Si3 0.924816 0.638214 0.438014
Si Si4 0.758964 0.634041 0.905582
Si Si5 0.670728 0.356533 0.368717
Si Si6 0.959301 0.930304 0.734506
O O1 0.095402 0.500000 0.025572
O O2 0.080171 0.391570 0.846791
O O3 0.085840 0.412604 0.351023
O O4 0.195524 0.424526 0.106112
O O5 0.250000 0.750000 0.500000
O O6 0.368782 0.809802 0.441534
O O7 0.309050 0.809607 0.877514
O O8 0.362112 0.708741 0.687419
O O9 0.000000 0.665396 0.500000
O O10 0.698246 0.633439 0.672797
O O11 0.732544 0.635942 0.190979
O O12 0.615368 0.404883 0.286111
O O13 0.000000 0.906653 0.500000
O O14 0.951464 0.000000 0.727320
O O15 0.000000 0.907941 0.000000
#
# Coordination Sequence:
#
# PCOD8107039 Si02
#       6
#     8   8   8   8   8   8
#     4  11  23  40  61  85 118 157 196 242 295 349
#     4   9  20  39  61  85 120 156 192 242 300 351
#     4  11  24  40  59  87 120 155 199 247 292 346
#     4  10  21  37  57  88 118 146 192 248 295 343
#     4  11  21  36  62  87 114 155 197 237 295 362
#     4  10  22  40  58  82 119 156 194 243 295 349
#
# _framework density 20.972110000000001
#
# number of rings (size 3 to 8) (size 9 to 14) (size 15 to 20)
#    0.000    1.667    0.000    5.500    0.000    8.000 
#    0.000    3.333    0.000    0.000    0.000    0.000 
#    0.000    0.000    0.000    0.000    0.000    0.000 
#
# Total GULP energy -297532.841915 kJ/mol
# GULP energy per Si atom -12397.201746 kJ/mol
# Density = 2.092438 g / cm^3
# Si number density = 20.972110 Si / 1000 Ang^3
#
#
#
# Elastic Constant Matrix: (Units=GPa)
#
#
# Indices 1 2 3 4 5 6 
#
# 1 88.1345 40.5295 10.1247 0.0000 12.1595 0.0000
# 2 40.5295 50.7948 16.2279 0.0000 3.8019 0.0000
# 3 10.1247 16.2279 88.3454 0.0000 6.3517 0.0000
# 4 0.0000 0.0000 0.0000 67.8199 0.0000 6.3939
# 5 12.1595 3.8019 6.3517 0.0000 30.2660 0.0000
# 6 0.0000 0.0000 0.0000 6.3939 0.0000 25.8732
#
#
#
# Elastic Compliance Matrix: (Units=1/GPa)
#
#
# Indices 1 2 3 4 5 6 
#
# 1 0.018945 -0.014995 0.001010 0.000000 -0.005940 0.000000
# 2 -0.014995 0.032885 -0.004526 0.000000 0.002843 0.000000
# 3 0.001010 -0.004526 0.012207 0.000000 -0.002399 0.000000
# 4 0.000000 0.000000 0.000000 0.015097 0.000000 -0.003731
# 5 -0.005940 0.002843 -0.002399 0.000000 0.035573 0.000000
# 6 0.000000 0.000000 0.000000 -0.003731 0.000000 0.039572
#
#
# Mechanical properties :
#
#
# Convention : Reuss Voigt Hill
#
# Bulk Modulus (GPa) = 37.01598 40.11545 38.56571
# Shear Modulus (GPa) = 24.96183 35.48464 30.22323
#
# Velocity S-wave (km/s) = 3.45373 4.11785 3.80032
# Velocity P-wave (km/s) = 5.79592 6.46362 6.13886
#
# Compressibility (1/GPa) = 0.02701536
#
# Stress axis : x y z
#
# Youngs Moduli (GPa) = 52.78401 30.40933 81.91760
#
# Poissons Ratio (x) = 0.45598 -0.08275
# Poissons Ratio (y) = 0.79148 0.37080
# Poissons Ratio (z) = -0.05332 0.13765
#
# Static dielectric constant tensor:
#      x y z
#    x 3.795340 0.000000 -0.032990 
#    y 0.000000 4.150900 0.000000 
#    z -0.032990 0.000000 3.747040 
# 
# 
# High freq. dielectric constant tensor:
#      x y z
#    x 1.818150 0.000000 -0.004980 
#    y 0.000000 1.814350 0.000000 
#    z -0.004980 0.000000 1.829640 
# 
# From -- ./inp_files/20964.got.cif
#   From: 2010.06.25/outbox.cif.g09.slc.cpg/sg12_11_cif.got.tgz:20964.got - 2010.06.28 00:19:55.
