data_PCOD8107059
_publ_section_title
;
Structure prediction by ZEFSAII (Michael W. Deem and Ramdas Pophale) SiO2 
 PCOD8107059
Probable space group: C 2/M
;
_chemical_formula_sum "Si O2"
_cell_formula_units_Z 64
_cell_length_a 32.561252
_cell_length_b 9.122576
_cell_length_c 15.491526
_cell_angle_alpha 90.000000
_cell_angle_beta 134.393243
_cell_angle_gamma 90.000000
_cell_volume 3288.126840
_symmetry_space_group_name_H-M "C 2/M"
_symmetry_group_IT_number 12
_symmetry_cell_setting 'monoclinic'
loop_
_space_group_symop_operation_xyz
x,y,z
-x,y,-z
-x,-y,-z
x,-y,z
1/2+x,1/2+y,z
1/2-x,1/2+y,-z
1/2-x,1/2-y,-z
1/2+x,1/2-y,z
loop_
_atom_site_type_symbol
_atom_site_label
_atom_site_fract_x
_atom_site_fract_y
_atom_site_fract_z
Si Si1 0.167616 0.831369 0.334151
Si Si2 0.769719 0.830389 0.400447
Si Si3 0.842425 0.665624 0.996361
Si Si4 0.963608 0.828381 0.362425
Si Si5 0.465048 0.328848 0.863537
Si Si6 0.152436 0.666759 0.800458
Si Si7 0.238412 0.329306 0.777486
Si Si8 0.974006 0.673320 0.202493
O O1 0.183061 0.800300 0.456638
O O2 0.206863 0.730079 0.332367
O O3 0.101641 0.791596 0.219221
O O4 0.180760 0.000000 0.330301
O O5 0.792321 0.748235 0.348599
O O6 0.762960 0.000000 0.369766
O O7 0.833256 0.500000 0.950194
O O8 0.823180 0.680866 0.067355
O O9 0.908490 0.713438 0.082250
O O10 0.803576 0.772157 0.882000
O O11 0.899459 0.777857 0.289709
O O12 0.989733 0.744410 0.317953
O O13 0.000000 0.788879 0.500000
O O14 0.964129 0.000000 0.342347
O O15 0.474242 0.500000 0.856865
O O16 0.485350 0.236448 0.811546
O O17 0.500000 0.280762 0.000000
O O18 0.131032 0.500000 0.752377
O O19 0.203014 0.711956 0.810479
O O20 0.240578 0.500000 0.762656
O O21 0.982764 0.500000 0.223427
#
# Coordination Sequence:
#
# PCOD8107059 Si02
#       8
#     8   8   8   8   8   8   8   8
#     4   9  20  40  60  81 112 147 188 234 283 340
#     4  10  21  37  58  82 111 149 188 233 284 334
#     4   9  19  36  55  78 112 148 186 229 276 330
#     4  10  21  37  59  85 113 149 192 236 283 338
#     4  10  22  39  61  89 119 152 192 240 293 346
#     4   9  20  37  54  79 113 147 185 229 276 331
#     4  11  22  34  54  83 112 144 186 230 277 336
#     4  10  22  39  58  84 117 152 191 235 285 345
#
# _framework density 19.463968000000001
#
# number of rings (size 3 to 8) (size 9 to 14) (size 15 to 20)
#    0.000    2.250    0.000    2.625    1.750    6.750 
#    0.000    3.750    0.000    0.000    0.000    0.000 
#    0.000    0.000    0.000    0.000    0.000    0.000 
#
# Total GULP energy -396897.493400 kJ/mol
# GULP energy per Si atom -12403.046669 kJ/mol
# Density = 1.941967 g / cm^3
# Si number density = 19.463968 Si / 1000 Ang^3
#
#
#
# Elastic Constant Matrix: (Units=GPa)
#
#
# Indices 1 2 3 4 5 6 
#
# 1 60.8850 30.9055 26.9887 0.0000 -1.9676 0.0000
# 2 30.9055 81.0766 39.7222 0.0000 -5.0293 0.0000
# 3 26.9887 39.7222 97.7453 0.0000 2.5037 0.0000
# 4 0.0000 0.0000 0.0000 30.9110 0.0000 -2.8781
# 5 -1.9676 -5.0293 2.5037 0.0000 23.2538 0.0000
# 6 0.0000 0.0000 0.0000 -2.8781 0.0000 36.4601
#
#
#
# Elastic Compliance Matrix: (Units=1/GPa)
#
#
# Indices 1 2 3 4 5 6 
#
# 1 0.021149 -0.006424 -0.003248 0.000000 0.000750 0.000000
# 2 -0.006424 0.017735 -0.005533 0.000000 0.003888 0.000000
# 3 -0.003248 -0.005533 0.013451 0.000000 -0.002920 0.000000
# 4 0.000000 0.000000 0.000000 0.032590 0.000000 0.002573
# 5 0.000750 0.003888 -0.002920 0.000000 0.044222 0.000000
# 6 0.000000 0.000000 0.000000 0.002573 0.000000 0.027630
#
#
# Mechanical properties :
#
#
# Convention : Reuss Voigt Hill
#
# Bulk Modulus (GPa) = 45.61084 48.32664 46.96874
# Shear Modulus (GPa) = 25.70740 27.59767 26.65254
#
# Velocity S-wave (km/s) = 3.63818 3.76957 3.70446
# Velocity P-wave (km/s) = 6.41349 6.62034 6.51773
#
# Compressibility (1/GPa) = 0.02192461
#
# Stress axis : x y z
#
# Youngs Moduli (GPa) = 47.28287 56.38664 74.34485
#
# Poissons Ratio (x) = 0.36223 0.24149
# Poissons Ratio (y) = 0.30374 0.41135
# Poissons Ratio (z) = 0.15358 0.31198
#
# Static dielectric constant tensor:
#      x y z
#    x 3.479730 0.000000 -0.103410 
#    y 0.000000 3.540850 0.000000 
#    z -0.103410 0.000000 3.555530 
# 
# 
# High freq. dielectric constant tensor:
#      x y z
#    x 1.755160 0.000000 -0.009060 
#    y 0.000000 1.761940 0.000000 
#    z -0.009060 0.000000 1.759420 
# 
# From -- ./inp_files/250109.got.cif
#   From: 2010.06.25/outbox.cif.g09.slc.cpg/sg12_126_cif.got.tgz:250109.got - 2010.06.28 00:19:55.
