data_PCOD8107363
_publ_section_title
;
Structure prediction by ZEFSAII (Michael W. Deem and Ramdas Pophale) SiO2 
 PCOD8107363
Probable space group: C 2/M
;
_chemical_formula_sum "Si O2"
_cell_formula_units_Z 56
_cell_length_a 9.454648
_cell_length_b 16.960748
_cell_length_c 17.226042
_cell_angle_alpha 90.000000
_cell_angle_beta 99.006674
_cell_angle_gamma 90.000000
_cell_volume 2728.272714
_symmetry_space_group_name_H-M "C 2/M"
_symmetry_group_IT_number 12
_symmetry_cell_setting 'monoclinic'
loop_
_space_group_symop_operation_xyz
x,y,z
-x,y,-z
-x,-y,-z
x,-y,z
1/2+x,1/2+y,z
1/2-x,1/2+y,-z
1/2-x,1/2-y,-z
1/2+x,1/2-y,z
loop_
_atom_site_type_symbol
_atom_site_label
_atom_site_fract_x
_atom_site_fract_y
_atom_site_fract_z
Si Si1 0.812170 0.588976 0.699980
Si Si2 0.863566 0.313208 0.043137
Si Si3 0.031518 0.906391 0.587562
Si Si4 0.584832 0.187395 0.768067
Si Si5 0.395032 0.361581 0.199917
Si Si6 0.168128 0.088816 0.290408
Si Si7 0.639009 0.589255 0.964410
O O1 0.866535 0.500000 0.685197
O O2 0.691798 0.619479 0.627964
O O3 0.734058 0.587184 0.776279
O O4 0.943351 0.649289 0.718351
O O5 0.906481 0.315641 0.137569
O O6 0.750000 0.250000 0.000000
O O7 0.783162 0.397315 0.026003
O O8 0.000000 0.307340 0.000000
O O9 0.903678 0.880036 0.635054
O O10 0.000000 0.870036 0.500000
O O11 0.030114 0.000000 0.585558
O O12 0.587831 0.280220 0.750327
O O13 0.713582 0.147662 0.732209
O O14 0.540636 0.411954 0.216755
O O15 0.360406 0.348508 0.106833
O O16 0.230848 0.000000 0.303996
O O17 0.633184 0.500000 0.933769
O O18 0.500000 0.612379 0.000000
#
# Coordination Sequence:
#
# PCOD8107363 Si02
#       7
#     8   8   8   8   8   8   8
#     4  10  21  37  59  89 120 155 202 250 303 365
#     4  12  26  41  59  82 119 164 213 266 323 383
#     4   8  16  36  66  95 126 164 203 245 300 377
#     4  12  24  36  61  85 124 158 202 263 315 367
#     4  11  21  37  59  80 114 158 206 249 298 378
#     4  10  21  37  61  92 121 157 207 253 303 367
#     4  11  23  39  61  86 115 157 211 267 323 378
#
# _framework density 20.525807
#
# number of rings (size 3 to 8) (size 9 to 14) (size 15 to 20)
#    0.000    1.429    1.429    5.571    2.000    2.571 
#    0.000    0.714    0.000   17.143    0.000    0.000 
#    0.000    0.000    0.000    0.000    0.000    0.286 
#
# Total GULP energy -346896.363930 kJ/mol
# GULP energy per Si atom -12389.155855 kJ/mol
# Density = 2.047909 g / cm^3
# Si number density = 20.525807 Si / 1000 Ang^3
#
#
#
# Elastic Constant Matrix: (Units=GPa)
#
#
# Indices 1 2 3 4 5 6 
#
# 1 126.2697 24.5129 38.7200 0.0000 0.2132 0.0000
# 2 24.5129 75.2745 18.4145 0.0000 -0.3014 0.0000
# 3 38.7200 18.4145 125.3327 0.0000 -5.2944 0.0000
# 4 0.0000 0.0000 0.0000 24.4023 0.0000 5.0970
# 5 0.2132 -0.3014 -5.2944 0.0000 18.3642 0.0000
# 6 0.0000 0.0000 0.0000 5.0970 0.0000 24.8254
#
#
#
# Elastic Compliance Matrix: (Units=1/GPa)
#
#
# Indices 1 2 3 4 5 6 
#
# 1 0.009152 -0.002368 -0.002516 0.000000 -0.000871 0.000000
# 2 -0.002368 0.014395 -0.001389 0.000000 -0.000137 0.000000
# 3 -0.002516 -0.001389 0.009071 0.000000 0.002622 0.000000
# 4 0.000000 0.000000 0.000000 0.042816 0.000000 -0.008791
# 5 -0.000871 -0.000137 0.002622 0.000000 0.055217 0.000000
# 6 0.000000 0.000000 0.000000 -0.008791 0.000000 0.042086
#
#
# Mechanical properties :
#
#
# Convention : Reuss Voigt Hill
#
# Bulk Modulus (GPa) = 49.82308 54.46352 52.14330
# Shear Modulus (GPa) = 26.04492 29.86701 27.95597
#
# Velocity S-wave (km/s) = 3.56601 3.81871 3.69452
# Velocity P-wave (km/s) = 6.42505 6.78492 6.60744
#
# Compressibility (1/GPa) = 0.02007102
#
# Stress axis : x y z
#
# Youngs Moduli (GPa) = 109.26068 69.46740 110.24154
#
# Poissons Ratio (x) = 0.16452 0.27740
# Poissons Ratio (y) = 0.25877 0.15314
# Poissons Ratio (z) = 0.27494 0.09650
#
# Static dielectric constant tensor:
#      x y z
#    x 3.482410 0.000000 0.097310 
#    y 0.000000 3.781910 0.000000 
#    z 0.097310 0.000000 3.915660 
# 
# 
# High freq. dielectric constant tensor:
#      x y z
#    x 1.804070 0.000000 0.003430 
#    y 0.000000 1.800840 0.000000 
#    z 0.003430 0.000000 1.790030 
# 
# From -- ./inp_files/257145.got.cif
#   From: 2010.06.25/outbox.cif.g09.slc.cpg/sg12_129_cif.got.tgz:257145.got - 2010.06.28 00:19:55.
