data_PCOD8107636
_publ_section_title
;
Structure prediction by ZEFSAII (Michael W. Deem and Ramdas Pophale) SiO2 
 PCOD8107636
Probable space group: C 2/M
;
_chemical_formula_sum "Si O2"
_cell_formula_units_Z 48
_cell_length_a 8.684039
_cell_length_b 27.965457
_cell_length_c 10.016917
_cell_angle_alpha 90.000000
_cell_angle_beta 93.975422
_cell_angle_gamma 90.000000
_cell_volume 2426.786320
_symmetry_space_group_name_H-M "C 2/M"
_symmetry_group_IT_number 12
_symmetry_cell_setting 'monoclinic'
loop_
_space_group_symop_operation_xyz
x,y,z
-x,y,-z
-x,-y,-z
x,-y,z
1/2+x,1/2+y,z
1/2-x,1/2+y,-z
1/2-x,1/2-y,-z
1/2+x,1/2-y,z
loop_
_atom_site_type_symbol
_atom_site_label
_atom_site_fract_x
_atom_site_fract_y
_atom_site_fract_z
Si Si1 0.862423 0.446098 0.089746
Si Si2 0.143519 0.448392 0.606085
Si Si3 0.680314 0.354932 0.026207
Si Si4 0.684593 0.851444 0.502903
Si Si5 0.346051 0.707617 0.729490
Si Si6 0.709628 0.310057 0.754661
O O1 0.804857 0.500000 0.055692
O O2 0.916779 0.441089 0.246414
O O3 0.724091 0.409823 0.053276
O O4 0.000000 0.431689 0.000000
O O5 0.232899 0.500000 0.601561
O O6 0.244466 0.402607 0.566468
O O7 0.000000 0.450460 0.500000
O O8 0.757491 0.333736 0.897860
O O9 0.500000 0.353116 0.000000
O O10 0.730252 0.322171 0.154044
O O11 0.500000 0.846769 0.500000
O O12 0.765767 0.808941 0.588325
O O13 0.741034 0.848103 0.354573
O O14 0.529170 0.701271 0.732311
O O15 0.312556 0.763104 0.746376
#
# Coordination Sequence:
#
# PCOD8107636 Si02
#       6
#     8   8   8   8   8   8
#     4  10  21  37  62  91 118 152 196 243 287 343
#     4   9  19  36  59  87 119 150 189 239 290 339
#     4  10  23  40  59  86 119 156 191 239 295 346
#     4  11  22  37  60  89 115 155 193 237 292 342
#     4  11  22  42  59  85 116 155 194 244 289 348
#     4  11  24  38  61  84 118 152 197 241 290 345
#
# _framework density 19.779243000000001
#
# number of rings (size 3 to 8) (size 9 to 14) (size 15 to 20)
#    0.000    1.667    1.667    2.500    4.667    1.667 
#    0.000    0.000    0.000    3.000    0.000    0.000 
#    0.000    0.000    0.000    0.000    0.000    0.000 
#
# Total GULP energy -297569.697484 kJ/mol
# GULP energy per Si atom -12398.737395 kJ/mol
# Density = 1.973422 g / cm^3
# Si number density = 19.779243 Si / 1000 Ang^3
#
#
#
# Elastic Constant Matrix: (Units=GPa)
#
#
# Indices 1 2 3 4 5 6 
#
# 1 47.9664 20.4296 23.8047 0.0000 -7.7642 0.0000
# 2 20.4296 123.7387 44.4330 0.0000 -14.4433 0.0000
# 3 23.8047 44.4330 124.0078 0.0000 -20.7608 0.0000
# 4 0.0000 0.0000 0.0000 29.8032 0.0000 -4.8290
# 5 -7.7642 -14.4433 -20.7608 0.0000 30.6548 0.0000
# 6 0.0000 0.0000 0.0000 -4.8290 0.0000 17.9703
#
#
#
# Elastic Compliance Matrix: (Units=1/GPa)
#
#
# Indices 1 2 3 4 5 6 
#
# 1 0.023955 -0.002469 -0.003263 0.000000 0.002694 0.000000
# 2 -0.002469 0.009687 -0.002637 0.000000 0.002153 0.000000
# 3 -0.003263 -0.002637 0.010477 0.000000 0.005027 0.000000
# 4 0.000000 0.000000 0.000000 0.035081 0.000000 0.009427
# 5 0.002694 0.002153 0.005027 0.000000 0.037723 0.000000
# 6 0.000000 0.000000 0.000000 0.009427 0.000000 0.058180
#
#
# Mechanical properties :
#
#
# Convention : Reuss Voigt Hill
#
# Bulk Modulus (GPa) = 36.52004 52.56083 44.54044
# Shear Modulus (GPa) = 24.87979 29.48871 27.18425
#
# Velocity S-wave (km/s) = 3.55050 3.86540 3.71129
# Velocity P-wave (km/s) = 5.94239 6.82299 6.39785
#
# Compressibility (1/GPa) = 0.02738223
#
# Stress axis : x y z
#
# Youngs Moduli (GPa) = 41.74532 103.22816 95.45118
#
# Poissons Ratio (x) = 0.25486 0.31143
# Poissons Ratio (y) = 0.10307 0.25167
# Poissons Ratio (z) = 0.13620 0.27217
#
# Static dielectric constant tensor:
#      x y z
#    x 3.223050 0.000000 -0.076370 
#    y 0.000000 4.179900 0.000000 
#    z -0.076370 0.000000 4.039140 
# 
# 
# High freq. dielectric constant tensor:
#      x y z
#    x 1.735800 0.000000 0.000450 
#    y 0.000000 1.789100 0.000000 
#    z 0.000450 0.000000 1.794930 
# 
# From -- ./inp_files/42146.got.cif
#   From: 2010.06.25/outbox.cif.g09.slc.cpg/sg12_22_cif.got.tgz:42146.got - 2010.06.28 00:19:55.
