data_PCOD8107992
_publ_section_title
;
Structure prediction by ZEFSAII (Michael W. Deem and Ramdas Pophale) SiO2 
 PCOD8107992
Probable space group: C 2/M
;
_chemical_formula_sum "Si O2"
_cell_formula_units_Z 64
_cell_length_a 19.667737
_cell_length_b 8.401189
_cell_length_c 33.284006
_cell_angle_alpha 90.000000
_cell_angle_beta 143.875090
_cell_angle_gamma 90.000000
_cell_volume 3242.273176
_symmetry_space_group_name_H-M "C 2/M"
_symmetry_group_IT_number 12
_symmetry_cell_setting 'monoclinic'
loop_
_space_group_symop_operation_xyz
x,y,z
-x,y,-z
-x,-y,-z
x,-y,z
1/2+x,1/2+y,z
1/2-x,1/2+y,-z
1/2-x,1/2-y,-z
1/2+x,1/2-y,z
loop_
_atom_site_type_symbol
_atom_site_label
_atom_site_fract_x
_atom_site_fract_y
_atom_site_fract_z
Si Si1 0.383218 0.182031 0.968045
Si Si2 0.651148 0.186832 0.825440
Si Si3 0.873209 0.816669 0.048382
Si Si4 0.878139 0.685427 0.559308
Si Si5 0.230323 0.813368 0.704633
Si Si6 0.013078 0.813392 0.551707
Si Si7 0.918692 0.812695 0.292727
Si Si8 0.517809 0.813956 0.186235
O O1 0.274247 0.227497 0.888485
O O2 0.369971 0.000000 0.975848
O O3 0.500000 0.208942 0.000000
O O4 0.393610 0.296366 0.011077
O O5 0.598216 0.219593 0.756672
O O6 0.563130 0.257313 0.817131
O O7 0.669609 0.000000 0.840653
O O8 0.966600 0.718783 0.117999
O O9 0.881951 0.000000 0.064636
O O10 0.750000 0.750000 0.000000
O O11 0.880810 0.500000 0.570733
O O12 0.750000 0.750000 0.500000
O O13 0.924323 0.715844 0.536496
O O14 0.955210 0.776703 0.629100
O O15 0.177480 0.749146 0.721468
O O16 0.353983 0.735741 0.752585
O O17 0.143621 0.773859 0.627033
O O18 0.246304 0.000000 0.717753
O O19 0.000000 0.755709 0.500000
O O20 0.985628 0.000000 0.543809
O O21 0.907303 0.000000 0.279510
O O22 0.528131 0.000000 0.198888
#
# Coordination Sequence:
#
# PCOD8107992 Si02
#       8
#     8   8   8   8   8   8   8   8
#     4  11  25  43  63  86 116 157 201 246 301 358
#     4  11  23  38  59  88 122 156 194 246 296 347
#     4  12  24  40  62  87 116 152 194 248 302 354
#     4  11  22  38  60  87 120 158 202 250 298 352
#     4   8  17  35  58  83 112 151 195 235 283 345
#     4   9  18  35  60  89 121 158 197 240 290 350
#     4  10  21  39  61  85 117 157 199 246 295 350
#     4  10  21  38  59  84 116 157 198 237 290 354
#
# _framework density 19.739236999999999
#
# number of rings (size 3 to 8) (size 9 to 14) (size 15 to 20)
#    0.000    1.750    1.250    4.125    1.750    2.750 
#    0.000    5.000    0.000    0.000    0.000    0.000 
#    0.000    0.000    0.000    0.000    0.000    0.000 
#
# Total GULP energy -396860.236445 kJ/mol
# GULP energy per Si atom -12401.882389 kJ/mol
# Density = 1.969431 g / cm^3
# Si number density = 19.739237 Si / 1000 Ang^3
#
#
#
# Elastic Constant Matrix: (Units=GPa)
#
#
# Indices 1 2 3 4 5 6 
#
# 1 109.5699 24.5190 79.0329 0.0000 10.5398 -0.0004
# 2 24.5190 43.4972 5.5796 -0.0004 8.0828 -0.0009
# 3 79.0329 5.5796 135.1366 -0.0001 8.5001 0.0001
# 4 0.0000 -0.0004 -0.0001 29.6005 0.0002 -4.2562
# 5 10.5398 8.0828 8.5001 0.0002 46.3397 -0.0001
# 6 -0.0004 -0.0009 0.0001 -4.2562 -0.0001 26.2032
#
#
#
# Elastic Compliance Matrix: (Units=1/GPa)
#
#
# Indices 1 2 3 4 5 6 
#
# 1 0.018927 -0.009163 -0.010643 0.000000 -0.000754 0.000000
# 2 -0.009163 0.028268 0.004422 0.000000 -0.003658 0.000001
# 3 -0.010643 0.004422 0.013494 0.000000 -0.000826 0.000000
# 4 0.000000 0.000000 0.000000 0.034591 0.000000 0.005619
# 5 -0.000754 -0.003658 -0.000826 0.000000 0.022541 0.000000
# 6 0.000000 0.000001 0.000000 0.005619 0.000000 0.039076
#
#
# Mechanical properties :
#
#
# Convention : Reuss Voigt Hill
#
# Bulk Modulus (GPa) = 33.42356 56.27406 44.84881
# Shear Modulus (GPa) = 25.29877 32.36682 28.83279
#
# Velocity S-wave (km/s) = 3.58390 4.05374 3.82604
# Velocity P-wave (km/s) = 5.83910 7.10500 6.50293
#
# Compressibility (1/GPa) = 0.02991901
#
# Stress axis : x y z
#
# Youngs Moduli (GPa) = 52.83559 35.37605 74.10796
#
# Poissons Ratio (x) = 0.32416 0.78875
# Poissons Ratio (y) = 0.48415 -0.32770
# Poissons Ratio (z) = 0.56234 -0.15643
#
# Static dielectric constant tensor:
#      x y z
#    x 3.607490 0.000000 0.130510 
#    y 0.000000 3.603520 0.000000 
#    z 0.130510 0.000000 3.659730 
# 
# 
# High freq. dielectric constant tensor:
#      x y z
#    x 1.774750 0.000000 0.003300 
#    y 0.000000 1.757720 0.000000 
#    z 0.003300 0.000000 1.778140 
# 
# From -- ./inp_files/378517.got.cif
#   From: 2010.06.25/outbox.cif.g09.slc.cpg/sg12_190_cif.got.tgz:378517.got - 2010.06.28 00:19:55.
