data_PCOD8107622
_publ_section_title
;
Structure prediction by ZEFSAII (Michael W. Deem and Ramdas Pophale) SiO2 
 PCOD8107622
Probable space group: C 2/M
;
_chemical_formula_sum "Si O2"
_cell_formula_units_Z 48
_cell_length_a 27.795958
_cell_length_b 19.883707
_cell_length_c 12.022526
_cell_angle_alpha 90.000000
_cell_angle_beta 161.560937
_cell_angle_gamma 90.000000
_cell_volume 2101.688124
_symmetry_space_group_name_H-M "C 2/M"
_symmetry_group_IT_number 12
_symmetry_cell_setting 'monoclinic'
loop_
_space_group_symop_operation_xyz
x,y,z
-x,y,-z
-x,-y,-z
x,-y,z
1/2+x,1/2+y,z
1/2-x,1/2+y,-z
1/2-x,1/2-y,-z
1/2+x,1/2-y,z
loop_
_atom_site_type_symbol
_atom_site_label
_atom_site_fract_x
_atom_site_fract_y
_atom_site_fract_z
Si Si1 0.113905 0.923194 0.849535
Si Si2 0.835600 0.575793 0.152861
Si Si3 0.776141 0.159588 0.702464
Si Si4 0.012137 0.269993 0.237032
Si Si5 0.246536 0.337502 0.216446
Si Si6 0.822826 0.074837 0.596249
O O1 0.000000 0.900363 0.500000
O O2 0.073986 0.000000 0.799327
O O3 0.280944 0.920025 0.159975
O O4 0.125030 0.874277 0.979988
O O5 0.839221 0.500000 0.116964
O O6 0.000000 0.609268 0.500000
O O7 0.725723 0.614128 0.826898
O O8 0.602401 0.180568 0.350784
O O9 0.750810 0.106828 0.548760
O O10 0.879170 0.223637 0.888183
O O11 0.146558 0.224649 0.581041
O O12 0.927816 0.312175 0.149263
O O13 0.293176 0.375810 0.429790
O O14 0.752339 0.000000 0.422827
O O15 0.000000 0.067888 0.000000
#
# Coordination Sequence:
#
# PCOD8107622 Si02
#       6
#     8   8   8   8   8   8
#     4  10  21  37  62  88 117 158 200 255 310 353
#     4  10  21  39  64  90 121 161 203 256 312 359
#     4  11  22  43  59  92 123 157 207 251 291 377
#     4  10  24  39  64  86 124 171 202 240 311 346
#     4  11  22  43  61  94 124 161 208 253 294 376
#     4  11  24  40  68  96 120 157 197 259 314 353
#
# _framework density 22.838781999999998
#
# number of rings (size 3 to 8) (size 9 to 14) (size 15 to 20)
#    0.000    1.500    1.667    3.000    0.000    4.667 
#    0.000   20.000    0.000    0.000    0.000    0.000 
#    0.000    0.000    0.000    0.000    0.000    0.000 
#
# Total GULP energy -297441.845870 kJ/mol
# GULP energy per Si atom -12393.410245 kJ/mol
# Density = 2.278680 g / cm^3
# Si number density = 22.838782 Si / 1000 Ang^3
#
#
#
# Elastic Constant Matrix: (Units=GPa)
#
#
# Indices 1 2 3 4 5 6 
#
# 1 81.4847 40.9451 12.6048 0.0000 -8.3813 0.0000
# 2 40.9451 101.5857 15.2466 0.0000 -7.3666 0.0000
# 3 12.6048 15.2466 54.4346 0.0000 12.3940 0.0000
# 4 0.0000 0.0000 0.0000 14.2346 0.0000 22.8537
# 5 -8.3813 -7.3666 12.3940 0.0000 41.2548 0.0000
# 6 0.0000 0.0000 0.0000 22.8537 0.0000 16.7386
#
#
#
# Elastic Compliance Matrix: (Units=1/GPa)
#
#
# Indices 1 2 3 4 5 6 
#
# 1 0.015915 -0.005782 -0.002756 0.000000 0.003029 0.000000
# 2 -0.005782 0.012709 -0.002652 0.000000 0.001891 0.000000
# 3 -0.002756 -0.002652 0.021454 0.000000 -0.007479 0.000000
# 4 0.000000 0.000000 0.000000 -0.058934 0.000000 0.080464
# 5 0.003029 0.001891 -0.007479 0.000000 0.027439 0.000000
# 6 0.000000 0.000000 0.000000 0.080464 0.000000 -0.050118
#
#
# Mechanical properties :
#
#
# Convention : Reuss Voigt Hill
#
# Bulk Modulus (GPa) = 36.09945 41.67754 38.88849
# Shear Modulus (GPa) = 64366.67285 25.69284 32196.18284
#
# Velocity S-wave (km/s) = 168.06023 3.35769 118.86024
# Velocity P-wave (km/s) = 194.10005 5.77237 137.31014
#
# Compressibility (1/GPa) = 0.02770125
#
# Stress axis : x y z
#
# Youngs Moduli (GPa) = 62.83306 78.68211 46.61083
#
# Poissons Ratio (x) = 0.45491 0.12844
# Poissons Ratio (y) = 0.36327 0.12360
# Poissons Ratio (z) = 0.17314 0.20864
#
# Static dielectric constant tensor:
#      x y z
#    x 4.085670 0.000000 0.349920 
#    y 0.000000 4.433120 0.000000 
#    z 0.349920 0.000000 3.995010 
# 
# 
# High freq. dielectric constant tensor:
#      x y z
#    x 1.893950 0.000000 0.026200 
#    y 0.000000 1.910360 0.000000 
#    z 0.026200 0.000000 1.895200 
# 
# From -- ./inp_files/184782.got.cif
#   From: 2010.06.25/outbox.cif.g09.slc.cpg/sg12_93_cif.got.tgz:184782.got - 2010.06.28 00:19:55.
