data_PCOD8107853
_publ_section_title
;
Structure prediction by ZEFSAII (Michael W. Deem and Ramdas Pophale) SiO2 
 PCOD8107853
Probable space group: C 2/M
;
_chemical_formula_sum "Si O2"
_cell_formula_units_Z 56
_cell_length_a 25.181659
_cell_length_b 8.858503
_cell_length_c 15.548143
_cell_angle_alpha 90.000000
_cell_angle_beta 127.930809
_cell_angle_gamma 90.000000
_cell_volume 2735.675544
_symmetry_space_group_name_H-M "C 2/M"
_symmetry_group_IT_number 12
_symmetry_cell_setting 'monoclinic'
loop_
_space_group_symop_operation_xyz
x,y,z
-x,y,-z
-x,-y,-z
x,-y,z
1/2+x,1/2+y,z
1/2-x,1/2+y,-z
1/2-x,1/2-y,-z
1/2+x,1/2-y,z
loop_
_atom_site_type_symbol
_atom_site_label
_atom_site_fract_x
_atom_site_fract_y
_atom_site_fract_z
Si Si1 0.109075 0.835603 0.511072
Si Si2 0.677839 0.178522 0.095615
Si Si3 0.882898 0.178163 0.128076
Si Si4 0.742637 0.834269 0.405249
Si Si5 0.373953 0.677446 0.797454
Si Si6 0.537565 0.678885 0.273268
Si Si7 0.331595 0.320067 0.261355
O O1 0.185353 0.861687 0.561641
O O2 0.069332 0.749942 0.393765
O O3 0.117555 0.753250 0.613093
O O4 0.073969 0.000000 0.488470
O O5 0.620346 0.248251 0.102037
O O6 0.753895 0.232207 0.194670
O O7 0.672176 0.000000 0.094922
O O8 0.662853 0.234065 0.984938
O O9 0.860380 0.235786 0.199173
O O10 0.960226 0.224055 0.190571
O O11 0.872001 0.000000 0.106104
O O12 0.750000 0.750000 0.500000
O O13 0.700746 0.723334 0.303616
O O14 0.707793 0.000000 0.380461
O O15 0.382922 0.500000 0.817081
O O16 0.425927 0.741160 0.776976
O O17 0.549962 0.500000 0.289357
O O18 0.334740 0.500000 0.270663
#
# Coordination Sequence:
#
# PCOD8107853 Si02
#       7
#     8   8   8   8   8   8   8
#     4   9  16  30  53  83 114 141 172 222 276 324
#     4  11  22  38  58  82 111 145 184 236 289 329
#     4  10  21  38  58  81 108 146 192 231 272 332
#     4  11  19  31  53  82 118 150 184 228 279 331
#     4  11  21  35  56  84 114 146 186 231 280 333
#     4   9  19  34  54  82 116 148 181 224 276 331
#     4   9  18  33  57  85 111 139 182 235 282 326
#
# _framework density 20.470262999999999
#
# number of rings (size 3 to 8) (size 9 to 14) (size 15 to 20)
#    0.000    2.000    2.857    1.714    0.000    1.143 
#    0.000    7.857    0.000    0.000    0.000    1.000 
#    0.000    0.000    0.000    0.000    0.000    0.000 
#
# Total GULP energy -346872.384675 kJ/mol
# GULP energy per Si atom -12388.299453 kJ/mol
# Density = 2.042367 g / cm^3
# Si number density = 20.470263 Si / 1000 Ang^3
#
#
#
# Elastic Constant Matrix: (Units=GPa)
#
#
# Indices 1 2 3 4 5 6 
#
# 1 93.3457 21.7657 35.1611 0.0000 -21.1678 0.0000
# 2 21.7657 40.4889 15.4611 0.0000 -8.8949 0.0000
# 3 35.1611 15.4611 84.3256 0.0000 -28.1257 0.0000
# 4 0.0000 0.0000 0.0000 21.8630 0.0000 -0.7956
# 5 -21.1678 -8.8949 -28.1257 0.0000 41.9778 0.0000
# 6 0.0000 0.0000 0.0000 -0.7956 0.0000 16.0154
#
#
#
# Elastic Compliance Matrix: (Units=1/GPa)
#
#
# Indices 1 2 3 4 5 6 
#
# 1 0.014183 -0.005424 -0.003757 0.000000 0.003486 0.000000
# 2 -0.005424 0.028938 -0.002461 0.000000 0.001748 0.000000
# 3 -0.003757 -0.002461 0.016832 0.000000 0.008862 0.000000
# 4 0.000000 0.000000 0.000000 0.045822 0.000000 0.002276
# 5 0.003486 0.001748 0.008862 0.000000 0.031888 0.000000
# 6 0.000000 0.000000 0.000000 0.002276 0.000000 0.062553
#
#
# Mechanical properties :
#
#
# Convention : Reuss Voigt Hill
#
# Bulk Modulus (GPa) = 27.27109 40.32623 33.79866
# Shear Modulus (GPa) = 21.21130 25.68940 23.45035
#
# Velocity S-wave (km/s) = 3.22250 3.54639 3.38832
# Velocity P-wave (km/s) = 5.21510 6.04250 5.64398
#
# Compressibility (1/GPa) = 0.03666887
#
# Stress axis : x y z
#
# Youngs Moduli (GPa) = 70.50615 34.55695 59.40947
#
# Poissons Ratio (x) = 0.18744 0.22319
# Poissons Ratio (y) = 0.38244 0.14622
# Poissons Ratio (z) = 0.26488 0.08505
#
# Static dielectric constant tensor:
#      x y z
#    x 3.719250 0.000000 -0.226330 
#    y 0.000000 3.223920 0.000000 
#    z -0.226330 0.000000 3.951470 
# 
# 
# High freq. dielectric constant tensor:
#      x y z
#    x 1.798100 0.000000 -0.020480 
#    y 0.000000 1.746430 0.000000 
#    z -0.020480 0.000000 1.817020 
# 
# From -- ./inp_files/237797.got.cif
#   From: 2010.06.25/outbox.cif.g09.slc.cpg/sg12_119_cif.got.tgz:237797.got - 2010.06.28 00:19:55.
