data_PCOD8107120
_publ_section_title
;
Structure prediction by ZEFSAII (Michael W. Deem and Ramdas Pophale) SiO2 
 PCOD8107120
Probable space group: C 2/M
;
_chemical_formula_sum "Si O2"
_cell_formula_units_Z 48
_cell_length_a 15.800388
_cell_length_b 8.964814
_cell_length_c 29.067995
_cell_angle_alpha 90.000000
_cell_angle_beta 35.179299
_cell_angle_gamma 90.000000
_cell_volume 2372.192408
_symmetry_space_group_name_H-M "C 2/M"
_symmetry_group_IT_number 12
_symmetry_cell_setting 'monoclinic'
loop_
_space_group_symop_operation_xyz
x,y,z
-x,y,-z
-x,-y,-z
x,-y,z
1/2+x,1/2+y,z
1/2-x,1/2+y,-z
1/2-x,1/2-y,-z
1/2+x,1/2-y,z
loop_
_atom_site_type_symbol
_atom_site_label
_atom_site_fract_x
_atom_site_fract_y
_atom_site_fract_z
Si Si1 0.316353 0.335492 0.836530
Si Si2 0.865358 0.322756 0.682792
Si Si3 0.122590 0.168326 0.859884
Si Si4 0.330212 0.167257 0.003367
Si Si5 0.155931 0.829294 0.406748
Si Si6 0.583261 0.329254 0.659061
O O1 0.256726 0.500000 0.846657
O O2 0.246041 0.193545 0.843134
O O3 0.488668 0.327729 0.748366
O O4 0.281523 0.315956 0.905071
O O5 0.895879 0.500000 0.668967
O O6 0.702655 0.288795 0.776351
O O7 0.857671 0.260888 0.634747
O O8 0.994646 0.244907 0.655554
O O9 0.991852 0.268630 0.936972
O O10 0.065966 0.000000 0.883990
O O11 0.353570 0.000000 0.978078
O O12 0.250000 0.250000 0.000000
O O13 0.268965 0.758018 0.393358
O O14 0.000000 0.822859 0.500000
O O15 0.202739 0.000000 0.375623
O O16 0.620818 0.500000 0.628234
#
# Coordination Sequence:
#
# PCOD8107120 Si02
#       6
#     8   8   8   8   8   8
#     4   9  20  38  58  81 113 152 195 242 292 345
#     4  10  22  41  65  92 124 162 205 252 303 364
#     4  10  21  37  58  84 114 150 196 244 291 347
#     4  11  23  36  52  80 117 156 197 243 292 344
#     4  11  25  43  64  93 126 159 199 249 306 370
#     4  10  21  40  66  93 123 161 204 252 306 363
#
# _framework density 20.234446999999999
#
# number of rings (size 3 to 8) (size 9 to 14) (size 15 to 20)
#    0.000    1.833    0.000    3.000    2.333    8.000 
#    0.000    0.000    0.000    0.000    0.000    0.000 
#    0.000    0.000    0.000    0.000    0.000    0.000 
#
# Total GULP energy -297375.486655 kJ/mol
# GULP energy per Si atom -12390.645277 kJ/mol
# Density = 2.018839 g / cm^3
# Si number density = 20.234447 Si / 1000 Ang^3
#
#
#
# Elastic Constant Matrix: (Units=GPa)
#
#
# Indices 1 2 3 4 5 6 
#
# 1 63.4463 23.3297 5.9873 -0.0001 0.4300 0.0040
# 2 23.3297 101.7722 25.3569 -0.0002 5.3334 0.0046
# 3 5.9873 25.3569 51.5604 -0.0006 -1.6166 0.0000
# 4 -0.0001 -0.0002 -0.0006 28.7658 -0.0003 -1.0357
# 5 0.4300 5.3334 -1.6166 -0.0003 29.6385 0.0005
# 6 0.0040 0.0046 0.0000 -1.0357 0.0005 40.2323
#
#
#
# Elastic Compliance Matrix: (Units=1/GPa)
#
#
# Indices 1 2 3 4 5 6 
#
# 1 0.017219 -0.003962 -0.000036 0.000000 0.000461 -0.000001
# 2 -0.003962 0.012271 -0.005652 0.000000 -0.002459 -0.000001
# 3 -0.000036 -0.005652 0.022248 0.000000 0.002231 0.000001
# 4 0.000000 0.000000 0.000000 0.034796 0.000000 0.000896
# 5 0.000461 -0.002459 0.002231 0.000000 0.034297 0.000000
# 6 -0.000001 -0.000001 0.000001 0.000896 0.000000 0.024879
#
#
# Mechanical properties :
#
#
# Convention : Reuss Voigt Hill
#
# Bulk Modulus (GPa) = 30.82872 36.23629 33.53251
# Shear Modulus (GPa) = 28.43762 30.53432 29.48597
#
# Velocity S-wave (km/s) = 3.75294 3.88883 3.82149
# Velocity P-wave (km/s) = 5.83509 6.17342 6.00664
#
# Compressibility (1/GPa) = 0.03243728
#
# Stress axis : x y z
#
# Youngs Moduli (GPa) = 58.07673 81.49174 44.94699
#
# Poissons Ratio (x) = 0.32289 0.00164
# Poissons Ratio (y) = 0.23011 0.25403
# Poissons Ratio (z) = 0.00212 0.46058
#
# Static dielectric constant tensor:
#      x y z
#    x 3.407520 0.000000 0.125220 
#    y 0.000000 3.941160 0.000000 
#    z 0.125220 0.000000 3.395650 
# 
# 
# High freq. dielectric constant tensor:
#      x y z
#    x 1.779300 0.000000 -0.000890 
#    y 0.000000 1.806510 0.000000 
#    z -0.000890 0.000000 1.798620 
# 
# From -- ./inp_files/360237.got.cif
#   From: 2010.06.25/outbox.cif.g09.slc.cpg/sg12_181_cif.got.tgz:360237.got - 2010.06.28 00:19:55.
