data_PCOD8107399
_publ_section_title
;
Structure prediction by ZEFSAII (Michael W. Deem and Ramdas Pophale) SiO2 
 PCOD8107399
Probable space group: C 2/M
;
_chemical_formula_sum "Si O2"
_cell_formula_units_Z 40
_cell_length_a 9.581559
_cell_length_b 17.642401
_cell_length_c 12.091936
_cell_angle_alpha 90.000000
_cell_angle_beta 85.596457
_cell_angle_gamma 90.000000
_cell_volume 2038.007494
_symmetry_space_group_name_H-M "C 2/M"
_symmetry_group_IT_number 12
_symmetry_cell_setting 'monoclinic'
loop_
_space_group_symop_operation_xyz
x,y,z
-x,y,-z
-x,-y,-z
x,-y,z
1/2+x,1/2+y,z
1/2-x,1/2+y,-z
1/2-x,1/2-y,-z
1/2+x,1/2-y,z
loop_
_atom_site_type_symbol
_atom_site_label
_atom_site_fract_x
_atom_site_fract_y
_atom_site_fract_z
Si Si1 0.272350 0.797865 0.107351
Si Si2 0.269426 0.090570 0.723847
Si Si3 0.129422 0.201651 0.568465
Si Si4 0.847018 0.088573 0.031567
Si Si5 0.970190 0.713532 0.763770
O O1 0.162080 0.769584 0.207479
O O2 0.432901 0.794039 0.134609
O O3 0.250000 0.750000 0.000000
O O4 0.247842 0.883152 0.064949
O O5 0.189455 0.125573 0.622809
O O6 0.192865 0.115441 0.842566
O O7 0.420537 0.130242 0.726048
O O8 0.283260 0.000000 0.708674
O O9 0.250000 0.250000 0.500000
O O10 0.000000 0.175295 0.500000
O O11 0.068275 0.257474 0.661982
O O12 0.840290 0.000000 0.025614
O O13 0.000000 0.121857 0.000000
#
# Coordination Sequence:
#
# PCOD8107399 Si02
#       5
#     8   8   8   8   8
#     4  12  21  35  62  92 126 165 214 248 305 382
#     4  11  24  42  64  97 133 165 210 272 326 377
#     4  12  23  43  69  91 121 166 218 270 324 380
#     4  10  21  37  59  90 133 171 203 253 315 380
#     4  12  23  40  62  95 126 168 212 266 310 376
#
# _framework density 19.627012000000001
#
# number of rings (size 3 to 8) (size 9 to 14) (size 15 to 20)
#    0.000    0.600    6.000    3.000    0.000    1.200 
#    0.000    4.000    0.000    4.800    0.000    0.000 
#    0.000    0.000    0.000    0.000    0.000    0.000 
#
# Total GULP energy -247897.940587 kJ/mol
# GULP energy per Si atom -12394.897029 kJ/mol
# Density = 1.958234 g / cm^3
# Si number density = 19.627012 Si / 1000 Ang^3
#
#
#
# Elastic Constant Matrix: (Units=GPa)
#
#
# Indices 1 2 3 4 5 6 
#
# 1 124.0478 47.0126 40.7402 0.0000 35.6904 0.0000
# 2 47.0126 86.2542 51.0396 0.0000 12.1665 0.0000
# 3 40.7402 51.0396 88.7367 0.0000 8.8913 0.0000
# 4 0.0000 0.0000 0.0000 30.5478 0.0000 10.7619
# 5 35.6904 12.1665 8.8913 0.0000 44.2484 0.0000
# 6 0.0000 0.0000 0.0000 10.7619 0.0000 31.5127
#
#
#
# Elastic Compliance Matrix: (Units=1/GPa)
#
#
# Indices 1 2 3 4 5 6 
#
# 1 0.013123 -0.004340 -0.002641 0.000000 -0.008861 0.000000
# 2 -0.004340 0.019373 -0.009151 0.000000 0.000013 0.000000
# 3 -0.002641 -0.009151 0.017635 0.000000 0.001103 0.000000
# 4 0.000000 0.000000 0.000000 0.037213 0.000000 -0.012709
# 5 -0.008861 0.000013 0.001103 0.000000 0.029522 0.000000
# 6 0.000000 0.000000 0.000000 -0.012709 0.000000 0.036073
#
#
# Mechanical properties :
#
#
# Convention : Reuss Voigt Hill
#
# Bulk Modulus (GPa) = 55.97253 64.06925 60.02089
# Shear Modulus (GPa) = 26.15638 31.94488 29.05063
#
# Velocity S-wave (km/s) = 3.65454 4.03873 3.85143
# Velocity P-wave (km/s) = 6.81084 7.37988 7.10106
#
# Compressibility (1/GPa) = 0.01786591
#
# Stress axis : x y z
#
# Youngs Moduli (GPa) = 76.20239 51.61934 56.70579
#
# Poissons Ratio (x) = 0.22404 0.14974
# Poissons Ratio (y) = 0.33073 0.51894
# Poissons Ratio (z) = 0.20123 0.47239
#
# Static dielectric constant tensor:
#      x y z
#    x 3.512170 0.000000 -0.763780 
#    y 0.000000 2.915280 0.000000 
#    z -0.763780 0.000000 2.746390 
# 
# 
# High freq. dielectric constant tensor:
#      x y z
#    x 1.775880 0.000000 0.001710 
#    y 0.000000 1.758080 0.000000 
#    z 0.001710 0.000000 1.771190 
# 
# From -- ./inp_files/118888.got.cif
#   From: 2010.06.25/outbox.cif.g09.slc.cpg/sg12_60_cif.got.tgz:118888.got - 2010.06.28 00:19:55.
