data_PCOD8107921
_publ_section_title
;
Structure prediction by ZEFSAII (Michael W. Deem and Ramdas Pophale) SiO2 
 PCOD8107921
Probable space group: C 2/M
;
_chemical_formula_sum "Si O2"
_cell_formula_units_Z 56
_cell_length_a 22.868258
_cell_length_b 13.095547
_cell_length_c 23.673951
_cell_angle_alpha 90.000000
_cell_angle_beta 22.497152
_cell_angle_gamma 90.000000
_cell_volume 2712.782726
_symmetry_space_group_name_H-M "C 2/M"
_symmetry_group_IT_number 12
_symmetry_cell_setting 'monoclinic'
loop_
_space_group_symop_operation_xyz
x,y,z
-x,y,-z
-x,-y,-z
x,-y,z
1/2+x,1/2+y,z
1/2-x,1/2+y,-z
1/2-x,1/2-y,-z
1/2+x,1/2-y,z
loop_
_atom_site_type_symbol
_atom_site_label
_atom_site_fract_x
_atom_site_fract_y
_atom_site_fract_z
Si Si1 0.862835 0.618229 0.786148
Si Si2 0.888278 0.285712 0.985694
Si Si3 0.663059 0.386848 0.476226
Si Si4 0.715839 0.789316 0.732096
Si Si5 0.422725 0.887196 0.508846
Si Si6 0.467763 0.121027 0.251501
Si Si7 0.837386 0.882083 0.736339
O O1 0.816038 0.500000 0.830906
O O2 0.951941 0.644899 0.649381
O O3 0.972342 0.648866 0.740319
O O4 0.705501 0.680427 0.930164
O O5 0.034591 0.271811 0.896093
O O6 0.931196 0.317392 0.884021
O O7 0.786530 0.375809 0.103544
O O8 0.626067 0.500000 0.529584
O O9 0.744222 0.387404 0.342077
O O10 0.789508 0.340627 0.406778
O O11 0.496294 0.334053 0.619212
O O12 0.785708 0.693399 0.635041
O O13 0.787425 0.808425 0.729540
O O14 0.500000 0.891549 0.500000
O O15 0.356844 0.000000 0.552111
O O16 0.476467 0.000000 0.230651
O O17 0.854751 0.000000 0.701016
#
# Coordination Sequence:
#
# PCOD8107921 Si02
#       7
#     8   8   8   8   8   8   8
#     4  10  21  39  61  81 109 150 191 232 280 332
#     4  11  22  35  54  84 118 151 186 226 274 329
#     4   9  18  33  54  80 110 145 187 232 274 322
#     4  11  21  34  54  81 113 148 184 228 277 333
#     4  10  21  38  59  80 104 140 188 241 288 328
#     4   9  19  37  58  82 113 149 188 230 278 329
#     4  11  22  36  57  85 117 151 184 222 275 338
#
# _framework density 20.64301
#
# number of rings (size 3 to 8) (size 9 to 14) (size 15 to 20)
#    0.000    1.857    0.000    4.714    0.000    4.000 
#    0.000    7.857    0.000    7.714    0.000    0.000 
#    0.000    0.000    0.000    0.000    0.000    0.000 
#
# Total GULP energy -347012.787847 kJ/mol
# GULP energy per Si atom -12393.313852 kJ/mol
# Density = 2.059603 g / cm^3
# Si number density = 20.643010 Si / 1000 Ang^3
#
#
#
# Elastic Constant Matrix: (Units=GPa)
#
#
# Indices 1 2 3 4 5 6 
#
# 1 114.0204 36.2004 75.3773 0.0165 -10.3104 -0.0032
# 2 36.2004 84.6235 44.6433 0.0080 -7.5028 -0.0039
# 3 75.3773 44.6433 151.8498 0.0499 -25.0142 -0.0181
# 4 0.0165 0.0080 0.0499 32.3243 -0.0133 3.7975
# 5 -10.3104 -7.5028 -25.0142 -0.0133 39.4548 0.0023
# 6 -0.0032 -0.0039 -0.0181 3.7975 0.0023 22.2383
#
#
#
# Elastic Compliance Matrix: (Units=1/GPa)
#
#
# Indices 1 2 3 4 5 6 
#
# 1 0.013565 -0.002665 -0.006085 0.000003 -0.000820 -0.000004
# 2 -0.002665 0.014510 -0.002907 0.000002 0.000220 -0.000001
# 3 -0.006085 -0.002907 0.011286 -0.000013 0.005013 0.000009
# 4 0.000003 0.000002 -0.000013 0.031570 0.000004 -0.005391
# 5 -0.000820 0.000220 0.005013 0.000004 0.028351 0.000000
# 6 -0.000004 -0.000001 0.000009 -0.005391 0.000000 0.045888
#
#
# Mechanical properties :
#
#
# Convention : Reuss Voigt Hill
#
# Bulk Modulus (GPa) = 62.31536 73.65953 67.98745
# Shear Modulus (GPa) = 28.76303 31.75498 30.25900
#
# Velocity S-wave (km/s) = 3.73682 3.92636 3.83276
# Velocity P-wave (km/s) = 6.99078 7.50434 7.25211
#
# Compressibility (1/GPa) = 0.01604741
#
# Stress axis : x y z
#
# Youngs Moduli (GPa) = 73.71760 68.91719 88.60262
#
# Poissons Ratio (x) = 0.18369 0.53916
# Poissons Ratio (y) = 0.19649 0.25753
# Poissons Ratio (z) = 0.44858 0.20031
#
# Static dielectric constant tensor:
#      x y z
#    x 3.731920 -0.000010 -0.150020 
#    y -0.000010 3.837570 0.000040 
#    z -0.150020 0.000040 3.735470 
# 
# 
# High freq. dielectric constant tensor:
#      x y z
#    x 1.805500 0.000000 -0.007370 
#    y 0.000000 1.807560 0.000000 
#    z -0.007370 0.000000 1.805450 
# 
# From -- ./inp_files/349722.got.cif
#   From: 2010.06.25/outbox.cif.g09.slc.cpg/sg12_175_cif.got.tgz:349722.got - 2010.06.28 00:19:55.
