data_PCOD8107131
_publ_section_title
;
Structure prediction by ZEFSAII (Michael W. Deem and Ramdas Pophale) SiO2 
 PCOD8107131
Probable space group: C 2/M
;
_chemical_formula_sum "Si O2"
_cell_formula_units_Z 56
_cell_length_a 27.769686
_cell_length_b 9.084681
_cell_length_c 14.810377
_cell_angle_alpha 90.000000
_cell_angle_beta 129.559015
_cell_angle_gamma 90.000000
_cell_volume 2880.604841
_symmetry_space_group_name_H-M "C 2/M"
_symmetry_group_IT_number 12
_symmetry_cell_setting 'monoclinic'
loop_
_space_group_symop_operation_xyz
x,y,z
-x,y,-z
-x,-y,-z
x,-y,z
1/2+x,1/2+y,z
1/2-x,1/2+y,-z
1/2-x,1/2-y,-z
1/2+x,1/2-y,z
loop_
_atom_site_type_symbol
_atom_site_label
_atom_site_fract_x
_atom_site_fract_y
_atom_site_fract_z
Si Si1 0.345916 0.828994 0.959456
Si Si2 0.879785 0.666274 0.492233
Si Si3 0.573622 0.670460 0.087758
Si Si4 0.423374 0.166961 0.732698
Si Si5 0.006534 0.828722 0.323081
Si Si6 0.293466 0.669518 0.259356
Si Si7 0.364041 0.670859 0.164639
O O1 0.398714 0.740286 0.969480
O O2 0.280171 0.803529 0.831482
O O3 0.363758 0.000000 0.983675
O O4 0.340731 0.769067 0.054359
O O5 0.887757 0.500000 0.466560
O O6 0.870295 0.669326 0.590349
O O7 0.944163 0.756091 0.547068
O O8 0.819989 0.738362 0.374562
O O9 0.591657 0.500000 0.112714
O O10 0.602617 0.751114 0.209992
O O11 0.500000 0.696915 0.000000
O O12 0.484292 0.252230 0.764787
O O13 0.442206 0.000000 0.780250
O O14 0.936679 0.800731 0.273571
O O15 0.021844 0.000000 0.331317
O O16 0.310184 0.500000 0.295572
O O17 0.325039 0.723730 0.204360
O O18 0.351792 0.500000 0.126847
#
# Coordination Sequence:
#
# PCOD8107131 Si02
#       7
#     8   8   8   8   8   8   8
#     4  11  24  39  58  86 117 151 192 239 289 339
#     4   9  20  36  57  85 117 152 192 240 286 335
#     4  11  23  38  60  87 114 148 189 231 285 348
#     4   9  19  35  55  84 116 145 184 233 285 336
#     4   9  17  32  56  83 115 150 188 232 283 336
#     4  10  22  40  59  81 114 157 199 236 281 340
#     4  10  21  37  58  84 115 154 197 239 284 338
#
# _framework density 19.440360999999999
#
# number of rings (size 3 to 8) (size 9 to 14) (size 15 to 20)
#    0.857    1.286    0.000    3.000    0.000    8.000 
#    0.000    3.571    0.000    0.000    0.000    0.000 
#    0.000    0.000    0.000    0.000    0.000    0.000 
#
# Total GULP energy -347137.671483 kJ/mol
# GULP energy per Si atom -12397.773982 kJ/mol
# Density = 1.939611 g / cm^3
# Si number density = 19.440361 Si / 1000 Ang^3
#
#
#
# Elastic Constant Matrix: (Units=GPa)
#
#
# Indices 1 2 3 4 5 6 
#
# 1 53.2363 29.0763 20.3890 0.0000 -8.7075 0.0000
# 2 29.0763 129.6200 58.2280 0.0000 -0.8255 0.0000
# 3 20.3890 58.2280 89.7134 0.0000 -2.9013 0.0000
# 4 0.0000 0.0000 0.0000 35.5272 0.0000 -5.9176
# 5 -8.7075 -0.8255 -2.9013 0.0000 24.0524 0.0000
# 6 0.0000 0.0000 0.0000 -5.9176 0.0000 18.9164
#
#
#
# Elastic Compliance Matrix: (Units=1/GPa)
#
#
# Indices 1 2 3 4 5 6 
#
# 1 0.023234 -0.004101 -0.002361 0.000000 0.007986 0.000000
# 2 -0.004101 0.011619 -0.006671 0.000000 -0.001890 0.000000
# 3 -0.002361 -0.006671 0.016040 0.000000 0.000851 0.000000
# 4 0.000000 0.000000 0.000000 0.029695 0.000000 0.009289
# 5 0.007986 -0.001890 0.000851 0.000000 0.044505 0.000000
# 6 0.000000 0.000000 0.000000 0.009289 0.000000 0.055770
#
#
# Mechanical properties :
#
#
# Convention : Reuss Voigt Hill
#
# Bulk Modulus (GPa) = 40.60120 54.21737 47.40928
# Shear Modulus (GPa) = 23.21948 26.69098 24.95523
#
# Velocity S-wave (km/s) = 3.45975 3.70938 3.58674
# Velocity P-wave (km/s) = 6.07373 6.80409 6.44925
#
# Compressibility (1/GPa) = 0.02462982
#
# Stress axis : x y z
#
# Youngs Moduli (GPa) = 43.04029 86.06431 62.34352
#
# Poissons Ratio (x) = 0.35291 0.14717
# Poissons Ratio (y) = 0.17649 0.41587
# Poissons Ratio (z) = 0.10160 0.57410
#
# Static dielectric constant tensor:
#      x y z
#    x 3.302100 0.000000 -0.042580 
#    y 0.000000 3.604520 0.000000 
#    z -0.042580 0.000000 3.416110 
# 
# 
# High freq. dielectric constant tensor:
#      x y z
#    x 1.734560 0.000000 -0.004260 
#    y 0.000000 1.768900 0.000000 
#    z -0.004260 0.000000 1.753290 
# 
# From -- ./inp_files/249278.got.cif
#   From: 2010.06.25/outbox.cif.g09.slc.cpg/sg12_125_cif.got.tgz:249278.got - 2010.06.28 00:19:55.
