data_PCOD8107689
_publ_section_title
;
Structure prediction by ZEFSAII (Michael W. Deem and Ramdas Pophale) SiO2 
 PCOD8107689
Probable space group: C 2/M
;
_chemical_formula_sum "Si O2"
_cell_formula_units_Z 56
_cell_length_a 16.728716
_cell_length_b 18.543694
_cell_length_c 10.167033
_cell_angle_alpha 90.000000
_cell_angle_beta 120.151514
_cell_angle_gamma 90.000000
_cell_volume 2727.210354
_symmetry_space_group_name_H-M "C 2/M"
_symmetry_group_IT_number 12
_symmetry_cell_setting 'monoclinic'
loop_
_space_group_symop_operation_xyz
x,y,z
-x,y,-z
-x,-y,-z
x,-y,z
1/2+x,1/2+y,z
1/2-x,1/2+y,-z
1/2-x,1/2-y,-z
1/2+x,1/2-y,z
loop_
_atom_site_type_symbol
_atom_site_label
_atom_site_fract_x
_atom_site_fract_y
_atom_site_fract_z
Si Si1 0.919311 0.417304 0.837410
Si Si2 0.221139 0.853293 0.699511
Si Si3 0.844967 0.696289 0.325821
Si Si4 0.687570 0.583696 0.159184
Si Si5 0.097890 0.915986 0.819153
Si Si6 0.479517 0.141016 0.619647
Si Si7 0.605708 0.416344 0.374827
O O1 0.892767 0.500000 0.842296
O O2 0.829952 0.368548 0.785511
O O3 0.959281 0.410598 0.723765
O O4 0.000000 0.390181 0.000000
O O5 0.210392 0.770284 0.731183
O O6 0.174247 0.901515 0.772397
O O7 0.175726 0.870240 0.521235
O O8 0.780742 0.628416 0.244812
O O9 0.889035 0.690120 0.510213
O O10 0.928950 0.692158 0.286410
O O11 0.714799 0.500000 0.161805
O O12 0.628034 0.594711 0.240646
O O13 0.629416 0.614174 0.987028
O O14 0.998143 0.885210 0.690855
O O15 0.082407 0.000000 0.824214
O O16 0.500000 0.095314 0.500000
O O17 0.615479 0.500000 0.424854
#
# Coordination Sequence:
#
# PCOD8107689 Si02
#       7
#     8   8   8   8   8   8   8
#     4  11  25  44  66  96 131 169 216 267 315 372
#     4  12  24  40  64  92 133 165 206 262 320 385
#     4   9  23  41  63  93 122 165 216 259 314 375
#     4  10  21  40  62  89 125 164 212 261 311 373
#     4  10  22  38  62  94 127 165 204 254 318 381
#     4   8  22  43  63  89 121 166 216 263 315 363
#     4  10  21  37  63  95 123 161 209 256 311 378
#
# _framework density 20.533802999999999
#
# number of rings (size 3 to 8) (size 9 to 14) (size 15 to 20)
#    0.857    1.000    0.000    3.000    6.000    8.286 
#    0.000    0.000    0.000    0.000    0.000    0.000 
#    0.000    0.000    0.000    0.000    0.000    0.000 
#
# Total GULP energy -347009.496579 kJ/mol
# GULP energy per Si atom -12393.196306 kJ/mol
# Density = 2.048707 g / cm^3
# Si number density = 20.533803 Si / 1000 Ang^3
#
#
#
# Elastic Constant Matrix: (Units=GPa)
#
#
# Indices 1 2 3 4 5 6 
#
# 1 101.7213 28.2901 73.5846 0.0000 24.8360 0.0000
# 2 28.2901 57.7906 32.7017 0.0000 25.5099 0.0000
# 3 73.5846 32.7017 114.5768 0.0000 11.0469 0.0000
# 4 0.0000 0.0000 0.0000 12.3995 0.0000 5.7528
# 5 24.8360 25.5099 11.0469 0.0000 37.3775 0.0000
# 6 0.0000 0.0000 0.0000 5.7528 0.0000 20.7405
#
#
#
# Elastic Compliance Matrix: (Units=1/GPa)
#
#
# Indices 1 2 3 4 5 6 
#
# 1 0.022020 0.002307 -0.013626 0.000000 -0.012179 0.000000
# 2 0.002307 0.029067 -0.007944 0.000000 -0.019023 0.000000
# 3 -0.013626 -0.007944 0.018889 0.000000 0.008893 0.000000
# 4 0.000000 0.000000 0.000000 0.092559 0.000000 -0.025673
# 5 -0.012179 -0.019023 0.008893 0.000000 0.045201 0.000000
# 6 0.000000 0.000000 0.000000 -0.025673 0.000000 0.055336
#
#
# Mechanical properties :
#
#
# Convention : Reuss Voigt Hill
#
# Bulk Modulus (GPa) = 31.79648 60.36016 46.07832
# Shear Modulus (GPa) = 16.02159 23.40432 19.71295
#
# Velocity S-wave (km/s) = 2.79633 3.37975 3.10179
# Velocity P-wave (km/s) = 5.09358 6.68503 5.94282
#
# Compressibility (1/GPa) = 0.03145002
#
# Stress axis : x y z
#
# Youngs Moduli (GPa) = 45.41416 34.40375 52.94219
#
# Poissons Ratio (x) = -0.07938 0.72139
# Poissons Ratio (y) = -0.10478 0.42055
# Poissons Ratio (z) = 0.61881 0.27329
#
# Static dielectric constant tensor:
#      x y z
#    x 3.705750 0.000000 0.121960 
#    y 0.000000 3.383280 0.000000 
#    z 0.121960 0.000000 3.852070 
# 
# 
# High freq. dielectric constant tensor:
#      x y z
#    x 1.809340 0.000000 0.008700 
#    y 0.000000 1.773490 0.000000 
#    z 0.008700 0.000000 1.810410 
# 
# From -- ./inp_files/146245.got.cif
#   From: 2010.06.25/outbox.cif.g09.slc.cpg/sg12_74_cif.got.tgz:146245.got - 2010.06.28 00:19:55.
