data_PCOD8107456
_publ_section_title
;
Structure prediction by ZEFSAII (Michael W. Deem and Ramdas Pophale) SiO2 
 PCOD8107456
Probable space group: C 2/M
;
_chemical_formula_sum "Si O2"
_cell_formula_units_Z 56
_cell_length_a 16.158545
_cell_length_b 8.824339
_cell_length_c 22.846226
_cell_angle_alpha 90.000000
_cell_angle_beta 58.209455
_cell_angle_gamma 90.000000
_cell_volume 2768.900996
_symmetry_space_group_name_H-M "C 2/M"
_symmetry_group_IT_number 12
_symmetry_cell_setting 'monoclinic'
loop_
_space_group_symop_operation_xyz
x,y,z
-x,y,-z
-x,-y,-z
x,-y,z
1/2+x,1/2+y,z
1/2-x,1/2+y,-z
1/2-x,1/2-y,-z
1/2+x,1/2-y,z
loop_
_atom_site_type_symbol
_atom_site_label
_atom_site_fract_x
_atom_site_fract_y
_atom_site_fract_z
Si Si1 0.257731 0.828898 0.435837
Si Si2 0.445870 0.826148 0.854281
Si Si3 0.730749 0.322356 0.151737
Si Si4 0.398654 0.167341 0.570373
Si Si5 0.109276 0.172011 0.307401
Si Si6 0.050703 0.672711 0.699340
Si Si7 0.941527 0.826884 0.081361
O O1 0.250000 0.750000 0.500000
O O2 0.159344 0.800644 0.438506
O O3 0.341679 0.777203 0.359808
O O4 0.272244 0.000000 0.447335
O O5 0.345609 0.754361 0.865504
O O6 0.534825 0.817820 0.774779
O O7 0.487846 0.744668 0.895869
O O8 0.421285 0.000000 0.879048
O O9 0.732007 0.500000 0.136217
O O10 0.700033 0.294448 0.230837
O O11 0.839395 0.257279 0.107690
O O12 0.500000 0.166130 0.500000
O O13 0.401058 0.206397 0.637545
O O14 0.351128 0.000000 0.581764
O O15 0.014036 0.196978 0.304607
O O16 0.112637 0.000000 0.330148
O O17 0.026525 0.500000 0.687123
O O18 0.919315 0.000000 0.107399
O O19 0.000000 0.816727 0.000000
#
# Coordination Sequence:
#
# PCOD8107456 Si02
#       7
#     8   8   8   8   8   8   8
#     4  11  23  38  56  81 114 151 195 245 298 356
#     4  10  21  40  66  94 126 165 209 258 315 373
#     4  10  22  41  65  94 128 165 209 258 313 376
#     4  11  24  39  55  79 113 154 198 244 297 355
#     4  10  21  37  60  88 116 149 194 246 297 356
#     4   9  20  38  59  84 116 151 190 243 299 356
#     4  11  25  43  64  94 130 167 210 260 313 374
#
# _framework density 20.224630999999999
#
# number of rings (size 3 to 8) (size 9 to 14) (size 15 to 20)
#    0.000    1.714    0.000    3.429    2.000    9.714 
#    0.000    0.000    0.000    0.000    0.000    0.000 
#    0.000    0.000    0.000    0.000    0.000    0.000 
#
# Total GULP energy -347002.272411 kJ/mol
# GULP energy per Si atom -12392.938300 kJ/mol
# Density = 2.017860 g / cm^3
# Si number density = 20.224631 Si / 1000 Ang^3
#
#
#
# Elastic Constant Matrix: (Units=GPa)
#
#
# Indices 1 2 3 4 5 6 
#
# 1 102.3368 46.3361 49.6252 0.0000 -0.6480 0.0000
# 2 46.3361 101.0220 57.3577 0.0000 -5.9194 0.0001
# 3 49.6252 57.3577 99.2409 0.0000 1.7862 0.0000
# 4 0.0000 0.0000 0.0000 37.4516 0.0000 5.6644
# 5 -0.6480 -5.9194 1.7862 0.0000 33.1423 0.0000
# 6 0.0000 0.0001 0.0000 5.6644 0.0000 38.6233
#
#
#
# Elastic Compliance Matrix: (Units=1/GPa)
#
#
# Indices 1 2 3 4 5 6 
#
# 1 0.013712 -0.003578 -0.004787 0.000000 -0.000113 0.000000
# 2 -0.003578 0.015991 -0.007511 0.000000 0.003191 0.000000
# 3 -0.004787 -0.007511 0.016853 0.000000 -0.002343 0.000000
# 4 0.000000 0.000000 0.000000 0.027307 0.000000 -0.004005
# 5 -0.000113 0.003191 -0.002343 0.000000 0.030867 0.000000
# 6 0.000000 0.000000 0.000000 -0.004005 0.000000 0.026478
#
#
# Mechanical properties :
#
#
# Convention : Reuss Voigt Hill
#
# Bulk Modulus (GPa) = 67.54157 67.69306 67.61732
# Shear Modulus (GPa) = 29.78048 31.79546 30.78797
#
# Velocity S-wave (km/s) = 3.84146 3.96929 3.90590
# Velocity P-wave (km/s) = 7.28999 7.38582 7.33806
#
# Compressibility (1/GPa) = 0.01480570
#
# Stress axis : x y z
#
# Youngs Moduli (GPa) = 72.92736 62.53355 59.33658
#
# Poissons Ratio (x) = 0.22377 0.28402
# Poissons Ratio (y) = 0.26096 0.44565
# Poissons Ratio (z) = 0.34907 0.46966
#
# Static dielectric constant tensor:
#      x y z
#    x 3.736660 0.000000 -0.170090 
#    y 0.000000 3.873430 0.000000 
#    z -0.170090 0.000000 3.674880 
# 
# 
# High freq. dielectric constant tensor:
#      x y z
#    x 1.784880 0.000000 0.000150 
#    y 0.000000 1.803120 0.000000 
#    z 0.000150 0.000000 1.799850 
# 
# From -- ./inp_files/338577.got.cif
#   From: 2010.06.25/outbox.cif.g09.slc.cpg/sg12_170_cif.got.tgz:338577.got - 2010.06.28 00:19:55.
