data_PCOD8107893
_publ_section_title
;
Structure prediction by ZEFSAII (Michael W. Deem and Ramdas Pophale) SiO2 
 PCOD8107893
Probable space group: C 2/M
;
_chemical_formula_sum "Si O2"
_cell_formula_units_Z 44
_cell_length_a 5.253672
_cell_length_b 29.178710
_cell_length_c 15.242767
_cell_angle_alpha 90.000000
_cell_angle_beta 119.526466
_cell_angle_gamma 90.000000
_cell_volume 2033.181127
_symmetry_space_group_name_H-M "C 2/M"
_symmetry_group_IT_number 12
_symmetry_cell_setting 'monoclinic'
loop_
_space_group_symop_operation_xyz
x,y,z
-x,y,-z
-x,-y,-z
x,-y,z
1/2+x,1/2+y,z
1/2-x,1/2+y,-z
1/2-x,1/2-y,-z
1/2+x,1/2-y,z
loop_
_atom_site_type_symbol
_atom_site_label
_atom_site_fract_x
_atom_site_fract_y
_atom_site_fract_z
Si Si1 0.740262 0.551681 0.650529
Si Si2 0.319396 0.052108 0.132246
Si Si3 0.805369 0.605300 0.392247
Si Si4 0.955785 0.133770 0.819944
Si Si5 0.000000 0.395032 0.000000
Si Si6 0.680169 0.275995 0.119313
O O1 0.716040 0.500000 0.612590
O O2 0.418331 0.573240 0.592009
O O3 0.853329 0.553698 0.771000
O O4 0.971905 0.576815 0.628726
O O5 0.116875 0.082596 0.160562
O O6 0.199355 0.000000 0.110703
O O7 0.313861 0.072247 0.032918
O O8 0.614029 0.638583 0.296230
O O9 0.000000 0.631586 0.500000
O O10 0.766732 0.172609 0.836593
O O11 0.297896 0.138960 0.905984
O O12 0.494835 0.247421 0.159744
O O13 0.500000 0.278885 0.000000
#
# Coordination Sequence:
#
# PCOD8107893 Si02
#       6
#     8   8   8   8   4   8
#     4  10  21  38  58  85 118 159 213 266 310 353
#     4  10  22  37  56  86 127 169 209 250 299 370
#     4  11  23  40  61  85 117 161 208 258 311 364
#     4  11  25  40  61  90 126 162 210 254 316 366
#     4  12  21  36  60  84 126 168 204 254 299 374
#     4  10  23  40  66  95 127 158 200 253 316 377
#
# _framework density 21.640962999999999
#
# number of rings (size 3 to 8) (size 9 to 14) (size 15 to 20)
#    0.000    1.455    1.818    3.000    6.364    5.091 
#    0.000    0.000    0.000    1.091    0.000    0.000 
#    0.000    0.000    0.000    0.000    0.000    0.000 
#
# Total GULP energy -272714.533172 kJ/mol
# GULP energy per Si atom -12396.115144 kJ/mol
# Density = 2.159171 g / cm^3
# Si number density = 21.640963 Si / 1000 Ang^3
#
#
#
# Elastic Constant Matrix: (Units=GPa)
#
#
# Indices 1 2 3 4 5 6 
#
# 1 99.5974 19.8771 24.3983 0.0000 -6.1089 0.0000
# 2 19.8771 79.1262 28.8969 0.0000 -4.4402 0.0000
# 3 24.3983 28.8969 187.3885 0.0000 -3.2898 0.0000
# 4 0.0000 0.0000 0.0000 10.2911 0.0000 -4.3462
# 5 -6.1089 -4.4402 -3.2898 0.0000 41.7756 0.0000
# 6 0.0000 0.0000 0.0000 -4.3462 0.0000 23.4490
#
#
#
# Elastic Compliance Matrix: (Units=1/GPa)
#
#
# Indices 1 2 3 4 5 6 
#
# 1 0.010825 -0.002270 -0.001037 0.000000 0.001260 0.000000
# 2 -0.002270 0.013935 -0.001836 0.000000 0.001005 0.000000
# 3 -0.001037 -0.001836 0.005757 0.000000 0.000107 0.000000
# 4 0.000000 0.000000 0.000000 0.105423 0.000000 0.019540
# 5 0.001260 0.001005 0.000107 0.000000 0.024237 0.000000
# 6 0.000000 0.000000 0.000000 0.019540 0.000000 0.046268
#
#
# Mechanical properties :
#
#
# Convention : Reuss Voigt Hill
#
# Bulk Modulus (GPa) = 49.42956 56.93963 53.18460
# Shear Modulus (GPa) = 22.37406 34.63245 28.50325
#
# Velocity S-wave (km/s) = 3.21888 4.00474 3.63312
# Velocity P-wave (km/s) = 6.05849 6.91029 6.49836
#
# Compressibility (1/GPa) = 0.02023081
#
# Stress axis : x y z
#
# Youngs Moduli (GPa) = 92.38051 71.76170 173.71613
#
# Poissons Ratio (x) = 0.16288 0.18019
# Poissons Ratio (y) = 0.20968 0.31890
# Poissons Ratio (z) = 0.09582 0.13174
#
# Static dielectric constant tensor:
#      x y z
#    x 3.821170 0.000000 0.149410 
#    y 0.000000 3.617520 0.000000 
#    z 0.149410 0.000000 4.511450 
# 
# 
# High freq. dielectric constant tensor:
#      x y z
#    x 1.852300 0.000000 0.004980 
#    y 0.000000 1.809370 0.000000 
#    z 0.004980 0.000000 1.855830 
# 
# From -- ./inp_files/192481.got.cif
#   From: 2010.06.25/outbox.cif.g09.slc.cpg/sg12_97_cif.got.tgz:192481.got - 2010.06.28 00:19:55.
